MODEL 1
REMARK VINA RESULT:     -11.4      0.000      0.000
REMARK SMILES CC[C@@H](C)N(C)S(=O)(=O)c1cc(C(=O)NCCCNC(=O)c2ccc(-c3c4nc(c(-c5c(F)cccc5F)c5ccc([nH]5)c(-c5c(F)cccc5F)c5nc(c(-c6c(F)cccc6F)c6ccc3[nH]6)C=C5)C=C4)cc2)ccc1Br
REMARK SMILES IDX 16 1 15 2 13 3 14 4 12 6 10 7 11 8 78 9 77 10 79 11 76 12
REMARK SMILES IDX 7 13 8 14 9 15 5 16 6 17 3 18 4 19 2 20 1 21 17 22 18 23
REMARK SMILES IDX 19 24 20 25 21 27 22 28 23 29 75 30 24 31 74 32 25 33 26 34
REMARK SMILES IDX 27 35 68 36 28 37 73 38 67 39 69 40 29 41 72 42 66 43 65 44
REMARK SMILES IDX 30 46 56 47 39 48 55 49 40 50 43 51 54 52 70 53 41 54 42 55
REMARK SMILES IDX 53 57 71 58 44 59 31 60 32 61 37 62 33 63 34 64 36 65 38 66
REMARK SMILES IDX 35 67 57 68 58 69 63 70 59 71 60 72 62 73 64 74 61 75 45 76
REMARK SMILES IDX 46 77 51 78 47 79 48 80 50 81 52 82 49 83
REMARK H PARENT 15 5 19 26 69 45 43 56
REMARK Flexibility Score: inf
ROOT
ATOM      1  C   UNL A   1      36.032  20.600  24.984  1.00  0.00     0.118 C 
ENDROOT
BRANCH   1   2
ATOM      2  N   UNL A   1      35.111  19.479  25.040  1.00  0.00    -0.352 N 
ATOM      3  C   UNL A   1      33.769  19.381  24.799  1.00  0.00     0.251 C 
ATOM      4  O   UNL A   1      33.252  18.265  24.868  1.00  0.00    -0.269 OA
ATOM      5  H   UNL A   1      35.533  18.630  25.300  1.00  0.00     0.163 HD
BRANCH   3   6
ATOM      6  C   UNL A   1      32.907  20.535  24.438  1.00  0.00     0.041 A 
ATOM      7  C   UNL A   1      31.956  22.659  25.235  1.00  0.00     0.097 A 
ATOM      8  C   UNL A   1      32.609  21.433  25.471  1.00  0.00     0.036 A 
ATOM      9  C   UNL A   1      31.474  22.925  23.952  1.00  0.00     0.038 A 
ATOM     10  C   UNL A   1      31.738  22.005  22.919  1.00  0.00     0.018 A 
ATOM     11  Br  UNL A   1      30.456  24.432  23.418  1.00  0.00    -0.049 Br
ATOM     12  C   UNL A   1      32.481  20.841  23.150  1.00  0.00     0.015 A 
BRANCH   7  13
ATOM     13  S   UNL A   1      31.762  23.724  26.658  1.00  0.00     0.244 S 
ATOM     14  O   UNL A   1      32.314  22.996  27.787  1.00  0.00    -0.207 OA
ATOM     15  O   UNL A   1      30.411  24.217  26.717  1.00  0.00    -0.207 OA
BRANCH  13  16
ATOM     16  N   UNL A   1      32.809  25.068  26.338  1.00  0.00    -0.198 NA
ATOM     17  C   UNL A   1      32.138  26.399  26.288  1.00  0.00     0.124 C 
BRANCH  16  18
ATOM     18  C   UNL A   1      33.788  24.918  25.192  1.00  0.00     0.069 C 
ATOM     19  C   UNL A   1      35.139  24.371  25.645  1.00  0.00     0.026 C 
BRANCH  18  20
ATOM     20  C   UNL A   1      33.873  26.217  24.376  1.00  0.00     0.016 C 
ATOM     21  C   UNL A   1      33.771  25.981  22.873  1.00  0.00     0.005 C 
ENDBRANCH  18  20
ENDBRANCH  16  18
ENDBRANCH  13  16
ENDBRANCH   7  13
ENDBRANCH   3   6
ENDBRANCH   1   2
BRANCH   1  22
ATOM     22  C   UNL A   1      37.438  20.140  24.604  1.00  0.00     0.042 C 
BRANCH  22  23
ATOM     23  C   UNL A   1      38.503  20.508  25.636  1.00  0.00     0.118 C 
BRANCH  23  24
ATOM     24  N   UNL A   1      39.562  19.511  25.712  1.00  0.00    -0.352 N 
ATOM     25  C   UNL A   1      40.890  19.660  26.027  1.00  0.00     0.251 C 
ATOM     26  H   UNL A   1      39.283  18.590  25.506  1.00  0.00     0.163 HD
ATOM     27  O   UNL A   1      41.671  18.735  25.821  1.00  0.00    -0.269 OA
BRANCH  25  28
ATOM     28  C   UNL A   1      41.391  20.928  26.601  1.00  0.00     0.039 A 
ATOM     29  C   UNL A   1      41.940  21.887  25.744  1.00  0.00     0.014 A 
ATOM     30  C   UNL A   1      41.359  21.157  27.979  1.00  0.00     0.014 A 
ATOM     31  C   UNL A   1      42.395  23.103  26.259  1.00  0.00     0.010 A 
ATOM     32  C   UNL A   1      41.758  22.393  28.485  1.00  0.00     0.010 A 
ATOM     33  C   UNL A   1      42.275  23.378  27.631  1.00  0.00    -0.014 A 
BRANCH  33  34
ATOM     34  C   UNL A   1      42.670  24.692  28.194  1.00  0.00     0.031 A 
ATOM     35  C   UNL A   1      41.641  25.765  28.409  1.00  0.00     0.074 A 
ATOM     36  C   UNL A   1      43.970  24.945  28.441  1.00  0.00     0.049 A 
ATOM     37  N   UNL A   1      41.807  27.008  28.783  1.00  0.00    -0.248 NA
ATOM     38  C   UNL A   1      40.241  25.397  28.146  1.00  0.00     0.031 C 
ATOM     39  C   UNL A   1      45.068  23.996  28.251  1.00  0.00     0.029 A 
ATOM     40  N   UNL A   1      44.589  26.084  28.890  1.00  0.00    -0.354 N 
ATOM     41  C   UNL A   1      40.538  27.574  28.786  1.00  0.00     0.074 A 
ATOM     42  C   UNL A   1      39.619  26.552  28.334  1.00  0.00     0.031 C 
ATOM     43  C   UNL A   1      46.223  24.586  28.598  1.00  0.00     0.029 A 
ATOM     44  C   UNL A   1      45.953  25.964  28.994  1.00  0.00     0.049 A 
ATOM     45  H   UNL A   1      44.101  26.909  29.117  1.00  0.00     0.167 HD
ATOM     46  C   UNL A   1      40.172  28.828  29.147  1.00  0.00     0.037 A 
ATOM     47  C   UNL A   1      46.883  26.867  29.356  1.00  0.00     0.037 A 
ATOM     48  C   UNL A   1      41.086  29.838  29.613  1.00  0.00     0.049 A 
ATOM     49  C   UNL A   1      46.456  28.261  29.719  1.00  0.00     0.074 A 
ATOM     50  C   UNL A   1      40.804  31.120  30.051  1.00  0.00     0.029 A 
ATOM     51  N   UNL A   1      42.460  29.679  29.699  1.00  0.00    -0.354 N 
ATOM     52  N   UNL A   1      45.248  28.770  29.757  1.00  0.00    -0.248 NA
ATOM     53  C   UNL A   1      47.520  29.206  30.083  1.00  0.00     0.031 C 
ATOM     54  C   UNL A   1      42.014  31.750  30.367  1.00  0.00     0.029 A 
ATOM     55  C   UNL A   1      43.044  30.846  30.163  1.00  0.00     0.049 A 
ATOM     56  H   UNL A   1      42.950  28.857  29.464  1.00  0.00     0.167 HD
ATOM     57  C   UNL A   1      45.405  30.085  30.174  1.00  0.00     0.074 A 
ATOM     58  C   UNL A   1      46.823  30.293  30.382  1.00  0.00     0.031 C 
ATOM     59  C   UNL A   1      44.458  31.035  30.368  1.00  0.00     0.037 A 
BRANCH  46  60
ATOM     60  C   UNL A   1      38.715  29.171  29.050  1.00  0.00     0.057 A 
ATOM     61  C   UNL A   1      37.860  29.078  30.156  1.00  0.00     0.134 A 
ATOM     62  C   UNL A   1      38.163  29.617  27.842  1.00  0.00     0.134 A 
ATOM     63  F   UNL A   1      38.325  28.645  31.339  1.00  0.00    -0.206 F 
ATOM     64  C   UNL A   1      36.502  29.386  30.058  1.00  0.00     0.040 A 
ATOM     65  C   UNL A   1      36.810  29.952  27.739  1.00  0.00     0.040 A 
ATOM     66  F   UNL A   1      38.926  29.735  26.746  1.00  0.00    -0.206 F 
ATOM     67  C   UNL A   1      35.975  29.829  28.847  1.00  0.00     0.006 A 
ENDBRANCH  46  60
BRANCH  47  68
ATOM     68  C   UNL A   1      48.312  26.475  29.412  1.00  0.00     0.057 A 
ATOM     69  C   UNL A   1      48.846  25.884  30.562  1.00  0.00     0.134 A 
ATOM     70  C   UNL A   1      49.172  26.669  28.325  1.00  0.00     0.134 A 
ATOM     71  F   UNL A   1      48.073  25.690  31.642  1.00  0.00    -0.206 F 
ATOM     72  C   UNL A   1      50.188  25.511  30.637  1.00  0.00     0.040 A 
ATOM     73  C   UNL A   1      50.512  26.282  28.377  1.00  0.00     0.040 A 
ATOM     74  F   UNL A   1      48.718  27.224  27.192  1.00  0.00    -0.206 F 
ATOM     75  C   UNL A   1      51.024  25.704  29.538  1.00  0.00     0.006 A 
ENDBRANCH  47  68
BRANCH  59  76
ATOM     76  C   UNL A   1      44.922  32.374  30.855  1.00  0.00     0.057 A 
ATOM     77  C   UNL A   1      45.066  32.652  32.219  1.00  0.00     0.134 A 
ATOM     78  C   UNL A   1      45.262  33.384  29.946  1.00  0.00     0.134 A 
ATOM     79  F   UNL A   1      44.741  31.732  33.139  1.00  0.00    -0.206 F 
ATOM     80  C   UNL A   1      45.519  33.895  32.665  1.00  0.00     0.040 A 
ATOM     81  C   UNL A   1      45.737  34.623  30.378  1.00  0.00     0.040 A 
ATOM     82  F   UNL A   1      45.150  33.179  28.625  1.00  0.00    -0.206 F 
ATOM     83  C   UNL A   1      45.862  34.883  31.742  1.00  0.00     0.006 A 
ENDBRANCH  59  76
ENDBRANCH  33  34
ENDBRANCH  25  28
ENDBRANCH  23  24
ENDBRANCH  22  23
ENDBRANCH   1  22
TORSDOF 14
ENDMDL
MODEL 2
REMARK VINA RESULT:     -11.3      0.434      6.251
REMARK SMILES CC[C@@H](C)N(C)S(=O)(=O)c1cc(C(=O)NCCCNC(=O)c2ccc(-c3c4nc(c(-c5c(F)cccc5F)c5ccc([nH]5)c(-c5c(F)cccc5F)c5nc(c(-c6c(F)cccc6F)c6ccc3[nH]6)C=C5)C=C4)cc2)ccc1Br
REMARK SMILES IDX 16 1 15 2 13 3 14 4 12 6 10 7 11 8 78 9 77 10 79 11 76 12
REMARK SMILES IDX 7 13 8 14 9 15 5 16 6 17 3 18 4 19 2 20 1 21 17 22 18 23
REMARK SMILES IDX 19 24 20 25 21 27 22 28 23 29 75 30 24 31 74 32 25 33 26 34
REMARK SMILES IDX 27 35 68 36 28 37 73 38 67 39 69 40 29 41 72 42 66 43 65 44
REMARK SMILES IDX 30 46 56 47 39 48 55 49 40 50 43 51 54 52 70 53 41 54 42 55
REMARK SMILES IDX 53 57 71 58 44 59 31 60 32 61 37 62 33 63 34 64 36 65 38 66
REMARK SMILES IDX 35 67 57 68 58 69 63 70 59 71 60 72 62 73 64 74 61 75 45 76
REMARK SMILES IDX 46 77 51 78 47 79 48 80 50 81 52 82 49 83
REMARK H PARENT 15 5 19 26 69 45 43 56
REMARK Flexibility Score: inf
ROOT
ATOM      1  C   UNL A   1      36.079  20.230  24.948  1.00  0.00     0.118 C 
ENDROOT
BRANCH   1   2
ATOM      2  N   UNL A   1      35.123  19.139  25.005  1.00  0.00    -0.352 N 
ATOM      3  C   UNL A   1      33.772  19.090  24.801  1.00  0.00     0.251 C 
ATOM      4  O   UNL A   1      33.220  17.991  24.860  1.00  0.00    -0.269 OA
ATOM      5  H   UNL A   1      35.524  18.271  25.233  1.00  0.00     0.163 HD
BRANCH   3   6
ATOM      6  C   UNL A   1      32.939  20.280  24.492  1.00  0.00     0.041 A 
ATOM      7  C   UNL A   1      32.072  22.408  25.370  1.00  0.00     0.097 A 
ATOM      8  C   UNL A   1      32.691  21.157  25.557  1.00  0.00     0.036 A 
ATOM      9  C   UNL A   1      31.572  22.727  24.107  1.00  0.00     0.038 A 
ATOM     10  C   UNL A   1      31.786  21.830  23.043  1.00  0.00     0.018 A 
ATOM     11  Br  UNL A   1      30.591  24.280  23.639  1.00  0.00    -0.049 Br
ATOM     12  C   UNL A   1      32.497  20.637  23.223  1.00  0.00     0.015 A 
BRANCH   7  13
ATOM     13  S   UNL A   1      31.941  23.436  26.828  1.00  0.00     0.244 S 
ATOM     14  O   UNL A   1      32.583  22.700  27.903  1.00  0.00    -0.207 OA
ATOM     15  O   UNL A   1      30.583  23.889  26.984  1.00  0.00    -0.207 OA
BRANCH  13  16
ATOM     16  N   UNL A   1      32.928  24.816  26.474  1.00  0.00    -0.198 NA
ATOM     17  C   UNL A   1      32.199  26.115  26.392  1.00  0.00     0.124 C 
BRANCH  16  18
ATOM     18  C   UNL A   1      33.913  24.680  25.332  1.00  0.00     0.069 C 
ATOM     19  C   UNL A   1      35.278  24.175  25.793  1.00  0.00     0.026 C 
BRANCH  18  20
ATOM     20  C   UNL A   1      33.964  25.973  24.501  1.00  0.00     0.016 C 
ATOM     21  C   UNL A   1      33.827  25.721  23.004  1.00  0.00     0.005 C 
ENDBRANCH  18  20
ENDBRANCH  16  18
ENDBRANCH  13  16
ENDBRANCH   7  13
ENDBRANCH   3   6
ENDBRANCH   1   2
BRANCH   1  22
ATOM     22  C   UNL A   1      37.484  19.717  24.635  1.00  0.00     0.042 C 
BRANCH  22  23
ATOM     23  C   UNL A   1      38.551  20.226  25.603  1.00  0.00     0.118 C 
BRANCH  23  24
ATOM     24  N   UNL A   1      39.650  19.283  25.753  1.00  0.00    -0.352 N 
ATOM     25  C   UNL A   1      40.966  19.508  26.077  1.00  0.00     0.251 C 
ATOM     26  H   UNL A   1      39.415  18.340  25.599  1.00  0.00     0.163 HD
ATOM     27  O   UNL A   1      41.789  18.608  25.939  1.00  0.00    -0.269 OA
BRANCH  25  28
ATOM     28  C   UNL A   1      41.402  20.829  26.581  1.00  0.00     0.039 A 
ATOM     29  C   UNL A   1      41.957  21.745  25.682  1.00  0.00     0.014 A 
ATOM     30  C   UNL A   1      41.304  21.151  27.937  1.00  0.00     0.014 A 
ATOM     31  C   UNL A   1      42.351  23.008  26.129  1.00  0.00     0.010 A 
ATOM     32  C   UNL A   1      41.643  22.431  28.372  1.00  0.00     0.010 A 
ATOM     33  C   UNL A   1      42.165  23.372  27.472  1.00  0.00    -0.014 A 
BRANCH  33  34
ATOM     34  C   UNL A   1      42.495  24.735  27.957  1.00  0.00     0.031 A 
ATOM     35  C   UNL A   1      43.902  25.080  28.354  1.00  0.00     0.074 A 
ATOM     36  C   UNL A   1      41.510  25.640  28.114  1.00  0.00     0.049 A 
ATOM     37  N   UNL A   1      44.363  26.174  28.904  1.00  0.00    -0.248 NA
ATOM     38  C   UNL A   1      44.923  24.046  28.122  1.00  0.00     0.031 C 
ATOM     39  C   UNL A   1      40.099  25.421  27.789  1.00  0.00     0.029 A 
ATOM     40  N   UNL A   1      41.542  26.922  28.602  1.00  0.00    -0.354 N 
ATOM     41  C   UNL A   1      45.721  25.957  29.097  1.00  0.00     0.074 A 
ATOM     42  C   UNL A   1      46.001  24.610  28.646  1.00  0.00     0.031 C 
ATOM     43  C   UNL A   1      39.405  26.535  28.069  1.00  0.00     0.029 A 
ATOM     44  C   UNL A   1      40.312  27.531  28.632  1.00  0.00     0.049 A 
ATOM     45  H   UNL A   1      42.370  27.363  28.902  1.00  0.00     0.167 HD
ATOM     46  C   UNL A   1      46.652  26.808  29.592  1.00  0.00     0.037 A 
ATOM     47  C   UNL A   1      39.953  28.750  29.074  1.00  0.00     0.037 A 
ATOM     48  C   UNL A   1      46.375  28.153  30.023  1.00  0.00     0.049 A 
ATOM     49  C   UNL A   1      40.998  29.663  29.649  1.00  0.00     0.074 A 
ATOM     50  C   UNL A   1      47.259  29.109  30.490  1.00  0.00     0.029 A 
ATOM     51  N   UNL A   1      45.115  28.730  30.043  1.00  0.00    -0.354 N 
ATOM     52  N   UNL A   1      42.286  29.460  29.788  1.00  0.00    -0.248 NA
ATOM     53  C   UNL A   1      40.538  30.972  30.135  1.00  0.00     0.031 C 
ATOM     54  C   UNL A   1      46.528  30.254  30.827  1.00  0.00     0.029 A 
ATOM     55  C   UNL A   1      45.194  30.024  30.533  1.00  0.00     0.049 A 
ATOM     56  H   UNL A   1      44.285  28.287  29.751  1.00  0.00     0.167 HD
ATOM     57  C   UNL A   1      42.794  30.623  30.351  1.00  0.00     0.074 A 
ATOM     58  C   UNL A   1      41.677  31.529  30.523  1.00  0.00     0.031 C 
ATOM     59  C   UNL A   1      44.072  30.913  30.694  1.00  0.00     0.037 A 
BRANCH  46  60
ATOM     60  C   UNL A   1      48.061  26.301  29.689  1.00  0.00     0.057 A 
ATOM     61  C   UNL A   1      48.554  25.716  30.863  1.00  0.00     0.134 A 
ATOM     62  C   UNL A   1      48.929  26.382  28.593  1.00  0.00     0.134 A 
ATOM     63  F   UNL A   1      47.776  25.619  31.952  1.00  0.00    -0.206 F 
ATOM     64  C   UNL A   1      49.869  25.257  30.953  1.00  0.00     0.040 A 
ATOM     65  C   UNL A   1      50.240  25.904  28.664  1.00  0.00     0.040 A 
ATOM     66  F   UNL A   1      48.519  26.925  27.437  1.00  0.00    -0.206 F 
ATOM     67  C   UNL A   1      50.715  25.347  29.849  1.00  0.00     0.006 A 
ENDBRANCH  46  60
BRANCH  47  68
ATOM     68  C   UNL A   1      38.539  29.187  28.971  1.00  0.00     0.057 A 
ATOM     69  C   UNL A   1      37.685  29.111  30.077  1.00  0.00     0.134 A 
ATOM     70  C   UNL A   1      38.011  29.695  27.779  1.00  0.00     0.134 A 
ATOM     71  F   UNL A   1      38.133  28.615  31.241  1.00  0.00    -0.206 F 
ATOM     72  C   UNL A   1      36.352  29.513  30.000  1.00  0.00     0.040 A 
ATOM     73  C   UNL A   1      36.684  30.120  27.692  1.00  0.00     0.040 A 
ATOM     74  F   UNL A   1      38.781  29.799  26.686  1.00  0.00    -0.206 F 
ATOM     75  C   UNL A   1      35.849  30.026  28.805  1.00  0.00     0.006 A 
ENDBRANCH  47  68
BRANCH  59  76
ATOM     76  C   UNL A   1      44.335  32.275  31.263  1.00  0.00     0.057 A 
ATOM     77  C   UNL A   1      44.629  33.371  30.443  1.00  0.00     0.134 A 
ATOM     78  C   UNL A   1      44.257  32.498  32.644  1.00  0.00     0.134 A 
ATOM     79  F   UNL A   1      44.734  33.218  29.115  1.00  0.00    -0.206 F 
ATOM     80  C   UNL A   1      44.853  34.641  30.979  1.00  0.00     0.040 A 
ATOM     81  C   UNL A   1      44.456  33.767  33.189  1.00  0.00     0.040 A 
ATOM     82  F   UNL A   1      43.974  31.489  33.482  1.00  0.00    -0.206 F 
ATOM     83  C   UNL A   1      44.759  34.842  32.355  1.00  0.00     0.006 A 
ENDBRANCH  59  76
ENDBRANCH  33  34
ENDBRANCH  25  28
ENDBRANCH  23  24
ENDBRANCH  22  23
ENDBRANCH   1  22
TORSDOF 14
ENDMDL
MODEL 3
REMARK VINA RESULT:     -11.2      4.560      9.251
REMARK SMILES CC[C@@H](C)N(C)S(=O)(=O)c1cc(C(=O)NCCCNC(=O)c2ccc(-c3c4nc(c(-c5c(F)cccc5F)c5ccc([nH]5)c(-c5c(F)cccc5F)c5nc(c(-c6c(F)cccc6F)c6ccc3[nH]6)C=C5)C=C4)cc2)ccc1Br
REMARK SMILES IDX 16 1 15 2 13 3 14 4 12 6 10 7 11 8 78 9 77 10 79 11 76 12
REMARK SMILES IDX 7 13 8 14 9 15 5 16 6 17 3 18 4 19 2 20 1 21 17 22 18 23
REMARK SMILES IDX 19 24 20 25 21 27 22 28 23 29 75 30 24 31 74 32 25 33 26 34
REMARK SMILES IDX 27 35 68 36 28 37 73 38 67 39 69 40 29 41 72 42 66 43 65 44
REMARK SMILES IDX 30 46 56 47 39 48 55 49 40 50 43 51 54 52 70 53 41 54 42 55
REMARK SMILES IDX 53 57 71 58 44 59 31 60 32 61 37 62 33 63 34 64 36 65 38 66
REMARK SMILES IDX 35 67 57 68 58 69 63 70 59 71 60 72 62 73 64 74 61 75 45 76
REMARK SMILES IDX 46 77 51 78 47 79 48 80 50 81 52 82 49 83
REMARK H PARENT 15 5 19 26 69 45 43 56
REMARK Flexibility Score: inf
ROOT
ATOM      1  C   UNL A   1      31.465  30.195  25.408  1.00  0.00     0.118 C 
ENDROOT
BRANCH   1   2
ATOM      2  N   UNL A   1      30.596  30.499  24.287  1.00  0.00    -0.352 N 
ATOM      3  C   UNL A   1      29.968  29.704  23.369  1.00  0.00     0.251 C 
ATOM      4  O   UNL A   1      29.228  30.246  22.547  1.00  0.00    -0.269 OA
ATOM      5  H   UNL A   1      30.427  31.460  24.164  1.00  0.00     0.163 HD
BRANCH   3   6
ATOM      6  C   UNL A   1      30.110  28.226  23.321  1.00  0.00     0.041 A 
ATOM      7  C   UNL A   1      31.665  26.370  22.888  1.00  0.00     0.097 A 
ATOM      8  C   UNL A   1      31.325  27.735  22.824  1.00  0.00     0.036 A 
ATOM      9  C   UNL A   1      30.707  25.461  23.340  1.00  0.00     0.038 A 
ATOM     10  C   UNL A   1      29.470  25.948  23.803  1.00  0.00     0.018 A 
ATOM     11  Br  UNL A   1      30.878  23.574  23.394  1.00  0.00    -0.049 Br
ATOM     12  C   UNL A   1      29.188  27.319  23.832  1.00  0.00     0.015 A 
BRANCH   7  13
ATOM     13  S   UNL A   1      33.303  25.949  22.306  1.00  0.00     0.244 S 
ATOM     14  O   UNL A   1      33.902  27.191  21.849  1.00  0.00    -0.207 OA
ATOM     15  O   UNL A   1      33.228  24.821  21.416  1.00  0.00    -0.207 OA
BRANCH  13  16
ATOM     16  N   UNL A   1      34.153  25.451  23.733  1.00  0.00    -0.198 NA
ATOM     17  C   UNL A   1      34.708  24.067  23.691  1.00  0.00     0.124 C 
BRANCH  16  18
ATOM     18  C   UNL A   1      33.479  25.718  25.062  1.00  0.00     0.069 C 
ATOM     19  C   UNL A   1      33.914  27.043  25.682  1.00  0.00     0.026 C 
BRANCH  18  20
ATOM     20  C   UNL A   1      33.619  24.506  25.996  1.00  0.00     0.016 C 
ATOM     21  C   UNL A   1      32.327  24.176  26.736  1.00  0.00     0.005 C 
ENDBRANCH  18  20
ENDBRANCH  16  18
ENDBRANCH  13  16
ENDBRANCH   7  13
ENDBRANCH   3   6
ENDBRANCH   1   2
BRANCH   1  22
ATOM     22  C   UNL A   1      31.328  31.242  26.513  1.00  0.00     0.042 C 
BRANCH  22  23
ATOM     23  C   UNL A   1      32.647  31.921  26.879  1.00  0.00     0.118 C 
BRANCH  23  24
ATOM     24  N   UNL A   1      32.464  33.324  27.222  1.00  0.00    -0.352 N 
ATOM     25  C   UNL A   1      33.102  34.090  28.168  1.00  0.00     0.251 C 
ATOM     26  H   UNL A   1      31.779  33.797  26.696  1.00  0.00     0.163 HD
ATOM     27  O   UNL A   1      32.654  35.196  28.458  1.00  0.00    -0.269 OA
BRANCH  25  28
ATOM     28  C   UNL A   1      34.316  33.590  28.848  1.00  0.00     0.039 A 
ATOM     29  C   UNL A   1      34.173  32.690  29.909  1.00  0.00     0.014 A 
ATOM     30  C   UNL A   1      35.586  34.033  28.473  1.00  0.00     0.014 A 
ATOM     31  C   UNL A   1      35.306  32.183  30.550  1.00  0.00     0.010 A 
ATOM     32  C   UNL A   1      36.718  33.483  29.073  1.00  0.00     0.010 A 
ATOM     33  C   UNL A   1      36.588  32.550  30.113  1.00  0.00    -0.014 A 
BRANCH  33  34
ATOM     34  C   UNL A   1      37.810  31.963  30.717  1.00  0.00     0.031 A 
ATOM     35  C   UNL A   1      38.551  30.863  30.012  1.00  0.00     0.074 A 
ATOM     36  C   UNL A   1      38.208  32.369  31.938  1.00  0.00     0.049 A 
ATOM     37  N   UNL A   1      39.566  30.150  30.428  1.00  0.00    -0.248 NA
ATOM     38  C   UNL A   1      38.071  30.501  28.669  1.00  0.00     0.031 C 
ATOM     39  C   UNL A   1      37.560  33.411  32.736  1.00  0.00     0.029 A 
ATOM     40  N   UNL A   1      39.245  31.942  32.728  1.00  0.00    -0.354 N 
ATOM     41  C   UNL A   1      39.838  29.248  29.407  1.00  0.00     0.074 A 
ATOM     42  C   UNL A   1      38.852  29.474  28.371  1.00  0.00     0.031 C 
ATOM     43  C   UNL A   1      38.224  33.554  33.894  1.00  0.00     0.029 A 
ATOM     44  C   UNL A   1      39.317  32.588  33.938  1.00  0.00     0.049 A 
ATOM     45  H   UNL A   1      39.877  31.239  32.453  1.00  0.00     0.167 HD
ATOM     46  C   UNL A   1      40.827  28.325  29.334  1.00  0.00     0.037 A 
ATOM     47  C   UNL A   1      40.162  32.413  34.971  1.00  0.00     0.037 A 
ATOM     48  C   UNL A   1      41.818  28.115  30.358  1.00  0.00     0.049 A 
ATOM     49  C   UNL A   1      41.230  31.361  34.880  1.00  0.00     0.074 A 
ATOM     50  C   UNL A   1      42.891  27.240  30.354  1.00  0.00     0.029 A 
ATOM     51  N   UNL A   1      41.853  28.785  31.570  1.00  0.00    -0.354 N 
ATOM     52  N   UNL A   1      41.500  30.542  33.892  1.00  0.00    -0.248 NA
ATOM     53  C   UNL A   1      42.105  31.204  36.050  1.00  0.00     0.031 C 
ATOM     54  C   UNL A   1      43.554  27.357  31.581  1.00  0.00     0.029 A 
ATOM     55  C   UNL A   1      42.917  28.331  32.332  1.00  0.00     0.049 A 
ATOM     56  H   UNL A   1      41.216  29.482  31.850  1.00  0.00     0.167 HD
ATOM     57  C   UNL A   1      42.592  29.792  34.309  1.00  0.00     0.074 A 
ATOM     58  C   UNL A   1      42.937  30.257  35.637  1.00  0.00     0.031 C 
ATOM     59  C   UNL A   1      43.249  28.807  33.651  1.00  0.00     0.037 A 
BRANCH  46  60
ATOM     60  C   UNL A   1      40.883  27.475  28.099  1.00  0.00     0.057 A 
ATOM     61  C   UNL A   1      41.627  27.856  26.975  1.00  0.00     0.134 A 
ATOM     62  C   UNL A   1      40.200  26.254  28.039  1.00  0.00     0.134 A 
ATOM     63  F   UNL A   1      42.293  29.021  26.964  1.00  0.00    -0.206 F 
ATOM     64  C   UNL A   1      41.665  27.068  25.824  1.00  0.00     0.040 A 
ATOM     65  C   UNL A   1      40.251  25.445  26.901  1.00  0.00     0.040 A 
ATOM     66  F   UNL A   1      39.474  25.826  29.083  1.00  0.00    -0.206 F 
ATOM     67  C   UNL A   1      40.979  25.856  25.787  1.00  0.00     0.006 A 
ENDBRANCH  46  60
BRANCH  47  68
ATOM     68  C   UNL A   1      40.043  33.270  36.176  1.00  0.00     0.057 A 
ATOM     69  C   UNL A   1      40.777  34.457  36.282  1.00  0.00     0.134 A 
ATOM     70  C   UNL A   1      39.197  32.934  37.238  1.00  0.00     0.134 A 
ATOM     71  F   UNL A   1      41.618  34.820  35.302  1.00  0.00    -0.206 F 
ATOM     72  C   UNL A   1      40.682  35.276  37.408  1.00  0.00     0.040 A 
ATOM     73  C   UNL A   1      39.077  33.754  38.361  1.00  0.00     0.040 A 
ATOM     74  F   UNL A   1      38.463  31.813  37.192  1.00  0.00    -0.206 F 
ATOM     75  C   UNL A   1      39.824  34.927  38.450  1.00  0.00     0.006 A 
ENDBRANCH  47  68
BRANCH  59  76
ATOM     76  C   UNL A   1      44.424  28.187  34.344  1.00  0.00     0.057 A 
ATOM     77  C   UNL A   1      44.293  27.033  35.125  1.00  0.00     0.134 A 
ATOM     78  C   UNL A   1      45.707  28.732  34.198  1.00  0.00     0.134 A 
ATOM     79  F   UNL A   1      43.089  26.474  35.316  1.00  0.00    -0.206 F 
ATOM     80  C   UNL A   1      45.396  26.449  35.751  1.00  0.00     0.040 A 
ATOM     81  C   UNL A   1      46.819  28.144  34.800  1.00  0.00     0.040 A 
ATOM     82  F   UNL A   1      45.898  29.834  33.459  1.00  0.00    -0.206 F 
ATOM     83  C   UNL A   1      46.665  27.001  35.583  1.00  0.00     0.006 A 
ENDBRANCH  59  76
ENDBRANCH  33  34
ENDBRANCH  25  28
ENDBRANCH  23  24
ENDBRANCH  22  23
ENDBRANCH   1  22
TORSDOF 14
ENDMDL
