MODEL 1
REMARK VINA RESULT:     -11.3      0.000      0.000
REMARK SMILES C[NH2+][C@]1(C(=O)NCCCNC(=O)c2ccc(-c3c4nc(c(-c5c(F)cccc5F)c5ccc([nH]5)c(-c5c(F)cccc5F)c5nc(c(-c6c(F)cccc6F)c6ccc3[nH]6)C=C5)C=C4)cc2)CCC[C@@H](Sc2nccs2)C1
REMARK SMILES IDX 8 1 7 2 6 3 4 4 5 5 3 7 67 8 77 9 68 10 70 11 69 12 2 13
REMARK SMILES IDX 1 14 71 17 72 18 73 19 76 20 74 21 75 22 9 23 10 24 11 25
REMARK SMILES IDX 12 27 13 28 14 29 66 30 15 31 65 32 16 33 17 34 18 35 59 36
REMARK SMILES IDX 19 37 64 38 58 39 60 40 20 41 63 42 57 43 56 44 21 46 47 47
REMARK SMILES IDX 30 48 46 49 31 50 34 51 45 52 61 53 32 54 33 55 44 57 62 58
REMARK SMILES IDX 35 59 22 60 23 61 28 62 24 63 25 64 27 65 29 66 26 67 48 68
REMARK SMILES IDX 49 69 54 70 50 71 51 72 53 73 55 74 52 75 36 76 37 77 42 78
REMARK SMILES IDX 38 79 39 80 41 81 43 82 40 83
REMARK H PARENT 6 6 2 15 2 16 10 26 60 45 34 56
REMARK Flexibility Score: inf
ROOT
ATOM      1  C   UNL A   1      32.364  28.455  27.067  1.00  0.00     0.042 C 
ENDROOT
BRANCH   1   2
ATOM      2  C   UNL A   1      31.769  29.090  25.823  1.00  0.00     0.118 C 
BRANCH   2   3
ATOM      3  N   UNL A   1      32.706  29.174  24.720  1.00  0.00    -0.351 N 
ATOM      4  C   UNL A   1      32.665  28.622  23.474  1.00  0.00     0.281 C 
ATOM      5  O   UNL A   1      33.633  28.869  22.742  1.00  0.00    -0.268 OA
ATOM      6  H   UNL A   1      33.505  29.718  24.901  1.00  0.00     0.163 HD
BRANCH   4   7
ATOM      7  C   UNL A   1      31.521  27.633  23.005  1.00  0.00     0.176 C 
ATOM      8  C   UNL A   1      31.535  26.465  24.026  1.00  0.00     0.079 C 
ATOM      9  C   UNL A   1      30.165  28.385  22.870  1.00  0.00     0.094 C 
ATOM     10  C   UNL A   1      30.253  25.648  24.109  1.00  0.00     0.008 C 
ATOM     11  C   UNL A   1      28.911  27.536  23.126  1.00  0.00     0.061 C 
ATOM     12  C   UNL A   1      29.039  26.545  24.284  1.00  0.00     0.015 C 
BRANCH   7  13
ATOM     13  N   UNL A   1      31.920  27.220  21.626  1.00  0.00    -0.336 N 
ATOM     14  C   UNL A   1      32.575  25.946  21.431  1.00  0.00     0.331 C 
ATOM     15  H   UNL A   1      31.071  27.207  21.061  1.00  0.00     0.346 HD
ATOM     16  H   UNL A   1      32.634  27.901  21.367  1.00  0.00     0.346 HD
ENDBRANCH   7  13
BRANCH  11  17
ATOM     17  S   UNL A   1      27.402  28.577  23.264  1.00  0.00    -0.092 SA
BRANCH  17  18
ATOM     18  C   UNL A   1      27.875  30.083  22.508  1.00  0.00     0.150 A 
ATOM     19  N   UNL A   1      28.028  30.197  21.207  1.00  0.00    -0.238 NA
ATOM     20  S   UNL A   1      28.161  31.511  23.418  1.00  0.00    -0.116 S 
ATOM     21  C   UNL A   1      28.367  31.501  20.894  1.00  0.00     0.124 A 
ATOM     22  C   UNL A   1      28.510  32.354  21.967  1.00  0.00     0.087 A 
ENDBRANCH  17  18
ENDBRANCH  11  17
ENDBRANCH   4   7
ENDBRANCH   2   3
ENDBRANCH   1   2
BRANCH   1  23
ATOM     23  C   UNL A   1      33.788  28.888  27.366  1.00  0.00     0.118 C 
BRANCH  23  24
ATOM     24  N   UNL A   1      33.871  30.212  27.969  1.00  0.00    -0.352 N 
ATOM     25  C   UNL A   1      34.902  30.837  28.632  1.00  0.00     0.251 C 
ATOM     26  H   UNL A   1      33.052  30.751  27.888  1.00  0.00     0.163 HD
ATOM     27  O   UNL A   1      34.702  31.902  29.200  1.00  0.00    -0.269 OA
BRANCH  25  28
ATOM     28  C   UNL A   1      36.241  30.207  28.705  1.00  0.00     0.039 A 
ATOM     29  C   UNL A   1      37.048  30.209  27.563  1.00  0.00     0.014 A 
ATOM     30  C   UNL A   1      36.708  29.619  29.880  1.00  0.00     0.014 A 
ATOM     31  C   UNL A   1      38.350  29.710  27.631  1.00  0.00     0.010 A 
ATOM     32  C   UNL A   1      38.038  29.227  29.979  1.00  0.00     0.010 A 
ATOM     33  C   UNL A   1      38.876  29.265  28.855  1.00  0.00    -0.014 A 
BRANCH  33  34
ATOM     34  C   UNL A   1      40.294  28.836  28.984  1.00  0.00     0.031 A 
ATOM     35  C   UNL A   1      41.332  29.800  29.491  1.00  0.00     0.074 A 
ATOM     36  C   UNL A   1      40.658  27.604  28.575  1.00  0.00     0.049 A 
ATOM     37  N   UNL A   1      42.628  29.642  29.589  1.00  0.00    -0.248 NA
ATOM     38  C   UNL A   1      40.858  31.128  29.913  1.00  0.00     0.031 C 
ATOM     39  C   UNL A   1      39.759  26.594  28.015  1.00  0.00     0.029 A 
ATOM     40  N   UNL A   1      41.889  26.996  28.557  1.00  0.00    -0.354 N 
ATOM     41  C   UNL A   1      43.121  30.852  30.062  1.00  0.00     0.074 A 
ATOM     42  C   UNL A   1      41.996  31.753  30.175  1.00  0.00     0.031 C 
ATOM     43  C   UNL A   1      40.461  25.484  27.735  1.00  0.00     0.029 A 
ATOM     44  C   UNL A   1      41.866  25.718  28.052  1.00  0.00     0.049 A 
ATOM     45  H   UNL A   1      42.712  27.434  28.875  1.00  0.00     0.167 HD
ATOM     46  C   UNL A   1      44.392  31.177  30.398  1.00  0.00     0.037 A 
ATOM     47  C   UNL A   1      42.865  24.836  27.858  1.00  0.00     0.037 A 
ATOM     48  C   UNL A   1      45.506  30.269  30.316  1.00  0.00     0.049 A 
ATOM     49  C   UNL A   1      44.268  25.222  28.237  1.00  0.00     0.074 A 
ATOM     50  C   UNL A   1      46.820  30.483  30.693  1.00  0.00     0.029 A 
ATOM     51  N   UNL A   1      45.435  28.976  29.823  1.00  0.00    -0.354 N 
ATOM     52  N   UNL A   1      44.707  26.346  28.749  1.00  0.00    -0.248 NA
ATOM     53  C   UNL A   1      45.315  24.214  28.016  1.00  0.00     0.031 C 
ATOM     54  C   UNL A   1      47.554  29.334  30.384  1.00  0.00     0.029 A 
ATOM     55  C   UNL A   1      46.688  28.385  29.864  1.00  0.00     0.049 A 
ATOM     56  H   UNL A   1      44.617  28.541  29.491  1.00  0.00     0.167 HD
ATOM     57  C   UNL A   1      46.071  26.170  28.942  1.00  0.00     0.074 A 
ATOM     58  C   UNL A   1      46.384  24.826  28.504  1.00  0.00     0.031 C 
ATOM     59  C   UNL A   1      46.982  27.042  29.438  1.00  0.00     0.037 A 
BRANCH  46  60
ATOM     60  C   UNL A   1      44.645  32.570  30.897  1.00  0.00     0.057 A 
ATOM     61  C   UNL A   1      44.567  32.895  32.257  1.00  0.00     0.134 A 
ATOM     62  C   UNL A   1      45.013  33.591  30.011  1.00  0.00     0.134 A 
ATOM     63  F   UNL A   1      44.207  31.968  33.158  1.00  0.00    -0.206 F 
ATOM     64  C   UNL A   1      44.820  34.189  32.716  1.00  0.00     0.040 A 
ATOM     65  C   UNL A   1      45.297  34.882  30.460  1.00  0.00     0.040 A 
ATOM     66  F   UNL A   1      45.114  33.348  28.695  1.00  0.00    -0.206 F 
ATOM     67  C   UNL A   1      45.194  35.185  31.816  1.00  0.00     0.006 A 
ENDBRANCH  46  60
BRANCH  47  68
ATOM     68  C   UNL A   1      42.577  23.492  27.294  1.00  0.00     0.057 A 
ATOM     69  C   UNL A   1      42.247  22.415  28.126  1.00  0.00     0.134 A 
ATOM     70  C   UNL A   1      42.645  23.243  25.917  1.00  0.00     0.134 A 
ATOM     71  F   UNL A   1      42.183  22.585  29.455  1.00  0.00    -0.206 F 
ATOM     72  C   UNL A   1      42.021  21.136  27.615  1.00  0.00     0.040 A 
ATOM     73  C   UNL A   1      42.393  21.976  25.390  1.00  0.00     0.040 A 
ATOM     74  F   UNL A   1      42.946  24.233  25.065  1.00  0.00    -0.206 F 
ATOM     75  C   UNL A   1      42.089  20.915  26.241  1.00  0.00     0.006 A 
ENDBRANCH  47  68
BRANCH  59  76
ATOM     76  C   UNL A   1      48.395  26.557  29.577  1.00  0.00     0.057 A 
ATOM     77  C   UNL A   1      49.350  26.754  28.572  1.00  0.00     0.134 A 
ATOM     78  C   UNL A   1      48.815  25.922  30.753  1.00  0.00     0.134 A 
ATOM     79  F   UNL A   1      49.009  27.345  27.416  1.00  0.00    -0.206 F 
ATOM     80  C   UNL A   1      50.666  26.314  28.721  1.00  0.00     0.040 A 
ATOM     81  C   UNL A   1      50.135  25.504  30.925  1.00  0.00     0.040 A 
ATOM     82  F   UNL A   1      47.954  25.710  31.759  1.00  0.00    -0.206 F 
ATOM     83  C   UNL A   1      51.063  25.694  29.905  1.00  0.00     0.006 A 
ENDBRANCH  59  76
ENDBRANCH  33  34
ENDBRANCH  25  28
ENDBRANCH  23  24
ENDBRANCH   1  23
TORSDOF 13
ENDMDL
MODEL 2
REMARK VINA RESULT:     -11.2      4.085      5.781
REMARK SMILES C[NH2+][C@]1(C(=O)NCCCNC(=O)c2ccc(-c3c4nc(c(-c5c(F)cccc5F)c5ccc([nH]5)c(-c5c(F)cccc5F)c5nc(c(-c6c(F)cccc6F)c6ccc3[nH]6)C=C5)C=C4)cc2)CCC[C@@H](Sc2nccs2)C1
REMARK SMILES IDX 8 1 7 2 6 3 4 4 5 5 3 7 67 8 77 9 68 10 70 11 69 12 2 13
REMARK SMILES IDX 1 14 71 17 72 18 73 19 76 20 74 21 75 22 9 23 10 24 11 25
REMARK SMILES IDX 12 27 13 28 14 29 66 30 15 31 65 32 16 33 17 34 18 35 59 36
REMARK SMILES IDX 19 37 64 38 58 39 60 40 20 41 63 42 57 43 56 44 21 46 47 47
REMARK SMILES IDX 30 48 46 49 31 50 34 51 45 52 61 53 32 54 33 55 44 57 62 58
REMARK SMILES IDX 35 59 22 60 23 61 28 62 24 63 25 64 27 65 29 66 26 67 48 68
REMARK SMILES IDX 49 69 54 70 50 71 51 72 53 73 55 74 52 75 36 76 37 77 42 78
REMARK SMILES IDX 38 79 39 80 41 81 43 82 40 83
REMARK H PARENT 6 6 2 15 2 16 10 26 60 45 34 56
REMARK Flexibility Score: inf
ROOT
ATOM      1  C   UNL A   1      30.904  31.807  25.706  1.00  0.00     0.042 C 
ENDROOT
BRANCH   1   2
ATOM      2  C   UNL A   1      30.898  30.400  25.135  1.00  0.00     0.118 C 
BRANCH   2   3
ATOM      3  N   UNL A   1      30.313  30.323  23.810  1.00  0.00    -0.351 N 
ATOM      4  C   UNL A   1      30.494  29.415  22.810  1.00  0.00     0.281 C 
ATOM      5  O   UNL A   1      29.852  29.623  21.770  1.00  0.00    -0.268 OA
ATOM      6  H   UNL A   1      29.682  31.048  23.597  1.00  0.00     0.163 HD
BRANCH   4   7
ATOM      7  C   UNL A   1      31.536  28.227  22.901  1.00  0.00     0.176 C 
ATOM      8  C   UNL A   1      32.930  28.878  22.702  1.00  0.00     0.079 C 
ATOM      9  C   UNL A   1      31.352  27.434  24.228  1.00  0.00     0.094 C 
ATOM     10  C   UNL A   1      34.113  28.073  23.224  1.00  0.00     0.008 C 
ATOM     11  C   UNL A   1      32.623  26.780  24.787  1.00  0.00     0.061 C 
ATOM     12  C   UNL A   1      33.887  27.632  24.661  1.00  0.00     0.015 C 
BRANCH   7  13
ATOM     13  N   UNL A   1      31.151  27.301  21.793  1.00  0.00    -0.336 N 
ATOM     14  C   UNL A   1      31.632  25.938  21.812  1.00  0.00     0.331 C 
ATOM     15  H   UNL A   1      30.132  27.257  21.782  1.00  0.00     0.346 HD
ATOM     16  H   UNL A   1      31.602  27.705  20.973  1.00  0.00     0.346 HD
ENDBRANCH   7  13
BRANCH  11  17
ATOM     17  S   UNL A   1      32.371  26.158  26.498  1.00  0.00    -0.092 SA
BRANCH  17  18
ATOM     18  C   UNL A   1      31.711  24.555  26.256  1.00  0.00     0.150 A 
ATOM     19  N   UNL A   1      30.783  24.053  27.041  1.00  0.00    -0.238 NA
ATOM     20  S   UNL A   1      32.227  23.539  24.971  1.00  0.00    -0.116 S 
ATOM     21  C   UNL A   1      30.428  22.794  26.590  1.00  0.00     0.124 A 
ATOM     22  C   UNL A   1      31.124  22.336  25.493  1.00  0.00     0.087 A 
ENDBRANCH  17  18
ENDBRANCH  11  17
ENDBRANCH   4   7
ENDBRANCH   2   3
ENDBRANCH   1   2
BRANCH   1  23
ATOM     23  C   UNL A   1      31.882  32.010  26.849  1.00  0.00     0.118 C 
BRANCH  23  24
ATOM     24  N   UNL A   1      32.051  33.410  27.218  1.00  0.00    -0.352 N 
ATOM     25  C   UNL A   1      33.028  34.034  27.960  1.00  0.00     0.251 C 
ATOM     26  H   UNL A   1      31.349  34.010  26.880  1.00  0.00     0.163 HD
ATOM     27  O   UNL A   1      32.889  35.206  28.283  1.00  0.00    -0.269 OA
BRANCH  25  28
ATOM     28  C   UNL A   1      34.223  33.285  28.412  1.00  0.00     0.039 A 
ATOM     29  C   UNL A   1      35.428  33.976  28.573  1.00  0.00     0.014 A 
ATOM     30  C   UNL A   1      34.170  31.917  28.680  1.00  0.00     0.014 A 
ATOM     31  C   UNL A   1      36.544  33.316  29.092  1.00  0.00     0.010 A 
ATOM     32  C   UNL A   1      35.244  31.289  29.301  1.00  0.00     0.010 A 
ATOM     33  C   UNL A   1      36.445  31.980  29.512  1.00  0.00    -0.014 A 
BRANCH  33  34
ATOM     34  C   UNL A   1      37.582  31.285  30.172  1.00  0.00     0.031 A 
ATOM     35  C   UNL A   1      37.911  31.573  31.613  1.00  0.00     0.074 A 
ATOM     36  C   UNL A   1      38.364  30.452  29.455  1.00  0.00     0.049 A 
ATOM     37  N   UNL A   1      38.912  31.138  32.335  1.00  0.00    -0.248 NA
ATOM     38  C   UNL A   1      37.015  32.497  32.326  1.00  0.00     0.031 C 
ATOM     39  C   UNL A   1      38.186  30.130  28.038  1.00  0.00     0.029 A 
ATOM     40  N   UNL A   1      39.474  29.733  29.820  1.00  0.00    -0.354 N 
ATOM     41  C   UNL A   1      38.777  31.750  33.575  1.00  0.00     0.074 A 
ATOM     42  C   UNL A   1      37.633  32.630  33.491  1.00  0.00     0.031 C 
ATOM     43  C   UNL A   1      39.134  29.257  27.662  1.00  0.00     0.029 A 
ATOM     44  C   UNL A   1      40.014  28.993  28.795  1.00  0.00     0.049 A 
ATOM     45  H   UNL A   1      39.850  29.746  30.730  1.00  0.00     0.167 HD
ATOM     46  C   UNL A   1      39.520  31.574  34.693  1.00  0.00     0.037 A 
ATOM     47  C   UNL A   1      41.100  28.197  28.769  1.00  0.00     0.037 A 
ATOM     48  C   UNL A   1      40.638  30.673  34.785  1.00  0.00     0.049 A 
ATOM     49  C   UNL A   1      41.911  28.021  30.023  1.00  0.00     0.074 A 
ATOM     50  C   UNL A   1      41.416  30.376  35.891  1.00  0.00     0.029 A 
ATOM     51  N   UNL A   1      41.137  29.923  33.731  1.00  0.00    -0.354 N 
ATOM     52  N   UNL A   1      41.728  28.552  31.208  1.00  0.00    -0.248 NA
ATOM     53  C   UNL A   1      43.077  27.129  29.939  1.00  0.00     0.031 C 
ATOM     54  C   UNL A   1      42.415  29.482  35.494  1.00  0.00     0.029 A 
ATOM     55  C   UNL A   1      42.227  29.180  34.155  1.00  0.00     0.049 A 
ATOM     56  H   UNL A   1      40.771  29.919  32.818  1.00  0.00     0.167 HD
ATOM     57  C   UNL A   1      42.733  28.036  32.016  1.00  0.00     0.074 A 
ATOM     58  C   UNL A   1      43.514  27.139  31.190  1.00  0.00     0.031 C 
ATOM     59  C   UNL A   1      42.986  28.281  33.325  1.00  0.00     0.037 A 
BRANCH  46  60
ATOM     60  C   UNL A   1      39.142  32.365  35.911  1.00  0.00     0.057 A 
ATOM     61  C   UNL A   1      39.629  33.660  36.133  1.00  0.00     0.134 A 
ATOM     62  C   UNL A   1      38.247  31.843  36.855  1.00  0.00     0.134 A 
ATOM     63  F   UNL A   1      40.499  34.215  35.276  1.00  0.00    -0.206 F 
ATOM     64  C   UNL A   1      39.260  34.398  37.260  1.00  0.00     0.040 A 
ATOM     65  C   UNL A   1      37.848  32.581  37.970  1.00  0.00     0.040 A 
ATOM     66  F   UNL A   1      37.738  30.611  36.701  1.00  0.00    -0.206 F 
ATOM     67  C   UNL A   1      38.360  33.860  38.178  1.00  0.00     0.006 A 
ENDBRANCH  46  60
BRANCH  47  68
ATOM     68  C   UNL A   1      41.478  27.488  27.519  1.00  0.00     0.057 A 
ATOM     69  C   UNL A   1      41.073  26.168  27.286  1.00  0.00     0.134 A 
ATOM     70  C   UNL A   1      42.269  28.100  26.538  1.00  0.00     0.134 A 
ATOM     71  F   UNL A   1      40.329  25.521  28.196  1.00  0.00    -0.206 F 
ATOM     72  C   UNL A   1      41.459  25.474  26.139  1.00  0.00     0.040 A 
ATOM     73  C   UNL A   1      42.639  27.428  25.373  1.00  0.00     0.040 A 
ATOM     74  F   UNL A   1      42.682  29.366  26.695  1.00  0.00    -0.206 F 
ATOM     75  C   UNL A   1      42.243  26.106  25.175  1.00  0.00     0.006 A 
ENDBRANCH  47  68
BRANCH  59  76
ATOM     76  C   UNL A   1      44.125  27.537  33.958  1.00  0.00     0.057 A 
ATOM     77  C   UNL A   1      43.957  26.271  34.532  1.00  0.00     0.134 A 
ATOM     78  C   UNL A   1      45.417  28.080  33.953  1.00  0.00     0.134 A 
ATOM     79  F   UNL A   1      42.743  25.702  34.580  1.00  0.00    -0.206 F 
ATOM     80  C   UNL A   1      45.029  25.582  35.102  1.00  0.00     0.040 A 
ATOM     81  C   UNL A   1      46.501  27.387  34.493  1.00  0.00     0.040 A 
ATOM     82  F   UNL A   1      45.649  29.284  33.410  1.00  0.00    -0.206 F 
ATOM     83  C   UNL A   1      46.307  26.137  35.075  1.00  0.00     0.006 A 
ENDBRANCH  59  76
ENDBRANCH  33  34
ENDBRANCH  25  28
ENDBRANCH  23  24
ENDBRANCH   1  23
TORSDOF 13
ENDMDL
MODEL 3
REMARK VINA RESULT:     -11.2      4.287      8.158
REMARK SMILES C[NH2+][C@]1(C(=O)NCCCNC(=O)c2ccc(-c3c4nc(c(-c5c(F)cccc5F)c5ccc([nH]5)c(-c5c(F)cccc5F)c5nc(c(-c6c(F)cccc6F)c6ccc3[nH]6)C=C5)C=C4)cc2)CCC[C@@H](Sc2nccs2)C1
REMARK SMILES IDX 8 1 7 2 6 3 4 4 5 5 3 7 67 8 77 9 68 10 70 11 69 12 2 13
REMARK SMILES IDX 1 14 71 17 72 18 73 19 76 20 74 21 75 22 9 23 10 24 11 25
REMARK SMILES IDX 12 27 13 28 14 29 66 30 15 31 65 32 16 33 17 34 18 35 59 36
REMARK SMILES IDX 19 37 64 38 58 39 60 40 20 41 63 42 57 43 56 44 21 46 47 47
REMARK SMILES IDX 30 48 46 49 31 50 34 51 45 52 61 53 32 54 33 55 44 57 62 58
REMARK SMILES IDX 35 59 22 60 23 61 28 62 24 63 25 64 27 65 29 66 26 67 48 68
REMARK SMILES IDX 49 69 54 70 50 71 51 72 53 73 55 74 52 75 36 76 37 77 42 78
REMARK SMILES IDX 38 79 39 80 41 81 43 82 40 83
REMARK H PARENT 6 6 2 15 2 16 10 26 60 45 34 56
REMARK Flexibility Score: inf
ROOT
ATOM      1  C   UNL A   1      31.398  32.031  26.886  1.00  0.00     0.042 C 
ENDROOT
BRANCH   1   2
ATOM      2  C   UNL A   1      31.609  30.920  25.873  1.00  0.00     0.118 C 
BRANCH   2   3
ATOM      3  N   UNL A   1      32.599  29.946  26.291  1.00  0.00    -0.351 N 
ATOM      4  C   UNL A   1      33.121  28.872  25.635  1.00  0.00     0.281 C 
ATOM      5  O   UNL A   1      33.957  28.209  26.266  1.00  0.00    -0.268 OA
ATOM      6  H   UNL A   1      32.951  30.083  27.200  1.00  0.00     0.163 HD
BRANCH   4   7
ATOM      7  C   UNL A   1      32.627  28.410  24.204  1.00  0.00     0.176 C 
ATOM      8  C   UNL A   1      32.941  26.893  24.124  1.00  0.00     0.079 C 
ATOM      9  C   UNL A   1      31.135  28.795  23.986  1.00  0.00     0.094 C 
ATOM     10  C   UNL A   1      32.143  26.109  23.090  1.00  0.00     0.008 C 
ATOM     11  C   UNL A   1      30.342  27.867  23.056  1.00  0.00     0.061 C 
ATOM     12  C   UNL A   1      30.653  26.379  23.224  1.00  0.00     0.015 C 
BRANCH   7  13
ATOM     13  N   UNL A   1      33.424  29.232  23.245  1.00  0.00    -0.336 N 
ATOM     14  C   UNL A   1      34.377  28.578  22.376  1.00  0.00     0.331 C 
ATOM     15  H   UNL A   1      32.759  29.719  22.645  1.00  0.00     0.346 HD
ATOM     16  H   UNL A   1      34.007  29.811  23.850  1.00  0.00     0.346 HD
ENDBRANCH   7  13
BRANCH  11  17
ATOM     17  S   UNL A   1      28.538  28.212  23.126  1.00  0.00    -0.092 SA
BRANCH  17  18
ATOM     18  C   UNL A   1      28.409  29.836  22.486  1.00  0.00     0.150 A 
ATOM     19  N   UNL A   1      28.474  30.089  21.197  1.00  0.00    -0.238 NA
ATOM     20  S   UNL A   1      28.179  31.202  23.501  1.00  0.00    -0.116 S 
ATOM     21  C   UNL A   1      28.305  31.445  20.983  1.00  0.00     0.124 A 
ATOM     22  C   UNL A   1      28.157  32.213  22.117  1.00  0.00     0.087 A 
ENDBRANCH  17  18
ENDBRANCH  11  17
ENDBRANCH   4   7
ENDBRANCH   2   3
ENDBRANCH   1   2
BRANCH   1  23
ATOM     23  C   UNL A   1      32.662  32.789  27.251  1.00  0.00     0.118 C 
BRANCH  23  24
ATOM     24  N   UNL A   1      32.413  34.177  27.619  1.00  0.00    -0.352 N 
ATOM     25  C   UNL A   1      33.004  34.976  28.571  1.00  0.00     0.251 C 
ATOM     26  H   UNL A   1      31.703  34.618  27.099  1.00  0.00     0.163 HD
ATOM     27  O   UNL A   1      32.528  36.076  28.821  1.00  0.00    -0.269 OA
BRANCH  25  28
ATOM     28  C   UNL A   1      34.182  34.496  29.330  1.00  0.00     0.039 A 
ATOM     29  C   UNL A   1      33.982  33.927  30.591  1.00  0.00     0.014 A 
ATOM     30  C   UNL A   1      35.474  34.598  28.814  1.00  0.00     0.014 A 
ATOM     31  C   UNL A   1      35.063  33.378  31.285  1.00  0.00     0.010 A 
ATOM     32  C   UNL A   1      36.528  33.952  29.451  1.00  0.00     0.010 A 
ATOM     33  C   UNL A   1      36.337  33.336  30.696  1.00  0.00    -0.014 A 
BRANCH  33  34
ATOM     34  C   UNL A   1      37.480  32.657  31.360  1.00  0.00     0.031 A 
ATOM     35  C   UNL A   1      38.175  31.508  30.681  1.00  0.00     0.074 A 
ATOM     36  C   UNL A   1      37.845  33.027  32.604  1.00  0.00     0.049 A 
ATOM     37  N   UNL A   1      39.128  30.734  31.135  1.00  0.00    -0.248 NA
ATOM     38  C   UNL A   1      37.716  31.160  29.327  1.00  0.00     0.031 C 
ATOM     39  C   UNL A   1      37.219  34.090  33.393  1.00  0.00     0.029 A 
ATOM     40  N   UNL A   1      38.828  32.539  33.430  1.00  0.00    -0.354 N 
ATOM     41  C   UNL A   1      39.366  29.800  30.134  1.00  0.00     0.074 A 
ATOM     42  C   UNL A   1      38.419  30.066  29.074  1.00  0.00     0.031 C 
ATOM     43  C   UNL A   1      37.849  34.193  34.574  1.00  0.00     0.029 A 
ATOM     44  C   UNL A   1      38.892  33.175  34.647  1.00  0.00     0.049 A 
ATOM     45  H   UNL A   1      39.429  31.802  33.175  1.00  0.00     0.167 HD
ATOM     46  C   UNL A   1      40.306  28.827  30.088  1.00  0.00     0.037 A 
ATOM     47  C   UNL A   1      39.696  32.958  35.705  1.00  0.00     0.037 A 
ATOM     48  C   UNL A   1      41.269  28.585  31.129  1.00  0.00     0.049 A 
ATOM     49  C   UNL A   1      40.730  31.869  35.630  1.00  0.00     0.074 A 
ATOM     50  C   UNL A   1      42.302  27.664  31.150  1.00  0.00     0.029 A 
ATOM     51  N   UNL A   1      41.317  29.267  32.335  1.00  0.00    -0.354 N 
ATOM     52  N   UNL A   1      40.989  31.041  34.647  1.00  0.00    -0.248 NA
ATOM     53  C   UNL A   1      41.589  31.687  36.809  1.00  0.00     0.031 C 
ATOM     54  C   UNL A   1      42.945  27.758  32.387  1.00  0.00     0.029 A 
ATOM     55  C   UNL A   1      42.348  28.774  33.117  1.00  0.00     0.049 A 
ATOM     56  H   UNL A   1      40.707  29.995  32.597  1.00  0.00     0.167 HD
ATOM     57  C   UNL A   1      42.058  30.263  35.076  1.00  0.00     0.074 A 
ATOM     58  C   UNL A   1      42.407  30.729  36.401  1.00  0.00     0.031 C 
ATOM     59  C   UNL A   1      42.693  29.256  34.429  1.00  0.00     0.037 A 
BRANCH  46  60
ATOM     60  C   UNL A   1      40.346  27.956  28.866  1.00  0.00     0.057 A 
ATOM     61  C   UNL A   1      41.107  28.294  27.740  1.00  0.00     0.134 A 
ATOM     62  C   UNL A   1      39.647  26.741  28.829  1.00  0.00     0.134 A 
ATOM     63  F   UNL A   1      41.790  29.449  27.703  1.00  0.00    -0.206 F 
ATOM     64  C   UNL A   1      41.153  27.472  26.613  1.00  0.00     0.040 A 
ATOM     65  C   UNL A   1      39.708  25.896  27.721  1.00  0.00     0.040 A 
ATOM     66  F   UNL A   1      38.903  26.352  29.876  1.00  0.00    -0.206 F 
ATOM     67  C   UNL A   1      40.458  26.264  26.605  1.00  0.00     0.006 A 
ENDBRANCH  46  60
BRANCH  47  68
ATOM     68  C   UNL A   1      39.573  33.800  36.923  1.00  0.00     0.057 A 
ATOM     69  C   UNL A   1      38.769  33.401  37.998  1.00  0.00     0.134 A 
ATOM     70  C   UNL A   1      40.235  35.029  37.037  1.00  0.00     0.134 A 
ATOM     71  F   UNL A   1      38.095  32.242  37.942  1.00  0.00    -0.206 F 
ATOM     72  C   UNL A   1      38.606  34.203  39.129  1.00  0.00     0.040 A 
ATOM     73  C   UNL A   1      40.103  35.828  38.174  1.00  0.00     0.040 A 
ATOM     74  F   UNL A   1      41.028  35.464  36.048  1.00  0.00    -0.206 F 
ATOM     75  C   UNL A   1      39.278  35.419  39.221  1.00  0.00     0.006 A 
ENDBRANCH  47  68
BRANCH  59  76
ATOM     76  C   UNL A   1      43.860  28.618  35.125  1.00  0.00     0.057 A 
ATOM     77  C   UNL A   1      43.705  27.519  35.978  1.00  0.00     0.134 A 
ATOM     78  C   UNL A   1      45.161  29.087  34.902  1.00  0.00     0.134 A 
ATOM     79  F   UNL A   1      42.483  27.030  36.243  1.00  0.00    -0.206 F 
ATOM     80  C   UNL A   1      44.800  26.924  36.606  1.00  0.00     0.040 A 
ATOM     81  C   UNL A   1      46.267  28.481  35.500  1.00  0.00     0.040 A 
ATOM     82  F   UNL A   1      45.381  30.130  34.088  1.00  0.00    -0.206 F 
ATOM     83  C   UNL A   1      46.087  27.400  36.360  1.00  0.00     0.006 A 
ENDBRANCH  59  76
ENDBRANCH  33  34
ENDBRANCH  25  28
ENDBRANCH  23  24
ENDBRANCH   1  23
TORSDOF 13
ENDMDL
