MODEL 1
REMARK VINA RESULT:     -10.7      0.000      0.000
REMARK SMILES COc1nc(Cl)nc(N(CC(=O)NCCCNC(=O)c2ccc(-c3c4nc(c(-c5c(F)cccc5F)c5ccc([nH]5)c(-c5c(F)cccc5F)c5nc(c(-c6c(F)cccc6F)c6ccc3[nH]6)C=C5)C=C4)cc2)C(C)(C)C)n1
REMARK SMILES IDX 14 1 13 2 11 3 12 4 10 6 9 7 8 8 3 9 4 10 78 11 5 12 6 13
REMARK SMILES IDX 7 14 2 15 1 16 74 17 75 18 76 19 77 20 15 21 16 22 17 23
REMARK SMILES IDX 18 24 19 26 20 27 21 28 73 29 22 30 72 31 23 32 24 33 25 34
REMARK SMILES IDX 66 35 26 36 71 37 65 38 67 39 27 40 70 41 64 42 63 43 28 45
REMARK SMILES IDX 54 46 37 47 53 48 38 49 41 50 52 51 68 52 39 53 40 54 51 56
REMARK SMILES IDX 69 57 42 58 29 59 30 60 35 61 31 62 32 63 34 64 36 65 33 66
REMARK SMILES IDX 55 67 56 68 61 69 57 70 58 71 60 72 62 73 59 74 43 75 44 76
REMARK SMILES IDX 49 77 45 78 46 79 48 80 50 81 47 82
REMARK H PARENT 13 5 17 25 67 44 41 55
REMARK Flexibility Score: inf
ROOT
ATOM      1  C   UNL A   1      31.692  27.019  26.302  1.00  0.00     0.117 C 
ENDROOT
BRANCH   1   2
ATOM      2  N   UNL A   1      31.289  25.696  26.734  1.00  0.00    -0.354 N 
ATOM      3  C   UNL A   1      31.956  24.510  26.630  1.00  0.00     0.239 C 
ATOM      4  O   UNL A   1      31.464  23.534  27.205  1.00  0.00    -0.273 OA
ATOM      5  H   UNL A   1      30.404  25.646  27.164  1.00  0.00     0.163 HD
BRANCH   3   6
ATOM      6  C   UNL A   1      33.291  24.406  25.882  1.00  0.00     0.220 C 
BRANCH   6   7
ATOM      7  N   UNL A   1      33.228  23.592  24.649  1.00  0.00    -0.326 N 
BRANCH   7   8
ATOM      8  C   UNL A   1      33.629  22.263  24.769  1.00  0.00     0.233 A 
ATOM      9  C   UNL A   1      33.147  20.050  24.944  1.00  0.00     0.322 A 
ATOM     10  N   UNL A   1      34.405  19.665  25.021  1.00  0.00    -0.164 NA
ATOM     11  N   UNL A   1      32.719  21.299  24.789  1.00  0.00    -0.158 NA
ATOM     12  C   UNL A   1      35.227  20.692  24.955  1.00  0.00     0.230 A 
ATOM     13  Cl  UNL A   1      36.895  20.325  25.002  1.00  0.00    -0.041 Cl
ATOM     14  N   UNL A   1      34.922  21.978  24.840  1.00  0.00    -0.182 NA
BRANCH   9  15
ATOM     15  O   UNL A   1      32.152  19.098  24.972  1.00  0.00    -0.467 OA
ATOM     16  C   UNL A   1      32.543  17.959  25.727  1.00  0.00     0.282 C 
ENDBRANCH   9  15
ENDBRANCH   7   8
BRANCH   7  17
ATOM     17  C   UNL A   1      32.504  24.068  23.426  1.00  0.00     0.035 C 
ATOM     18  C   UNL A   1      33.090  23.414  22.158  1.00  0.00     0.034 C 
ATOM     19  C   UNL A   1      30.986  23.789  23.536  1.00  0.00     0.034 C 
ATOM     20  C   UNL A   1      32.621  25.595  23.201  1.00  0.00     0.034 C 
ENDBRANCH   7  17
ENDBRANCH   6   7
ENDBRANCH   3   6
ENDBRANCH   1   2
BRANCH   1  21
ATOM     21  C   UNL A   1      32.124  27.921  27.454  1.00  0.00     0.042 C 
BRANCH  21  22
ATOM     22  C   UNL A   1      33.516  28.526  27.293  1.00  0.00     0.118 C 
BRANCH  22  23
ATOM     23  N   UNL A   1      33.551  29.938  27.633  1.00  0.00    -0.352 N 
ATOM     24  C   UNL A   1      34.560  30.695  28.169  1.00  0.00     0.251 C 
ATOM     25  H   UNL A   1      32.718  30.429  27.449  1.00  0.00     0.163 HD
ATOM     26  O   UNL A   1      34.313  31.841  28.545  1.00  0.00    -0.269 OA
BRANCH  24  27
ATOM     27  C   UNL A   1      35.936  30.167  28.306  1.00  0.00     0.039 A 
ATOM     28  C   UNL A   1      36.350  29.708  29.563  1.00  0.00     0.014 A 
ATOM     29  C   UNL A   1      36.849  30.201  27.247  1.00  0.00     0.014 A 
ATOM     30  C   UNL A   1      37.661  29.267  29.753  1.00  0.00     0.010 A 
ATOM     31  C   UNL A   1      38.143  29.710  27.423  1.00  0.00     0.010 A 
ATOM     32  C   UNL A   1      38.568  29.258  28.682  1.00  0.00    -0.014 A 
BRANCH  32  33
ATOM     33  C   UNL A   1      39.976  28.831  28.878  1.00  0.00     0.031 A 
ATOM     34  C   UNL A   1      40.977  29.790  29.466  1.00  0.00     0.074 A 
ATOM     35  C   UNL A   1      40.370  27.602  28.494  1.00  0.00     0.049 A 
ATOM     36  N   UNL A   1      42.265  29.635  29.649  1.00  0.00    -0.248 NA
ATOM     37  C   UNL A   1      40.466  31.105  29.881  1.00  0.00     0.031 C 
ATOM     38  C   UNL A   1      39.509  26.590  27.882  1.00  0.00     0.029 A 
ATOM     39  N   UNL A   1      41.603  27.001  28.551  1.00  0.00    -0.354 N 
ATOM     40  C   UNL A   1      42.719  30.838  30.173  1.00  0.00     0.074 A 
ATOM     41  C   UNL A   1      41.577  31.724  30.252  1.00  0.00     0.031 C 
ATOM     42  C   UNL A   1      40.237  25.489  27.631  1.00  0.00     0.029 A 
ATOM     43  C   UNL A   1      41.617  25.726  28.040  1.00  0.00     0.049 A 
ATOM     44  H   UNL A   1      42.400  27.441  28.925  1.00  0.00     0.167 HD
ATOM     45  C   UNL A   1      43.971  31.170  30.570  1.00  0.00     0.037 A 
ATOM     46  C   UNL A   1      42.632  24.851  27.913  1.00  0.00     0.037 A 
ATOM     47  C   UNL A   1      45.099  30.278  30.536  1.00  0.00     0.049 A 
ATOM     48  C   UNL A   1      44.003  25.230  28.399  1.00  0.00     0.074 A 
ATOM     49  C   UNL A   1      46.395  30.509  30.961  1.00  0.00     0.029 A 
ATOM     50  N   UNL A   1      45.059  28.978  30.060  1.00  0.00    -0.354 N 
ATOM     51  N   UNL A   1      44.409  26.356  28.932  1.00  0.00    -0.248 NA
ATOM     52  C   UNL A   1      45.057  24.212  28.275  1.00  0.00     0.031 C 
ATOM     53  C   UNL A   1      47.148  29.353  30.723  1.00  0.00     0.029 A 
ATOM     54  C   UNL A   1      46.310  28.394  30.179  1.00  0.00     0.049 A 
ATOM     55  H   UNL A   1      44.261  28.534  29.691  1.00  0.00     0.167 HD
ATOM     56  C   UNL A   1      45.751  26.172  29.235  1.00  0.00     0.074 A 
ATOM     57  C   UNL A   1      46.092  24.823  28.832  1.00  0.00     0.031 C 
ATOM     58  C   UNL A   1      46.624  27.042  29.797  1.00  0.00     0.037 A 
BRANCH  45  59
ATOM     59  C   UNL A   1      44.186  32.563  31.084  1.00  0.00     0.057 A 
ATOM     60  C   UNL A   1      44.506  33.622  30.226  1.00  0.00     0.134 A 
ATOM     61  C   UNL A   1      44.033  32.854  32.445  1.00  0.00     0.134 A 
ATOM     62  F   UNL A   1      44.677  33.406  28.914  1.00  0.00    -0.206 F 
ATOM     63  C   UNL A   1      44.686  34.920  30.707  1.00  0.00     0.040 A 
ATOM     64  C   UNL A   1      44.190  34.152  32.934  1.00  0.00     0.040 A 
ATOM     65  F   UNL A   1      43.723  31.885  33.319  1.00  0.00    -0.206 F 
ATOM     66  C   UNL A   1      44.521  35.188  32.064  1.00  0.00     0.006 A 
ENDBRANCH  45  59
BRANCH  46  67
ATOM     67  C   UNL A   1      42.387  23.510  27.326  1.00  0.00     0.057 A 
ATOM     68  C   UNL A   1      42.049  22.421  28.136  1.00  0.00     0.134 A 
ATOM     69  C   UNL A   1      42.502  23.284  25.950  1.00  0.00     0.134 A 
ATOM     70  F   UNL A   1      41.944  22.574  29.464  1.00  0.00    -0.206 F 
ATOM     71  C   UNL A   1      41.852  21.147  27.602  1.00  0.00     0.040 A 
ATOM     72  C   UNL A   1      42.288  22.020  25.399  1.00  0.00     0.040 A 
ATOM     73  F   UNL A   1      42.820  24.290  25.123  1.00  0.00    -0.206 F 
ATOM     74  C   UNL A   1      41.969  20.945  26.227  1.00  0.00     0.006 A 
ENDBRANCH  46  67
BRANCH  58  75
ATOM     75  C   UNL A   1      48.015  26.548  30.055  1.00  0.00     0.057 A 
ATOM     76  C   UNL A   1      48.371  25.943  31.266  1.00  0.00     0.134 A 
ATOM     77  C   UNL A   1      48.997  26.646  29.063  1.00  0.00     0.134 A 
ATOM     78  F   UNL A   1      47.476  25.832  32.259  1.00  0.00    -0.206 F 
ATOM     79  C   UNL A   1      49.664  25.469  31.489  1.00  0.00     0.040 A 
ATOM     80  C   UNL A   1      50.289  26.158  29.266  1.00  0.00     0.040 A 
ATOM     81  F   UNL A   1      48.717  27.209  27.878  1.00  0.00    -0.206 F 
ATOM     82  C   UNL A   1      50.626  25.572  30.485  1.00  0.00     0.006 A 
ENDBRANCH  58  75
ENDBRANCH  32  33
ENDBRANCH  24  27
ENDBRANCH  22  23
ENDBRANCH  21  22
ENDBRANCH   1  21
TORSDOF 14
ENDMDL
MODEL 2
REMARK VINA RESULT:     -10.7      2.224      7.486
REMARK SMILES COc1nc(Cl)nc(N(CC(=O)NCCCNC(=O)c2ccc(-c3c4nc(c(-c5c(F)cccc5F)c5ccc([nH]5)c(-c5c(F)cccc5F)c5nc(c(-c6c(F)cccc6F)c6ccc3[nH]6)C=C5)C=C4)cc2)C(C)(C)C)n1
REMARK SMILES IDX 14 1 13 2 11 3 12 4 10 6 9 7 8 8 3 9 4 10 78 11 5 12 6 13
REMARK SMILES IDX 7 14 2 15 1 16 74 17 75 18 76 19 77 20 15 21 16 22 17 23
REMARK SMILES IDX 18 24 19 26 20 27 21 28 73 29 22 30 72 31 23 32 24 33 25 34
REMARK SMILES IDX 66 35 26 36 71 37 65 38 67 39 27 40 70 41 64 42 63 43 28 45
REMARK SMILES IDX 54 46 37 47 53 48 38 49 41 50 52 51 68 52 39 53 40 54 51 56
REMARK SMILES IDX 69 57 42 58 29 59 30 60 35 61 31 62 32 63 34 64 36 65 33 66
REMARK SMILES IDX 55 67 56 68 61 69 57 70 58 71 60 72 62 73 59 74 43 75 44 76
REMARK SMILES IDX 49 77 45 78 46 79 48 80 50 81 47 82
REMARK H PARENT 13 5 17 25 67 44 41 55
REMARK Flexibility Score: inf
ROOT
ATOM      1  C   UNL A   1      36.204  20.501  24.809  1.00  0.00     0.117 C 
ENDROOT
BRANCH   1   2
ATOM      2  N   UNL A   1      35.438  20.699  26.022  1.00  0.00    -0.354 N 
ATOM      3  C   UNL A   1      34.940  21.853  26.555  1.00  0.00     0.239 C 
ATOM      4  O   UNL A   1      34.192  21.746  27.531  1.00  0.00    -0.273 OA
ATOM      5  H   UNL A   1      35.250  19.882  26.538  1.00  0.00     0.163 HD
BRANCH   3   6
ATOM      6  C   UNL A   1      35.248  23.220  25.930  1.00  0.00     0.220 C 
BRANCH   6   7
ATOM      7  N   UNL A   1      34.175  23.736  25.052  1.00  0.00    -0.326 N 
BRANCH   7   8
ATOM      8  C   UNL A   1      33.256  24.598  25.646  1.00  0.00     0.233 A 
ATOM      9  C   UNL A   1      31.190  25.028  26.484  1.00  0.00     0.322 A 
ATOM     10  N   UNL A   1      31.450  26.283  26.792  1.00  0.00    -0.164 NA
ATOM     11  N   UNL A   1      32.044  24.158  25.954  1.00  0.00    -0.158 NA
ATOM     12  C   UNL A   1      32.688  26.607  26.480  1.00  0.00     0.230 A 
ATOM     13  Cl  UNL A   1      33.168  28.201  26.867  1.00  0.00    -0.041 Cl
ATOM     14  N   UNL A   1      33.616  25.846  25.916  1.00  0.00    -0.182 NA
BRANCH   9  15
ATOM     15  O   UNL A   1      29.944  24.513  26.767  1.00  0.00    -0.467 OA
ATOM     16  C   UNL A   1      29.978  23.096  26.874  1.00  0.00     0.282 C 
ENDBRANCH   9  15
ENDBRANCH   7   8
BRANCH   7  17
ATOM     17  C   UNL A   1      34.238  23.588  23.561  1.00  0.00     0.035 C 
ATOM     18  C   UNL A   1      33.366  22.404  23.095  1.00  0.00     0.034 C 
ATOM     19  C   UNL A   1      33.810  24.896  22.856  1.00  0.00     0.034 C 
ATOM     20  C   UNL A   1      35.664  23.290  23.036  1.00  0.00     0.034 C 
ENDBRANCH   7  17
ENDBRANCH   6   7
ENDBRANCH   3   6
ENDBRANCH   1   2
BRANCH   1  21
ATOM     21  C   UNL A   1      37.401  19.576  24.999  1.00  0.00     0.042 C 
BRANCH  21  22
ATOM     22  C   UNL A   1      38.667  20.274  25.487  1.00  0.00     0.118 C 
BRANCH  22  23
ATOM     23  N   UNL A   1      39.776  19.352  25.668  1.00  0.00    -0.352 N 
ATOM     24  C   UNL A   1      41.069  19.587  26.056  1.00  0.00     0.251 C 
ATOM     25  H   UNL A   1      39.564  18.408  25.484  1.00  0.00     0.163 HD
ATOM     26  O   UNL A   1      41.894  18.678  25.969  1.00  0.00    -0.269 OA
BRANCH  24  27
ATOM     27  C   UNL A   1      41.495  20.907  26.573  1.00  0.00     0.039 A 
ATOM     28  C   UNL A   1      41.301  21.183  27.931  1.00  0.00     0.014 A 
ATOM     29  C   UNL A   1      41.993  21.904  25.728  1.00  0.00     0.014 A 
ATOM     30  C   UNL A   1      41.624  22.441  28.446  1.00  0.00     0.010 A 
ATOM     31  C   UNL A   1      42.366  23.142  26.252  1.00  0.00     0.010 A 
ATOM     32  C   UNL A   1      42.165  23.430  27.611  1.00  0.00    -0.014 A 
BRANCH  32  33
ATOM     33  C   UNL A   1      42.475  24.785  28.133  1.00  0.00     0.031 A 
ATOM     34  C   UNL A   1      43.882  25.127  28.545  1.00  0.00     0.074 A 
ATOM     35  C   UNL A   1      41.493  25.695  28.277  1.00  0.00     0.049 A 
ATOM     36  N   UNL A   1      44.341  26.227  29.090  1.00  0.00    -0.248 NA
ATOM     37  C   UNL A   1      44.903  24.089  28.336  1.00  0.00     0.031 C 
ATOM     38  C   UNL A   1      40.084  25.479  27.947  1.00  0.00     0.029 A 
ATOM     39  N   UNL A   1      41.532  26.982  28.752  1.00  0.00    -0.354 N 
ATOM     40  C   UNL A   1      45.694  26.000  29.314  1.00  0.00     0.074 A 
ATOM     41  C   UNL A   1      45.976  24.651  28.873  1.00  0.00     0.031 C 
ATOM     42  C   UNL A   1      39.394  26.600  28.218  1.00  0.00     0.029 A 
ATOM     43  C   UNL A   1      40.306  27.601  28.764  1.00  0.00     0.049 A 
ATOM     44  H   UNL A   1      42.360  27.420  29.054  1.00  0.00     0.167 HD
ATOM     45  C   UNL A   1      46.621  26.846  29.823  1.00  0.00     0.037 A 
ATOM     46  C   UNL A   1      39.957  28.835  29.172  1.00  0.00     0.037 A 
ATOM     47  C   UNL A   1      46.355  28.203  30.220  1.00  0.00     0.049 A 
ATOM     48  C   UNL A   1      41.014  29.768  29.696  1.00  0.00     0.074 A 
ATOM     49  C   UNL A   1      47.239  29.150  30.703  1.00  0.00     0.029 A 
ATOM     50  N   UNL A   1      45.109  28.808  30.167  1.00  0.00    -0.354 N 
ATOM     51  N   UNL A   1      42.296  29.555  29.862  1.00  0.00    -0.248 NA
ATOM     52  C   UNL A   1      40.575  31.118  30.081  1.00  0.00     0.031 C 
ATOM     53  C   UNL A   1      46.525  30.326  30.962  1.00  0.00     0.029 A 
ATOM     54  C   UNL A   1      45.202  30.117  30.610  1.00  0.00     0.049 A 
ATOM     55  H   UNL A   1      44.281  28.372  29.859  1.00  0.00     0.167 HD
ATOM     56  C   UNL A   1      42.821  30.748  30.338  1.00  0.00     0.074 A 
ATOM     57  C   UNL A   1      41.721  31.685  30.430  1.00  0.00     0.031 C 
ATOM     58  C   UNL A   1      44.101  31.042  30.670  1.00  0.00     0.037 A 
BRANCH  45  59
ATOM     59  C   UNL A   1      48.020  26.326  29.977  1.00  0.00     0.057 A 
ATOM     60  C   UNL A   1      48.459  25.737  31.169  1.00  0.00     0.134 A 
ATOM     61  C   UNL A   1      48.923  26.381  28.908  1.00  0.00     0.134 A 
ATOM     62  F   UNL A   1      47.646  25.666  32.232  1.00  0.00    -0.206 F 
ATOM     63  C   UNL A   1      49.756  25.238  31.299  1.00  0.00     0.040 A 
ATOM     64  C   UNL A   1      50.215  25.865  29.020  1.00  0.00     0.040 A 
ATOM     65  F   UNL A   1      48.563  26.928  27.737  1.00  0.00    -0.206 F 
ATOM     66  C   UNL A   1      50.636  25.296  30.220  1.00  0.00     0.006 A 
ENDBRANCH  45  59
BRANCH  46  67
ATOM     67  C   UNL A   1      38.545  29.279  29.074  1.00  0.00     0.057 A 
ATOM     68  C   UNL A   1      37.701  29.246  30.189  1.00  0.00     0.134 A 
ATOM     69  C   UNL A   1      38.003  29.727  27.864  1.00  0.00     0.134 A 
ATOM     70  F   UNL A   1      38.160  28.806  31.370  1.00  0.00    -0.206 F 
ATOM     71  C   UNL A   1      36.360  29.624  30.103  1.00  0.00     0.040 A 
ATOM     72  C   UNL A   1      36.670  30.128  27.767  1.00  0.00     0.040 A 
ATOM     73  F   UNL A   1      38.764  29.785  26.762  1.00  0.00    -0.206 F 
ATOM     74  C   UNL A   1      35.843  30.070  28.888  1.00  0.00     0.006 A 
ENDBRANCH  46  67
BRANCH  58  75
ATOM     75  C   UNL A   1      44.390  32.444  31.114  1.00  0.00     0.057 A 
ATOM     76  C   UNL A   1      44.737  33.450  30.204  1.00  0.00     0.134 A 
ATOM     77  C   UNL A   1      44.282  32.796  32.464  1.00  0.00     0.134 A 
ATOM     78  F   UNL A   1      44.867  33.171  28.899  1.00  0.00    -0.206 F 
ATOM     79  C   UNL A   1      44.985  34.757  30.626  1.00  0.00     0.040 A 
ATOM     80  C   UNL A   1      44.509  34.104  32.896  1.00  0.00     0.040 A 
ATOM     81  F   UNL A   1      43.947  31.879  33.384  1.00  0.00    -0.206 F 
ATOM     82  C   UNL A   1      44.866  35.088  31.975  1.00  0.00     0.006 A 
ENDBRANCH  58  75
ENDBRANCH  32  33
ENDBRANCH  24  27
ENDBRANCH  22  23
ENDBRANCH  21  22
ENDBRANCH   1  21
TORSDOF 14
ENDMDL
MODEL 3
REMARK VINA RESULT:     -10.7      2.443      7.582
REMARK SMILES COc1nc(Cl)nc(N(CC(=O)NCCCNC(=O)c2ccc(-c3c4nc(c(-c5c(F)cccc5F)c5ccc([nH]5)c(-c5c(F)cccc5F)c5nc(c(-c6c(F)cccc6F)c6ccc3[nH]6)C=C5)C=C4)cc2)C(C)(C)C)n1
REMARK SMILES IDX 14 1 13 2 11 3 12 4 10 6 9 7 8 8 3 9 4 10 78 11 5 12 6 13
REMARK SMILES IDX 7 14 2 15 1 16 74 17 75 18 76 19 77 20 15 21 16 22 17 23
REMARK SMILES IDX 18 24 19 26 20 27 21 28 73 29 22 30 72 31 23 32 24 33 25 34
REMARK SMILES IDX 66 35 26 36 71 37 65 38 67 39 27 40 70 41 64 42 63 43 28 45
REMARK SMILES IDX 54 46 37 47 53 48 38 49 41 50 52 51 68 52 39 53 40 54 51 56
REMARK SMILES IDX 69 57 42 58 29 59 30 60 35 61 31 62 32 63 34 64 36 65 33 66
REMARK SMILES IDX 55 67 56 68 61 69 57 70 58 71 60 72 62 73 59 74 43 75 44 76
REMARK SMILES IDX 49 77 45 78 46 79 48 80 50 81 47 82
REMARK H PARENT 13 5 17 25 67 44 41 55
REMARK Flexibility Score: inf
ROOT
ATOM      1  C   UNL A   1      36.557  20.187  24.991  1.00  0.00     0.117 C 
ENDROOT
BRANCH   1   2
ATOM      2  N   UNL A   1      36.674  21.466  25.660  1.00  0.00    -0.354 N 
ATOM      3  C   UNL A   1      35.908  22.588  25.526  1.00  0.00     0.239 C 
ATOM      4  O   UNL A   1      36.120  23.513  26.317  1.00  0.00    -0.273 OA
ATOM      5  H   UNL A   1      37.415  21.537  26.305  1.00  0.00     0.163 HD
BRANCH   3   6
ATOM      6  C   UNL A   1      34.791  22.674  24.479  1.00  0.00     0.220 C 
BRANCH   6   7
ATOM      7  N   UNL A   1      33.655  23.533  24.879  1.00  0.00    -0.326 N 
BRANCH   7   8
ATOM      8  C   UNL A   1      33.661  24.832  24.374  1.00  0.00     0.233 A 
ATOM      9  C   UNL A   1      33.626  26.286  22.630  1.00  0.00     0.322 A 
ATOM     10  N   UNL A   1      33.688  27.367  23.381  1.00  0.00    -0.164 NA
ATOM     11  N   UNL A   1      33.579  25.031  23.066  1.00  0.00    -0.158 NA
ATOM     12  C   UNL A   1      33.729  27.061  24.661  1.00  0.00     0.230 A 
ATOM     13  Cl  UNL A   1      33.770  28.378  25.749  1.00  0.00    -0.041 Cl
ATOM     14  N   UNL A   1      33.727  25.855  25.215  1.00  0.00    -0.182 NA
BRANCH   9  15
ATOM     15  O   UNL A   1      33.551  26.424  21.262  1.00  0.00    -0.467 OA
ATOM     16  C   UNL A   1      32.476  25.668  20.720  1.00  0.00     0.282 C 
ENDBRANCH   9  15
ENDBRANCH   7   8
BRANCH   7  17
ATOM     17  C   UNL A   1      32.430  22.967  25.531  1.00  0.00     0.035 C 
ATOM     18  C   UNL A   1      31.160  23.657  24.992  1.00  0.00     0.034 C 
ATOM     19  C   UNL A   1      32.351  21.436  25.330  1.00  0.00     0.034 C 
ATOM     20  C   UNL A   1      32.401  23.179  27.065  1.00  0.00     0.034 C 
ENDBRANCH   7  17
ENDBRANCH   6   7
ENDBRANCH   3   6
ENDBRANCH   1   2
BRANCH   1  21
ATOM     21  C   UNL A   1      37.870  19.413  24.941  1.00  0.00     0.042 C 
BRANCH  21  22
ATOM     22  C   UNL A   1      39.004  20.042  25.746  1.00  0.00     0.118 C 
BRANCH  22  23
ATOM     23  N   UNL A   1      40.184  19.194  25.800  1.00  0.00    -0.352 N 
ATOM     24  C   UNL A   1      41.490  19.511  26.066  1.00  0.00     0.251 C 
ATOM     25  H   UNL A   1      40.017  18.241  25.618  1.00  0.00     0.163 HD
ATOM     26  O   UNL A   1      42.361  18.661  25.882  1.00  0.00    -0.269 OA
BRANCH  24  27
ATOM     27  C   UNL A   1      41.877  20.849  26.567  1.00  0.00     0.039 A 
ATOM     28  C   UNL A   1      41.751  21.109  27.937  1.00  0.00     0.014 A 
ATOM     29  C   UNL A   1      42.270  21.875  25.702  1.00  0.00     0.014 A 
ATOM     30  C   UNL A   1      42.037  22.379  28.441  1.00  0.00     0.010 A 
ATOM     31  C   UNL A   1      42.608  23.129  26.212  1.00  0.00     0.010 A 
ATOM     32  C   UNL A   1      42.475  23.399  27.583  1.00  0.00    -0.014 A 
BRANCH  32  33
ATOM     33  C   UNL A   1      42.743  24.766  28.096  1.00  0.00     0.031 A 
ATOM     34  C   UNL A   1      44.140  25.155  28.502  1.00  0.00     0.074 A 
ATOM     35  C   UNL A   1      41.734  25.646  28.238  1.00  0.00     0.049 A 
ATOM     36  N   UNL A   1      44.567  26.271  29.039  1.00  0.00    -0.248 NA
ATOM     37  C   UNL A   1      45.193  24.148  28.296  1.00  0.00     0.031 C 
ATOM     38  C   UNL A   1      40.332  25.385  27.913  1.00  0.00     0.029 A 
ATOM     39  N   UNL A   1      41.734  26.937  28.705  1.00  0.00    -0.354 N 
ATOM     40  C   UNL A   1      45.927  26.088  29.260  1.00  0.00     0.074 A 
ATOM     41  C   UNL A   1      46.249  24.745  28.827  1.00  0.00     0.031 C 
ATOM     42  C   UNL A   1      39.608  26.485  28.179  1.00  0.00     0.029 A 
ATOM     43  C   UNL A   1      40.489  27.517  28.716  1.00  0.00     0.049 A 
ATOM     44  H   UNL A   1      42.549  27.403  29.002  1.00  0.00     0.167 HD
ATOM     45  C   UNL A   1      46.828  26.965  29.762  1.00  0.00     0.037 A 
ATOM     46  C   UNL A   1      40.104  28.743  29.118  1.00  0.00     0.037 A 
ATOM     47  C   UNL A   1      46.521  28.315  30.151  1.00  0.00     0.049 A 
ATOM     48  C   UNL A   1      41.132  29.711  29.634  1.00  0.00     0.074 A 
ATOM     49  C   UNL A   1      47.377  29.293  30.626  1.00  0.00     0.029 A 
ATOM     50  N   UNL A   1      45.257  28.881  30.098  1.00  0.00    -0.354 N 
ATOM     51  N   UNL A   1      42.421  29.539  29.797  1.00  0.00    -0.248 NA
ATOM     52  C   UNL A   1      40.653  31.049  30.012  1.00  0.00     0.031 C 
ATOM     53  C   UNL A   1      46.627  30.447  30.880  1.00  0.00     0.029 A 
ATOM     54  C   UNL A   1      45.311  30.195  30.533  1.00  0.00     0.049 A 
ATOM     55  H   UNL A   1      44.442  28.418  29.796  1.00  0.00     0.167 HD
ATOM     56  C   UNL A   1      42.910  30.751  30.264  1.00  0.00     0.074 A 
ATOM     57  C   UNL A   1      41.782  31.654  30.354  1.00  0.00     0.031 C 
ATOM     58  C   UNL A   1      44.182  31.086  30.591  1.00  0.00     0.037 A 
BRANCH  45  59
ATOM     59  C   UNL A   1      48.243  26.490  29.914  1.00  0.00     0.057 A 
ATOM     60  C   UNL A   1      49.200  26.698  28.914  1.00  0.00     0.134 A 
ATOM     61  C   UNL A   1      48.659  25.853  31.090  1.00  0.00     0.134 A 
ATOM     62  F   UNL A   1      48.861  27.292  27.761  1.00  0.00    -0.206 F 
ATOM     63  C   UNL A   1      50.520  26.271  29.070  1.00  0.00     0.040 A 
ATOM     64  C   UNL A   1      49.982  25.441  31.265  1.00  0.00     0.040 A 
ATOM     65  F   UNL A   1      47.792  25.628  32.088  1.00  0.00    -0.206 F 
ATOM     66  C   UNL A   1      50.915  25.646  30.251  1.00  0.00     0.006 A 
ENDBRANCH  45  59
BRANCH  46  67
ATOM     67  C   UNL A   1      38.678  29.142  29.021  1.00  0.00     0.057 A 
ATOM     68  C   UNL A   1      37.840  29.092  30.140  1.00  0.00     0.134 A 
ATOM     69  C   UNL A   1      38.119  29.563  27.810  1.00  0.00     0.134 A 
ATOM     70  F   UNL A   1      38.316  28.676  31.323  1.00  0.00    -0.206 F 
ATOM     71  C   UNL A   1      36.488  29.428  30.055  1.00  0.00     0.040 A 
ATOM     72  C   UNL A   1      36.774  29.922  27.714  1.00  0.00     0.040 A 
ATOM     73  F   UNL A   1      38.874  29.635  26.704  1.00  0.00    -0.206 F 
ATOM     74  C   UNL A   1      35.952  29.848  28.838  1.00  0.00     0.006 A 
ENDBRANCH  46  67
BRANCH  58  75
ATOM     75  C   UNL A   1      44.428  32.499  31.025  1.00  0.00     0.057 A 
ATOM     76  C   UNL A   1      44.722  33.514  30.107  1.00  0.00     0.134 A 
ATOM     77  C   UNL A   1      44.331  32.852  32.377  1.00  0.00     0.134 A 
ATOM     78  F   UNL A   1      44.840  33.235  28.800  1.00  0.00    -0.206 F 
ATOM     79  C   UNL A   1      44.932  34.830  30.521  1.00  0.00     0.040 A 
ATOM     80  C   UNL A   1      44.519  34.168  32.801  1.00  0.00     0.040 A 
ATOM     81  F   UNL A   1      44.045  31.927  33.304  1.00  0.00    -0.206 F 
ATOM     82  C   UNL A   1      44.825  35.161  31.871  1.00  0.00     0.006 A 
ENDBRANCH  58  75
ENDBRANCH  32  33
ENDBRANCH  24  27
ENDBRANCH  22  23
ENDBRANCH  21  22
ENDBRANCH   1  21
TORSDOF 14
ENDMDL
