MODEL 1
REMARK VINA RESULT:     -12.6      0.000      0.000
REMARK SMILES O=C(NCCCNC(=O)C1CCN(C2=[NH+]C(Cl)=[NH+]C3=[NH+]C=N[C@@H]32)CC1)c1ccc(-c2c3nc(c(-c4c(F)cccc4F)c4ccc([nH]4)c(-c4c(F)cccc4F)c4nc(c(-c5c(F)cccc5F)c5ccc2[nH]5)C=C4)C=C3)cc1
REMARK SMILES IDX 4 1 3 2 1 3 2 4 26 6 27 7 79 8 28 9 78 10 29 11 30 12 31 13
REMARK SMILES IDX 72 14 32 15 77 16 71 17 73 18 33 19 76 20 70 21 69 22 34 24
REMARK SMILES IDX 60 25 43 26 59 27 44 28 47 29 58 30 74 31 45 32 46 33 57 35
REMARK SMILES IDX 75 36 48 37 35 38 36 39 41 40 37 41 38 42 40 43 42 44 39 45
REMARK SMILES IDX 61 46 62 47 67 48 63 49 64 50 66 51 68 52 65 53 49 54 50 55
REMARK SMILES IDX 55 56 51 57 52 58 54 59 56 60 53 61 5 62 6 63 7 64 8 65 9 67
REMARK SMILES IDX 10 68 11 69 25 70 12 71 24 72 13 73 14 74 15 75 23 76 16 77
REMARK SMILES IDX 19 79 22 80 17 81 18 82 20 83 21 84
REMARK H PARENT 3 5 73 23 47 34 7 66 15 78 18 85 20 86
REMARK Flexibility Score: inf
ROOT
ATOM      1  C   UNL A   1      41.106  21.742  26.611  1.00  0.00     0.118 C 
ENDROOT
BRANCH   1   2
ATOM      2  N   UNL A   1      42.032  22.275  25.634  1.00  0.00    -0.352 N 
ATOM      3  O   UNL A   1      43.434  23.572  24.515  1.00  0.00    -0.269 OA
ATOM      4  C   UNL A   1      42.661  23.479  25.473  1.00  0.00     0.251 C 
ATOM      5  H   UNL A   1      42.261  21.627  24.929  1.00  0.00     0.163 HD
BRANCH   4   6
ATOM      6  C   UNL A   1      42.443  24.676  26.330  1.00  0.00     0.039 A 
ATOM      7  C   UNL A   1      43.104  24.948  27.529  1.00  0.00     0.014 A 
ATOM      8  C   UNL A   1      41.525  25.625  25.846  1.00  0.00     0.014 A 
ATOM      9  C   UNL A   1      42.812  26.105  28.258  1.00  0.00     0.010 A 
ATOM     10  C   UNL A   1      41.259  26.799  26.552  1.00  0.00     0.010 A 
ATOM     11  C   UNL A   1      41.887  27.035  27.775  1.00  0.00    -0.014 A 
BRANCH  11  12
ATOM     12  C   UNL A   1      41.700  28.291  28.514  1.00  0.00     0.031 A 
ATOM     13  C   UNL A   1      42.696  29.384  28.281  1.00  0.00     0.074 A 
ATOM     14  C   UNL A   1      40.584  28.604  29.204  1.00  0.00     0.049 A 
ATOM     15  N   UNL A   1      43.343  30.095  29.154  1.00  0.00    -0.248 NA
ATOM     16  C   UNL A   1      42.990  29.744  26.885  1.00  0.00     0.031 C 
ATOM     17  C   UNL A   1      39.329  27.853  29.267  1.00  0.00     0.029 A 
ATOM     18  N   UNL A   1      40.302  29.751  29.897  1.00  0.00    -0.354 N 
ATOM     19  C   UNL A   1      44.010  31.086  28.433  1.00  0.00     0.074 A 
ATOM     20  C   UNL A   1      43.806  30.787  27.037  1.00  0.00     0.031 C 
ATOM     21  C   UNL A   1      38.363  28.653  29.767  1.00  0.00     0.029 A 
ATOM     22  C   UNL A   1      38.955  29.920  30.169  1.00  0.00     0.049 A 
ATOM     23  H   UNL A   1      40.992  30.395  30.175  1.00  0.00     0.167 HD
ATOM     24  C   UNL A   1      44.578  32.181  29.010  1.00  0.00     0.037 A 
ATOM     25  C   UNL A   1      38.345  31.036  30.631  1.00  0.00     0.037 A 
ATOM     26  C   UNL A   1      44.777  32.034  30.422  1.00  0.00     0.049 A 
ATOM     27  C   UNL A   1      39.362  31.931  31.226  1.00  0.00     0.074 A 
ATOM     28  C   UNL A   1      45.488  31.172  31.233  1.00  0.00     0.029 A 
ATOM     29  N   UNL A   1      43.994  32.769  31.273  1.00  0.00    -0.354 N 
ATOM     30  N   UNL A   1      39.972  31.724  32.358  1.00  0.00    -0.248 NA
ATOM     31  C   UNL A   1      39.925  32.988  30.399  1.00  0.00     0.031 C 
ATOM     32  C   UNL A   1      44.760  31.115  32.456  1.00  0.00     0.029 A 
ATOM     33  C   UNL A   1      43.641  31.931  32.297  1.00  0.00     0.049 A 
ATOM     34  H   UNL A   1      43.736  33.714  31.169  1.00  0.00     0.167 HD
ATOM     35  C   UNL A   1      41.205  32.335  32.211  1.00  0.00     0.074 A 
ATOM     36  C   UNL A   1      41.060  33.216  31.062  1.00  0.00     0.031 C 
ATOM     37  C   UNL A   1      42.311  31.856  32.852  1.00  0.00     0.037 A 
BRANCH  24  38
ATOM     38  C   UNL A   1      44.738  33.514  28.329  1.00  0.00     0.057 A 
ATOM     39  C   UNL A   1      43.625  34.352  28.140  1.00  0.00     0.134 A 
ATOM     40  C   UNL A   1      45.897  33.874  27.616  1.00  0.00     0.134 A 
ATOM     41  F   UNL A   1      42.452  34.082  28.731  1.00  0.00    -0.206 F 
ATOM     42  C   UNL A   1      43.657  35.459  27.281  1.00  0.00     0.040 A 
ATOM     43  C   UNL A   1      45.954  35.004  26.793  1.00  0.00     0.040 A 
ATOM     44  F   UNL A   1      46.992  33.101  27.618  1.00  0.00    -0.206 F 
ATOM     45  C   UNL A   1      44.826  35.789  26.605  1.00  0.00     0.006 A 
ENDBRANCH  24  38
BRANCH  25  46
ATOM     46  C   UNL A   1      36.945  31.468  30.437  1.00  0.00     0.057 A 
ATOM     47  C   UNL A   1      36.101  31.721  31.526  1.00  0.00     0.134 A 
ATOM     48  C   UNL A   1      36.464  31.864  29.177  1.00  0.00     0.134 A 
ATOM     49  F   UNL A   1      36.491  31.429  32.775  1.00  0.00    -0.206 F 
ATOM     50  C   UNL A   1      34.849  32.329  31.371  1.00  0.00     0.040 A 
ATOM     51  C   UNL A   1      35.212  32.458  29.005  1.00  0.00     0.040 A 
ATOM     52  F   UNL A   1      37.229  31.757  28.079  1.00  0.00    -0.206 F 
ATOM     53  C   UNL A   1      34.402  32.701  30.107  1.00  0.00     0.006 A 
ENDBRANCH  25  46
BRANCH  37  54
ATOM     54  C   UNL A   1      42.103  30.908  33.993  1.00  0.00     0.057 A 
ATOM     55  C   UNL A   1      41.887  29.533  33.827  1.00  0.00     0.134 A 
ATOM     56  C   UNL A   1      42.266  31.375  35.302  1.00  0.00     0.134 A 
ATOM     57  F   UNL A   1      41.830  28.984  32.606  1.00  0.00    -0.206 F 
ATOM     58  C   UNL A   1      41.781  28.670  34.921  1.00  0.00     0.040 A 
ATOM     59  C   UNL A   1      42.197  30.517  36.403  1.00  0.00     0.040 A 
ATOM     60  F   UNL A   1      42.542  32.669  35.532  1.00  0.00    -0.206 F 
ATOM     61  C   UNL A   1      41.940  29.161  36.213  1.00  0.00     0.006 A 
ENDBRANCH  37  54
ENDBRANCH  11  12
ENDBRANCH   4   6
ENDBRANCH   1   2
BRANCH   1  62
ATOM     62  C   UNL A   1      39.678  22.270  26.490  1.00  0.00     0.042 C 
BRANCH  62  63
ATOM     63  C   UNL A   1      38.703  21.309  25.806  1.00  0.00     0.117 C 
BRANCH  63  64
ATOM     64  N   UNL A   1      38.000  21.943  24.707  1.00  0.00    -0.356 N 
ATOM     65  C   UNL A   1      36.734  21.996  24.248  1.00  0.00     0.223 C 
ATOM     66  H   UNL A   1      38.610  22.476  24.148  1.00  0.00     0.163 HD
ATOM     67  O   UNL A   1      36.622  22.606  23.173  1.00  0.00    -0.275 OA
BRANCH  65  68
ATOM     68  C   UNL A   1      35.465  21.486  24.945  1.00  0.00     0.087 C 
ATOM     69  C   UNL A   1      34.108  21.476  24.249  1.00  0.00     0.068 C 
ATOM     70  C   UNL A   1      35.294  22.268  26.270  1.00  0.00     0.068 C 
ATOM     71  C   UNL A   1      33.578  22.879  24.010  1.00  0.00     0.277 C 
ATOM     72  C   UNL A   1      34.807  23.696  26.002  1.00  0.00     0.277 C 
ATOM     73  N   UNL A   1      33.551  23.643  25.252  1.00  0.00    -0.230 N 
ATOM     74  C   UNL A   1      32.477  24.457  25.580  1.00  0.00     0.383 C 
ATOM     75  N   UNL A   1      32.646  25.626  26.138  1.00  0.00    -0.155 N 
ATOM     76  C   UNL A   1      31.064  23.996  25.269  1.00  0.00     0.523 C 
ATOM     77  C   UNL A   1      31.541  26.398  26.405  1.00  0.00     0.414 C 
ATOM     78  H   UNL A   1      33.548  25.947  26.363  1.00  0.00     0.367 HD
ATOM     79  C   UNL A   1      30.209  24.658  26.276  1.00  0.00     0.389 C 
ATOM     80  N   UNL A   1      30.817  22.569  25.579  1.00  0.00     0.003 NA
ATOM     81  Cl  UNL A   1      31.840  28.068  26.624  1.00  0.00     0.028 Cl
ATOM     82  N   UNL A   1      30.317  25.983  26.493  1.00  0.00    -0.155 N 
ATOM     83  N   UNL A   1      29.485  23.839  26.956  1.00  0.00    -0.169 N 
ATOM     84  C   UNL A   1      29.900  22.612  26.502  1.00  0.00     0.532 C 
ATOM     85  H   UNL A   1      29.552  26.568  26.696  1.00  0.00     0.367 HD
ATOM     86  H   UNL A   1      28.802  24.042  27.636  1.00  0.00     0.365 HD
ENDBRANCH  65  68
ENDBRANCH  63  64
ENDBRANCH  62  63
ENDBRANCH   1  62
TORSDOF 10
ENDMDL
MODEL 2
REMARK VINA RESULT:     -12.6      3.286      8.120
REMARK SMILES O=C(NCCCNC(=O)C1CCN(C2=[NH+]C(Cl)=[NH+]C3=[NH+]C=N[C@@H]32)CC1)c1ccc(-c2c3nc(c(-c4c(F)cccc4F)c4ccc([nH]4)c(-c4c(F)cccc4F)c4nc(c(-c5c(F)cccc5F)c5ccc2[nH]5)C=C4)C=C3)cc1
REMARK SMILES IDX 4 1 3 2 1 3 2 4 26 6 27 7 79 8 28 9 78 10 29 11 30 12 31 13
REMARK SMILES IDX 72 14 32 15 77 16 71 17 73 18 33 19 76 20 70 21 69 22 34 24
REMARK SMILES IDX 60 25 43 26 59 27 44 28 47 29 58 30 74 31 45 32 46 33 57 35
REMARK SMILES IDX 75 36 48 37 35 38 36 39 41 40 37 41 38 42 40 43 42 44 39 45
REMARK SMILES IDX 61 46 62 47 67 48 63 49 64 50 66 51 68 52 65 53 49 54 50 55
REMARK SMILES IDX 55 56 51 57 52 58 54 59 56 60 53 61 5 62 6 63 7 64 8 65 9 67
REMARK SMILES IDX 10 68 11 69 25 70 12 71 24 72 13 73 14 74 15 75 23 76 16 77
REMARK SMILES IDX 19 79 22 80 17 81 18 82 20 83 21 84
REMARK H PARENT 3 5 73 23 47 34 7 66 15 78 18 85 20 86
REMARK Flexibility Score: inf
ROOT
ATOM      1  C   UNL A   1      33.950  30.770  27.234  1.00  0.00     0.118 C 
ENDROOT
BRANCH   1   2
ATOM      2  N   UNL A   1      34.022  31.649  28.383  1.00  0.00    -0.352 N 
ATOM      3  O   UNL A   1      34.690  32.743  30.188  1.00  0.00    -0.269 OA
ATOM      4  C   UNL A   1      34.954  31.866  29.361  1.00  0.00     0.251 C 
ATOM      5  H   UNL A   1      33.224  32.216  28.484  1.00  0.00     0.163 HD
BRANCH   4   6
ATOM      6  C   UNL A   1      36.220  31.096  29.519  1.00  0.00     0.039 A 
ATOM      7  C   UNL A   1      36.314  29.712  29.672  1.00  0.00     0.014 A 
ATOM      8  C   UNL A   1      37.410  31.842  29.455  1.00  0.00     0.014 A 
ATOM      9  C   UNL A   1      37.560  29.095  29.822  1.00  0.00     0.010 A 
ATOM     10  C   UNL A   1      38.656  31.225  29.565  1.00  0.00     0.010 A 
ATOM     11  C   UNL A   1      38.736  29.847  29.771  1.00  0.00    -0.014 A 
BRANCH  11  12
ATOM     12  C   UNL A   1      40.025  29.143  29.813  1.00  0.00     0.031 A 
ATOM     13  C   UNL A   1      40.654  28.933  31.156  1.00  0.00     0.074 A 
ATOM     14  C   UNL A   1      40.561  28.483  28.766  1.00  0.00     0.049 A 
ATOM     15  N   UNL A   1      41.873  29.175  31.530  1.00  0.00    -0.248 NA
ATOM     16  C   UNL A   1      39.810  28.354  32.214  1.00  0.00     0.031 C 
ATOM     17  C   UNL A   1      39.954  28.234  27.458  1.00  0.00     0.029 A 
ATOM     18  N   UNL A   1      41.733  27.777  28.711  1.00  0.00    -0.354 N 
ATOM     19  C   UNL A   1      41.999  28.647  32.816  1.00  0.00     0.074 A 
ATOM     20  C   UNL A   1      40.683  28.209  33.211  1.00  0.00     0.031 C 
ATOM     21  C   UNL A   1      40.652  27.264  26.828  1.00  0.00     0.029 A 
ATOM     22  C   UNL A   1      41.815  26.916  27.630  1.00  0.00     0.049 A 
ATOM     23  H   UNL A   1      42.451  27.871  29.379  1.00  0.00     0.167 HD
ATOM     24  C   UNL A   1      43.195  28.467  33.440  1.00  0.00     0.037 A 
ATOM     25  C   UNL A   1      42.729  25.939  27.426  1.00  0.00     0.037 A 
ATOM     26  C   UNL A   1      44.261  29.215  32.841  1.00  0.00     0.049 A 
ATOM     27  C   UNL A   1      43.900  26.185  28.295  1.00  0.00     0.074 A 
ATOM     28  C   UNL A   1      44.521  30.552  32.614  1.00  0.00     0.029 A 
ATOM     29  N   UNL A   1      45.230  28.535  32.151  1.00  0.00    -0.354 N 
ATOM     30  N   UNL A   1      44.781  27.127  28.118  1.00  0.00    -0.248 NA
ATOM     31  C   UNL A   1      43.963  25.508  29.582  1.00  0.00     0.031 C 
ATOM     32  C   UNL A   1      45.330  30.587  31.441  1.00  0.00     0.029 A 
ATOM     33  C   UNL A   1      45.489  29.266  31.022  1.00  0.00     0.049 A 
ATOM     34  H   UNL A   1      45.657  27.687  32.415  1.00  0.00     0.167 HD
ATOM     35  C   UNL A   1      45.236  27.429  29.390  1.00  0.00     0.074 A 
ATOM     36  C   UNL A   1      44.818  26.309  30.220  1.00  0.00     0.031 C 
ATOM     37  C   UNL A   1      45.654  28.688  29.711  1.00  0.00     0.037 A 
BRANCH  24  38
ATOM     38  C   UNL A   1      43.465  27.402  34.470  1.00  0.00     0.057 A 
ATOM     39  C   UNL A   1      43.582  26.056  34.084  1.00  0.00     0.134 A 
ATOM     40  C   UNL A   1      43.343  27.629  35.854  1.00  0.00     0.134 A 
ATOM     41  F   UNL A   1      43.658  25.715  32.789  1.00  0.00    -0.206 F 
ATOM     42  C   UNL A   1      43.554  25.005  35.010  1.00  0.00     0.040 A 
ATOM     43  C   UNL A   1      43.361  26.591  36.791  1.00  0.00     0.040 A 
ATOM     44  F   UNL A   1      43.112  28.853  36.348  1.00  0.00    -0.206 F 
ATOM     45  C   UNL A   1      43.445  25.271  36.370  1.00  0.00     0.006 A 
ENDBRANCH  24  38
BRANCH  25  46
ATOM     46  C   UNL A   1      42.586  24.693  26.645  1.00  0.00     0.057 A 
ATOM     47  C   UNL A   1      43.343  24.465  25.487  1.00  0.00     0.134 A 
ATOM     48  C   UNL A   1      41.866  23.592  27.139  1.00  0.00     0.134 A 
ATOM     49  F   UNL A   1      44.106  25.438  24.968  1.00  0.00    -0.206 F 
ATOM     50  C   UNL A   1      43.379  23.215  24.856  1.00  0.00     0.040 A 
ATOM     51  C   UNL A   1      41.880  22.344  26.512  1.00  0.00     0.040 A 
ATOM     52  F   UNL A   1      41.185  23.672  28.293  1.00  0.00    -0.206 F 
ATOM     53  C   UNL A   1      42.646  22.150  25.369  1.00  0.00     0.006 A 
ENDBRANCH  25  46
BRANCH  37  54
ATOM     54  C   UNL A   1      45.966  29.629  28.588  1.00  0.00     0.057 A 
ATOM     55  C   UNL A   1      44.994  30.387  27.921  1.00  0.00     0.134 A 
ATOM     56  C   UNL A   1      47.304  29.882  28.265  1.00  0.00     0.134 A 
ATOM     57  F   UNL A   1      43.697  30.289  28.245  1.00  0.00    -0.206 F 
ATOM     58  C   UNL A   1      45.336  31.315  26.934  1.00  0.00     0.040 A 
ATOM     59  C   UNL A   1      47.662  30.832  27.306  1.00  0.00     0.040 A 
ATOM     60  F   UNL A   1      48.291  29.241  28.912  1.00  0.00    -0.206 F 
ATOM     61  C   UNL A   1      46.675  31.543  26.627  1.00  0.00     0.006 A 
ENDBRANCH  37  54
ENDBRANCH  11  12
ENDBRANCH   4   6
ENDBRANCH   1   2
BRANCH   1  62
ATOM     62  C   UNL A   1      32.743  29.834  27.223  1.00  0.00     0.042 C 
BRANCH  62  63
ATOM     63  C   UNL A   1      31.773  30.064  26.062  1.00  0.00     0.117 C 
BRANCH  63  64
ATOM     64  N   UNL A   1      32.405  29.835  24.776  1.00  0.00    -0.356 N 
ATOM     65  C   UNL A   1      32.563  28.801  23.928  1.00  0.00     0.223 C 
ATOM     66  H   UNL A   1      32.831  30.653  24.432  1.00  0.00     0.163 HD
ATOM     67  O   UNL A   1      33.293  29.062  22.958  1.00  0.00    -0.275 OA
BRANCH  65  68
ATOM     68  C   UNL A   1      31.878  27.428  23.989  1.00  0.00     0.087 C 
ATOM     69  C   UNL A   1      31.537  26.751  25.312  1.00  0.00     0.068 C 
ATOM     70  C   UNL A   1      32.728  26.427  23.169  1.00  0.00     0.068 C 
ATOM     71  C   UNL A   1      32.780  26.318  26.069  1.00  0.00     0.277 C 
ATOM     72  C   UNL A   1      34.002  26.042  23.929  1.00  0.00     0.277 C 
ATOM     73  N   UNL A   1      33.634  25.483  25.231  1.00  0.00    -0.230 N 
ATOM     74  C   UNL A   1      34.247  24.342  25.728  1.00  0.00     0.383 C 
ATOM     75  N   UNL A   1      35.472  24.024  25.407  1.00  0.00    -0.155 N 
ATOM     76  C   UNL A   1      33.490  23.442  26.690  1.00  0.00     0.523 C 
ATOM     77  C   UNL A   1      36.033  22.899  25.962  1.00  0.00     0.414 C 
ATOM     78  H   UNL A   1      35.984  24.580  24.776  1.00  0.00     0.367 HD
ATOM     79  C   UNL A   1      34.060  22.094  26.489  1.00  0.00     0.389 C 
ATOM     80  N   UNL A   1      32.077  23.215  26.310  1.00  0.00     0.003 NA
ATOM     81  Cl  UNL A   1      37.742  22.832  25.933  1.00  0.00     0.028 Cl
ATOM     82  N   UNL A   1      35.394  21.911  26.504  1.00  0.00    -0.155 N 
ATOM     83  N   UNL A   1      33.179  21.201  26.197  1.00  0.00    -0.169 N 
ATOM     84  C   UNL A   1      32.022  21.932  26.095  1.00  0.00     0.532 C 
ATOM     85  H   UNL A   1      35.833  21.116  26.884  1.00  0.00     0.367 HD
ATOM     86  H   UNL A   1      33.305  20.232  26.076  1.00  0.00     0.365 HD
ENDBRANCH  65  68
ENDBRANCH  63  64
ENDBRANCH  62  63
ENDBRANCH   1  62
TORSDOF 10
ENDMDL
MODEL 3
REMARK VINA RESULT:     -12.5      4.999     10.569
REMARK SMILES O=C(NCCCNC(=O)C1CCN(C2=[NH+]C(Cl)=[NH+]C3=[NH+]C=N[C@@H]32)CC1)c1ccc(-c2c3nc(c(-c4c(F)cccc4F)c4ccc([nH]4)c(-c4c(F)cccc4F)c4nc(c(-c5c(F)cccc5F)c5ccc2[nH]5)C=C4)C=C3)cc1
REMARK SMILES IDX 4 1 3 2 1 3 2 4 26 6 27 7 79 8 28 9 78 10 29 11 30 12 31 13
REMARK SMILES IDX 72 14 32 15 77 16 71 17 73 18 33 19 76 20 70 21 69 22 34 24
REMARK SMILES IDX 60 25 43 26 59 27 44 28 47 29 58 30 74 31 45 32 46 33 57 35
REMARK SMILES IDX 75 36 48 37 35 38 36 39 41 40 37 41 38 42 40 43 42 44 39 45
REMARK SMILES IDX 61 46 62 47 67 48 63 49 64 50 66 51 68 52 65 53 49 54 50 55
REMARK SMILES IDX 55 56 51 57 52 58 54 59 56 60 53 61 5 62 6 63 7 64 8 65 9 67
REMARK SMILES IDX 10 68 11 69 25 70 12 71 24 72 13 73 14 74 15 75 23 76 16 77
REMARK SMILES IDX 19 79 22 80 17 81 18 82 20 83 21 84
REMARK H PARENT 3 5 73 23 47 34 7 66 15 78 18 85 20 86
REMARK Flexibility Score: inf
ROOT
ATOM      1  C   UNL A   1      34.491  34.182  28.350  1.00  0.00     0.118 C 
ENDROOT
BRANCH   1   2
ATOM      2  N   UNL A   1      33.862  32.916  28.037  1.00  0.00    -0.352 N 
ATOM      3  O   UNL A   1      33.448  30.764  27.726  1.00  0.00    -0.269 OA
ATOM      4  C   UNL A   1      34.291  31.617  28.016  1.00  0.00     0.251 C 
ATOM      5  H   UNL A   1      32.915  33.010  27.782  1.00  0.00     0.163 HD
BRANCH   4   6
ATOM      6  C   UNL A   1      35.691  31.177  28.268  1.00  0.00     0.039 A 
ATOM      7  C   UNL A   1      36.739  32.002  28.682  1.00  0.00     0.014 A 
ATOM      8  C   UNL A   1      35.944  29.802  28.119  1.00  0.00     0.014 A 
ATOM      9  C   UNL A   1      38.021  31.479  28.880  1.00  0.00     0.010 A 
ATOM     10  C   UNL A   1      37.212  29.271  28.353  1.00  0.00     0.010 A 
ATOM     11  C   UNL A   1      38.265  30.113  28.715  1.00  0.00    -0.014 A 
BRANCH  11  12
ATOM     12  C   UNL A   1      39.597  29.590  29.049  1.00  0.00     0.031 A 
ATOM     13  C   UNL A   1      39.949  29.475  30.500  1.00  0.00     0.074 A 
ATOM     14  C   UNL A   1      40.425  29.004  28.160  1.00  0.00     0.049 A 
ATOM     15  N   UNL A   1      41.019  29.883  31.112  1.00  0.00    -0.248 NA
ATOM     16  C   UNL A   1      38.985  28.793  31.378  1.00  0.00     0.031 C 
ATOM     17  C   UNL A   1      40.147  28.667  26.764  1.00  0.00     0.029 A 
ATOM     18  N   UNL A   1      41.664  28.463  28.376  1.00  0.00    -0.354 N 
ATOM     19  C   UNL A   1      40.938  29.385  32.413  1.00  0.00     0.074 A 
ATOM     20  C   UNL A   1      39.638  28.773  32.539  1.00  0.00     0.031 C 
ATOM     21  C   UNL A   1      41.083  27.798  26.327  1.00  0.00     0.029 A 
ATOM     22  C   UNL A   1      42.086  27.616  27.365  1.00  0.00     0.049 A 
ATOM     23  H   UNL A   1      42.205  28.658  29.175  1.00  0.00     0.167 HD
ATOM     24  C   UNL A   1      41.988  29.373  33.280  1.00  0.00     0.037 A 
ATOM     25  C   UNL A   1      43.143  26.771  27.390  1.00  0.00     0.037 A 
ATOM     26  C   UNL A   1      43.049  30.256  32.891  1.00  0.00     0.049 A 
ATOM     27  C   UNL A   1      44.061  27.178  28.476  1.00  0.00     0.074 A 
ATOM     28  C   UNL A   1      43.173  31.614  32.677  1.00  0.00     0.029 A 
ATOM     29  N   UNL A   1      44.223  29.709  32.442  1.00  0.00    -0.354 N 
ATOM     30  N   UNL A   1      44.827  28.231  28.455  1.00  0.00    -0.248 NA
ATOM     31  C   UNL A   1      43.938  26.524  29.771  1.00  0.00     0.031 C 
ATOM     32  C   UNL A   1      44.200  31.752  31.700  1.00  0.00     0.029 A 
ATOM     33  C   UNL A   1      44.616  30.463  31.368  1.00  0.00     0.049 A 
ATOM     34  H   UNL A   1      44.692  28.929  32.818  1.00  0.00     0.167 HD
ATOM     35  C   UNL A   1      44.959  28.599  29.783  1.00  0.00     0.074 A 
ATOM     36  C   UNL A   1      44.525  27.437  30.545  1.00  0.00     0.031 C 
ATOM     37  C   UNL A   1      45.130  29.905  30.141  1.00  0.00     0.037 A 
BRANCH  24  38
ATOM     38  C   UNL A   1      42.172  28.360  34.379  1.00  0.00     0.057 A 
ATOM     39  C   UNL A   1      42.550  27.042  34.073  1.00  0.00     0.134 A 
ATOM     40  C   UNL A   1      41.726  28.573  35.697  1.00  0.00     0.134 A 
ATOM     41  F   UNL A   1      42.948  26.710  32.835  1.00  0.00    -0.206 F 
ATOM     42  C   UNL A   1      42.467  26.001  35.007  1.00  0.00     0.040 A 
ATOM     43  C   UNL A   1      41.682  27.551  36.651  1.00  0.00     0.040 A 
ATOM     44  F   UNL A   1      41.231  29.756  36.088  1.00  0.00    -0.206 F 
ATOM     45  C   UNL A   1      42.033  26.255  36.302  1.00  0.00     0.006 A 
ENDBRANCH  24  38
BRANCH  25  46
ATOM     46  C   UNL A   1      43.334  25.513  26.640  1.00  0.00     0.057 A 
ATOM     47  C   UNL A   1      42.546  24.382  26.896  1.00  0.00     0.134 A 
ATOM     48  C   UNL A   1      44.144  25.455  25.493  1.00  0.00     0.134 A 
ATOM     49  F   UNL A   1      41.701  24.361  27.936  1.00  0.00    -0.206 F 
ATOM     50  C   UNL A   1      42.566  23.258  26.061  1.00  0.00     0.040 A 
ATOM     51  C   UNL A   1      44.185  24.335  24.659  1.00  0.00     0.040 A 
ATOM     52  F   UNL A   1      44.865  26.517  25.101  1.00  0.00    -0.206 F 
ATOM     53  C   UNL A   1      43.387  23.233  24.938  1.00  0.00     0.006 A 
ENDBRANCH  25  46
BRANCH  37  54
ATOM     54  C   UNL A   1      45.546  30.873  29.076  1.00  0.00     0.057 A 
ATOM     55  C   UNL A   1      44.646  31.482  28.190  1.00  0.00     0.134 A 
ATOM     56  C   UNL A   1      46.874  31.311  29.037  1.00  0.00     0.134 A 
ATOM     57  F   UNL A   1      43.336  31.204  28.233  1.00  0.00    -0.206 F 
ATOM     58  C   UNL A   1      45.064  32.443  27.265  1.00  0.00     0.040 A 
ATOM     59  C   UNL A   1      47.298  32.296  28.141  1.00  0.00     0.040 A 
ATOM     60  F   UNL A   1      47.776  30.820  29.903  1.00  0.00    -0.206 F 
ATOM     61  C   UNL A   1      46.393  32.855  27.242  1.00  0.00     0.006 A 
ENDBRANCH  37  54
ENDBRANCH  11  12
ENDBRANCH   4   6
ENDBRANCH   1   2
BRANCH   1  62
ATOM     62  C   UNL A   1      33.550  35.232  28.938  1.00  0.00     0.042 C 
BRANCH  62  63
ATOM     63  C   UNL A   1      33.732  35.477  30.438  1.00  0.00     0.117 C 
BRANCH  63  64
ATOM     64  N   UNL A   1      33.733  34.238  31.193  1.00  0.00    -0.356 N 
ATOM     65  C   UNL A   1      34.651  33.425  31.750  1.00  0.00     0.223 C 
ATOM     66  H   UNL A   1      32.818  33.902  31.335  1.00  0.00     0.163 HD
ATOM     67  O   UNL A   1      34.169  32.384  32.224  1.00  0.00    -0.275 OA
BRANCH  65  68
ATOM     68  C   UNL A   1      36.151  33.697  31.935  1.00  0.00     0.087 C 
ATOM     69  C   UNL A   1      37.150  32.576  32.199  1.00  0.00     0.068 C 
ATOM     70  C   UNL A   1      36.317  34.734  33.071  1.00  0.00     0.068 C 
ATOM     71  C   UNL A   1      36.955  31.947  33.568  1.00  0.00     0.277 C 
ATOM     72  C   UNL A   1      36.066  34.091  34.440  1.00  0.00     0.277 C 
ATOM     73  N   UNL A   1      36.982  32.962  34.615  1.00  0.00    -0.230 N 
ATOM     74  C   UNL A   1      37.657  32.756  35.809  1.00  0.00     0.383 C 
ATOM     75  N   UNL A   1      37.163  33.146  36.953  1.00  0.00    -0.155 N 
ATOM     76  C   UNL A   1      38.995  32.039  35.800  1.00  0.00     0.523 C 
ATOM     77  C   UNL A   1      37.865  32.879  38.104  1.00  0.00     0.414 C 
ATOM     78  H   UNL A   1      36.303  33.624  36.991  1.00  0.00     0.367 HD
ATOM     79  C   UNL A   1      39.721  32.560  36.976  1.00  0.00     0.389 C 
ATOM     80  N   UNL A   1      39.893  32.462  34.700  1.00  0.00     0.003 NA
ATOM     81  Cl  UNL A   1      36.959  32.925  39.553  1.00  0.00     0.028 Cl
ATOM     82  N   UNL A   1      39.127  32.591  38.184  1.00  0.00    -0.155 N 
ATOM     83  N   UNL A   1      40.875  33.059  36.691  1.00  0.00    -0.169 N 
ATOM     84  C   UNL A   1      40.913  32.980  35.321  1.00  0.00     0.532 C 
ATOM     85  H   UNL A   1      39.596  32.415  39.030  1.00  0.00     0.367 HD
ATOM     86  H   UNL A   1      41.560  33.410  37.304  1.00  0.00     0.365 HD
ENDBRANCH  65  68
ENDBRANCH  63  64
ENDBRANCH  62  63
ENDBRANCH   1  62
TORSDOF 10
ENDMDL
