MODEL 1
REMARK VINA RESULT:     -13.1      0.000      0.000
REMARK SMILES CN(C)c1nccnc1N1CCC(Oc2ccc3ccccc3c2)(C(=O)NCCCNC(=O)c2ccc(-c3c4nc(c(-c5c(F)cccc5F)c5ccc([nH]5)c(-c5c(F)cccc5F)c5nc(c(-c6c(F)cccc6F)c6ccc3[nH]6)C=C5)C=C4)cc2)CC1
REMARK SMILES IDX 29 1 28 2 27 3 25 4 26 5 13 7 10 8 11 9 89 10 12 11 88 12
REMARK SMILES IDX 9 13 4 14 5 15 6 16 8 17 7 18 2 19 1 20 3 21 14 22 15 23
REMARK SMILES IDX 16 24 24 25 17 26 23 27 18 28 22 29 19 30 21 31 20 32 30 33
REMARK SMILES IDX 31 34 32 35 33 37 34 38 35 39 87 40 36 41 86 42 37 43 38 44
REMARK SMILES IDX 39 45 80 46 40 47 85 48 79 49 81 50 41 51 84 52 78 53 77 54
REMARK SMILES IDX 42 56 68 57 51 58 67 59 52 60 55 61 66 62 82 63 53 64 54 65
REMARK SMILES IDX 65 67 83 68 56 69 43 70 44 71 49 72 45 73 46 74 48 75 50 76
REMARK SMILES IDX 47 77 69 78 70 79 75 80 71 81 72 82 74 83 76 84 73 85 57 86
REMARK SMILES IDX 58 87 63 88 59 89 60 90 62 91 64 92 61 93
REMARK H PARENT 27 6 31 36 81 55 55 66
REMARK Flexibility Score: inf
ROOT
ATOM      1  C   UNL A   1      39.098  22.524  26.450  1.00  0.00     0.042 C 
ENDROOT
BRANCH   1   2
ATOM      2  C   UNL A   1      37.959  23.440  26.019  1.00  0.00     0.118 C 
BRANCH   2   3
ATOM      3  N   UNL A   1      37.678  23.310  24.602  1.00  0.00    -0.353 N 
ATOM      4  C   UNL A   1      36.492  23.195  23.937  1.00  0.00     0.264 C 
ATOM      5  O   UNL A   1      36.577  23.185  22.705  1.00  0.00    -0.270 OA
ATOM      6  H   UNL A   1      38.474  23.302  24.024  1.00  0.00     0.163 HD
BRANCH   4   7
ATOM      7  C   UNL A   1      35.133  23.071  24.690  1.00  0.00     0.190 C 
ATOM      8  N   UNL A   1      33.586  25.172  23.515  1.00  0.00    -0.353 N 
ATOM      9  C   UNL A   1      33.786  23.965  22.749  1.00  0.00     0.123 C 
ATOM     10  C   UNL A   1      34.560  25.566  24.525  1.00  0.00     0.123 C 
ATOM     11  C   UNL A   1      33.980  22.804  23.704  1.00  0.00     0.080 C 
ATOM     12  C   UNL A   1      34.867  24.389  25.456  1.00  0.00     0.080 C 
BRANCH   8  13
ATOM     13  C   UNL A   1      32.351  25.797  23.502  1.00  0.00     0.171 A 
ATOM     14  C   UNL A   1      31.263  25.332  24.313  1.00  0.00     0.171 A 
ATOM     15  N   UNL A   1      30.023  25.873  24.187  1.00  0.00    -0.234 NA
ATOM     16  C   UNL A   1      29.894  26.883  23.300  1.00  0.00     0.134 A 
ATOM     17  N   UNL A   1      32.197  26.840  22.643  1.00  0.00    -0.234 NA
ATOM     18  C   UNL A   1      30.954  27.358  22.553  1.00  0.00     0.134 A 
BRANCH  14  19
ATOM     19  N   UNL A   1      31.450  24.339  25.291  1.00  0.00    -0.360 N 
ATOM     20  C   UNL A   1      30.706  23.111  25.101  1.00  0.00     0.145 C 
ATOM     21  C   UNL A   1      31.620  24.832  26.651  1.00  0.00     0.145 C 
ENDBRANCH  14  19
ENDBRANCH   8  13
BRANCH   7  22
ATOM     22  O   UNL A   1      35.404  21.965  25.597  1.00  0.00    -0.477 OA
BRANCH  22  23
ATOM     23  C   UNL A   1      34.627  20.852  25.468  1.00  0.00     0.121 A 
ATOM     24  C   UNL A   1      33.309  20.829  25.908  1.00  0.00     0.047 A 
ATOM     25  C   UNL A   1      35.162  19.759  24.793  1.00  0.00     0.055 A 
ATOM     26  C   UNL A   1      32.567  19.653  25.815  1.00  0.00     0.012 A 
ATOM     27  C   UNL A   1      34.415  18.578  24.658  1.00  0.00    -0.015 A 
ATOM     28  C   UNL A   1      33.114  18.516  25.209  1.00  0.00    -0.018 A 
ATOM     29  C   UNL A   1      34.934  17.455  23.996  1.00  0.00     0.009 A 
ATOM     30  C   UNL A   1      32.387  17.319  25.128  1.00  0.00     0.009 A 
ATOM     31  C   UNL A   1      34.191  16.278  23.907  1.00  0.00     0.001 A 
ATOM     32  C   UNL A   1      32.926  16.206  24.483  1.00  0.00     0.001 A 
ENDBRANCH  22  23
ENDBRANCH   7  22
ENDBRANCH   4   7
ENDBRANCH   2   3
ENDBRANCH   1   2
BRANCH   1  33
ATOM     33  C   UNL A   1      40.270  23.262  27.081  1.00  0.00     0.118 C 
BRANCH  33  34
ATOM     34  N   UNL A   1      41.108  23.926  26.092  1.00  0.00    -0.352 N 
ATOM     35  C   UNL A   1      41.447  25.249  25.974  1.00  0.00     0.251 C 
ATOM     36  H   UNL A   1      41.490  23.334  25.405  1.00  0.00     0.163 HD
ATOM     37  O   UNL A   1      41.998  25.652  24.952  1.00  0.00    -0.269 OA
BRANCH  35  38
ATOM     38  C   UNL A   1      41.134  26.198  27.063  1.00  0.00     0.039 A 
ATOM     39  C   UNL A   1      40.155  25.858  27.999  1.00  0.00     0.014 A 
ATOM     40  C   UNL A   1      41.795  27.425  27.155  1.00  0.00     0.014 A 
ATOM     41  C   UNL A   1      39.892  26.715  29.070  1.00  0.00     0.010 A 
ATOM     42  C   UNL A   1      41.592  28.238  28.265  1.00  0.00     0.010 A 
ATOM     43  C   UNL A   1      40.636  27.893  29.234  1.00  0.00    -0.014 A 
BRANCH  43  44
ATOM     44  C   UNL A   1      40.441  28.782  30.409  1.00  0.00     0.031 A 
ATOM     45  C   UNL A   1      39.372  29.841  30.381  1.00  0.00     0.074 A 
ATOM     46  C   UNL A   1      41.283  28.697  31.460  1.00  0.00     0.049 A 
ATOM     47  N   UNL A   1      39.129  30.792  31.246  1.00  0.00    -0.248 NA
ATOM     48  C   UNL A   1      38.476  29.849  29.213  1.00  0.00     0.031 C 
ATOM     49  C   UNL A   1      42.386  27.742  31.588  1.00  0.00     0.029 A 
ATOM     50  N   UNL A   1      41.356  29.443  32.610  1.00  0.00    -0.354 N 
ATOM     51  C   UNL A   1      38.076  31.527  30.714  1.00  0.00     0.074 A 
ATOM     52  C   UNL A   1      37.749  30.935  29.436  1.00  0.00     0.031 C 
ATOM     53  C   UNL A   1      43.022  27.958  32.752  1.00  0.00     0.029 A 
ATOM     54  C   UNL A   1      42.403  29.092  33.429  1.00  0.00     0.049 A 
ATOM     55  H   UNL A   1      40.719  30.161  32.828  1.00  0.00     0.167 HD
ATOM     56  C   UNL A   1      37.433  32.589  31.251  1.00  0.00     0.037 A 
ATOM     57  C   UNL A   1      42.834  29.639  34.583  1.00  0.00     0.037 A 
ATOM     58  C   UNL A   1      37.734  33.147  32.542  1.00  0.00     0.049 A 
ATOM     59  C   UNL A   1      42.097  30.822  35.154  1.00  0.00     0.074 A 
ATOM     60  C   UNL A   1      37.078  34.166  33.211  1.00  0.00     0.029 A 
ATOM     61  N   UNL A   1      38.777  32.739  33.358  1.00  0.00    -0.354 N 
ATOM     62  N   UNL A   1      41.048  31.450  34.680  1.00  0.00    -0.248 NA
ATOM     63  C   UNL A   1      42.600  31.371  36.421  1.00  0.00     0.031 C 
ATOM     64  C   UNL A   1      37.759  34.415  34.404  1.00  0.00     0.029 A 
ATOM     65  C   UNL A   1      38.802  33.509  34.508  1.00  0.00     0.049 A 
ATOM     66  H   UNL A   1      39.406  32.010  33.151  1.00  0.00     0.167 HD
ATOM     67  C   UNL A   1      40.745  32.440  35.608  1.00  0.00     0.074 A 
ATOM     68  C   UNL A   1      41.713  32.321  36.677  1.00  0.00     0.031 C 
ATOM     69  C   UNL A   1      39.756  33.364  35.578  1.00  0.00     0.037 A 
BRANCH  56  70
ATOM     70  C   UNL A   1      36.338  33.231  30.453  1.00  0.00     0.057 A 
ATOM     71  C   UNL A   1      36.606  34.067  29.361  1.00  0.00     0.134 A 
ATOM     72  C   UNL A   1      34.995  32.937  30.728  1.00  0.00     0.134 A 
ATOM     73  F   UNL A   1      37.869  34.395  29.050  1.00  0.00    -0.206 F 
ATOM     74  C   UNL A   1      35.578  34.593  28.576  1.00  0.00     0.040 A 
ATOM     75  C   UNL A   1      33.961  33.437  29.934  1.00  0.00     0.040 A 
ATOM     76  F   UNL A   1      34.669  32.138  31.755  1.00  0.00    -0.206 F 
ATOM     77  C   UNL A   1      34.252  34.269  28.855  1.00  0.00     0.006 A 
ENDBRANCH  56  70
BRANCH  57  78
ATOM     78  C   UNL A   1      44.029  29.094  35.279  1.00  0.00     0.057 A 
ATOM     79  C   UNL A   1      45.316  29.559  34.983  1.00  0.00     0.134 A 
ATOM     80  C   UNL A   1      43.920  28.060  36.216  1.00  0.00     0.134 A 
ATOM     81  F   UNL A   1      45.490  30.537  34.081  1.00  0.00    -0.206 F 
ATOM     82  C   UNL A   1      46.452  28.991  35.563  1.00  0.00     0.040 A 
ATOM     83  C   UNL A   1      45.044  27.503  36.827  1.00  0.00     0.040 A 
ATOM     84  F   UNL A   1      42.716  27.573  36.553  1.00  0.00    -0.206 F 
ATOM     85  C   UNL A   1      46.317  27.959  36.489  1.00  0.00     0.006 A 
ENDBRANCH  57  78
BRANCH  69  86
ATOM     86  C   UNL A   1      39.628  34.285  36.754  1.00  0.00     0.057 A 
ATOM     87  C   UNL A   1      40.142  35.588  36.738  1.00  0.00     0.134 A 
ATOM     88  C   UNL A   1      38.928  33.880  37.899  1.00  0.00     0.134 A 
ATOM     89  F   UNL A   1      40.833  36.033  35.678  1.00  0.00    -0.206 F 
ATOM     90  C   UNL A   1      39.981  36.447  37.826  1.00  0.00     0.040 A 
ATOM     91  C   UNL A   1      38.734  34.740  38.979  1.00  0.00     0.040 A 
ATOM     92  F   UNL A   1      38.401  32.648  37.974  1.00  0.00    -0.206 F 
ATOM     93  C   UNL A   1      39.267  36.026  38.947  1.00  0.00     0.006 A 
ENDBRANCH  69  86
ENDBRANCH  43  44
ENDBRANCH  35  38
ENDBRANCH  33  34
ENDBRANCH   1  33
TORSDOF 14
ENDMDL
MODEL 2
REMARK VINA RESULT:     -13.0      6.881      9.143
REMARK SMILES CN(C)c1nccnc1N1CCC(Oc2ccc3ccccc3c2)(C(=O)NCCCNC(=O)c2ccc(-c3c4nc(c(-c5c(F)cccc5F)c5ccc([nH]5)c(-c5c(F)cccc5F)c5nc(c(-c6c(F)cccc6F)c6ccc3[nH]6)C=C5)C=C4)cc2)CC1
REMARK SMILES IDX 29 1 28 2 27 3 25 4 26 5 13 7 10 8 11 9 89 10 12 11 88 12
REMARK SMILES IDX 9 13 4 14 5 15 6 16 8 17 7 18 2 19 1 20 3 21 14 22 15 23
REMARK SMILES IDX 16 24 24 25 17 26 23 27 18 28 22 29 19 30 21 31 20 32 30 33
REMARK SMILES IDX 31 34 32 35 33 37 34 38 35 39 87 40 36 41 86 42 37 43 38 44
REMARK SMILES IDX 39 45 80 46 40 47 85 48 79 49 81 50 41 51 84 52 78 53 77 54
REMARK SMILES IDX 42 56 68 57 51 58 67 59 52 60 55 61 66 62 82 63 53 64 54 65
REMARK SMILES IDX 65 67 83 68 56 69 43 70 44 71 49 72 45 73 46 74 48 75 50 76
REMARK SMILES IDX 47 77 69 78 70 79 75 80 71 81 72 82 74 83 76 84 73 85 57 86
REMARK SMILES IDX 58 87 63 88 59 89 60 90 62 91 64 92 61 93
REMARK H PARENT 27 6 31 36 81 55 55 66
REMARK Flexibility Score: inf
ROOT
ATOM      1  C   UNL A   1      38.482  24.495  26.600  1.00  0.00     0.042 C 
ENDROOT
BRANCH   1   2
ATOM      2  C   UNL A   1      38.026  23.147  26.057  1.00  0.00     0.118 C 
BRANCH   2   3
ATOM      3  N   UNL A   1      37.734  23.215  24.638  1.00  0.00    -0.353 N 
ATOM      4  C   UNL A   1      36.541  23.231  23.975  1.00  0.00     0.264 C 
ATOM      5  O   UNL A   1      36.621  23.381  22.751  1.00  0.00    -0.270 OA
ATOM      6  H   UNL A   1      38.527  23.257  24.057  1.00  0.00     0.163 HD
BRANCH   4   7
ATOM      7  C   UNL A   1      35.183  23.055  24.716  1.00  0.00     0.190 C 
ATOM      8  N   UNL A   1      33.594  25.153  23.593  1.00  0.00    -0.353 N 
ATOM      9  C   UNL A   1      33.825  23.973  22.795  1.00  0.00     0.123 C 
ATOM     10  C   UNL A   1      34.553  25.540  24.619  1.00  0.00     0.123 C 
ATOM     11  C   UNL A   1      34.040  22.790  23.717  1.00  0.00     0.080 C 
ATOM     12  C   UNL A   1      34.883  24.344  25.518  1.00  0.00     0.080 C 
BRANCH   8  13
ATOM     13  C   UNL A   1      32.344  25.750  23.591  1.00  0.00     0.171 A 
ATOM     14  C   UNL A   1      31.264  25.237  24.384  1.00  0.00     0.171 A 
ATOM     15  N   UNL A   1      30.012  25.754  24.266  1.00  0.00    -0.234 NA
ATOM     16  C   UNL A   1      29.865  26.785  23.407  1.00  0.00     0.134 A 
ATOM     17  N   UNL A   1      32.170  26.812  22.762  1.00  0.00    -0.234 NA
ATOM     18  C   UNL A   1      30.917  27.304  22.679  1.00  0.00     0.134 A 
BRANCH  14  19
ATOM     19  N   UNL A   1      31.469  24.222  25.334  1.00  0.00    -0.360 N 
ATOM     20  C   UNL A   1      30.771  22.975  25.095  1.00  0.00     0.145 C 
ATOM     21  C   UNL A   1      31.600  24.678  26.711  1.00  0.00     0.145 C 
ENDBRANCH  14  19
ENDBRANCH   8  13
BRANCH   7  22
ATOM     22  O   UNL A   1      35.475  21.930  25.593  1.00  0.00    -0.477 OA
BRANCH  22  23
ATOM     23  C   UNL A   1      34.679  20.829  25.477  1.00  0.00     0.121 A 
ATOM     24  C   UNL A   1      33.374  20.820  25.955  1.00  0.00     0.047 A 
ATOM     25  C   UNL A   1      35.177  19.736  24.775  1.00  0.00     0.055 A 
ATOM     26  C   UNL A   1      32.613  19.655  25.874  1.00  0.00     0.012 A 
ATOM     27  C   UNL A   1      34.410  18.567  24.650  1.00  0.00    -0.015 A 
ATOM     28  C   UNL A   1      33.125  18.517  25.239  1.00  0.00    -0.018 A 
ATOM     29  C   UNL A   1      34.893  17.444  23.962  1.00  0.00     0.009 A 
ATOM     30  C   UNL A   1      32.380  17.331  25.169  1.00  0.00     0.009 A 
ATOM     31  C   UNL A   1      34.131  16.278  23.883  1.00  0.00     0.001 A 
ATOM     32  C   UNL A   1      32.883  16.218  24.496  1.00  0.00     0.001 A 
ENDBRANCH  22  23
ENDBRANCH   7  22
ENDBRANCH   4   7
ENDBRANCH   2   3
ENDBRANCH   1   2
BRANCH   1  33
ATOM     33  C   UNL A   1      39.967  24.762  26.404  1.00  0.00     0.118 C 
BRANCH  33  34
ATOM     34  N   UNL A   1      40.751  23.534  26.354  1.00  0.00    -0.352 N 
ATOM     35  C   UNL A   1      42.104  23.362  26.218  1.00  0.00     0.251 C 
ATOM     36  H   UNL A   1      40.230  22.704  26.432  1.00  0.00     0.163 HD
ATOM     37  O   UNL A   1      42.560  22.243  25.989  1.00  0.00    -0.269 OA
BRANCH  35  38
ATOM     38  C   UNL A   1      43.018  24.519  26.322  1.00  0.00     0.039 A 
ATOM     39  C   UNL A   1      43.525  24.872  27.575  1.00  0.00     0.014 A 
ATOM     40  C   UNL A   1      43.366  25.261  25.191  1.00  0.00     0.014 A 
ATOM     41  C   UNL A   1      44.439  25.923  27.682  1.00  0.00     0.010 A 
ATOM     42  C   UNL A   1      44.338  26.251  25.286  1.00  0.00     0.010 A 
ATOM     43  C   UNL A   1      44.884  26.595  26.533  1.00  0.00    -0.014 A 
BRANCH  43  44
ATOM     44  C   UNL A   1      45.920  27.657  26.603  1.00  0.00     0.031 A 
ATOM     45  C   UNL A   1      45.509  29.101  26.715  1.00  0.00     0.074 A 
ATOM     46  C   UNL A   1      47.223  27.332  26.473  1.00  0.00     0.049 A 
ATOM     47  N   UNL A   1      46.252  30.177  26.660  1.00  0.00    -0.248 NA
ATOM     48  C   UNL A   1      44.072  29.372  26.882  1.00  0.00     0.031 C 
ATOM     49  C   UNL A   1      47.746  25.974  26.314  1.00  0.00     0.029 A 
ATOM     50  N   UNL A   1      48.343  28.124  26.429  1.00  0.00    -0.354 N 
ATOM     51  C   UNL A   1      45.372  31.249  26.755  1.00  0.00     0.074 A 
ATOM     52  C   UNL A   1      44.038  30.696  26.837  1.00  0.00     0.031 C 
ATOM     53  C   UNL A   1      49.083  26.027  26.196  1.00  0.00     0.029 A 
ATOM     54  C   UNL A   1      49.507  27.423  26.222  1.00  0.00     0.049 A 
ATOM     55  H   UNL A   1      48.315  29.103  26.536  1.00  0.00     0.167 HD
ATOM     56  C   UNL A   1      45.654  32.571  26.787  1.00  0.00     0.037 A 
ATOM     57  C   UNL A   1      50.771  27.856  26.047  1.00  0.00     0.037 A 
ATOM     58  C   UNL A   1      46.985  33.115  26.751  1.00  0.00     0.049 A 
ATOM     59  C   UNL A   1      51.052  29.335  26.087  1.00  0.00     0.074 A 
ATOM     60  C   UNL A   1      47.377  34.437  26.869  1.00  0.00     0.029 A 
ATOM     61  N   UNL A   1      48.140  32.368  26.579  1.00  0.00    -0.354 N 
ATOM     62  N   UNL A   1      50.217  30.331  26.265  1.00  0.00    -0.248 NA
ATOM     63  C   UNL A   1      52.449  29.752  25.904  1.00  0.00     0.031 C 
ATOM     64  C   UNL A   1      48.763  34.498  26.710  1.00  0.00     0.029 A 
ATOM     65  C   UNL A   1      49.241  33.208  26.555  1.00  0.00     0.049 A 
ATOM     66  H   UNL A   1      48.173  31.388  26.488  1.00  0.00     0.167 HD
ATOM     67  C   UNL A   1      50.993  31.484  26.254  1.00  0.00     0.074 A 
ATOM     68  C   UNL A   1      52.365  31.064  26.063  1.00  0.00     0.031 C 
ATOM     69  C   UNL A   1      50.605  32.774  26.390  1.00  0.00     0.037 A 
BRANCH  56  70
ATOM     70  C   UNL A   1      44.509  33.538  26.864  1.00  0.00     0.057 A 
ATOM     71  C   UNL A   1      44.027  34.022  28.085  1.00  0.00     0.134 A 
ATOM     72  C   UNL A   1      43.943  34.059  25.692  1.00  0.00     0.134 A 
ATOM     73  F   UNL A   1      44.520  33.558  29.243  1.00  0.00    -0.206 F 
ATOM     74  C   UNL A   1      43.015  34.983  28.141  1.00  0.00     0.040 A 
ATOM     75  C   UNL A   1      42.949  35.039  25.735  1.00  0.00     0.040 A 
ATOM     76  F   UNL A   1      44.363  33.643  24.488  1.00  0.00    -0.206 F 
ATOM     77  C   UNL A   1      42.482  35.503  26.963  1.00  0.00     0.006 A 
ENDBRANCH  56  70
BRANCH  57  78
ATOM     78  C   UNL A   1      51.875  26.891  25.803  1.00  0.00     0.057 A 
ATOM     79  C   UNL A   1      52.218  26.493  24.505  1.00  0.00     0.134 A 
ATOM     80  C   UNL A   1      52.577  26.301  26.861  1.00  0.00     0.134 A 
ATOM     81  F   UNL A   1      51.570  27.007  23.449  1.00  0.00    -0.206 F 
ATOM     82  C   UNL A   1      53.189  25.518  24.269  1.00  0.00     0.040 A 
ATOM     83  C   UNL A   1      53.573  25.349  26.640  1.00  0.00     0.040 A 
ATOM     84  F   UNL A   1      52.306  26.644  28.130  1.00  0.00    -0.206 F 
ATOM     85  C   UNL A   1      53.870  24.944  25.340  1.00  0.00     0.006 A 
ENDBRANCH  57  78
BRANCH  69  86
ATOM     86  C   UNL A   1      51.674  33.826  26.394  1.00  0.00     0.057 A 
ATOM     87  C   UNL A   1      52.300  34.245  27.575  1.00  0.00     0.134 A 
ATOM     88  C   UNL A   1      52.124  34.385  25.190  1.00  0.00     0.134 A 
ATOM     89  F   UNL A   1      51.909  33.759  28.762  1.00  0.00    -0.206 F 
ATOM     90  C   UNL A   1      53.322  35.196  27.559  1.00  0.00     0.040 A 
ATOM     91  C   UNL A   1      53.164  35.313  25.159  1.00  0.00     0.040 A 
ATOM     92  F   UNL A   1      51.573  34.018  24.022  1.00  0.00    -0.206 F 
ATOM     93  C   UNL A   1      53.762  35.726  26.347  1.00  0.00     0.006 A 
ENDBRANCH  69  86
ENDBRANCH  43  44
ENDBRANCH  35  38
ENDBRANCH  33  34
ENDBRANCH   1  33
TORSDOF 14
ENDMDL
MODEL 3
REMARK VINA RESULT:     -13.0      5.216     10.609
REMARK SMILES CN(C)c1nccnc1N1CCC(Oc2ccc3ccccc3c2)(C(=O)NCCCNC(=O)c2ccc(-c3c4nc(c(-c5c(F)cccc5F)c5ccc([nH]5)c(-c5c(F)cccc5F)c5nc(c(-c6c(F)cccc6F)c6ccc3[nH]6)C=C5)C=C4)cc2)CC1
REMARK SMILES IDX 29 1 28 2 27 3 25 4 26 5 13 7 10 8 11 9 89 10 12 11 88 12
REMARK SMILES IDX 9 13 4 14 5 15 6 16 8 17 7 18 2 19 1 20 3 21 14 22 15 23
REMARK SMILES IDX 16 24 24 25 17 26 23 27 18 28 22 29 19 30 21 31 20 32 30 33
REMARK SMILES IDX 31 34 32 35 33 37 34 38 35 39 87 40 36 41 86 42 37 43 38 44
REMARK SMILES IDX 39 45 80 46 40 47 85 48 79 49 81 50 41 51 84 52 78 53 77 54
REMARK SMILES IDX 42 56 68 57 51 58 67 59 52 60 55 61 66 62 82 63 53 64 54 65
REMARK SMILES IDX 65 67 83 68 56 69 43 70 44 71 49 72 45 73 46 74 48 75 50 76
REMARK SMILES IDX 47 77 69 78 70 79 75 80 71 81 72 82 74 83 76 84 73 85 57 86
REMARK SMILES IDX 58 87 63 88 59 89 60 90 62 91 64 92 61 93
REMARK H PARENT 27 6 31 36 81 55 55 66
REMARK Flexibility Score: inf
ROOT
ATOM      1  C   UNL A   1      34.488  30.948  27.520  1.00  0.00     0.042 C 
ENDROOT
BRANCH   1   2
ATOM      2  C   UNL A   1      34.466  29.435  27.345  1.00  0.00     0.118 C 
BRANCH   2   3
ATOM      3  N   UNL A   1      33.237  28.858  27.856  1.00  0.00    -0.353 N 
ATOM      4  C   UNL A   1      32.310  28.061  27.251  1.00  0.00     0.264 C 
ATOM      5  O   UNL A   1      31.401  27.658  27.985  1.00  0.00    -0.270 OA
ATOM      6  H   UNL A   1      33.038  29.078  28.794  1.00  0.00     0.163 HD
BRANCH   4   7
ATOM      7  C   UNL A   1      32.392  27.702  25.737  1.00  0.00     0.190 C 
ATOM      8  N   UNL A   1      32.354  24.841  25.781  1.00  0.00    -0.353 N 
ATOM      9  C   UNL A   1      31.113  25.541  26.009  1.00  0.00     0.123 C 
ATOM     10  C   UNL A   1      33.623  25.481  26.102  1.00  0.00     0.123 C 
ATOM     11  C   UNL A   1      31.166  26.879  25.299  1.00  0.00     0.080 C 
ATOM     12  C   UNL A   1      33.682  26.884  25.490  1.00  0.00     0.080 C 
BRANCH   8  13
ATOM     13  C   UNL A   1      32.364  23.697  25.001  1.00  0.00     0.171 A 
ATOM     14  C   UNL A   1      33.245  22.601  25.285  1.00  0.00     0.171 A 
ATOM     15  N   UNL A   1      33.335  21.545  24.433  1.00  0.00    -0.234 NA
ATOM     16  C   UNL A   1      32.529  21.575  23.351  1.00  0.00     0.134 A 
ATOM     17  N   UNL A   1      31.538  23.679  23.922  1.00  0.00    -0.234 NA
ATOM     18  C   UNL A   1      31.649  22.611  23.105  1.00  0.00     0.134 A 
BRANCH  14  19
ATOM     19  N   UNL A   1      34.006  22.559  26.466  1.00  0.00    -0.360 N 
ATOM     20  C   UNL A   1      35.416  22.265  26.305  1.00  0.00     0.145 C 
ATOM     21  C   UNL A   1      33.321  22.005  27.626  1.00  0.00     0.145 C 
ENDBRANCH  14  19
ENDBRANCH   8  13
BRANCH   7  22
ATOM     22  O   UNL A   1      32.466  29.023  25.130  1.00  0.00    -0.477 OA
BRANCH  22  23
ATOM     23  C   UNL A   1      31.529  29.326  24.187  1.00  0.00     0.121 A 
ATOM     24  C   UNL A   1      31.486  28.667  22.964  1.00  0.00     0.047 A 
ATOM     25  C   UNL A   1      30.548  30.256  24.518  1.00  0.00     0.055 A 
ATOM     26  C   UNL A   1      30.553  29.048  22.002  1.00  0.00     0.012 A 
ATOM     27  C   UNL A   1      29.577  30.625  23.575  1.00  0.00    -0.015 A 
ATOM     28  C   UNL A   1      29.604  30.038  22.288  1.00  0.00    -0.018 A 
ATOM     29  C   UNL A   1      28.585  31.570  23.876  1.00  0.00     0.009 A 
ATOM     30  C   UNL A   1      28.673  30.447  21.323  1.00  0.00     0.009 A 
ATOM     31  C   UNL A   1      27.653  31.953  22.911  1.00  0.00     0.001 A 
ATOM     32  C   UNL A   1      27.705  31.402  21.633  1.00  0.00     0.001 A 
ENDBRANCH  22  23
ENDBRANCH   7  22
ENDBRANCH   4   7
ENDBRANCH   2   3
ENDBRANCH   1   2
BRANCH   1  33
ATOM     33  C   UNL A   1      35.671  31.452  28.335  1.00  0.00     0.118 C 
BRANCH  33  34
ATOM     34  N   UNL A   1      35.560  31.110  29.747  1.00  0.00    -0.352 N 
ATOM     35  C   UNL A   1      36.346  30.291  30.516  1.00  0.00     0.251 C 
ATOM     36  H   UNL A   1      34.807  31.532  30.220  1.00  0.00     0.163 HD
ATOM     37  O   UNL A   1      35.972  29.963  31.640  1.00  0.00    -0.269 OA
BRANCH  35  38
ATOM     38  C   UNL A   1      37.630  29.784  29.992  1.00  0.00     0.039 A 
ATOM     39  C   UNL A   1      37.870  29.835  28.616  1.00  0.00     0.014 A 
ATOM     40  C   UNL A   1      38.594  29.249  30.850  1.00  0.00     0.014 A 
ATOM     41  C   UNL A   1      39.104  29.418  28.111  1.00  0.00     0.010 A 
ATOM     42  C   UNL A   1      39.850  28.914  30.358  1.00  0.00     0.010 A 
ATOM     43  C   UNL A   1      40.119  28.992  28.982  1.00  0.00    -0.014 A 
BRANCH  43  44
ATOM     44  C   UNL A   1      41.470  28.626  28.484  1.00  0.00     0.031 A 
ATOM     45  C   UNL A   1      41.765  27.205  28.087  1.00  0.00     0.074 A 
ATOM     46  C   UNL A   1      42.454  29.549  28.478  1.00  0.00     0.049 A 
ATOM     47  N   UNL A   1      42.907  26.661  27.753  1.00  0.00    -0.248 NA
ATOM     48  C   UNL A   1      40.632  26.265  28.093  1.00  0.00     0.031 C 
ATOM     49  C   UNL A   1      42.306  30.949  28.880  1.00  0.00     0.029 A 
ATOM     50  N   UNL A   1      43.780  29.441  28.143  1.00  0.00    -0.354 N 
ATOM     51  C   UNL A   1      42.637  25.315  27.540  1.00  0.00     0.074 A 
ATOM     52  C   UNL A   1      41.231  25.115  27.815  1.00  0.00     0.031 C 
ATOM     53  C   UNL A   1      43.492  31.569  28.764  1.00  0.00     0.029 A 
ATOM     54  C   UNL A   1      44.493  30.602  28.325  1.00  0.00     0.049 A 
ATOM     55  H   UNL A   1      44.184  28.609  27.803  1.00  0.00     0.167 HD
ATOM     56  C   UNL A   1      43.482  24.338  27.137  1.00  0.00     0.037 A 
ATOM     57  C   UNL A   1      45.809  30.855  28.181  1.00  0.00     0.037 A 
ATOM     58  C   UNL A   1      44.870  24.550  26.822  1.00  0.00     0.049 A 
ATOM     59  C   UNL A   1      46.723  29.746  27.732  1.00  0.00     0.074 A 
ATOM     60  C   UNL A   1      45.785  23.641  26.319  1.00  0.00     0.029 A 
ATOM     61  N   UNL A   1      45.544  25.750  26.983  1.00  0.00    -0.354 N 
ATOM     62  N   UNL A   1      46.434  28.498  27.450  1.00  0.00    -0.248 NA
ATOM     63  C   UNL A   1      48.146  30.079  27.578  1.00  0.00     0.031 C 
ATOM     64  C   UNL A   1      47.026  24.274  26.231  1.00  0.00     0.029 A 
ATOM     65  C   UNL A   1      46.871  25.594  26.621  1.00  0.00     0.049 A 
ATOM     66  H   UNL A   1      45.140  26.588  27.307  1.00  0.00     0.167 HD
ATOM     67  C   UNL A   1      47.629  27.912  27.050  1.00  0.00     0.074 A 
ATOM     68  C   UNL A   1      48.643  28.942  27.114  1.00  0.00     0.031 C 
ATOM     69  C   UNL A   1      47.866  26.635  26.665  1.00  0.00     0.037 A 
BRANCH  56  70
ATOM     70  C   UNL A   1      42.945  22.944  27.011  1.00  0.00     0.057 A 
ATOM     71  C   UNL A   1      42.654  22.155  28.131  1.00  0.00     0.134 A 
ATOM     72  C   UNL A   1      42.631  22.417  25.750  1.00  0.00     0.134 A 
ATOM     73  F   UNL A   1      42.938  22.597  29.365  1.00  0.00    -0.206 F 
ATOM     74  C   UNL A   1      42.078  20.890  28.003  1.00  0.00     0.040 A 
ATOM     75  C   UNL A   1      42.031  21.164  25.611  1.00  0.00     0.040 A 
ATOM     76  F   UNL A   1      42.877  23.122  24.636  1.00  0.00    -0.206 F 
ATOM     77  C   UNL A   1      41.754  20.396  26.740  1.00  0.00     0.006 A 
ENDBRANCH  56  70
BRANCH  57  78
ATOM     78  C   UNL A   1      46.356  32.205  28.474  1.00  0.00     0.057 A 
ATOM     79  C   UNL A   1      46.728  32.572  29.773  1.00  0.00     0.134 A 
ATOM     80  C   UNL A   1      46.472  33.179  27.475  1.00  0.00     0.134 A 
ATOM     81  F   UNL A   1      46.623  31.690  30.779  1.00  0.00    -0.206 F 
ATOM     82  C   UNL A   1      47.155  33.866  30.076  1.00  0.00     0.040 A 
ATOM     83  C   UNL A   1      46.928  34.468  27.756  1.00  0.00     0.040 A 
ATOM     84  F   UNL A   1      46.143  32.893  26.206  1.00  0.00    -0.206 F 
ATOM     85  C   UNL A   1      47.257  34.818  29.065  1.00  0.00     0.006 A 
ENDBRANCH  57  78
BRANCH  69  86
ATOM     86  C   UNL A   1      49.257  26.287  26.228  1.00  0.00     0.057 A 
ATOM     87  C   UNL A   1      49.744  26.624  24.959  1.00  0.00     0.134 A 
ATOM     88  C   UNL A   1      50.141  25.656  27.114  1.00  0.00     0.134 A 
ATOM     89  F   UNL A   1      48.946  27.218  24.059  1.00  0.00    -0.206 F 
ATOM     90  C   UNL A   1      51.055  26.328  24.580  1.00  0.00     0.040 A 
ATOM     91  C   UNL A   1      51.462  25.383  26.757  1.00  0.00     0.040 A 
ATOM     92  F   UNL A   1      49.741  25.316  28.348  1.00  0.00    -0.206 F 
ATOM     93  C   UNL A   1      51.920  25.714  25.484  1.00  0.00     0.006 A 
ENDBRANCH  69  86
ENDBRANCH  43  44
ENDBRANCH  35  38
ENDBRANCH  33  34
ENDBRANCH   1  33
TORSDOF 14
ENDMDL
