MODEL 1
REMARK VINA RESULT:     -12.3      0.000      0.000
REMARK SMILES Cc1ccc(C(C)C)c(OCC(=O)Nc2nc(CC(=O)NCCCNC(=O)c3ccc(-c4c5nc(c(-c6c(F)cccc6F)c6ccc([nH]6)c(-c6c(F)cccc6F)c6nc(c(-c7c(F)cccc7F)c7ccc4[nH]7)C=C6)C=C5)cc3)cs2)c1
REMARK SMILES IDX 19 1 20 2 21 3 18 5 17 6 15 7 16 8 83 9 82 10 14 11 12 12
REMARK SMILES IDX 13 13 11 15 10 16 9 17 1 18 2 19 3 20 84 21 4 22 5 23 6 24
REMARK SMILES IDX 7 25 8 26 22 27 23 28 24 29 25 30 26 31 27 33 28 34 29 35
REMARK SMILES IDX 81 36 30 37 80 38 31 39 32 40 33 41 74 42 34 43 79 44 73 45
REMARK SMILES IDX 75 46 35 47 78 48 72 49 71 50 36 52 62 53 45 54 61 55 46 56
REMARK SMILES IDX 49 57 60 58 76 59 47 60 48 61 59 63 77 64 50 65 37 66 38 67
REMARK SMILES IDX 43 68 39 69 40 70 42 71 44 72 41 73 63 74 64 75 69 76 65 77
REMARK SMILES IDX 66 78 68 79 70 80 67 81 51 82 52 83 57 84 53 85 54 86 56 87
REMARK SMILES IDX 58 88 55 89
REMARK H PARENT 21 4 14 14 25 32 75 51 49 62
REMARK Flexibility Score: inf
ROOT
ATOM      1  C   UNL A   1      31.861  28.447  27.291  1.00  0.00     0.226 C 
ATOM      2  O   UNL A   1      31.216  27.784  28.105  1.00  0.00    -0.275 OA
ATOM      3  N   UNL A   1      31.672  29.803  27.258  1.00  0.00    -0.356 N 
ATOM      4  H   UNL A   1      30.967  30.152  27.849  1.00  0.00     0.163 HD
ENDROOT
BRANCH   1   5
ATOM      5  C   UNL A   1      32.836  27.780  26.332  1.00  0.00     0.157 C 
BRANCH   5   6
ATOM      6  C   UNL A   1      32.140  27.319  25.095  1.00  0.00     0.063 A 
ATOM      7  C   UNL A   1      32.116  26.842  22.948  1.00  0.00     0.189 A 
ATOM      8  N   UNL A   1      32.902  27.047  23.967  1.00  0.00    -0.224 NA
ATOM      9  S   UNL A   1      30.439  26.850  23.263  1.00  0.00    -0.105 S 
ATOM     10  C   UNL A   1      30.775  27.177  24.913  1.00  0.00     0.093 A 
BRANCH   7  11
ATOM     11  N   UNL A   1      32.440  26.665  21.640  1.00  0.00    -0.299 N 
ATOM     12  C   UNL A   1      32.902  25.523  21.067  1.00  0.00     0.264 C 
ATOM     13  O   UNL A   1      33.245  25.582  19.879  1.00  0.00    -0.271 OA
ATOM     14  H   UNL A   1      32.329  27.444  21.048  1.00  0.00     0.172 HD
BRANCH  12  15
ATOM     15  C   UNL A   1      32.893  24.175  21.815  1.00  0.00     0.329 C 
BRANCH  15  16
ATOM     16  O   UNL A   1      33.917  23.884  22.747  1.00  0.00    -0.483 OA
BRANCH  16  17
ATOM     17  C   UNL A   1      33.604  23.649  24.057  1.00  0.00     0.123 A 
ATOM     18  C   UNL A   1      30.647  23.036  26.389  1.00  0.00     0.044 C 
ATOM     19  C   UNL A   1      32.049  23.207  25.885  1.00  0.00    -0.047 A 
ATOM     20  C   UNL A   1      33.126  23.027  26.751  1.00  0.00     0.004 A 
ATOM     21  C   UNL A   1      32.296  23.532  24.545  1.00  0.00     0.050 A 
ATOM     22  C   UNL A   1      34.431  23.188  26.290  1.00  0.00     0.008 A 
ATOM     23  C   UNL A   1      34.694  23.493  24.942  1.00  0.00    -0.003 A 
BRANCH  23  24
ATOM     24  C   UNL A   1      36.136  23.668  24.476  1.00  0.00     0.017 C 
ATOM     25  C   UNL A   1      37.102  23.721  25.661  1.00  0.00     0.012 C 
ATOM     26  C   UNL A   1      36.579  22.565  23.505  1.00  0.00     0.012 C 
ENDBRANCH  23  24
ENDBRANCH  16  17
ENDBRANCH  15  16
ENDBRANCH  12  15
ENDBRANCH   7  11
ENDBRANCH   5   6
ENDBRANCH   1   5
BRANCH   3  27
ATOM     27  C   UNL A   1      32.379  30.794  26.462  1.00  0.00     0.117 C 
BRANCH  27  28
ATOM     28  C   UNL A   1      33.272  31.726  27.268  1.00  0.00     0.042 C 
BRANCH  28  29
ATOM     29  C   UNL A   1      34.482  31.030  27.866  1.00  0.00     0.118 C 
BRANCH  29  30
ATOM     30  N   UNL A   1      35.551  31.910  28.331  1.00  0.00    -0.352 N 
ATOM     31  C   UNL A   1      36.835  31.592  28.759  1.00  0.00     0.251 C 
ATOM     32  H   UNL A   1      35.331  32.870  28.342  1.00  0.00     0.163 HD
ATOM     33  O   UNL A   1      37.584  32.470  29.155  1.00  0.00    -0.269 OA
BRANCH  31  34
ATOM     34  C   UNL A   1      37.347  30.204  28.590  1.00  0.00     0.039 A 
ATOM     35  C   UNL A   1      37.379  29.370  29.715  1.00  0.00     0.014 A 
ATOM     36  C   UNL A   1      38.023  29.832  27.437  1.00  0.00     0.014 A 
ATOM     37  C   UNL A   1      38.325  28.348  29.778  1.00  0.00     0.010 A 
ATOM     38  C   UNL A   1      39.063  28.938  27.554  1.00  0.00     0.010 A 
ATOM     39  C   UNL A   1      39.255  28.238  28.748  1.00  0.00    -0.014 A 
BRANCH  39  40
ATOM     40  C   UNL A   1      40.531  27.543  28.875  1.00  0.00     0.031 A 
ATOM     41  C   UNL A   1      40.644  26.105  28.551  1.00  0.00     0.074 A 
ATOM     42  C   UNL A   1      41.647  28.264  29.129  1.00  0.00     0.049 A 
ATOM     43  N   UNL A   1      41.594  25.341  28.971  1.00  0.00    -0.248 NA
ATOM     44  C   UNL A   1      39.663  25.397  27.737  1.00  0.00     0.031 C 
ATOM     45  C   UNL A   1      43.031  27.846  28.931  1.00  0.00     0.029 A 
ATOM     46  N   UNL A   1      41.748  29.496  29.791  1.00  0.00    -0.354 N 
ATOM     47  C   UNL A   1      41.526  24.157  28.268  1.00  0.00     0.074 A 
ATOM     48  C   UNL A   1      40.266  24.219  27.566  1.00  0.00     0.031 C 
ATOM     49  C   UNL A   1      43.834  28.630  29.668  1.00  0.00     0.029 A 
ATOM     50  C   UNL A   1      42.980  29.477  30.481  1.00  0.00     0.049 A 
ATOM     51  H   UNL A   1      41.090  30.227  29.779  1.00  0.00     0.167 HD
ATOM     52  C   UNL A   1      42.611  23.329  28.251  1.00  0.00     0.037 A 
ATOM     53  C   UNL A   1      43.037  29.557  31.842  1.00  0.00     0.037 A 
ATOM     54  C   UNL A   1      43.690  23.868  29.080  1.00  0.00     0.049 A 
ATOM     55  C   UNL A   1      43.678  28.358  32.497  1.00  0.00     0.074 A 
ATOM     56  C   UNL A   1      44.834  24.584  28.763  1.00  0.00     0.029 A 
ATOM     57  N   UNL A   1      43.532  23.964  30.457  1.00  0.00    -0.354 N 
ATOM     58  N   UNL A   1      43.809  27.199  31.914  1.00  0.00    -0.248 NA
ATOM     59  C   UNL A   1      44.201  28.357  33.861  1.00  0.00     0.031 C 
ATOM     60  C   UNL A   1      45.348  25.140  29.957  1.00  0.00     0.029 A 
ATOM     61  C   UNL A   1      44.527  24.753  31.002  1.00  0.00     0.049 A 
ATOM     62  H   UNL A   1      42.814  23.531  30.972  1.00  0.00     0.167 HD
ATOM     63  C   UNL A   1      44.382  26.307  32.785  1.00  0.00     0.074 A 
ATOM     64  C   UNL A   1      44.626  27.086  33.984  1.00  0.00     0.031 C 
ATOM     65  C   UNL A   1      44.593  25.005  32.434  1.00  0.00     0.037 A 
BRANCH  52  66
ATOM     66  C   UNL A   1      42.825  22.207  27.252  1.00  0.00     0.057 A 
ATOM     67  C   UNL A   1      42.037  21.037  27.300  1.00  0.00     0.134 A 
ATOM     68  C   UNL A   1      43.816  22.179  26.255  1.00  0.00     0.134 A 
ATOM     69  F   UNL A   1      40.958  20.943  28.088  1.00  0.00    -0.206 F 
ATOM     70  C   UNL A   1      42.306  19.895  26.533  1.00  0.00     0.040 A 
ATOM     71  C   UNL A   1      44.130  21.029  25.515  1.00  0.00     0.040 A 
ATOM     72  F   UNL A   1      44.484  23.280  25.896  1.00  0.00    -0.206 F 
ATOM     73  C   UNL A   1      43.385  19.871  25.667  1.00  0.00     0.006 A 
ENDBRANCH  52  66
BRANCH  53  74
ATOM     74  C   UNL A   1      41.937  30.364  32.428  1.00  0.00     0.057 A 
ATOM     75  C   UNL A   1      42.049  31.764  32.400  1.00  0.00     0.134 A 
ATOM     76  C   UNL A   1      40.661  29.827  32.620  1.00  0.00     0.134 A 
ATOM     77  F   UNL A   1      43.247  32.340  32.217  1.00  0.00    -0.206 F 
ATOM     78  C   UNL A   1      40.925  32.594  32.443  1.00  0.00     0.040 A 
ATOM     79  C   UNL A   1      39.529  30.649  32.673  1.00  0.00     0.040 A 
ATOM     80  F   UNL A   1      40.473  28.500  32.632  1.00  0.00    -0.206 F 
ATOM     81  C   UNL A   1      39.656  32.032  32.543  1.00  0.00     0.006 A 
ENDBRANCH  53  74
BRANCH  65  82
ATOM     82  C   UNL A   1      44.976  23.867  33.354  1.00  0.00     0.057 A 
ATOM     83  C   UNL A   1      44.105  22.847  33.765  1.00  0.00     0.134 A 
ATOM     84  C   UNL A   1      46.325  23.686  33.747  1.00  0.00     0.134 A 
ATOM     85  F   UNL A   1      42.822  22.820  33.379  1.00  0.00    -0.206 F 
ATOM     86  C   UNL A   1      44.528  21.763  34.548  1.00  0.00     0.040 A 
ATOM     87  C   UNL A   1      46.767  22.582  34.480  1.00  0.00     0.040 A 
ATOM     88  F   UNL A   1      47.283  24.563  33.411  1.00  0.00    -0.206 F 
ATOM     89  C   UNL A   1      45.864  21.620  34.898  1.00  0.00     0.006 A 
ENDBRANCH  65  82
ENDBRANCH  39  40
ENDBRANCH  31  34
ENDBRANCH  29  30
ENDBRANCH  28  29
ENDBRANCH  27  28
ENDBRANCH   3  27
TORSDOF 16
ENDMDL
MODEL 2
REMARK VINA RESULT:     -12.2      1.781      2.791
REMARK SMILES Cc1ccc(C(C)C)c(OCC(=O)Nc2nc(CC(=O)NCCCNC(=O)c3ccc(-c4c5nc(c(-c6c(F)cccc6F)c6ccc([nH]6)c(-c6c(F)cccc6F)c6nc(c(-c7c(F)cccc7F)c7ccc4[nH]7)C=C6)C=C5)cc3)cs2)c1
REMARK SMILES IDX 19 1 20 2 21 3 18 5 17 6 15 7 16 8 83 9 82 10 14 11 12 12
REMARK SMILES IDX 13 13 11 15 10 16 9 17 1 18 2 19 3 20 84 21 4 22 5 23 6 24
REMARK SMILES IDX 7 25 8 26 22 27 23 28 24 29 25 30 26 31 27 33 28 34 29 35
REMARK SMILES IDX 81 36 30 37 80 38 31 39 32 40 33 41 74 42 34 43 79 44 73 45
REMARK SMILES IDX 75 46 35 47 78 48 72 49 71 50 36 52 62 53 45 54 61 55 46 56
REMARK SMILES IDX 49 57 60 58 76 59 47 60 48 61 59 63 77 64 50 65 37 66 38 67
REMARK SMILES IDX 43 68 39 69 40 70 42 71 44 72 41 73 63 74 64 75 69 76 65 77
REMARK SMILES IDX 66 78 68 79 70 80 67 81 51 82 52 83 57 84 53 85 54 86 56 87
REMARK SMILES IDX 58 88 55 89
REMARK H PARENT 21 4 14 14 25 32 75 51 49 62
REMARK Flexibility Score: inf
ROOT
ATOM      1  C   UNL A   1      33.491  28.736  24.719  1.00  0.00     0.226 C 
ATOM      2  O   UNL A   1      34.069  28.659  23.633  1.00  0.00    -0.275 OA
ATOM      3  N   UNL A   1      32.981  29.948  25.102  1.00  0.00    -0.356 N 
ATOM      4  H   UNL A   1      33.178  30.705  24.504  1.00  0.00     0.163 HD
ENDROOT
BRANCH   1   5
ATOM      5  C   UNL A   1      33.356  27.521  25.625  1.00  0.00     0.157 C 
BRANCH   5   6
ATOM      6  C   UNL A   1      32.054  26.827  25.399  1.00  0.00     0.063 A 
ATOM      7  C   UNL A   1      30.469  25.432  26.016  1.00  0.00     0.189 A 
ATOM      8  N   UNL A   1      31.492  26.113  26.448  1.00  0.00    -0.224 NA
ATOM      9  S   UNL A   1      30.035  25.661  24.382  1.00  0.00    -0.105 S 
ATOM     10  C   UNL A   1      31.342  26.760  24.214  1.00  0.00     0.093 A 
BRANCH   7  11
ATOM     11  N   UNL A   1      29.712  24.515  26.673  1.00  0.00    -0.299 N 
ATOM     12  C   UNL A   1      30.081  23.249  27.007  1.00  0.00     0.264 C 
ATOM     13  O   UNL A   1      29.216  22.521  27.513  1.00  0.00    -0.271 OA
ATOM     14  H   UNL A   1      28.804  24.795  26.933  1.00  0.00     0.172 HD
BRANCH  12  15
ATOM     15  C   UNL A   1      31.538  22.765  26.880  1.00  0.00     0.329 C 
BRANCH  15  16
ATOM     16  O   UNL A   1      32.151  22.714  25.605  1.00  0.00    -0.483 OA
BRANCH  16  17
ATOM     17  C   UNL A   1      33.466  22.356  25.491  1.00  0.00     0.123 A 
ATOM     18  C   UNL A   1      37.007  23.704  25.936  1.00  0.00     0.044 C 
ATOM     19  C   UNL A   1      35.864  22.775  25.656  1.00  0.00    -0.047 A 
ATOM     20  C   UNL A   1      36.113  21.437  25.356  1.00  0.00     0.004 A 
ATOM     21  C   UNL A   1      34.540  23.229  25.708  1.00  0.00     0.050 A 
ATOM     22  C   UNL A   1      35.055  20.568  25.092  1.00  0.00     0.008 A 
ATOM     23  C   UNL A   1      33.721  21.007  25.161  1.00  0.00    -0.003 A 
BRANCH  23  24
ATOM     24  C   UNL A   1      32.589  20.028  24.859  1.00  0.00     0.017 C 
ATOM     25  C   UNL A   1      32.274  19.986  23.363  1.00  0.00     0.012 C 
ATOM     26  C   UNL A   1      32.890  18.609  25.358  1.00  0.00     0.012 C 
ENDBRANCH  23  24
ENDBRANCH  16  17
ENDBRANCH  15  16
ENDBRANCH  12  15
ENDBRANCH   7  11
ENDBRANCH   5   6
ENDBRANCH   1   5
BRANCH   3  27
ATOM     27  C   UNL A   1      32.184  30.262  26.278  1.00  0.00     0.117 C 
BRANCH  27  28
ATOM     28  C   UNL A   1      32.890  31.146  27.296  1.00  0.00     0.042 C 
BRANCH  28  29
ATOM     29  C   UNL A   1      34.299  30.682  27.620  1.00  0.00     0.118 C 
BRANCH  29  30
ATOM     30  N   UNL A   1      35.090  31.593  28.443  1.00  0.00    -0.352 N 
ATOM     31  C   UNL A   1      36.291  31.368  29.107  1.00  0.00     0.251 C 
ATOM     32  H   UNL A   1      34.719  32.499  28.543  1.00  0.00     0.163 HD
ATOM     33  O   UNL A   1      36.789  32.249  29.790  1.00  0.00    -0.269 OA
BRANCH  31  34
ATOM     34  C   UNL A   1      37.046  30.108  28.861  1.00  0.00     0.039 A 
ATOM     35  C   UNL A   1      37.130  29.175  29.903  1.00  0.00     0.014 A 
ATOM     36  C   UNL A   1      37.867  29.976  27.751  1.00  0.00     0.014 A 
ATOM     37  C   UNL A   1      38.229  28.319  29.963  1.00  0.00     0.010 A 
ATOM     38  C   UNL A   1      39.031  29.256  27.885  1.00  0.00     0.010 A 
ATOM     39  C   UNL A   1      39.244  28.473  29.022  1.00  0.00    -0.014 A 
BRANCH  39  40
ATOM     40  C   UNL A   1      40.606  27.985  29.209  1.00  0.00     0.031 A 
ATOM     41  C   UNL A   1      41.044  26.714  28.594  1.00  0.00     0.074 A 
ATOM     42  C   UNL A   1      41.514  28.790  29.807  1.00  0.00     0.049 A 
ATOM     43  N   UNL A   1      42.066  26.034  28.989  1.00  0.00    -0.248 NA
ATOM     44  C   UNL A   1      40.337  26.086  27.486  1.00  0.00     0.031 C 
ATOM     45  C   UNL A   1      42.967  28.667  29.763  1.00  0.00     0.029 A 
ATOM     46  N   UNL A   1      41.281  29.814  30.737  1.00  0.00    -0.354 N 
ATOM     47  C   UNL A   1      42.326  25.071  28.038  1.00  0.00     0.074 A 
ATOM     48  C   UNL A   1      41.180  25.103  27.161  1.00  0.00     0.031 C 
ATOM     49  C   UNL A   1      43.496  29.358  30.785  1.00  0.00     0.029 A 
ATOM     50  C   UNL A   1      42.393  29.822  31.606  1.00  0.00     0.049 A 
ATOM     51  H   UNL A   1      40.497  30.408  30.776  1.00  0.00     0.167 HD
ATOM     52  C   UNL A   1      43.547  24.462  28.023  1.00  0.00     0.037 A 
ATOM     53  C   UNL A   1      42.258  29.564  32.940  1.00  0.00     0.037 A 
ATOM     54  C   UNL A   1      44.382  24.942  29.125  1.00  0.00     0.049 A 
ATOM     55  C   UNL A   1      43.036  28.359  33.409  1.00  0.00     0.074 A 
ATOM     56  C   UNL A   1      45.391  25.891  29.180  1.00  0.00     0.029 A 
ATOM     57  N   UNL A   1      44.033  24.660  30.440  1.00  0.00    -0.354 N 
ATOM     58  N   UNL A   1      43.469  27.422  32.613  1.00  0.00    -0.248 NA
ATOM     59  C   UNL A   1      43.370  28.098  34.807  1.00  0.00     0.031 C 
ATOM     60  C   UNL A   1      45.627  26.204  30.539  1.00  0.00     0.029 A 
ATOM     61  C   UNL A   1      44.772  25.437  31.312  1.00  0.00     0.049 A 
ATOM     62  H   UNL A   1      43.355  24.000  30.713  1.00  0.00     0.167 HD
ATOM     63  C   UNL A   1      44.092  26.445  33.346  1.00  0.00     0.074 A 
ATOM     64  C   UNL A   1      44.020  26.924  34.713  1.00  0.00     0.031 C 
ATOM     65  C   UNL A   1      44.603  25.325  32.753  1.00  0.00     0.037 A 
BRANCH  52  66
ATOM     66  C   UNL A   1      44.108  23.680  26.849  1.00  0.00     0.057 A 
ATOM     67  C   UNL A   1      43.687  22.356  26.598  1.00  0.00     0.134 A 
ATOM     68  C   UNL A   1      45.098  24.135  25.962  1.00  0.00     0.134 A 
ATOM     69  F   UNL A   1      42.654  21.806  27.250  1.00  0.00    -0.206 F 
ATOM     70  C   UNL A   1      44.297  21.521  25.652  1.00  0.00     0.040 A 
ATOM     71  C   UNL A   1      45.753  23.298  25.045  1.00  0.00     0.040 A 
ATOM     72  F   UNL A   1      45.434  25.427  25.885  1.00  0.00    -0.206 F 
ATOM     73  C   UNL A   1      45.367  21.977  24.901  1.00  0.00     0.006 A 
ENDBRANCH  52  66
BRANCH  53  74
ATOM     74  C   UNL A   1      40.954  30.006  33.493  1.00  0.00     0.057 A 
ATOM     75  C   UNL A   1      40.794  31.363  33.823  1.00  0.00     0.134 A 
ATOM     76  C   UNL A   1      39.792  29.250  33.316  1.00  0.00     0.134 A 
ATOM     77  F   UNL A   1      41.871  32.142  34.005  1.00  0.00    -0.206 F 
ATOM     78  C   UNL A   1      39.536  31.969  33.860  1.00  0.00     0.040 A 
ATOM     79  C   UNL A   1      38.525  29.845  33.359  1.00  0.00     0.040 A 
ATOM     80  F   UNL A   1      39.865  27.956  32.974  1.00  0.00    -0.206 F 
ATOM     81  C   UNL A   1      38.398  31.215  33.590  1.00  0.00     0.006 A 
ENDBRANCH  53  74
BRANCH  65  82
ATOM     82  C   UNL A   1      45.083  24.070  33.446  1.00  0.00     0.057 A 
ATOM     83  C   UNL A   1      46.404  23.847  33.862  1.00  0.00     0.134 A 
ATOM     84  C   UNL A   1      44.158  23.080  33.859  1.00  0.00     0.134 A 
ATOM     85  F   UNL A   1      47.372  24.747  33.645  1.00  0.00    -0.206 F 
ATOM     86  C   UNL A   1      46.786  22.705  34.582  1.00  0.00     0.040 A 
ATOM     87  C   UNL A   1      44.518  21.967  34.623  1.00  0.00     0.040 A 
ATOM     88  F   UNL A   1      42.853  23.163  33.561  1.00  0.00    -0.206 F 
ATOM     89  C   UNL A   1      45.841  21.767  34.976  1.00  0.00     0.006 A 
ENDBRANCH  65  82
ENDBRANCH  39  40
ENDBRANCH  31  34
ENDBRANCH  29  30
ENDBRANCH  28  29
ENDBRANCH  27  28
ENDBRANCH   3  27
TORSDOF 16
ENDMDL
MODEL 3
REMARK VINA RESULT:     -12.2      3.816      9.042
REMARK SMILES Cc1ccc(C(C)C)c(OCC(=O)Nc2nc(CC(=O)NCCCNC(=O)c3ccc(-c4c5nc(c(-c6c(F)cccc6F)c6ccc([nH]6)c(-c6c(F)cccc6F)c6nc(c(-c7c(F)cccc7F)c7ccc4[nH]7)C=C6)C=C5)cc3)cs2)c1
REMARK SMILES IDX 19 1 20 2 21 3 18 5 17 6 15 7 16 8 83 9 82 10 14 11 12 12
REMARK SMILES IDX 13 13 11 15 10 16 9 17 1 18 2 19 3 20 84 21 4 22 5 23 6 24
REMARK SMILES IDX 7 25 8 26 22 27 23 28 24 29 25 30 26 31 27 33 28 34 29 35
REMARK SMILES IDX 81 36 30 37 80 38 31 39 32 40 33 41 74 42 34 43 79 44 73 45
REMARK SMILES IDX 75 46 35 47 78 48 72 49 71 50 36 52 62 53 45 54 61 55 46 56
REMARK SMILES IDX 49 57 60 58 76 59 47 60 48 61 59 63 77 64 50 65 37 66 38 67
REMARK SMILES IDX 43 68 39 69 40 70 42 71 44 72 41 73 63 74 64 75 69 76 65 77
REMARK SMILES IDX 66 78 68 79 70 80 67 81 51 82 52 83 57 84 53 85 54 86 56 87
REMARK SMILES IDX 58 88 55 89
REMARK H PARENT 21 4 14 14 25 32 75 51 49 62
REMARK Flexibility Score: inf
ROOT
ATOM      1  C   UNL A   1      34.501  21.912  26.769  1.00  0.00     0.226 C 
ATOM      2  O   UNL A   1      34.218  22.651  27.714  1.00  0.00    -0.275 OA
ATOM      3  N   UNL A   1      35.798  21.881  26.331  1.00  0.00    -0.356 N 
ATOM      4  H   UNL A   1      36.412  22.518  26.763  1.00  0.00     0.163 HD
ENDROOT
BRANCH   1   5
ATOM      5  C   UNL A   1      33.437  21.061  26.092  1.00  0.00     0.157 C 
BRANCH   5   6
ATOM      6  C   UNL A   1      32.671  21.859  25.090  1.00  0.00     0.063 A 
ATOM      7  C   UNL A   1      32.548  23.042  23.239  1.00  0.00     0.189 A 
ATOM      8  N   UNL A   1      33.294  22.199  23.897  1.00  0.00    -0.224 NA
ATOM      9  S   UNL A   1      31.029  23.409  23.921  1.00  0.00    -0.105 S 
ATOM     10  C   UNL A   1      31.391  22.365  25.233  1.00  0.00     0.093 A 
BRANCH   7  11
ATOM     11  N   UNL A   1      32.828  23.717  22.094  1.00  0.00    -0.299 N 
ATOM     12  C   UNL A   1      33.113  25.042  21.984  1.00  0.00     0.264 C 
ATOM     13  O   UNL A   1      33.237  25.503  20.841  1.00  0.00    -0.271 OA
ATOM     14  H   UNL A   1      32.822  23.195  21.259  1.00  0.00     0.172 HD
BRANCH  12  15
ATOM     15  C   UNL A   1      33.393  25.921  23.219  1.00  0.00     0.329 C 
BRANCH  15  16
ATOM     16  O   UNL A   1      33.454  27.327  23.080  1.00  0.00    -0.483 OA
BRANCH  16  17
ATOM     17  C   UNL A   1      33.061  28.136  24.110  1.00  0.00     0.123 A 
ATOM     18  C   UNL A   1      34.308  29.704  27.356  1.00  0.00     0.044 C 
ATOM     19  C   UNL A   1      33.427  29.345  26.197  1.00  0.00    -0.047 A 
ATOM     20  C   UNL A   1      32.166  29.926  26.076  1.00  0.00     0.004 A 
ATOM     21  C   UNL A   1      33.861  28.442  25.219  1.00  0.00     0.050 A 
ATOM     22  C   UNL A   1      31.341  29.595  25.002  1.00  0.00     0.008 A 
ATOM     23  C   UNL A   1      31.773  28.705  24.002  1.00  0.00    -0.003 A 
BRANCH  23  24
ATOM     24  C   UNL A   1      30.839  28.361  22.845  1.00  0.00     0.017 C 
ATOM     25  C   UNL A   1      29.736  27.398  23.287  1.00  0.00     0.012 C 
ATOM     26  C   UNL A   1      30.206  29.606  22.210  1.00  0.00     0.012 C 
ENDBRANCH  23  24
ENDBRANCH  16  17
ENDBRANCH  15  16
ENDBRANCH  12  15
ENDBRANCH   7  11
ENDBRANCH   5   6
ENDBRANCH   1   5
BRANCH   3  27
ATOM     27  C   UNL A   1      36.386  21.028  25.310  1.00  0.00     0.117 C 
BRANCH  27  28
ATOM     28  C   UNL A   1      37.896  21.158  25.177  1.00  0.00     0.042 C 
BRANCH  28  29
ATOM     29  C   UNL A   1      38.443  22.448  25.766  1.00  0.00     0.118 C 
BRANCH  29  30
ATOM     30  N   UNL A   1      39.819  22.387  26.251  1.00  0.00    -0.352 N 
ATOM     31  C   UNL A   1      40.624  23.402  26.757  1.00  0.00     0.251 C 
ATOM     32  H   UNL A   1      40.239  21.497  26.215  1.00  0.00     0.163 HD
ATOM     33  O   UNL A   1      41.777  23.167  27.079  1.00  0.00    -0.269 OA
BRANCH  31  34
ATOM     34  C   UNL A   1      40.031  24.736  27.051  1.00  0.00     0.039 A 
ATOM     35  C   UNL A   1      40.413  25.819  26.248  1.00  0.00     0.014 A 
ATOM     36  C   UNL A   1      39.347  24.965  28.236  1.00  0.00     0.014 A 
ATOM     37  C   UNL A   1      40.383  27.106  26.782  1.00  0.00     0.010 A 
ATOM     38  C   UNL A   1      39.466  26.202  28.827  1.00  0.00     0.010 A 
ATOM     39  C   UNL A   1      40.042  27.262  28.123  1.00  0.00    -0.014 A 
BRANCH  39  40
ATOM     40  C   UNL A   1      40.386  28.436  28.918  1.00  0.00     0.031 A 
ATOM     41  C   UNL A   1      39.361  29.446  29.255  1.00  0.00     0.074 A 
ATOM     42  C   UNL A   1      41.610  28.506  29.488  1.00  0.00     0.049 A 
ATOM     43  N   UNL A   1      39.627  30.656  29.615  1.00  0.00    -0.248 NA
ATOM     44  C   UNL A   1      37.930  29.177  29.185  1.00  0.00     0.031 C 
ATOM     45  C   UNL A   1      42.024  29.370  30.589  1.00  0.00     0.029 A 
ATOM     46  N   UNL A   1      42.800  27.903  29.055  1.00  0.00    -0.354 N 
ATOM     47  C   UNL A   1      38.466  31.219  30.098  1.00  0.00     0.074 A 
ATOM     48  C   UNL A   1      37.428  30.281  29.743  1.00  0.00     0.031 C 
ATOM     49  C   UNL A   1      43.363  29.466  30.591  1.00  0.00     0.029 A 
ATOM     50  C   UNL A   1      43.844  28.789  29.400  1.00  0.00     0.049 A 
ATOM     51  H   UNL A   1      42.890  27.035  28.600  1.00  0.00     0.167 HD
ATOM     52  C   UNL A   1      38.541  32.343  30.869  1.00  0.00     0.037 A 
ATOM     53  C   UNL A   1      44.635  29.365  28.449  1.00  0.00     0.037 A 
ATOM     54  C   UNL A   1      39.927  32.794  30.999  1.00  0.00     0.049 A 
ATOM     55  C   UNL A   1      44.571  30.873  28.432  1.00  0.00     0.074 A 
ATOM     56  C   UNL A   1      40.868  32.624  32.003  1.00  0.00     0.029 A 
ATOM     57  N   UNL A   1      40.615  33.266  29.888  1.00  0.00    -0.354 N 
ATOM     58  N   UNL A   1      43.600  31.561  28.965  1.00  0.00    -0.248 NA
ATOM     59  C   UNL A   1      45.575  31.725  27.800  1.00  0.00     0.031 C 
ATOM     60  C   UNL A   1      42.136  32.967  31.479  1.00  0.00     0.029 A 
ATOM     61  C   UNL A   1      41.967  33.358  30.162  1.00  0.00     0.049 A 
ATOM     62  H   UNL A   1      40.199  33.501  29.027  1.00  0.00     0.167 HD
ATOM     63  C   UNL A   1      43.806  32.898  28.740  1.00  0.00     0.074 A 
ATOM     64  C   UNL A   1      45.066  32.950  28.023  1.00  0.00     0.031 C 
ATOM     65  C   UNL A   1      42.909  33.838  29.162  1.00  0.00     0.037 A 
BRANCH  52  66
ATOM     66  C   UNL A   1      37.425  32.854  31.762  1.00  0.00     0.057 A 
ATOM     67  C   UNL A   1      36.462  33.759  31.266  1.00  0.00     0.134 A 
ATOM     68  C   UNL A   1      37.264  32.549  33.124  1.00  0.00     0.134 A 
ATOM     69  F   UNL A   1      36.373  34.054  29.962  1.00  0.00    -0.206 F 
ATOM     70  C   UNL A   1      35.525  34.409  32.080  1.00  0.00     0.040 A 
ATOM     71  C   UNL A   1      36.364  33.226  33.963  1.00  0.00     0.040 A 
ATOM     72  F   UNL A   1      37.915  31.533  33.700  1.00  0.00    -0.206 F 
ATOM     73  C   UNL A   1      35.502  34.178  33.445  1.00  0.00     0.006 A 
ENDBRANCH  52  66
BRANCH  53  74
ATOM     74  C   UNL A   1      44.834  28.506  27.255  1.00  0.00     0.057 A 
ATOM     75  C   UNL A   1      45.762  27.454  27.335  1.00  0.00     0.134 A 
ATOM     76  C   UNL A   1      43.878  28.439  26.237  1.00  0.00     0.134 A 
ATOM     77  F   UNL A   1      46.704  27.460  28.291  1.00  0.00    -0.206 F 
ATOM     78  C   UNL A   1      45.671  26.326  26.515  1.00  0.00     0.040 A 
ATOM     79  C   UNL A   1      43.783  27.317  25.404  1.00  0.00     0.040 A 
ATOM     80  F   UNL A   1      42.943  29.392  26.113  1.00  0.00    -0.206 F 
ATOM     81  C   UNL A   1      44.655  26.241  25.569  1.00  0.00     0.006 A 
ENDBRANCH  53  74
BRANCH  65  82
ATOM     82  C   UNL A   1      42.877  35.299  28.774  1.00  0.00     0.057 A 
ATOM     83  C   UNL A   1      43.094  36.364  29.662  1.00  0.00     0.134 A 
ATOM     84  C   UNL A   1      42.766  35.678  27.414  1.00  0.00     0.134 A 
ATOM     85  F   UNL A   1      43.329  36.157  30.965  1.00  0.00    -0.206 F 
ATOM     86  C   UNL A   1      43.143  37.701  29.240  1.00  0.00     0.040 A 
ATOM     87  C   UNL A   1      42.868  37.001  26.976  1.00  0.00     0.040 A 
ATOM     88  F   UNL A   1      42.581  34.773  26.441  1.00  0.00    -0.206 F 
ATOM     89  C   UNL A   1      43.043  38.023  27.893  1.00  0.00     0.006 A 
ENDBRANCH  65  82
ENDBRANCH  39  40
ENDBRANCH  31  34
ENDBRANCH  29  30
ENDBRANCH  28  29
ENDBRANCH  27  28
ENDBRANCH   3  27
TORSDOF 16
ENDMDL
