MODEL 1
REMARK VINA RESULT:     -10.9      0.000      0.000
REMARK SMILES O=C(CSc1nc(-c2cccc(Br)c2)c[nH]1)NCCCNC(=O)c1ccc(-c2c3nc(c(-c4c(F)cccc4F)c4ccc([nH]4)c(-c4c(F)cccc4F)c4nc(c(-c5c(F)cccc5F)c5ccc2[nH]5)C=C4)C=C3)cc1
REMARK SMILES IDX 18 1 17 2 1 3 2 4 3 6 4 7 5 8 6 9 16 10 7 11 15 12 8 14 9 15
REMARK SMILES IDX 14 16 10 17 12 18 11 19 13 20 19 21 20 22 21 23 22 24 23 26
REMARK SMILES IDX 24 27 25 28 77 29 26 30 76 31 27 32 28 33 29 34 70 35 30 36
REMARK SMILES IDX 75 37 69 38 71 39 31 40 74 41 68 42 67 43 32 45 58 46 41 47
REMARK SMILES IDX 57 48 42 49 45 50 56 51 72 52 43 53 44 54 55 56 73 57 46 58
REMARK SMILES IDX 33 59 34 60 39 61 35 62 36 63 38 64 40 65 37 66 59 67 60 68
REMARK SMILES IDX 65 69 61 70 62 71 64 72 66 73 63 74 47 75 48 76 53 77 49 78
REMARK SMILES IDX 50 79 52 80 54 81 51 82
REMARK H PARENT 17 5 16 13 21 25 71 44 45 55
REMARK Flexibility Score: inf
ROOT
ATOM      1  C   UNL A   1      34.499  34.880  28.029  1.00  0.00     0.117 C 
ENDROOT
BRANCH   1   2
ATOM      2  N   UNL A   1      34.360  35.652  29.251  1.00  0.00    -0.355 N 
ATOM      3  O   UNL A   1      32.262  36.448  28.795  1.00  0.00    -0.274 OA
ATOM      4  C   UNL A   1      33.224  36.375  29.553  1.00  0.00     0.230 C 
ATOM      5  H   UNL A   1      35.108  35.660  29.891  1.00  0.00     0.163 HD
BRANCH   4   6
ATOM      6  C   UNL A   1      33.238  37.060  30.908  1.00  0.00     0.178 C 
BRANCH   6   7
ATOM      7  S   UNL A   1      32.347  36.086  32.152  1.00  0.00    -0.078 SA
BRANCH   7   8
ATOM      8  C   UNL A   1      33.561  34.994  32.713  1.00  0.00     0.166 A 
ATOM      9  N   UNL A   1      34.857  35.165  32.607  1.00  0.00    -0.223 NA
ATOM     10  N   UNL A   1      33.249  33.752  33.188  1.00  0.00    -0.339 N 
ATOM     11  C   UNL A   1      35.404  33.961  32.986  1.00  0.00     0.089 A 
ATOM     12  C   UNL A   1      34.422  33.072  33.363  1.00  0.00     0.113 A 
ATOM     13  H   UNL A   1      32.345  33.410  33.372  1.00  0.00     0.168 HD
BRANCH  11  14
ATOM     14  C   UNL A   1      36.819  33.667  32.959  1.00  0.00     0.003 A 
ATOM     15  C   UNL A   1      37.747  34.690  32.736  1.00  0.00     0.010 A 
ATOM     16  C   UNL A   1      37.271  32.356  33.158  1.00  0.00     0.026 A 
ATOM     17  C   UNL A   1      39.116  34.412  32.739  1.00  0.00     0.002 A 
ATOM     18  C   UNL A   1      38.638  32.083  33.144  1.00  0.00     0.018 A 
ATOM     19  C   UNL A   1      39.563  33.106  32.945  1.00  0.00     0.016 A 
ATOM     20  Br  UNL A   1      39.239  30.309  33.399  1.00  0.00    -0.051 Br
ENDBRANCH  11  14
ENDBRANCH   7   8
ENDBRANCH   6   7
ENDBRANCH   4   6
ENDBRANCH   1   2
BRANCH   1  21
ATOM     21  C   UNL A   1      33.758  33.550  28.083  1.00  0.00     0.042 C 
BRANCH  21  22
ATOM     22  C   UNL A   1      34.591  32.379  28.599  1.00  0.00     0.118 C 
BRANCH  22  23
ATOM     23  N   UNL A   1      34.051  31.079  28.227  1.00  0.00    -0.352 N 
ATOM     24  C   UNL A   1      34.681  29.875  28.022  1.00  0.00     0.251 C 
ATOM     25  H   UNL A   1      33.075  31.059  28.102  1.00  0.00     0.163 HD
ATOM     26  O   UNL A   1      34.039  28.930  27.569  1.00  0.00    -0.269 OA
BRANCH  24  27
ATOM     27  C   UNL A   1      36.123  29.711  28.305  1.00  0.00     0.039 A 
ATOM     28  C   UNL A   1      36.512  29.304  29.585  1.00  0.00     0.014 A 
ATOM     29  C   UNL A   1      37.094  29.966  27.333  1.00  0.00     0.014 A 
ATOM     30  C   UNL A   1      37.861  29.063  29.861  1.00  0.00     0.010 A 
ATOM     31  C   UNL A   1      38.429  29.656  27.585  1.00  0.00     0.010 A 
ATOM     32  C   UNL A   1      38.825  29.187  28.847  1.00  0.00    -0.014 A 
BRANCH  32  33
ATOM     33  C   UNL A   1      40.237  28.783  29.074  1.00  0.00     0.031 A 
ATOM     34  C   UNL A   1      41.231  29.754  29.649  1.00  0.00     0.074 A 
ATOM     35  C   UNL A   1      40.644  27.557  28.687  1.00  0.00     0.049 A 
ATOM     36  N   UNL A   1      42.520  29.606  29.831  1.00  0.00    -0.248 NA
ATOM     37  C   UNL A   1      40.713  31.068  30.053  1.00  0.00     0.031 C 
ATOM     38  C   UNL A   1      39.789  26.534  28.082  1.00  0.00     0.029 A 
ATOM     39  N   UNL A   1      41.884  26.968  28.730  1.00  0.00    -0.354 N 
ATOM     40  C   UNL A   1      42.967  30.809  30.361  1.00  0.00     0.074 A 
ATOM     41  C   UNL A   1      41.822  31.693  30.426  1.00  0.00     0.031 C 
ATOM     42  C   UNL A   1      40.523  25.441  27.827  1.00  0.00     0.029 A 
ATOM     43  C   UNL A   1      41.909  25.699  28.203  1.00  0.00     0.049 A 
ATOM     44  H   UNL A   1      42.679  27.412  29.103  1.00  0.00     0.167 HD
ATOM     45  C   UNL A   1      44.215  31.141  30.772  1.00  0.00     0.037 A 
ATOM     46  C   UNL A   1      42.936  24.846  28.022  1.00  0.00     0.037 A 
ATOM     47  C   UNL A   1      45.352  30.258  30.715  1.00  0.00     0.049 A 
ATOM     48  C   UNL A   1      44.317  25.255  28.449  1.00  0.00     0.074 A 
ATOM     49  C   UNL A   1      46.643  30.486  31.160  1.00  0.00     0.029 A 
ATOM     50  N   UNL A   1      45.338  28.982  30.170  1.00  0.00    -0.354 N 
ATOM     51  N   UNL A   1      44.713  26.372  29.010  1.00  0.00    -0.248 NA
ATOM     52  C   UNL A   1      45.396  24.285  28.216  1.00  0.00     0.031 C 
ATOM     53  C   UNL A   1      47.423  29.373  30.831  1.00  0.00     0.029 A 
ATOM     54  C   UNL A   1      46.606  28.426  30.236  1.00  0.00     0.049 A 
ATOM     55  H   UNL A   1      44.545  28.538  29.793  1.00  0.00     0.167 HD
ATOM     56  C   UNL A   1      46.079  26.229  29.220  1.00  0.00     0.074 A 
ATOM     57  C   UNL A   1      46.439  24.910  28.744  1.00  0.00     0.031 C 
ATOM     58  C   UNL A   1      46.955  27.112  29.757  1.00  0.00     0.037 A 
BRANCH  45  59
ATOM     59  C   UNL A   1      44.421  32.526  31.318  1.00  0.00     0.057 A 
ATOM     60  C   UNL A   1      44.847  33.586  30.507  1.00  0.00     0.134 A 
ATOM     61  C   UNL A   1      44.147  32.813  32.663  1.00  0.00     0.134 A 
ATOM     62  F   UNL A   1      45.135  33.379  29.214  1.00  0.00    -0.206 F 
ATOM     63  C   UNL A   1      45.021  34.874  31.019  1.00  0.00     0.040 A 
ATOM     64  C   UNL A   1      44.288  34.103  33.178  1.00  0.00     0.040 A 
ATOM     65  F   UNL A   1      43.727  31.848  33.494  1.00  0.00    -0.206 F 
ATOM     66  C   UNL A   1      44.733  35.136  32.356  1.00  0.00     0.006 A 
ENDBRANCH  45  59
BRANCH  46  67
ATOM     67  C   UNL A   1      42.697  23.515  27.406  1.00  0.00     0.057 A 
ATOM     68  C   UNL A   1      42.368  22.404  28.192  1.00  0.00     0.134 A 
ATOM     69  C   UNL A   1      42.806  23.317  26.024  1.00  0.00     0.134 A 
ATOM     70  F   UNL A   1      42.269  22.526  29.524  1.00  0.00    -0.206 F 
ATOM     71  C   UNL A   1      42.178  21.141  27.630  1.00  0.00     0.040 A 
ATOM     72  C   UNL A   1      42.590  22.065  25.445  1.00  0.00     0.040 A 
ATOM     73  F   UNL A   1      43.112  24.341  25.215  1.00  0.00    -0.206 F 
ATOM     74  C   UNL A   1      42.284  20.971  26.251  1.00  0.00     0.006 A 
ENDBRANCH  46  67
BRANCH  58  75
ATOM     75  C   UNL A   1      48.386  26.672  29.882  1.00  0.00     0.057 A 
ATOM     76  C   UNL A   1      49.347  26.992  28.914  1.00  0.00     0.134 A 
ATOM     77  C   UNL A   1      48.815  25.948  31.002  1.00  0.00     0.134 A 
ATOM     78  F   UNL A   1      49.000  27.672  27.811  1.00  0.00    -0.206 F 
ATOM     79  C   UNL A   1      50.677  26.588  29.043  1.00  0.00     0.040 A 
ATOM     80  C   UNL A   1      50.148  25.564  31.157  1.00  0.00     0.040 A 
ATOM     81  F   UNL A   1      47.950  25.614  31.971  1.00  0.00    -0.206 F 
ATOM     82  C   UNL A   1      51.082  25.876  30.172  1.00  0.00     0.006 A 
ENDBRANCH  58  75
ENDBRANCH  32  33
ENDBRANCH  24  27
ENDBRANCH  22  23
ENDBRANCH  21  22
ENDBRANCH   1  21
TORSDOF 13
ENDMDL
MODEL 2
REMARK VINA RESULT:     -10.9      5.115     11.915
REMARK SMILES O=C(CSc1nc(-c2cccc(Br)c2)c[nH]1)NCCCNC(=O)c1ccc(-c2c3nc(c(-c4c(F)cccc4F)c4ccc([nH]4)c(-c4c(F)cccc4F)c4nc(c(-c5c(F)cccc5F)c5ccc2[nH]5)C=C4)C=C3)cc1
REMARK SMILES IDX 18 1 17 2 1 3 2 4 3 6 4 7 5 8 6 9 16 10 7 11 15 12 8 14 9 15
REMARK SMILES IDX 14 16 10 17 12 18 11 19 13 20 19 21 20 22 21 23 22 24 23 26
REMARK SMILES IDX 24 27 25 28 77 29 26 30 76 31 27 32 28 33 29 34 70 35 30 36
REMARK SMILES IDX 75 37 69 38 71 39 31 40 74 41 68 42 67 43 32 45 58 46 41 47
REMARK SMILES IDX 57 48 42 49 45 50 56 51 72 52 43 53 44 54 55 56 73 57 46 58
REMARK SMILES IDX 33 59 34 60 39 61 35 62 36 63 38 64 40 65 37 66 59 67 60 68
REMARK SMILES IDX 65 69 61 70 62 71 64 72 66 73 63 74 47 75 48 76 53 77 49 78
REMARK SMILES IDX 50 79 52 80 54 81 51 82
REMARK H PARENT 17 5 16 13 21 25 71 44 45 55
REMARK Flexibility Score: inf
ROOT
ATOM      1  C   UNL A   1      41.385  20.110  26.490  1.00  0.00     0.117 C 
ENDROOT
BRANCH   1   2
ATOM      2  N   UNL A   1      42.792  19.918  26.187  1.00  0.00    -0.355 N 
ATOM      3  O   UNL A   1      42.647  17.669  25.784  1.00  0.00    -0.274 OA
ATOM      4  C   UNL A   1      43.320  18.694  25.834  1.00  0.00     0.230 C 
ATOM      5  H   UNL A   1      43.394  20.695  26.236  1.00  0.00     0.163 HD
BRANCH   4   6
ATOM      6  C   UNL A   1      44.798  18.706  25.486  1.00  0.00     0.178 C 
BRANCH   6   7
ATOM      7  S   UNL A   1      45.113  19.652  23.969  1.00  0.00    -0.078 SA
BRANCH   7   8
ATOM      8  C   UNL A   1      45.572  21.200  24.582  1.00  0.00     0.166 A 
ATOM      9  N   UNL A   1      45.616  21.544  25.847  1.00  0.00    -0.223 NA
ATOM     10  N   UNL A   1      45.784  22.267  23.756  1.00  0.00    -0.339 N 
ATOM     11  C   UNL A   1      45.818  22.905  25.835  1.00  0.00     0.089 A 
ATOM     12  C   UNL A   1      45.937  23.373  24.545  1.00  0.00     0.113 A 
ATOM     13  H   UNL A   1      45.821  22.244  22.773  1.00  0.00     0.168 HD
BRANCH  11  14
ATOM     14  C   UNL A   1      45.865  23.729  27.022  1.00  0.00     0.003 A 
ATOM     15  C   UNL A   1      46.690  24.858  27.063  1.00  0.00     0.010 A 
ATOM     16  C   UNL A   1      45.082  23.405  28.137  1.00  0.00     0.026 A 
ATOM     17  C   UNL A   1      46.714  25.672  28.198  1.00  0.00     0.002 A 
ATOM     18  C   UNL A   1      45.123  24.213  29.272  1.00  0.00     0.018 A 
ATOM     19  C   UNL A   1      45.928  25.350  29.305  1.00  0.00     0.016 A 
ATOM     20  Br  UNL A   1      44.074  23.760  30.780  1.00  0.00    -0.051 Br
ENDBRANCH  11  14
ENDBRANCH   7   8
ENDBRANCH   6   7
ENDBRANCH   4   6
ENDBRANCH   1   2
BRANCH   1  21
ATOM     21  C   UNL A   1      40.934  21.555  26.318  1.00  0.00     0.042 C 
BRANCH  21  22
ATOM     22  C   UNL A   1      41.961  22.597  26.755  1.00  0.00     0.118 C 
BRANCH  22  23
ATOM     23  N   UNL A   1      42.368  23.491  25.680  1.00  0.00    -0.352 N 
ATOM     24  C   UNL A   1      42.505  24.858  25.658  1.00  0.00     0.251 C 
ATOM     25  H   UNL A   1      42.580  23.042  24.829  1.00  0.00     0.163 HD
ATOM     26  O   UNL A   1      42.725  25.423  24.589  1.00  0.00    -0.269 OA
BRANCH  24  27
ATOM     27  C   UNL A   1      42.357  25.659  26.892  1.00  0.00     0.039 A 
ATOM     28  C   UNL A   1      43.233  26.727  27.106  1.00  0.00     0.014 A 
ATOM     29  C   UNL A   1      41.378  25.362  27.844  1.00  0.00     0.014 A 
ATOM     30  C   UNL A   1      43.069  27.552  28.222  1.00  0.00     0.010 A 
ATOM     31  C   UNL A   1      41.168  26.226  28.918  1.00  0.00     0.010 A 
ATOM     32  C   UNL A   1      42.001  27.339  29.110  1.00  0.00    -0.014 A 
BRANCH  32  33
ATOM     33  C   UNL A   1      41.713  28.295  30.210  1.00  0.00     0.031 A 
ATOM     34  C   UNL A   1      42.491  28.244  31.496  1.00  0.00     0.074 A 
ATOM     35  C   UNL A   1      40.690  29.164  30.080  1.00  0.00     0.049 A 
ATOM     36  N   UNL A   1      42.318  28.937  32.595  1.00  0.00    -0.248 NA
ATOM     37  C   UNL A   1      43.594  27.276  31.564  1.00  0.00     0.031 C 
ATOM     38  C   UNL A   1      39.833  29.290  28.899  1.00  0.00     0.029 A 
ATOM     39  N   UNL A   1      40.187  30.097  30.954  1.00  0.00    -0.354 N 
ATOM     40  C   UNL A   1      43.282  28.482  33.485  1.00  0.00     0.074 A 
ATOM     41  C   UNL A   1      44.006  27.421  32.815  1.00  0.00     0.031 C 
ATOM     42  C   UNL A   1      38.925  30.253  29.115  1.00  0.00     0.029 A 
ATOM     43  C   UNL A   1      39.100  30.780  30.465  1.00  0.00     0.049 A 
ATOM     44  H   UNL A   1      40.570  30.260  31.846  1.00  0.00     0.167 HD
ATOM     45  C   UNL A   1      43.551  28.920  34.738  1.00  0.00     0.037 A 
ATOM     46  C   UNL A   1      38.317  31.711  31.043  1.00  0.00     0.037 A 
ATOM     47  C   UNL A   1      42.836  29.982  35.399  1.00  0.00     0.049 A 
ATOM     48  C   UNL A   1      38.612  32.149  32.450  1.00  0.00     0.074 A 
ATOM     49  C   UNL A   1      43.073  30.533  36.647  1.00  0.00     0.029 A 
ATOM     50  N   UNL A   1      41.738  30.646  34.872  1.00  0.00    -0.354 N 
ATOM     51  N   UNL A   1      39.570  31.757  33.256  1.00  0.00    -0.248 NA
ATOM     52  C   UNL A   1      37.717  33.161  33.029  1.00  0.00     0.031 C 
ATOM     53  C   UNL A   1      42.083  31.489  36.900  1.00  0.00     0.029 A 
ATOM     54  C   UNL A   1      41.266  31.576  35.785  1.00  0.00     0.049 A 
ATOM     55  H   UNL A   1      41.352  30.481  33.982  1.00  0.00     0.167 HD
ATOM     56  C   UNL A   1      39.408  32.490  34.425  1.00  0.00     0.074 A 
ATOM     57  C   UNL A   1      38.272  33.365  34.216  1.00  0.00     0.031 C 
ATOM     58  C   UNL A   1      40.133  32.441  35.568  1.00  0.00     0.037 A 
BRANCH  45  59
ATOM     59  C   UNL A   1      44.668  28.246  35.484  1.00  0.00     0.057 A 
ATOM     60  C   UNL A   1      45.990  28.706  35.414  1.00  0.00     0.134 A 
ATOM     61  C   UNL A   1      44.410  27.150  36.319  1.00  0.00     0.134 A 
ATOM     62  F   UNL A   1      46.306  29.745  34.628  1.00  0.00    -0.206 F 
ATOM     63  C   UNL A   1      47.019  28.084  36.124  1.00  0.00     0.040 A 
ATOM     64  C   UNL A   1      45.426  26.539  37.057  1.00  0.00     0.040 A 
ATOM     65  F   UNL A   1      43.167  26.663  36.441  1.00  0.00    -0.206 F 
ATOM     66  C   UNL A   1      46.736  27.003  36.955  1.00  0.00     0.006 A 
ENDBRANCH  45  59
BRANCH  46  67
ATOM     67  C   UNL A   1      37.176  32.294  30.292  1.00  0.00     0.057 A 
ATOM     68  C   UNL A   1      37.363  33.364  29.409  1.00  0.00     0.134 A 
ATOM     69  C   UNL A   1      35.871  31.810  30.450  1.00  0.00     0.134 A 
ATOM     70  F   UNL A   1      38.586  33.885  29.231  1.00  0.00    -0.206 F 
ATOM     71  C   UNL A   1      36.294  33.945  28.725  1.00  0.00     0.040 A 
ATOM     72  C   UNL A   1      34.796  32.362  29.751  1.00  0.00     0.040 A 
ATOM     73  F   UNL A   1      35.625  30.783  31.276  1.00  0.00    -0.206 F 
ATOM     74  C   UNL A   1      35.006  33.440  28.893  1.00  0.00     0.006 A 
ENDBRANCH  46  67
BRANCH  58  75
ATOM     75  C   UNL A   1      39.737  33.377  36.675  1.00  0.00     0.057 A 
ATOM     76  C   UNL A   1      38.820  33.005  37.667  1.00  0.00     0.134 A 
ATOM     77  C   UNL A   1      40.305  34.654  36.768  1.00  0.00     0.134 A 
ATOM     78  F   UNL A   1      38.229  31.801  37.630  1.00  0.00    -0.206 F 
ATOM     79  C   UNL A   1      38.465  33.877  38.698  1.00  0.00     0.040 A 
ATOM     80  C   UNL A   1      39.980  35.524  37.810  1.00  0.00     0.040 A 
ATOM     81  F   UNL A   1      41.195  35.073  35.856  1.00  0.00    -0.206 F 
ATOM     82  C   UNL A   1      39.052  35.139  38.774  1.00  0.00     0.006 A 
ENDBRANCH  58  75
ENDBRANCH  32  33
ENDBRANCH  24  27
ENDBRANCH  22  23
ENDBRANCH  21  22
ENDBRANCH   1  21
TORSDOF 13
ENDMDL
MODEL 3
REMARK VINA RESULT:     -10.7      5.128     11.885
REMARK SMILES O=C(CSc1nc(-c2cccc(Br)c2)c[nH]1)NCCCNC(=O)c1ccc(-c2c3nc(c(-c4c(F)cccc4F)c4ccc([nH]4)c(-c4c(F)cccc4F)c4nc(c(-c5c(F)cccc5F)c5ccc2[nH]5)C=C4)C=C3)cc1
REMARK SMILES IDX 18 1 17 2 1 3 2 4 3 6 4 7 5 8 6 9 16 10 7 11 15 12 8 14 9 15
REMARK SMILES IDX 14 16 10 17 12 18 11 19 13 20 19 21 20 22 21 23 22 24 23 26
REMARK SMILES IDX 24 27 25 28 77 29 26 30 76 31 27 32 28 33 29 34 70 35 30 36
REMARK SMILES IDX 75 37 69 38 71 39 31 40 74 41 68 42 67 43 32 45 58 46 41 47
REMARK SMILES IDX 57 48 42 49 45 50 56 51 72 52 43 53 44 54 55 56 73 57 46 58
REMARK SMILES IDX 33 59 34 60 39 61 35 62 36 63 38 64 40 65 37 66 59 67 60 68
REMARK SMILES IDX 65 69 61 70 62 71 64 72 66 73 63 74 47 75 48 76 53 77 49 78
REMARK SMILES IDX 50 79 52 80 54 81 51 82
REMARK H PARENT 17 5 16 13 21 25 71 44 45 55
REMARK Flexibility Score: inf
ROOT
ATOM      1  C   UNL A   1      41.306  20.179  26.260  1.00  0.00     0.117 C 
ENDROOT
BRANCH   1   2
ATOM      2  N   UNL A   1      42.721  20.015  25.977  1.00  0.00    -0.355 N 
ATOM      3  O   UNL A   1      42.658  17.737  25.751  1.00  0.00    -0.274 OA
ATOM      4  C   UNL A   1      43.294  18.786  25.722  1.00  0.00     0.230 C 
ATOM      5  H   UNL A   1      43.295  20.814  25.966  1.00  0.00     0.163 HD
BRANCH   4   6
ATOM      6  C   UNL A   1      44.772  18.824  25.379  1.00  0.00     0.178 C 
BRANCH   6   7
ATOM      7  S   UNL A   1      45.088  19.865  23.926  1.00  0.00    -0.078 SA
BRANCH   7   8
ATOM      8  C   UNL A   1      45.566  21.364  24.636  1.00  0.00     0.166 A 
ATOM      9  N   UNL A   1      45.424  21.697  25.897  1.00  0.00    -0.223 NA
ATOM     10  N   UNL A   1      46.003  22.413  23.878  1.00  0.00    -0.339 N 
ATOM     11  C   UNL A   1      45.738  23.036  25.945  1.00  0.00     0.089 A 
ATOM     12  C   UNL A   1      46.113  23.498  24.702  1.00  0.00     0.113 A 
ATOM     13  H   UNL A   1      46.203  22.391  22.915  1.00  0.00     0.168 HD
BRANCH  11  14
ATOM     14  C   UNL A   1      45.653  23.848  27.138  1.00  0.00     0.003 A 
ATOM     15  C   UNL A   1      44.861  23.436  28.215  1.00  0.00     0.010 A 
ATOM     16  C   UNL A   1      46.366  25.050  27.225  1.00  0.00     0.026 A 
ATOM     17  C   UNL A   1      44.801  24.206  29.379  1.00  0.00     0.002 A 
ATOM     18  C   UNL A   1      46.290  25.820  28.384  1.00  0.00     0.018 A 
ATOM     19  C   UNL A   1      45.518  25.399  29.466  1.00  0.00     0.016 A 
ATOM     20  Br  UNL A   1      47.244  27.449  28.489  1.00  0.00    -0.051 Br
ENDBRANCH  11  14
ENDBRANCH   7   8
ENDBRANCH   6   7
ENDBRANCH   4   6
ENDBRANCH   1   2
BRANCH   1  21
ATOM     21  C   UNL A   1      40.836  21.620  26.105  1.00  0.00     0.042 C 
BRANCH  21  22
ATOM     22  C   UNL A   1      41.812  22.667  26.637  1.00  0.00     0.118 C 
BRANCH  22  23
ATOM     23  N   UNL A   1      42.256  23.611  25.620  1.00  0.00    -0.352 N 
ATOM     24  C   UNL A   1      42.375  24.979  25.661  1.00  0.00     0.251 C 
ATOM     25  H   UNL A   1      42.513  23.201  24.763  1.00  0.00     0.163 HD
ATOM     26  O   UNL A   1      42.636  25.592  24.628  1.00  0.00    -0.269 OA
BRANCH  24  27
ATOM     27  C   UNL A   1      42.159  25.726  26.919  1.00  0.00     0.039 A 
ATOM     28  C   UNL A   1      42.962  26.840  27.183  1.00  0.00     0.014 A 
ATOM     29  C   UNL A   1      41.188  25.334  27.846  1.00  0.00     0.014 A 
ATOM     30  C   UNL A   1      42.729  27.613  28.323  1.00  0.00     0.010 A 
ATOM     31  C   UNL A   1      40.909  26.145  28.944  1.00  0.00     0.010 A 
ATOM     32  C   UNL A   1      41.667  27.302  29.187  1.00  0.00    -0.014 A 
BRANCH  32  33
ATOM     33  C   UNL A   1      41.302  28.199  30.314  1.00  0.00     0.031 A 
ATOM     34  C   UNL A   1      40.201  29.212  30.165  1.00  0.00     0.074 A 
ATOM     35  C   UNL A   1      42.021  28.153  31.454  1.00  0.00     0.049 A 
ATOM     36  N   UNL A   1      39.807  30.135  31.007  1.00  0.00    -0.248 NA
ATOM     37  C   UNL A   1      39.457  29.198  28.898  1.00  0.00     0.031 C 
ATOM     38  C   UNL A   1      43.139  27.244  31.713  1.00  0.00     0.029 A 
ATOM     39  N   UNL A   1      41.930  28.900  32.603  1.00  0.00    -0.354 N 
ATOM     40  C   UNL A   1      38.779  30.816  30.369  1.00  0.00     0.074 A 
ATOM     41  C   UNL A   1      38.642  30.232  29.051  1.00  0.00     0.031 C 
ATOM     42  C   UNL A   1      43.617  27.473  32.945  1.00  0.00     0.029 A 
ATOM     43  C   UNL A   1      42.875  28.577  33.546  1.00  0.00     0.049 A 
ATOM     44  H   UNL A   1      41.252  29.600  32.738  1.00  0.00     0.167 HD
ATOM     45  C   UNL A   1      38.009  31.824  30.844  1.00  0.00     0.037 A 
ATOM     46  C   UNL A   1      43.132  29.120  34.752  1.00  0.00     0.037 A 
ATOM     47  C   UNL A   1      38.141  32.399  32.159  1.00  0.00     0.049 A 
ATOM     48  C   UNL A   1      42.289  30.265  35.238  1.00  0.00     0.074 A 
ATOM     49  C   UNL A   1      37.370  33.385  32.749  1.00  0.00     0.029 A 
ATOM     50  N   UNL A   1      39.114  32.046  33.083  1.00  0.00    -0.354 N 
ATOM     51  N   UNL A   1      41.277  30.856  34.650  1.00  0.00    -0.248 NA
ATOM     52  C   UNL A   1      42.624  30.821  36.557  1.00  0.00     0.031 C 
ATOM     53  C   UNL A   1      37.912  33.672  34.007  1.00  0.00     0.029 A 
ATOM     54  C   UNL A   1      38.983  32.822  34.225  1.00  0.00     0.049 A 
ATOM     55  H   UNL A   1      39.796  31.350  32.948  1.00  0.00     0.167 HD
ATOM     56  C   UNL A   1      40.839  31.833  35.534  1.00  0.00     0.074 A 
ATOM     57  C   UNL A   1      41.684  31.743  36.708  1.00  0.00     0.031 C 
ATOM     58  C   UNL A   1      39.831  32.726  35.387  1.00  0.00     0.037 A 
BRANCH  45  59
ATOM     59  C   UNL A   1      36.952  32.380  29.932  1.00  0.00     0.057 A 
ATOM     60  C   UNL A   1      37.253  33.314  28.931  1.00  0.00     0.134 A 
ATOM     61  C   UNL A   1      35.624  31.942  30.026  1.00  0.00     0.134 A 
ATOM     62  F   UNL A   1      38.502  33.782  28.792  1.00  0.00    -0.206 F 
ATOM     63  C   UNL A   1      36.267  33.814  28.077  1.00  0.00     0.040 A 
ATOM     64  C   UNL A   1      34.636  32.412  29.158  1.00  0.00     0.040 A 
ATOM     65  F   UNL A   1      35.267  31.042  30.954  1.00  0.00    -0.206 F 
ATOM     66  C   UNL A   1      34.957  33.356  28.184  1.00  0.00     0.006 A 
ENDBRANCH  45  59
BRANCH  46  67
ATOM     67  C   UNL A   1      44.239  28.587  35.588  1.00  0.00     0.057 A 
ATOM     68  C   UNL A   1      44.005  27.603  36.555  1.00  0.00     0.134 A 
ATOM     69  C   UNL A   1      45.551  29.057  35.452  1.00  0.00     0.134 A 
ATOM     70  F   UNL A   1      42.765  27.127  36.747  1.00  0.00    -0.206 F 
ATOM     71  C   UNL A   1      45.028  27.120  37.372  1.00  0.00     0.040 A 
ATOM     72  C   UNL A   1      46.591  28.564  36.242  1.00  0.00     0.040 A 
ATOM     73  F   UNL A   1      45.844  29.995  34.539  1.00  0.00    -0.206 F 
ATOM     74  C   UNL A   1      46.327  27.598  37.212  1.00  0.00     0.006 A 
ENDBRANCH  46  67
BRANCH  58  75
ATOM     75  C   UNL A   1      39.568  33.662  36.532  1.00  0.00     0.057 A 
ATOM     76  C   UNL A   1      38.762  33.295  37.618  1.00  0.00     0.134 A 
ATOM     77  C   UNL A   1      40.155  34.934  36.565  1.00  0.00     0.134 A 
ATOM     78  F   UNL A   1      38.159  32.097  37.643  1.00  0.00    -0.206 F 
ATOM     79  C   UNL A   1      38.531  34.167  38.684  1.00  0.00     0.040 A 
ATOM     80  C   UNL A   1      39.955  35.803  37.638  1.00  0.00     0.040 A 
ATOM     81  F   UNL A   1      40.944  35.347  35.562  1.00  0.00    -0.206 F 
ATOM     82  C   UNL A   1      39.134  35.424  38.698  1.00  0.00     0.006 A 
ENDBRANCH  58  75
ENDBRANCH  32  33
ENDBRANCH  24  27
ENDBRANCH  22  23
ENDBRANCH  21  22
ENDBRANCH   1  21
TORSDOF 13
ENDMDL
