MODEL 1
REMARK VINA RESULT:     -15.4      0.000      0.000
REMARK SMILES Cc1ccccc1NC(=S)NN1C(=O)CS[C@H]1c1ccccc1C(=O)NCCCNC(=O)c1ccc(-c2c3nc(c(-c4c(F)cccc4F)c4ccc([nH]4)c(-c4c(F)cccc4F)c4nc(c(-c5c(F)cccc5F)c5ccc2[nH]5)C=C4)C=C3)cc1
REMARK SMILES IDX 24 1 25 2 26 3 23 5 18 6 19 7 20 8 22 9 21 10 17 11 12 12
REMARK SMILES IDX 13 13 14 14 15 15 16 16 11 17 9 19 10 20 8 21 7 23 1 24 2 25
REMARK SMILES IDX 3 26 4 27 6 28 5 29 27 30 28 31 29 32 30 33 31 34 32 36
REMARK SMILES IDX 33 37 34 38 86 39 35 40 85 41 36 42 37 43 38 44 79 45 39 46
REMARK SMILES IDX 84 47 78 48 80 49 40 50 83 51 77 52 76 53 41 55 67 56 50 57
REMARK SMILES IDX 66 58 51 59 54 60 65 61 81 62 52 63 53 64 64 66 82 67 55 68
REMARK SMILES IDX 42 69 43 70 48 71 44 72 45 73 47 74 49 75 46 76 68 77 69 78
REMARK SMILES IDX 74 79 70 80 71 81 73 82 75 83 72 84 56 85 57 86 62 87 58 88
REMARK SMILES IDX 59 89 61 90 63 91 60 92
REMARK H PARENT 26 4 11 18 8 22 30 35 80 54 54 65
REMARK Flexibility Score: inf
ROOT
ATOM      1  C   UNL A   1      33.194  26.208  22.262  1.00  0.00     0.251 C 
ATOM      2  O   UNL A   1      33.656  25.342  21.514  1.00  0.00    -0.269 OA
ATOM      3  N   UNL A   1      33.713  27.735  22.018  1.00  0.00    -0.352 N 
ATOM      4  H   UNL A   1      34.211  27.897  21.185  1.00  0.00     0.163 HD
ENDROOT
BRANCH   1   5
ATOM      5  C   UNL A   1      32.038  25.694  23.499  1.00  0.00     0.046 A 
ATOM      6  C   UNL A   1      32.355  25.278  24.928  1.00  0.00    -0.001 A 
ATOM      7  C   UNL A   1      31.351  25.057  25.875  1.00  0.00     0.007 A 
ATOM      8  C   UNL A   1      30.023  25.194  25.489  1.00  0.00     0.000 A 
ATOM      9  C   UNL A   1      30.678  25.773  23.177  1.00  0.00     0.014 A 
ATOM     10  C   UNL A   1      29.693  25.521  24.163  1.00  0.00     0.001 A 
BRANCH   6  11
ATOM     11  C   UNL A   1      33.781  24.842  25.252  1.00  0.00     0.197 C 
ATOM     12  N   UNL A   1      33.334  23.716  26.067  1.00  0.00    -0.236 N 
ATOM     13  C   UNL A   1      34.400  22.693  27.279  1.00  0.00     0.252 C 
ATOM     14  O   UNL A   1      34.113  22.227  28.367  1.00  0.00    -0.272 OA
ATOM     15  C   UNL A   1      35.979  22.279  25.840  1.00  0.00     0.174 C 
ATOM     16  S   UNL A   1      35.289  23.777  24.084  1.00  0.00    -0.120 SA
BRANCH  12  17
ATOM     17  N   UNL A   1      32.550  22.795  24.536  1.00  0.00    -0.270 N 
ATOM     18  H   UNL A   1      32.171  23.430  23.886  1.00  0.00     0.191 HD
BRANCH  17  19
ATOM     19  C   UNL A   1      32.369  21.343  24.074  1.00  0.00     0.189 C 
ATOM     20  S   UNL A   1      32.093  21.119  22.429  1.00  0.00    -0.039 S 
BRANCH  19  21
ATOM     21  N   UNL A   1      32.208  20.212  24.951  1.00  0.00    -0.331 N 
ATOM     22  H   UNL A   1      31.404  20.255  25.518  1.00  0.00     0.169 HD
BRANCH  21  23
ATOM     23  C   UNL A   1      33.045  18.974  25.161  1.00  0.00     0.043 A 
ATOM     24  C   UNL A   1      35.655  19.023  24.650  1.00  0.00     0.046 C 
ATOM     25  C   UNL A   1      34.192  18.624  24.345  1.00  0.00    -0.028 A 
ATOM     26  C   UNL A   1      34.313  17.334  23.775  1.00  0.00     0.005 A 
ATOM     27  C   UNL A   1      33.627  16.295  24.366  1.00  0.00     0.000 A 
ATOM     28  C   UNL A   1      32.447  17.901  25.806  1.00  0.00     0.026 A 
ATOM     29  C   UNL A   1      32.757  16.577  25.424  1.00  0.00     0.002 A 
ENDBRANCH  21  23
ENDBRANCH  19  21
ENDBRANCH  17  19
ENDBRANCH  12  17
ENDBRANCH   6  11
ENDBRANCH   1   5
BRANCH   3  30
ATOM     30  C   UNL A   1      33.463  29.270  23.181  1.00  0.00     0.118 C 
BRANCH  30  31
ATOM     31  C   UNL A   1      31.459  29.309  24.201  1.00  0.00     0.042 C 
BRANCH  31  32
ATOM     32  C   UNL A   1      31.379  30.599  25.614  1.00  0.00     0.118 C 
BRANCH  32  33
ATOM     33  N   UNL A   1      32.356  30.341  26.741  1.00  0.00    -0.352 N 
ATOM     34  C   UNL A   1      33.289  29.412  27.152  1.00  0.00     0.251 C 
ATOM     35  H   UNL A   1      32.310  31.075  27.395  1.00  0.00     0.163 HD
ATOM     36  O   UNL A   1      33.272  28.208  26.999  1.00  0.00    -0.269 OA
BRANCH  34  37
ATOM     37  C   UNL A   1      34.370  30.184  27.887  1.00  0.00     0.039 A 
ATOM     38  C   UNL A   1      34.801  31.489  27.643  1.00  0.00     0.014 A 
ATOM     39  C   UNL A   1      35.179  29.323  28.641  1.00  0.00     0.014 A 
ATOM     40  C   UNL A   1      36.096  31.850  28.068  1.00  0.00     0.010 A 
ATOM     41  C   UNL A   1      36.516  29.578  28.769  1.00  0.00     0.010 A 
ATOM     42  C   UNL A   1      36.984  30.861  28.524  1.00  0.00    -0.014 A 
BRANCH  42  43
ATOM     43  C   UNL A   1      38.256  31.073  29.213  1.00  0.00     0.031 A 
ATOM     44  C   UNL A   1      39.325  30.158  28.720  1.00  0.00     0.074 A 
ATOM     45  C   UNL A   1      38.488  32.143  30.016  1.00  0.00     0.049 A 
ATOM     46  N   UNL A   1      40.226  29.619  29.464  1.00  0.00    -0.248 NA
ATOM     47  C   UNL A   1      39.350  29.627  27.343  1.00  0.00     0.031 C 
ATOM     48  C   UNL A   1      39.767  32.752  30.364  1.00  0.00     0.029 A 
ATOM     49  N   UNL A   1      37.579  32.898  30.779  1.00  0.00    -0.354 N 
ATOM     50  C   UNL A   1      41.140  29.044  28.597  1.00  0.00     0.074 A 
ATOM     51  C   UNL A   1      40.432  28.848  27.365  1.00  0.00     0.031 C 
ATOM     52  C   UNL A   1      39.604  33.548  31.441  1.00  0.00     0.029 A 
ATOM     53  C   UNL A   1      38.253  33.349  31.947  1.00  0.00     0.049 A 
ATOM     54  H   UNL A   1      36.640  33.082  30.546  1.00  0.00     0.167 HD
ATOM     55  C   UNL A   1      42.466  29.083  28.910  1.00  0.00     0.037 A 
ATOM     56  C   UNL A   1      37.947  33.011  33.252  1.00  0.00     0.037 A 
ATOM     57  C   UNL A   1      42.627  29.781  30.179  1.00  0.00     0.049 A 
ATOM     58  C   UNL A   1      39.040  32.281  33.957  1.00  0.00     0.074 A 
ATOM     59  C   UNL A   1      42.887  31.115  30.439  1.00  0.00     0.029 A 
ATOM     60  N   UNL A   1      42.129  29.229  31.349  1.00  0.00    -0.354 N 
ATOM     61  N   UNL A   1      40.060  31.778  33.342  1.00  0.00    -0.248 NA
ATOM     62  C   UNL A   1      38.904  31.835  35.342  1.00  0.00     0.031 C 
ATOM     63  C   UNL A   1      42.506  31.373  31.772  1.00  0.00     0.029 A 
ATOM     64  C   UNL A   1      42.014  30.201  32.324  1.00  0.00     0.049 A 
ATOM     65  H   UNL A   1      41.893  28.281  31.469  1.00  0.00     0.167 HD
ATOM     66  C   UNL A   1      40.571  30.792  34.129  1.00  0.00     0.074 A 
ATOM     67  C   UNL A   1      39.883  30.924  35.399  1.00  0.00     0.031 C 
ATOM     68  C   UNL A   1      41.443  29.882  33.621  1.00  0.00     0.037 A 
BRANCH  55  69
ATOM     69  C   UNL A   1      43.621  28.894  27.948  1.00  0.00     0.057 A 
ATOM     70  C   UNL A   1      44.068  27.589  27.644  1.00  0.00     0.134 A 
ATOM     71  C   UNL A   1      44.354  29.909  27.308  1.00  0.00     0.134 A 
ATOM     72  F   UNL A   1      43.426  26.500  28.085  1.00  0.00    -0.206 F 
ATOM     73  C   UNL A   1      45.193  27.320  26.857  1.00  0.00     0.040 A 
ATOM     74  C   UNL A   1      45.500  29.656  26.534  1.00  0.00     0.040 A 
ATOM     75  F   UNL A   1      43.978  31.191  27.347  1.00  0.00    -0.206 F 
ATOM     76  C   UNL A   1      45.930  28.356  26.315  1.00  0.00     0.006 A 
ENDBRANCH  55  69
BRANCH  56  77
ATOM     77  C   UNL A   1      36.562  32.544  33.661  1.00  0.00     0.057 A 
ATOM     78  C   UNL A   1      35.753  33.549  34.151  1.00  0.00     0.134 A 
ATOM     79  C   UNL A   1      36.011  31.698  32.701  1.00  0.00     0.134 A 
ATOM     80  F   UNL A   1      35.964  34.092  35.356  1.00  0.00    -0.206 F 
ATOM     81  C   UNL A   1      34.881  34.139  33.276  1.00  0.00     0.040 A 
ATOM     82  C   UNL A   1      35.183  32.270  31.773  1.00  0.00     0.040 A 
ATOM     83  F   UNL A   1      36.530  30.490  32.448  1.00  0.00    -0.206 F 
ATOM     84  C   UNL A   1      34.770  33.582  32.001  1.00  0.00     0.006 A 
ENDBRANCH  56  77
BRANCH  68  85
ATOM     85  C   UNL A   1      41.896  28.701  34.408  1.00  0.00     0.057 A 
ATOM     86  C   UNL A   1      41.308  27.432  34.334  1.00  0.00     0.134 A 
ATOM     87  C   UNL A   1      42.967  28.836  35.305  1.00  0.00     0.134 A 
ATOM     88  F   UNL A   1      40.426  27.120  33.372  1.00  0.00    -0.206 F 
ATOM     89  C   UNL A   1      41.610  26.431  35.255  1.00  0.00     0.040 A 
ATOM     90  C   UNL A   1      43.333  27.817  36.175  1.00  0.00     0.040 A 
ATOM     91  F   UNL A   1      43.686  29.965  35.379  1.00  0.00    -0.206 F 
ATOM     92  C   UNL A   1      42.613  26.631  36.195  1.00  0.00     0.006 A 
ENDBRANCH  68  85
ENDBRANCH  42  43
ENDBRANCH  34  37
ENDBRANCH  32  33
ENDBRANCH  31  32
ENDBRANCH  30  31
ENDBRANCH   3  30
TORSDOF 15
ENDMDL
MODEL 2
REMARK VINA RESULT:     -14.7      2.449      3.785
REMARK SMILES Cc1ccccc1NC(=S)NN1C(=O)CS[C@H]1c1ccccc1C(=O)NCCCNC(=O)c1ccc(-c2c3nc(c(-c4c(F)cccc4F)c4ccc([nH]4)c(-c4c(F)cccc4F)c4nc(c(-c5c(F)cccc5F)c5ccc2[nH]5)C=C4)C=C3)cc1
REMARK SMILES IDX 24 1 25 2 26 3 23 5 18 6 19 7 20 8 22 9 21 10 17 11 12 12
REMARK SMILES IDX 13 13 14 14 15 15 16 16 11 17 9 19 10 20 8 21 7 23 1 24 2 25
REMARK SMILES IDX 3 26 4 27 6 28 5 29 27 30 28 31 29 32 30 33 31 34 32 36
REMARK SMILES IDX 33 37 34 38 86 39 35 40 85 41 36 42 37 43 38 44 79 45 39 46
REMARK SMILES IDX 84 47 78 48 80 49 40 50 83 51 77 52 76 53 41 55 67 56 50 57
REMARK SMILES IDX 66 58 51 59 54 60 65 61 81 62 52 63 53 64 64 66 82 67 55 68
REMARK SMILES IDX 42 69 43 70 48 71 44 72 45 73 47 74 49 75 46 76 68 77 69 78
REMARK SMILES IDX 74 79 70 80 71 81 73 82 75 83 72 84 56 85 57 86 62 87 58 88
REMARK SMILES IDX 59 89 61 90 63 91 60 92
REMARK H PARENT 26 4 11 18 8 22 30 35 80 54 54 65
REMARK Flexibility Score: inf
ROOT
ATOM      1  C   UNL A   1      33.081  26.450  22.304  1.00  0.00     0.251 C 
ATOM      2  O   UNL A   1      33.269  25.626  21.405  1.00  0.00    -0.269 OA
ATOM      3  N   UNL A   1      33.902  27.855  22.188  1.00  0.00    -0.352 N 
ATOM      4  H   UNL A   1      34.346  28.030  21.327  1.00  0.00     0.163 HD
ENDROOT
BRANCH   1   5
ATOM      5  C   UNL A   1      31.957  26.014  23.599  1.00  0.00     0.046 A 
ATOM      6  C   UNL A   1      32.316  25.602  25.019  1.00  0.00    -0.001 A 
ATOM      7  C   UNL A   1      31.346  25.445  26.013  1.00  0.00     0.007 A 
ATOM      8  C   UNL A   1      30.011  25.646  25.683  1.00  0.00     0.000 A 
ATOM      9  C   UNL A   1      30.589  26.158  23.336  1.00  0.00     0.014 A 
ATOM     10  C   UNL A   1      29.638  25.971  24.368  1.00  0.00     0.001 A 
BRANCH   6  11
ATOM     11  C   UNL A   1      33.731  25.097  25.286  1.00  0.00     0.197 C 
ATOM     12  N   UNL A   1      33.263  23.991  26.117  1.00  0.00    -0.236 N 
ATOM     13  C   UNL A   1      34.325  22.915  27.286  1.00  0.00     0.252 C 
ATOM     14  O   UNL A   1      34.060  22.460  28.384  1.00  0.00    -0.272 OA
ATOM     15  C   UNL A   1      35.826  22.431  25.786  1.00  0.00     0.174 C 
ATOM     16  S   UNL A   1      35.140  23.964  24.060  1.00  0.00    -0.120 SA
BRANCH  12  17
ATOM     17  N   UNL A   1      32.377  23.113  24.617  1.00  0.00    -0.270 N 
ATOM     18  H   UNL A   1      31.700  23.697  24.204  1.00  0.00     0.191 HD
BRANCH  17  19
ATOM     19  C   UNL A   1      32.456  21.754  23.909  1.00  0.00     0.189 C 
ATOM     20  S   UNL A   1      31.900  21.714  22.321  1.00  0.00    -0.039 S 
BRANCH  19  21
ATOM     21  N   UNL A   1      32.759  20.503  24.555  1.00  0.00    -0.331 N 
ATOM     22  H   UNL A   1      32.481  20.460  25.499  1.00  0.00     0.169 HD
BRANCH  21  23
ATOM     23  C   UNL A   1      33.426  19.246  24.051  1.00  0.00     0.043 A 
ATOM     24  C   UNL A   1      32.359  17.888  22.027  1.00  0.00     0.046 C 
ATOM     25  C   UNL A   1      32.705  18.105  23.520  1.00  0.00    -0.028 A 
ATOM     26  C   UNL A   1      32.964  16.797  23.993  1.00  0.00     0.005 A 
ATOM     27  C   UNL A   1      34.188  16.546  24.575  1.00  0.00     0.000 A 
ATOM     28  C   UNL A   1      34.690  18.953  24.541  1.00  0.00     0.026 A 
ATOM     29  C   UNL A   1      35.070  17.613  24.777  1.00  0.00     0.002 A 
ENDBRANCH  21  23
ENDBRANCH  19  21
ENDBRANCH  17  19
ENDBRANCH  12  17
ENDBRANCH   6  11
ENDBRANCH   1   5
BRANCH   3  30
ATOM     30  C   UNL A   1      34.106  29.223  23.551  1.00  0.00     0.118 C 
BRANCH  30  31
ATOM     31  C   UNL A   1      32.312  29.432  24.892  1.00  0.00     0.042 C 
BRANCH  31  32
ATOM     32  C   UNL A   1      32.747  29.200  26.743  1.00  0.00     0.118 C 
BRANCH  32  33
ATOM     33  N   UNL A   1      34.188  29.518  27.082  1.00  0.00    -0.352 N 
ATOM     34  C   UNL A   1      34.940  30.421  27.804  1.00  0.00     0.251 C 
ATOM     35  H   UNL A   1      34.783  28.870  26.641  1.00  0.00     0.163 HD
ATOM     36  O   UNL A   1      34.719  31.597  28.004  1.00  0.00    -0.269 OA
BRANCH  34  37
ATOM     37  C   UNL A   1      36.160  29.665  28.300  1.00  0.00     0.039 A 
ATOM     38  C   UNL A   1      36.462  29.302  29.613  1.00  0.00     0.014 A 
ATOM     39  C   UNL A   1      37.176  29.661  27.335  1.00  0.00     0.014 A 
ATOM     40  C   UNL A   1      37.812  29.060  29.940  1.00  0.00     0.010 A 
ATOM     41  C   UNL A   1      38.486  29.730  27.720  1.00  0.00     0.010 A 
ATOM     42  C   UNL A   1      38.824  29.387  29.022  1.00  0.00    -0.014 A 
BRANCH  42  43
ATOM     43  C   UNL A   1      40.232  28.998  29.089  1.00  0.00     0.031 A 
ATOM     44  C   UNL A   1      40.450  27.588  28.659  1.00  0.00     0.074 A 
ATOM     45  C   UNL A   1      41.234  29.895  29.277  1.00  0.00     0.049 A 
ATOM     46  N   UNL A   1      41.300  26.784  29.195  1.00  0.00    -0.248 NA
ATOM     47  C   UNL A   1      39.578  26.906  27.683  1.00  0.00     0.031 C 
ATOM     48  C   UNL A   1      42.637  29.776  28.895  1.00  0.00     0.029 A 
ATOM     49  N   UNL A   1      41.209  31.133  29.945  1.00  0.00    -0.354 N 
ATOM     50  C   UNL A   1      41.348  25.676  28.366  1.00  0.00     0.074 A 
ATOM     51  C   UNL A   1      40.114  25.687  27.634  1.00  0.00     0.031 C 
ATOM     52  C   UNL A   1      43.359  30.701  29.559  1.00  0.00     0.029 A 
ATOM     53  C   UNL A   1      42.487  31.341  30.534  1.00  0.00     0.049 A 
ATOM     54  H   UNL A   1      40.442  31.748  29.997  1.00  0.00     0.167 HD
ATOM     55  C   UNL A   1      42.544  25.053  28.162  1.00  0.00     0.037 A 
ATOM     56  C   UNL A   1      42.760  31.440  31.885  1.00  0.00     0.037 A 
ATOM     57  C   UNL A   1      43.573  25.755  28.917  1.00  0.00     0.049 A 
ATOM     58  C   UNL A   1      43.662  30.368  32.396  1.00  0.00     0.074 A 
ATOM     59  C   UNL A   1      44.434  26.767  28.527  1.00  0.00     0.029 A 
ATOM     60  N   UNL A   1      43.547  25.757  30.302  1.00  0.00    -0.354 N 
ATOM     61  N   UNL A   1      43.947  29.304  31.718  1.00  0.00    -0.248 NA
ATOM     62  C   UNL A   1      44.064  30.299  33.800  1.00  0.00     0.031 C 
ATOM     63  C   UNL A   1      44.900  27.405  29.695  1.00  0.00     0.029 A 
ATOM     64  C   UNL A   1      44.326  26.786  30.794  1.00  0.00     0.049 A 
ATOM     65  H   UNL A   1      43.045  25.116  30.856  1.00  0.00     0.167 HD
ATOM     66  C   UNL A   1      44.338  28.345  32.599  1.00  0.00     0.074 A 
ATOM     67  C   UNL A   1      44.486  29.031  33.868  1.00  0.00     0.031 C 
ATOM     68  C   UNL A   1      44.398  27.040  32.222  1.00  0.00     0.037 A 
BRANCH  55  69
ATOM     69  C   UNL A   1      42.885  24.120  27.017  1.00  0.00     0.057 A 
ATOM     70  C   UNL A   1      42.813  22.723  27.211  1.00  0.00     0.134 A 
ATOM     71  C   UNL A   1      43.310  24.494  25.729  1.00  0.00     0.134 A 
ATOM     72  F   UNL A   1      42.335  22.189  28.342  1.00  0.00    -0.206 F 
ATOM     73  C   UNL A   1      43.215  21.787  26.252  1.00  0.00     0.040 A 
ATOM     74  C   UNL A   1      43.738  23.567  24.764  1.00  0.00     0.040 A 
ATOM     75  F   UNL A   1      43.283  25.764  25.312  1.00  0.00    -0.206 F 
ATOM     76  C   UNL A   1      43.701  22.207  25.028  1.00  0.00     0.006 A 
ENDBRANCH  55  69
BRANCH  56  77
ATOM     77  C   UNL A   1      41.706  31.858  32.893  1.00  0.00     0.057 A 
ATOM     78  C   UNL A   1      41.691  33.212  33.160  1.00  0.00     0.134 A 
ATOM     79  C   UNL A   1      40.481  31.251  32.624  1.00  0.00     0.134 A 
ATOM     80  F   UNL A   1      42.659  33.795  33.877  1.00  0.00    -0.206 F 
ATOM     81  C   UNL A   1      40.792  33.980  32.470  1.00  0.00     0.040 A 
ATOM     82  C   UNL A   1      39.584  31.971  31.882  1.00  0.00     0.040 A 
ATOM     83  F   UNL A   1      40.312  29.928  32.741  1.00  0.00    -0.206 F 
ATOM     84  C   UNL A   1      39.862  33.320  31.666  1.00  0.00     0.006 A 
ENDBRANCH  56  77
BRANCH  68  85
ATOM     85  C   UNL A   1      44.667  25.949  33.199  1.00  0.00     0.057 A 
ATOM     86  C   UNL A   1      45.869  25.233  33.269  1.00  0.00     0.134 A 
ATOM     87  C   UNL A   1      43.669  25.575  34.112  1.00  0.00     0.134 A 
ATOM     88  F   UNL A   1      46.964  25.628  32.603  1.00  0.00    -0.206 F 
ATOM     89  C   UNL A   1      45.986  24.073  34.034  1.00  0.00     0.040 A 
ATOM     90  C   UNL A   1      43.805  24.468  34.940  1.00  0.00     0.040 A 
ATOM     91  F   UNL A   1      42.523  26.261  34.224  1.00  0.00    -0.206 F 
ATOM     92  C   UNL A   1      44.941  23.676  34.858  1.00  0.00     0.006 A 
ENDBRANCH  68  85
ENDBRANCH  42  43
ENDBRANCH  34  37
ENDBRANCH  32  33
ENDBRANCH  31  32
ENDBRANCH  30  31
ENDBRANCH   3  30
TORSDOF 15
ENDMDL
MODEL 3
REMARK VINA RESULT:     -14.5      3.068      9.268
REMARK SMILES Cc1ccccc1NC(=S)NN1C(=O)CS[C@H]1c1ccccc1C(=O)NCCCNC(=O)c1ccc(-c2c3nc(c(-c4c(F)cccc4F)c4ccc([nH]4)c(-c4c(F)cccc4F)c4nc(c(-c5c(F)cccc5F)c5ccc2[nH]5)C=C4)C=C3)cc1
REMARK SMILES IDX 24 1 25 2 26 3 23 5 18 6 19 7 20 8 22 9 21 10 17 11 12 12
REMARK SMILES IDX 13 13 14 14 15 15 16 16 11 17 9 19 10 20 8 21 7 23 1 24 2 25
REMARK SMILES IDX 3 26 4 27 6 28 5 29 27 30 28 31 29 32 30 33 31 34 32 36
REMARK SMILES IDX 33 37 34 38 86 39 35 40 85 41 36 42 37 43 38 44 79 45 39 46
REMARK SMILES IDX 84 47 78 48 80 49 40 50 83 51 77 52 76 53 41 55 67 56 50 57
REMARK SMILES IDX 66 58 51 59 54 60 65 61 81 62 52 63 53 64 64 66 82 67 55 68
REMARK SMILES IDX 42 69 43 70 48 71 44 72 45 73 47 74 49 75 46 76 68 77 69 78
REMARK SMILES IDX 74 79 70 80 71 81 73 82 75 83 72 84 56 85 57 86 62 87 58 88
REMARK SMILES IDX 59 89 61 90 63 91 60 92
REMARK H PARENT 26 4 11 18 8 22 30 35 80 54 54 65
REMARK Flexibility Score: inf
ROOT
ATOM      1  C   UNL A   1      32.095  23.399  26.704  1.00  0.00     0.251 C 
ATOM      2  O   UNL A   1      31.231  24.094  27.244  1.00  0.00    -0.269 OA
ATOM      3  N   UNL A   1      32.969  22.429  27.682  1.00  0.00    -0.352 N 
ATOM      4  H   UNL A   1      32.633  22.323  28.602  1.00  0.00     0.163 HD
ENDROOT
BRANCH   1   5
ATOM      5  C   UNL A   1      32.285  23.537  24.950  1.00  0.00     0.046 A 
ATOM      6  C   UNL A   1      33.199  24.497  24.203  1.00  0.00    -0.001 A 
ATOM      7  C   UNL A   1      33.401  24.406  22.823  1.00  0.00     0.007 A 
ATOM      8  C   UNL A   1      32.723  23.425  22.110  1.00  0.00     0.000 A 
ATOM      9  C   UNL A   1      31.607  22.603  24.157  1.00  0.00     0.014 A 
ATOM     10  C   UNL A   1      31.827  22.558  22.758  1.00  0.00     0.001 A 
BRANCH   6  11
ATOM     11  C   UNL A   1      33.693  25.740  24.938  1.00  0.00     0.197 C 
ATOM     12  N   UNL A   1      33.410  26.617  23.806  1.00  0.00    -0.236 N 
ATOM     13  C   UNL A   1      34.033  28.408  23.569  1.00  0.00     0.252 C 
ATOM     14  O   UNL A   1      34.403  28.978  22.558  1.00  0.00    -0.272 OA
ATOM     15  C   UNL A   1      33.366  29.101  25.521  1.00  0.00     0.174 C 
ATOM     16  S   UNL A   1      32.791  26.976  26.498  1.00  0.00    -0.120 SA
BRANCH  12  17
ATOM     17  N   UNL A   1      31.485  26.329  23.940  1.00  0.00    -0.270 N 
ATOM     18  H   UNL A   1      31.256  25.374  23.860  1.00  0.00     0.191 HD
BRANCH  17  19
ATOM     19  C   UNL A   1      30.234  27.193  24.137  1.00  0.00     0.189 C 
ATOM     20  S   UNL A   1      28.757  26.428  23.876  1.00  0.00    -0.039 S 
BRANCH  19  21
ATOM     21  N   UNL A   1      30.237  28.622  24.313  1.00  0.00    -0.331 N 
ATOM     22  H   UNL A   1      30.596  28.919  25.181  1.00  0.00     0.169 HD
BRANCH  21  23
ATOM     23  C   UNL A   1      29.791  29.749  23.413  1.00  0.00     0.043 A 
ATOM     24  C   UNL A   1      29.712  32.243  24.333  1.00  0.00     0.046 C 
ATOM     25  C   UNL A   1      29.065  30.915  23.875  1.00  0.00    -0.028 A 
ATOM     26  C   UNL A   1      27.874  31.332  23.232  1.00  0.00     0.005 A 
ATOM     27  C   UNL A   1      27.673  30.949  21.923  1.00  0.00     0.000 A 
ATOM     28  C   UNL A   1      29.626  29.462  22.065  1.00  0.00     0.026 A 
ATOM     29  C   UNL A   1      28.590  30.077  21.328  1.00  0.00     0.002 A 
ENDBRANCH  21  23
ENDBRANCH  19  21
ENDBRANCH  17  19
ENDBRANCH  12  17
ENDBRANCH   6  11
ENDBRANCH   1   5
BRANCH   3  30
ATOM     30  C   UNL A   1      34.595  21.461  27.246  1.00  0.00     0.118 C 
BRANCH  30  31
ATOM     31  C   UNL A   1      35.142  21.559  25.067  1.00  0.00     0.042 C 
BRANCH  31  32
ATOM     32  C   UNL A   1      37.004  21.229  24.762  1.00  0.00     0.118 C 
BRANCH  32  33
ATOM     33  N   UNL A   1      37.916  21.828  25.811  1.00  0.00    -0.352 N 
ATOM     34  C   UNL A   1      39.240  21.830  26.199  1.00  0.00     0.251 C 
ATOM     35  H   UNL A   1      37.394  22.403  26.415  1.00  0.00     0.163 HD
ATOM     36  O   UNL A   1      40.047  20.927  26.130  1.00  0.00    -0.269 OA
BRANCH  34  37
ATOM     37  C   UNL A   1      39.515  23.206  26.780  1.00  0.00     0.039 A 
ATOM     38  C   UNL A   1      39.284  24.446  26.183  1.00  0.00     0.014 A 
ATOM     39  C   UNL A   1      40.382  23.124  27.878  1.00  0.00     0.014 A 
ATOM     40  C   UNL A   1      40.031  25.551  26.639  1.00  0.00     0.010 A 
ATOM     41  C   UNL A   1      41.305  24.108  28.098  1.00  0.00     0.010 A 
ATOM     42  C   UNL A   1      41.115  25.352  27.511  1.00  0.00    -0.014 A 
BRANCH  42  43
ATOM     43  C   UNL A   1      41.840  26.377  28.260  1.00  0.00     0.031 A 
ATOM     44  C   UNL A   1      40.939  27.447  28.773  1.00  0.00     0.074 A 
ATOM     45  C   UNL A   1      43.132  26.226  28.649  1.00  0.00     0.049 A 
ATOM     46  N   UNL A   1      41.246  28.696  28.830  1.00  0.00    -0.248 NA
ATOM     47  C   UNL A   1      39.521  27.208  29.102  1.00  0.00     0.031 C 
ATOM     48  C   UNL A   1      43.824  26.872  29.759  1.00  0.00     0.029 A 
ATOM     49  N   UNL A   1      44.161  25.473  28.053  1.00  0.00    -0.354 N 
ATOM     50  C   UNL A   1      40.242  29.299  29.569  1.00  0.00     0.074 A 
ATOM     51  C   UNL A   1      39.112  28.421  29.476  1.00  0.00     0.031 C 
ATOM     52  C   UNL A   1      45.155  26.733  29.596  1.00  0.00     0.029 A 
ATOM     53  C   UNL A   1      45.390  26.148  28.284  1.00  0.00     0.049 A 
ATOM     54  H   UNL A   1      44.049  24.627  27.562  1.00  0.00     0.167 HD
ATOM     55  C   UNL A   1      40.567  30.307  30.428  1.00  0.00     0.037 A 
ATOM     56  C   UNL A   1      46.221  26.691  27.321  1.00  0.00     0.037 A 
ATOM     57  C   UNL A   1      42.006  30.528  30.369  1.00  0.00     0.049 A 
ATOM     58  C   UNL A   1      46.389  28.168  27.435  1.00  0.00     0.074 A 
ATOM     59  C   UNL A   1      43.023  30.009  31.151  1.00  0.00     0.029 A 
ATOM     60  N   UNL A   1      42.593  31.013  29.211  1.00  0.00    -0.354 N 
ATOM     61  N   UNL A   1      45.635  28.907  28.181  1.00  0.00    -0.248 NA
ATOM     62  C   UNL A   1      47.225  28.925  26.506  1.00  0.00     0.031 C 
ATOM     63  C   UNL A   1      44.229  30.153  30.435  1.00  0.00     0.029 A 
ATOM     64  C   UNL A   1      43.950  30.757  29.220  1.00  0.00     0.049 A 
ATOM     65  H   UNL A   1      42.111  31.474  28.486  1.00  0.00     0.167 HD
ATOM     66  C   UNL A   1      45.693  30.177  27.699  1.00  0.00     0.074 A 
ATOM     67  C   UNL A   1      46.762  30.163  26.719  1.00  0.00     0.031 C 
ATOM     68  C   UNL A   1      44.775  31.105  28.076  1.00  0.00     0.037 A 
BRANCH  55  69
ATOM     69  C   UNL A   1      39.727  30.803  31.588  1.00  0.00     0.057 A 
ATOM     70  C   UNL A   1      39.632  30.024  32.763  1.00  0.00     0.134 A 
ATOM     71  C   UNL A   1      38.974  31.990  31.630  1.00  0.00     0.134 A 
ATOM     72  F   UNL A   1      40.359  28.913  32.936  1.00  0.00    -0.206 F 
ATOM     73  C   UNL A   1      38.796  30.343  33.837  1.00  0.00     0.040 A 
ATOM     74  C   UNL A   1      38.112  32.313  32.693  1.00  0.00     0.040 A 
ATOM     75  F   UNL A   1      39.067  32.926  30.682  1.00  0.00    -0.206 F 
ATOM     76  C   UNL A   1      38.013  31.482  33.798  1.00  0.00     0.006 A 
ENDBRANCH  55  69
BRANCH  56  77
ATOM     77  C   UNL A   1      46.216  26.204  25.884  1.00  0.00     0.057 A 
ATOM     78  C   UNL A   1      47.020  25.104  25.661  1.00  0.00     0.134 A 
ATOM     79  C   UNL A   1      44.921  26.156  25.371  1.00  0.00     0.134 A 
ATOM     80  F   UNL A   1      48.355  25.202  25.661  1.00  0.00    -0.206 F 
ATOM     81  C   UNL A   1      46.423  23.872  25.681  1.00  0.00     0.040 A 
ATOM     82  C   UNL A   1      44.274  24.952  25.434  1.00  0.00     0.040 A 
ATOM     83  F   UNL A   1      44.202  27.269  25.176  1.00  0.00    -0.206 F 
ATOM     84  C   UNL A   1      45.031  23.832  25.774  1.00  0.00     0.006 A 
ENDBRANCH  56  77
BRANCH  68  85
ATOM     85  C   UNL A   1      44.715  32.455  27.449  1.00  0.00     0.057 A 
ATOM     86  C   UNL A   1      45.346  33.593  27.966  1.00  0.00     0.134 A 
ATOM     87  C   UNL A   1      43.971  32.640  26.273  1.00  0.00     0.134 A 
ATOM     88  F   UNL A   1      46.250  33.509  28.954  1.00  0.00    -0.206 F 
ATOM     89  C   UNL A   1      45.068  34.870  27.480  1.00  0.00     0.040 A 
ATOM     90  C   UNL A   1      43.752  33.899  25.729  1.00  0.00     0.040 A 
ATOM     91  F   UNL A   1      43.421  31.608  25.618  1.00  0.00    -0.206 F 
ATOM     92  C   UNL A   1      44.250  35.026  26.369  1.00  0.00     0.006 A 
ENDBRANCH  68  85
ENDBRANCH  42  43
ENDBRANCH  34  37
ENDBRANCH  32  33
ENDBRANCH  31  32
ENDBRANCH  30  31
ENDBRANCH   3  30
TORSDOF 15
ENDMDL
