MODEL 1
REMARK VINA RESULT:     -12.4      0.000      0.000
REMARK SMILES C[C@H]1[C@@H](C(=O)NCCCNC(=O)c2ccc(-c3c4nc(c(-c5c(F)cccc5F)c5ccc([nH]5)c(-c5c(F)cccc5F)c5nc(c(-c6c(F)cccc6F)c6ccc3[nH]6)C=C5)C=C4)cc2)CCN1C(=O)c1cc2cc(F)ccc2s1
REMARK SMILES IDX 8 1 7 2 6 3 4 4 5 5 3 7 1 8 2 9 69 10 67 11 68 12 70 13
REMARK SMILES IDX 71 14 72 15 73 16 81 17 74 18 80 19 75 20 79 21 76 22 78 23
REMARK SMILES IDX 77 24 9 25 10 26 11 27 12 29 13 30 14 31 66 32 15 33 65 34
REMARK SMILES IDX 16 35 17 36 18 37 59 38 19 39 64 40 58 41 60 42 20 43 63 44
REMARK SMILES IDX 57 45 56 46 21 48 47 49 30 50 46 51 31 52 34 53 45 54 61 55
REMARK SMILES IDX 32 56 33 57 44 59 62 60 35 61 22 62 23 63 28 64 24 65 25 66
REMARK SMILES IDX 27 67 29 68 26 69 48 70 49 71 54 72 50 73 51 74 53 75 55 76
REMARK SMILES IDX 52 77 36 78 37 79 42 80 38 81 39 82 41 83 43 84 40 85
REMARK H PARENT 6 6 10 28 60 47 34 58
REMARK Flexibility Score: inf
ROOT
ATOM      1  C   UNL A   1      37.698  19.509  24.966  1.00  0.00     0.042 C 
ENDROOT
BRANCH   1   2
ATOM      2  C   UNL A   1      36.565  20.475  24.624  1.00  0.00     0.117 C 
BRANCH   2   3
ATOM      3  N   UNL A   1      35.751  20.748  25.795  1.00  0.00    -0.356 N 
ATOM      4  C   UNL A   1      34.499  21.265  25.923  1.00  0.00     0.225 C 
ATOM      5  O   UNL A   1      34.112  21.482  27.074  1.00  0.00    -0.275 OA
ATOM      6  H   UNL A   1      36.182  20.518  26.649  1.00  0.00     0.163 HD
BRANCH   4   7
ATOM      7  C   UNL A   1      33.609  21.481  24.702  1.00  0.00     0.102 C 
ATOM      8  C   UNL A   1      34.465  23.925  24.379  1.00  0.00     0.032 C 
ATOM      9  C   UNL A   1      33.321  22.936  24.281  1.00  0.00     0.094 C 
ATOM     10  N   UNL A   1      32.124  23.349  25.022  1.00  0.00    -0.334 N 
ATOM     11  C   UNL A   1      32.187  20.986  25.009  1.00  0.00     0.037 C 
ATOM     12  C   UNL A   1      31.544  22.191  25.686  1.00  0.00     0.121 C 
BRANCH  10  13
ATOM     13  C   UNL A   1      31.245  24.225  24.384  1.00  0.00     0.264 C 
ATOM     14  O   UNL A   1      30.568  23.842  23.429  1.00  0.00    -0.268 OA
BRANCH  13  15
ATOM     15  C   UNL A   1      31.193  25.594  24.866  1.00  0.00     0.093 A 
ATOM     16  C   UNL A   1      31.736  26.059  26.046  1.00  0.00     0.034 A 
ATOM     17  S   UNL A   1      30.564  26.875  23.930  1.00  0.00    -0.130 S 
ATOM     18  C   UNL A   1      31.779  27.488  26.128  1.00  0.00    -0.004 A 
ATOM     19  C   UNL A   1      31.198  28.074  24.999  1.00  0.00     0.035 A 
ATOM     20  C   UNL A   1      32.349  28.331  27.109  1.00  0.00     0.048 A 
ATOM     21  C   UNL A   1      31.190  29.473  24.819  1.00  0.00     0.022 A 
ATOM     22  C   UNL A   1      32.365  29.709  26.911  1.00  0.00     0.123 A 
ATOM     23  C   UNL A   1      31.802  30.280  25.782  1.00  0.00     0.041 A 
ATOM     24  F   UNL A   1      32.955  30.494  27.822  1.00  0.00    -0.207 F 
ENDBRANCH  13  15
ENDBRANCH  10  13
ENDBRANCH   4   7
ENDBRANCH   2   3
ENDBRANCH   1   2
BRANCH   1  25
ATOM     25  C   UNL A   1      38.872  20.170  25.684  1.00  0.00     0.118 C 
BRANCH  25  26
ATOM     26  N   UNL A   1      40.018  19.286  25.761  1.00  0.00    -0.352 N 
ATOM     27  C   UNL A   1      41.342  19.568  26.005  1.00  0.00     0.251 C 
ATOM     28  H   UNL A   1      39.817  18.333  25.616  1.00  0.00     0.163 HD
ATOM     29  O   UNL A   1      42.182  18.705  25.780  1.00  0.00    -0.269 OA
BRANCH  27  30
ATOM     30  C   UNL A   1      41.776  20.888  26.531  1.00  0.00     0.039 A 
ATOM     31  C   UNL A   1      41.658  21.124  27.905  1.00  0.00     0.014 A 
ATOM     32  C   UNL A   1      42.194  21.927  25.692  1.00  0.00     0.014 A 
ATOM     33  C   UNL A   1      41.968  22.380  28.436  1.00  0.00     0.010 A 
ATOM     34  C   UNL A   1      42.569  23.161  26.230  1.00  0.00     0.010 A 
ATOM     35  C   UNL A   1      42.432  23.410  27.603  1.00  0.00    -0.014 A 
BRANCH  35  36
ATOM     36  C   UNL A   1      42.701  24.767  28.147  1.00  0.00     0.031 A 
ATOM     37  C   UNL A   1      44.102  25.161  28.536  1.00  0.00     0.074 A 
ATOM     38  C   UNL A   1      41.694  25.646  28.314  1.00  0.00     0.049 A 
ATOM     39  N   UNL A   1      44.531  26.278  29.069  1.00  0.00    -0.248 NA
ATOM     40  C   UNL A   1      45.156  24.158  28.318  1.00  0.00     0.031 C 
ATOM     41  C   UNL A   1      40.285  25.389  28.016  1.00  0.00     0.029 A 
ATOM     42  N   UNL A   1      41.708  26.937  28.780  1.00  0.00    -0.354 N 
ATOM     43  C   UNL A   1      45.891  26.100  29.280  1.00  0.00     0.074 A 
ATOM     44  C   UNL A   1      46.214  24.759  28.842  1.00  0.00     0.031 C 
ATOM     45  C   UNL A   1      39.572  26.495  28.286  1.00  0.00     0.029 A 
ATOM     46  C   UNL A   1      40.469  27.530  28.794  1.00  0.00     0.049 A 
ATOM     47  H   UNL A   1      42.527  27.395  29.077  1.00  0.00     0.167 HD
ATOM     48  C   UNL A   1      46.797  26.975  29.777  1.00  0.00     0.037 A 
ATOM     49  C   UNL A   1      40.099  28.770  29.168  1.00  0.00     0.037 A 
ATOM     50  C   UNL A   1      46.502  28.328  30.165  1.00  0.00     0.049 A 
ATOM     51  C   UNL A   1      41.131  29.744  29.654  1.00  0.00     0.074 A 
ATOM     52  C   UNL A   1      47.369  29.302  30.629  1.00  0.00     0.029 A 
ATOM     53  N   UNL A   1      45.243  28.902  30.117  1.00  0.00    -0.354 N 
ATOM     54  N   UNL A   1      42.419  29.569  29.818  1.00  0.00    -0.248 NA
ATOM     55  C   UNL A   1      40.659  31.094  30.001  1.00  0.00     0.031 C 
ATOM     56  C   UNL A   1      46.629  30.467  30.873  1.00  0.00     0.029 A 
ATOM     57  C   UNL A   1      45.308  30.218  30.542  1.00  0.00     0.049 A 
ATOM     58  H   UNL A   1      44.422  28.443  29.823  1.00  0.00     0.167 HD
ATOM     59  C   UNL A   1      42.912  30.784  30.275  1.00  0.00     0.074 A 
ATOM     60  C   UNL A   1      41.788  31.694  30.349  1.00  0.00     0.031 C 
ATOM     61  C   UNL A   1      44.183  31.113  30.606  1.00  0.00     0.037 A 
BRANCH  48  62
ATOM     62  C   UNL A   1      48.206  26.489  29.925  1.00  0.00     0.057 A 
ATOM     63  C   UNL A   1      49.156  26.672  28.912  1.00  0.00     0.134 A 
ATOM     64  C   UNL A   1      48.622  25.849  31.099  1.00  0.00     0.134 A 
ATOM     65  F   UNL A   1      48.812  27.264  27.759  1.00  0.00    -0.206 F 
ATOM     66  C   UNL A   1      50.467  26.216  29.054  1.00  0.00     0.040 A 
ATOM     67  C   UNL A   1      49.936  25.406  31.260  1.00  0.00     0.040 A 
ATOM     68  F   UNL A   1      47.760  25.646  32.106  1.00  0.00    -0.206 F 
ATOM     69  C   UNL A   1      50.861  25.585  30.233  1.00  0.00     0.006 A 
ENDBRANCH  48  62
BRANCH  49  70
ATOM     70  C   UNL A   1      38.677  29.172  29.065  1.00  0.00     0.057 A 
ATOM     71  C   UNL A   1      37.834  29.115  30.181  1.00  0.00     0.134 A 
ATOM     72  C   UNL A   1      38.132  29.620  27.858  1.00  0.00     0.134 A 
ATOM     73  F   UNL A   1      38.301  28.674  31.358  1.00  0.00    -0.206 F 
ATOM     74  C   UNL A   1      36.491  29.484  30.097  1.00  0.00     0.040 A 
ATOM     75  C   UNL A   1      36.794  30.005  27.764  1.00  0.00     0.040 A 
ATOM     76  F   UNL A   1      38.894  29.696  26.758  1.00  0.00    -0.206 F 
ATOM     77  C   UNL A   1      35.969  29.934  28.886  1.00  0.00     0.006 A 
ENDBRANCH  49  70
BRANCH  61  78
ATOM     78  C   UNL A   1      44.427  32.517  31.063  1.00  0.00     0.057 A 
ATOM     79  C   UNL A   1      44.371  32.866  32.417  1.00  0.00     0.134 A 
ATOM     80  C   UNL A   1      44.751  33.522  30.144  1.00  0.00     0.134 A 
ATOM     81  F   UNL A   1      44.054  31.946  33.342  1.00  0.00    -0.206 F 
ATOM     82  C   UNL A   1      44.616  34.171  32.842  1.00  0.00     0.040 A 
ATOM     83  C   UNL A   1      45.011  34.828  30.559  1.00  0.00     0.040 A 
ATOM     84  F   UNL A   1      44.822  33.249  28.833  1.00  0.00    -0.206 F 
ATOM     85  C   UNL A   1      44.942  35.156  31.912  1.00  0.00     0.006 A 
ENDBRANCH  61  78
ENDBRANCH  35  36
ENDBRANCH  27  30
ENDBRANCH  25  26
ENDBRANCH   1  25
TORSDOF 12
ENDMDL
MODEL 2
REMARK VINA RESULT:     -12.3      1.174      1.458
REMARK SMILES C[C@H]1[C@@H](C(=O)NCCCNC(=O)c2ccc(-c3c4nc(c(-c5c(F)cccc5F)c5ccc([nH]5)c(-c5c(F)cccc5F)c5nc(c(-c6c(F)cccc6F)c6ccc3[nH]6)C=C5)C=C4)cc2)CCN1C(=O)c1cc2cc(F)ccc2s1
REMARK SMILES IDX 8 1 7 2 6 3 4 4 5 5 3 7 1 8 2 9 69 10 67 11 68 12 70 13
REMARK SMILES IDX 71 14 72 15 73 16 81 17 74 18 80 19 75 20 79 21 76 22 78 23
REMARK SMILES IDX 77 24 9 25 10 26 11 27 12 29 13 30 14 31 66 32 15 33 65 34
REMARK SMILES IDX 16 35 17 36 18 37 59 38 19 39 64 40 58 41 60 42 20 43 63 44
REMARK SMILES IDX 57 45 56 46 21 48 47 49 30 50 46 51 31 52 34 53 45 54 61 55
REMARK SMILES IDX 32 56 33 57 44 59 62 60 35 61 22 62 23 63 28 64 24 65 25 66
REMARK SMILES IDX 27 67 29 68 26 69 48 70 49 71 54 72 50 73 51 74 53 75 55 76
REMARK SMILES IDX 52 77 36 78 37 79 42 80 38 81 39 82 41 83 43 84 40 85
REMARK H PARENT 6 6 10 28 60 47 34 58
REMARK Flexibility Score: inf
ROOT
ATOM      1  C   UNL A   1      38.059  19.684  24.955  1.00  0.00     0.042 C 
ENDROOT
BRANCH   1   2
ATOM      2  C   UNL A   1      36.906  20.684  24.879  1.00  0.00     0.117 C 
BRANCH   2   3
ATOM      3  N   UNL A   1      35.628  20.005  25.000  1.00  0.00    -0.356 N 
ATOM      4  C   UNL A   1      34.366  20.481  25.176  1.00  0.00     0.225 C 
ATOM      5  O   UNL A   1      33.483  19.639  25.354  1.00  0.00    -0.275 OA
ATOM      6  H   UNL A   1      35.685  19.024  24.943  1.00  0.00     0.163 HD
BRANCH   4   7
ATOM      7  C   UNL A   1      34.070  21.976  25.077  1.00  0.00     0.102 C 
ATOM      8  C   UNL A   1      33.754  22.193  27.659  1.00  0.00     0.032 C 
ATOM      9  C   UNL A   1      33.348  22.637  26.268  1.00  0.00     0.094 C 
ATOM     10  N   UNL A   1      31.911  22.502  26.005  1.00  0.00    -0.334 N 
ATOM     11  C   UNL A   1      33.051  22.223  23.953  1.00  0.00     0.037 C 
ATOM     12  C   UNL A   1      31.713  22.008  24.651  1.00  0.00     0.121 C 
BRANCH  10  13
ATOM     13  C   UNL A   1      31.080  23.537  26.434  1.00  0.00     0.264 C 
ATOM     14  O   UNL A   1      30.322  23.371  27.391  1.00  0.00    -0.268 OA
BRANCH  13  15
ATOM     15  C   UNL A   1      31.123  24.786  25.694  1.00  0.00     0.093 A 
ATOM     16  C   UNL A   1      30.274  25.150  24.669  1.00  0.00     0.034 A 
ATOM     17  S   UNL A   1      32.170  26.067  26.113  1.00  0.00    -0.130 S 
ATOM     18  C   UNL A   1      30.369  26.536  24.318  1.00  0.00    -0.004 A 
ATOM     19  C   UNL A   1      31.356  27.179  25.072  1.00  0.00     0.035 A 
ATOM     20  C   UNL A   1      29.604  27.303  23.410  1.00  0.00     0.048 A 
ATOM     21  C   UNL A   1      31.582  28.567  24.955  1.00  0.00     0.022 A 
ATOM     22  C   UNL A   1      29.812  28.676  23.322  1.00  0.00     0.123 A 
ATOM     23  C   UNL A   1      30.780  29.309  24.084  1.00  0.00     0.041 A 
ATOM     24  F   UNL A   1      29.044  29.402  22.497  1.00  0.00    -0.207 F 
ENDBRANCH  13  15
ENDBRANCH  10  13
ENDBRANCH   4   7
ENDBRANCH   2   3
ENDBRANCH   1   2
BRANCH   1  25
ATOM     25  C   UNL A   1      39.088  20.016  26.034  1.00  0.00     0.118 C 
BRANCH  25  26
ATOM     26  N   UNL A   1      40.296  19.230  25.881  1.00  0.00    -0.352 N 
ATOM     27  C   UNL A   1      41.616  19.611  25.933  1.00  0.00     0.251 C 
ATOM     28  H   UNL A   1      40.148  18.271  25.712  1.00  0.00     0.163 HD
ATOM     29  O   UNL A   1      42.473  18.834  25.530  1.00  0.00    -0.269 OA
BRANCH  27  30
ATOM     30  C   UNL A   1      42.026  20.938  26.462  1.00  0.00     0.039 A 
ATOM     31  C   UNL A   1      42.005  21.133  27.848  1.00  0.00     0.014 A 
ATOM     32  C   UNL A   1      42.326  22.017  25.625  1.00  0.00     0.014 A 
ATOM     33  C   UNL A   1      42.294  22.389  28.390  1.00  0.00     0.010 A 
ATOM     34  C   UNL A   1      42.682  23.255  26.168  1.00  0.00     0.010 A 
ATOM     35  C   UNL A   1      42.641  23.462  27.554  1.00  0.00    -0.014 A 
BRANCH  35  36
ATOM     36  C   UNL A   1      42.886  24.817  28.115  1.00  0.00     0.031 A 
ATOM     37  C   UNL A   1      44.280  25.231  28.507  1.00  0.00     0.074 A 
ATOM     38  C   UNL A   1      41.864  25.675  28.294  1.00  0.00     0.049 A 
ATOM     39  N   UNL A   1      44.689  26.349  29.055  1.00  0.00    -0.248 NA
ATOM     40  C   UNL A   1      45.352  24.250  28.276  1.00  0.00     0.031 C 
ATOM     41  C   UNL A   1      40.459  25.396  27.994  1.00  0.00     0.029 A 
ATOM     42  N   UNL A   1      41.855  26.960  28.777  1.00  0.00    -0.354 N 
ATOM     43  C   UNL A   1      46.053  26.192  29.262  1.00  0.00     0.074 A 
ATOM     44  C   UNL A   1      46.400  24.863  28.806  1.00  0.00     0.031 C 
ATOM     45  C   UNL A   1      39.726  26.486  28.280  1.00  0.00     0.029 A 
ATOM     46  C   UNL A   1      40.605  27.530  28.799  1.00  0.00     0.049 A 
ATOM     47  H   UNL A   1      42.666  27.428  29.079  1.00  0.00     0.167 HD
ATOM     48  C   UNL A   1      46.944  27.077  29.769  1.00  0.00     0.037 A 
ATOM     49  C   UNL A   1      40.213  28.758  29.189  1.00  0.00     0.037 A 
ATOM     50  C   UNL A   1      46.625  28.420  30.174  1.00  0.00     0.049 A 
ATOM     51  C   UNL A   1      41.228  29.745  29.687  1.00  0.00     0.074 A 
ATOM     52  C   UNL A   1      47.474  29.404  30.650  1.00  0.00     0.029 A 
ATOM     53  N   UNL A   1      45.355  28.972  30.135  1.00  0.00    -0.354 N 
ATOM     54  N   UNL A   1      42.519  29.591  29.848  1.00  0.00    -0.248 NA
ATOM     55  C   UNL A   1      40.732  31.081  30.052  1.00  0.00     0.031 C 
ATOM     56  C   UNL A   1      46.714  30.551  30.910  1.00  0.00     0.029 A 
ATOM     57  C   UNL A   1      45.397  30.283  30.577  1.00  0.00     0.049 A 
ATOM     58  H   UNL A   1      44.543  28.501  29.836  1.00  0.00     0.167 HD
ATOM     59  C   UNL A   1      42.991  30.809  30.319  1.00  0.00     0.074 A 
ATOM     60  C   UNL A   1      41.850  31.696  30.407  1.00  0.00     0.031 C 
ATOM     61  C   UNL A   1      44.256  31.157  30.654  1.00  0.00     0.037 A 
BRANCH  48  62
ATOM     62  C   UNL A   1      48.362  26.615  29.909  1.00  0.00     0.057 A 
ATOM     63  C   UNL A   1      49.316  26.861  28.915  1.00  0.00     0.134 A 
ATOM     64  C   UNL A   1      48.781  25.934  31.059  1.00  0.00     0.134 A 
ATOM     65  F   UNL A   1      48.969  27.495  27.784  1.00  0.00    -0.206 F 
ATOM     66  C   UNL A   1      50.635  26.428  29.049  1.00  0.00     0.040 A 
ATOM     67  C   UNL A   1      50.103  25.512  31.213  1.00  0.00     0.040 A 
ATOM     68  F   UNL A   1      47.915  25.670  32.048  1.00  0.00    -0.206 F 
ATOM     69  C   UNL A   1      51.032  25.755  30.203  1.00  0.00     0.006 A 
ENDBRANCH  48  62
BRANCH  49  70
ATOM     70  C   UNL A   1      38.784  29.135  29.093  1.00  0.00     0.057 A 
ATOM     71  C   UNL A   1      37.947  29.063  30.213  1.00  0.00     0.134 A 
ATOM     72  C   UNL A   1      38.226  29.574  27.889  1.00  0.00     0.134 A 
ATOM     73  F   UNL A   1      38.427  28.629  31.387  1.00  0.00    -0.206 F 
ATOM     74  C   UNL A   1      36.597  29.409  30.135  1.00  0.00     0.040 A 
ATOM     75  C   UNL A   1      36.881  29.937  27.801  1.00  0.00     0.040 A 
ATOM     76  F   UNL A   1      38.982  29.665  26.786  1.00  0.00    -0.206 F 
ATOM     77  C   UNL A   1      36.063  29.850  28.927  1.00  0.00     0.006 A 
ENDBRANCH  49  70
BRANCH  61  78
ATOM     78  C   UNL A   1      44.475  32.559  31.128  1.00  0.00     0.057 A 
ATOM     79  C   UNL A   1      44.416  32.888  32.487  1.00  0.00     0.134 A 
ATOM     80  C   UNL A   1      44.778  33.582  30.221  1.00  0.00     0.134 A 
ATOM     81  F   UNL A   1      44.118  31.951  33.401  1.00  0.00    -0.206 F 
ATOM     82  C   UNL A   1      44.638  34.192  32.929  1.00  0.00     0.040 A 
ATOM     83  C   UNL A   1      45.015  34.887  30.653  1.00  0.00     0.040 A 
ATOM     84  F   UNL A   1      44.850  33.327  28.907  1.00  0.00    -0.206 F 
ATOM     85  C   UNL A   1      44.943  35.196  32.010  1.00  0.00     0.006 A 
ENDBRANCH  61  78
ENDBRANCH  35  36
ENDBRANCH  27  30
ENDBRANCH  25  26
ENDBRANCH   1  25
TORSDOF 12
ENDMDL
MODEL 3
REMARK VINA RESULT:     -12.2      0.466      6.152
REMARK SMILES C[C@H]1[C@@H](C(=O)NCCCNC(=O)c2ccc(-c3c4nc(c(-c5c(F)cccc5F)c5ccc([nH]5)c(-c5c(F)cccc5F)c5nc(c(-c6c(F)cccc6F)c6ccc3[nH]6)C=C5)C=C4)cc2)CCN1C(=O)c1cc2cc(F)ccc2s1
REMARK SMILES IDX 8 1 7 2 6 3 4 4 5 5 3 7 1 8 2 9 69 10 67 11 68 12 70 13
REMARK SMILES IDX 71 14 72 15 73 16 81 17 74 18 80 19 75 20 79 21 76 22 78 23
REMARK SMILES IDX 77 24 9 25 10 26 11 27 12 29 13 30 14 31 66 32 15 33 65 34
REMARK SMILES IDX 16 35 17 36 18 37 59 38 19 39 64 40 58 41 60 42 20 43 63 44
REMARK SMILES IDX 57 45 56 46 21 48 47 49 30 50 46 51 31 52 34 53 45 54 61 55
REMARK SMILES IDX 32 56 33 57 44 59 62 60 35 61 22 62 23 63 28 64 24 65 25 66
REMARK SMILES IDX 27 67 29 68 26 69 48 70 49 71 54 72 50 73 51 74 53 75 55 76
REMARK SMILES IDX 52 77 36 78 37 79 42 80 38 81 39 82 41 83 43 84 40 85
REMARK H PARENT 6 6 10 28 60 47 34 58
REMARK Flexibility Score: inf
ROOT
ATOM      1  C   UNL A   1      37.731  19.866  24.964  1.00  0.00     0.042 C 
ENDROOT
BRANCH   1   2
ATOM      2  C   UNL A   1      36.606  20.877  24.742  1.00  0.00     0.117 C 
BRANCH   2   3
ATOM      3  N   UNL A   1      35.726  20.929  25.897  1.00  0.00    -0.356 N 
ATOM      4  C   UNL A   1      34.423  21.299  26.023  1.00  0.00     0.225 C 
ATOM      5  O   UNL A   1      33.976  21.341  27.171  1.00  0.00    -0.275 OA
ATOM      6  H   UNL A   1      36.149  20.645  26.739  1.00  0.00     0.163 HD
BRANCH   4   7
ATOM      7  C   UNL A   1      33.560  21.566  24.792  1.00  0.00     0.102 C 
ATOM      8  C   UNL A   1      34.427  24.019  24.585  1.00  0.00     0.032 C 
ATOM      9  C   UNL A   1      33.284  23.038  24.425  1.00  0.00     0.094 C 
ATOM     10  N   UNL A   1      32.072  23.424  25.155  1.00  0.00    -0.334 N 
ATOM     11  C   UNL A   1      32.131  21.064  25.049  1.00  0.00     0.037 C 
ATOM     12  C   UNL A   1      31.476  22.242  25.761  1.00  0.00     0.121 C 
BRANCH  10  13
ATOM     13  C   UNL A   1      31.209  24.327  24.535  1.00  0.00     0.264 C 
ATOM     14  O   UNL A   1      30.501  23.966  23.594  1.00  0.00    -0.268 OA
BRANCH  13  15
ATOM     15  C   UNL A   1      31.208  25.697  25.018  1.00  0.00     0.093 A 
ATOM     16  C   UNL A   1      31.809  26.148  26.176  1.00  0.00     0.034 A 
ATOM     17  S   UNL A   1      30.572  26.993  24.107  1.00  0.00    -0.130 S 
ATOM     18  C   UNL A   1      31.889  27.576  26.254  1.00  0.00    -0.004 A 
ATOM     19  C   UNL A   1      31.277  28.176  25.149  1.00  0.00     0.035 A 
ATOM     20  C   UNL A   1      32.517  28.405  27.211  1.00  0.00     0.048 A 
ATOM     21  C   UNL A   1      31.295  29.575  24.969  1.00  0.00     0.022 A 
ATOM     22  C   UNL A   1      32.558  29.782  27.012  1.00  0.00     0.123 A 
ATOM     23  C   UNL A   1      31.964  30.367  25.906  1.00  0.00     0.041 A 
ATOM     24  F   UNL A   1      33.203  30.553  27.899  1.00  0.00    -0.207 F 
ENDBRANCH  13  15
ENDBRANCH  10  13
ENDBRANCH   4   7
ENDBRANCH   2   3
ENDBRANCH   1   2
BRANCH   1  25
ATOM     25  C   UNL A   1      38.919  20.433  25.737  1.00  0.00     0.118 C 
BRANCH  25  26
ATOM     26  N   UNL A   1      39.993  19.465  25.851  1.00  0.00    -0.352 N 
ATOM     27  C   UNL A   1      41.332  19.650  26.097  1.00  0.00     0.251 C 
ATOM     28  H   UNL A   1      39.719  18.526  25.733  1.00  0.00     0.163 HD
ATOM     29  O   UNL A   1      42.104  18.718  25.905  1.00  0.00    -0.269 OA
BRANCH  27  30
ATOM     30  C   UNL A   1      41.866  20.949  26.585  1.00  0.00     0.039 A 
ATOM     31  C   UNL A   1      41.854  21.192  27.963  1.00  0.00     0.014 A 
ATOM     32  C   UNL A   1      42.275  21.964  25.714  1.00  0.00     0.014 A 
ATOM     33  C   UNL A   1      42.260  22.433  28.465  1.00  0.00     0.010 A 
ATOM     34  C   UNL A   1      42.745  23.179  26.220  1.00  0.00     0.010 A 
ATOM     35  C   UNL A   1      42.715  23.437  27.597  1.00  0.00    -0.014 A 
BRANCH  35  36
ATOM     36  C   UNL A   1      43.087  24.781  28.115  1.00  0.00     0.031 A 
ATOM     37  C   UNL A   1      42.020  25.812  28.374  1.00  0.00     0.074 A 
ATOM     38  C   UNL A   1      44.378  25.092  28.336  1.00  0.00     0.049 A 
ATOM     39  N   UNL A   1      42.146  27.051  28.779  1.00  0.00    -0.248 NA
ATOM     40  C   UNL A   1      40.629  25.404  28.121  1.00  0.00     0.031 C 
ATOM     41  C   UNL A   1      45.518  24.206  28.095  1.00  0.00     0.029 A 
ATOM     42  N   UNL A   1      44.946  26.247  28.814  1.00  0.00    -0.354 N 
ATOM     43  C   UNL A   1      40.862  27.577  28.798  1.00  0.00     0.074 A 
ATOM     44  C   UNL A   1      39.971  26.533  28.339  1.00  0.00     0.031 C 
ATOM     45  C   UNL A   1      46.648  24.843  28.447  1.00  0.00     0.029 A 
ATOM     46  C   UNL A   1      46.314  26.184  28.918  1.00  0.00     0.049 A 
ATOM     47  H   UNL A   1      44.423  27.044  29.059  1.00  0.00     0.167 HD
ATOM     48  C   UNL A   1      40.453  28.811  29.178  1.00  0.00     0.037 A 
ATOM     49  C   UNL A   1      47.199  27.103  29.351  1.00  0.00     0.037 A 
ATOM     50  C   UNL A   1      41.318  29.840  29.689  1.00  0.00     0.049 A 
ATOM     51  C   UNL A   1      46.716  28.441  29.829  1.00  0.00     0.074 A 
ATOM     52  C   UNL A   1      40.982  31.102  30.148  1.00  0.00     0.029 A 
ATOM     53  N   UNL A   1      42.691  29.717  29.822  1.00  0.00    -0.354 N 
ATOM     54  N   UNL A   1      45.494  28.911  29.869  1.00  0.00    -0.248 NA
ATOM     55  C   UNL A   1      47.736  29.374  30.330  1.00  0.00     0.031 C 
ATOM     56  C   UNL A   1      42.158  31.749  30.551  1.00  0.00     0.029 A 
ATOM     57  C   UNL A   1      43.219  30.879  30.358  1.00  0.00     0.049 A 
ATOM     58  H   UNL A   1      43.215  28.920  29.574  1.00  0.00     0.167 HD
ATOM     59  C   UNL A   1      45.595  30.186  30.408  1.00  0.00     0.074 A 
ATOM     60  C   UNL A   1      46.997  30.413  30.693  1.00  0.00     0.031 C 
ATOM     61  C   UNL A   1      44.613  31.089  30.641  1.00  0.00     0.037 A 
BRANCH  48  62
ATOM     62  C   UNL A   1      38.990  29.113  29.059  1.00  0.00     0.057 A 
ATOM     63  C   UNL A   1      38.416  29.492  27.840  1.00  0.00     0.134 A 
ATOM     64  C   UNL A   1      38.145  29.003  30.170  1.00  0.00     0.134 A 
ATOM     65  F   UNL A   1      39.178  29.630  26.744  1.00  0.00    -0.206 F 
ATOM     66  C   UNL A   1      37.053  29.774  27.734  1.00  0.00     0.040 A 
ATOM     67  C   UNL A   1      36.777  29.264  30.072  1.00  0.00     0.040 A 
ATOM     68  F   UNL A   1      38.635  28.641  31.365  1.00  0.00    -0.206 F 
ATOM     69  C   UNL A   1      36.230  29.655  28.852  1.00  0.00     0.006 A 
ENDBRANCH  48  62
BRANCH  49  70
ATOM     70  C   UNL A   1      48.643  26.771  29.381  1.00  0.00     0.057 A 
ATOM     71  C   UNL A   1      49.479  27.117  28.314  1.00  0.00     0.134 A 
ATOM     72  C   UNL A   1      49.215  26.107  30.470  1.00  0.00     0.134 A 
ATOM     73  F   UNL A   1      48.978  27.738  27.237  1.00  0.00    -0.206 F 
ATOM     74  C   UNL A   1      50.839  26.805  28.326  1.00  0.00     0.040 A 
ATOM     75  C   UNL A   1      50.576  25.802  30.501  1.00  0.00     0.040 A 
ATOM     76  F   UNL A   1      48.460  25.754  31.520  1.00  0.00    -0.206 F 
ATOM     77  C   UNL A   1      51.391  26.149  29.424  1.00  0.00     0.006 A 
ENDBRANCH  49  70
BRANCH  61  78
ATOM     78  C   UNL A   1      45.019  32.396  31.247  1.00  0.00     0.057 A 
ATOM     79  C   UNL A   1      45.078  32.571  32.635  1.00  0.00     0.134 A 
ATOM     80  C   UNL A   1      45.383  33.478  30.437  1.00  0.00     0.134 A 
ATOM     81  F   UNL A   1      44.729  31.572  33.461  1.00  0.00    -0.206 F 
ATOM     82  C   UNL A   1      45.474  33.785  33.197  1.00  0.00     0.040 A 
ATOM     83  C   UNL A   1      45.793  34.692  30.989  1.00  0.00     0.040 A 
ATOM     84  F   UNL A   1      45.348  33.370  29.101  1.00  0.00    -0.206 F 
ATOM     85  C   UNL A   1      45.836  34.849  32.373  1.00  0.00     0.006 A 
ENDBRANCH  61  78
ENDBRANCH  35  36
ENDBRANCH  27  30
ENDBRANCH  25  26
ENDBRANCH   1  25
TORSDOF 12
ENDMDL
