MODEL 1
REMARK VINA RESULT:     -13.7      0.000      0.000
REMARK SMILES Cc1ccc(S(=O)(=O)Nc2ccc(N3CCNC3=O)cc2)cc1C(=O)NCCCNC(=O)c1ccc(-c2c3nc(c(-c4c(F)cccc4F)c4ccc([nH]4)c(-c4c(F)cccc4F)c4nc(c(-c5c(F)cccc5F)c5ccc2[nH]5)C=C4)C=C3)cc1
REMARK SMILES IDX 27 1 26 2 24 3 25 4 23 6 1 7 2 8 3 9 4 10 22 11 5 12 6 13
REMARK SMILES IDX 7 14 8 15 9 16 10 18 11 19 21 20 12 21 20 22 13 23 14 24
REMARK SMILES IDX 15 25 18 26 16 27 17 28 19 29 28 31 29 32 30 33 31 34 32 36
REMARK SMILES IDX 33 37 34 38 86 39 35 40 85 41 36 42 37 43 38 44 79 45 39 46
REMARK SMILES IDX 84 47 78 48 80 49 40 50 83 51 77 52 76 53 41 55 67 56 50 57
REMARK SMILES IDX 66 58 51 59 54 60 65 61 81 62 52 63 53 64 64 66 82 67 55 68
REMARK SMILES IDX 42 69 43 70 48 71 44 72 45 73 47 74 49 75 46 76 68 77 69 78
REMARK SMILES IDX 74 79 70 80 71 81 73 82 75 83 72 84 56 85 57 86 62 87 58 88
REMARK SMILES IDX 59 89 61 90 63 91 60 92
REMARK H PARENT 26 5 9 17 17 30 30 35 80 54 54 65
REMARK Flexibility Score: inf
ROOT
ATOM      1  C   UNL A   1      34.101  29.831  27.237  1.00  0.00     0.118 C 
ENDROOT
BRANCH   1   2
ATOM      2  N   UNL A   1      32.877  29.176  27.647  1.00  0.00    -0.352 N 
ATOM      3  C   UNL A   1      31.946  28.355  27.075  1.00  0.00     0.251 C 
ATOM      4  O   UNL A   1      31.154  27.898  27.909  1.00  0.00    -0.269 OA
ATOM      5  H   UNL A   1      32.657  29.373  28.587  1.00  0.00     0.163 HD
BRANCH   3   6
ATOM      6  C   UNL A   1      31.772  27.934  25.626  1.00  0.00     0.044 A 
ATOM      7  C   UNL A   1      30.699  30.020  24.504  1.00  0.00     0.045 C 
ATOM      8  C   UNL A   1      31.291  28.652  24.509  1.00  0.00    -0.038 A 
ATOM      9  C   UNL A   1      31.205  28.020  23.249  1.00  0.00     0.005 A 
ATOM     10  C   UNL A   1      31.361  26.653  23.120  1.00  0.00     0.022 A 
ATOM     11  C   UNL A   1      31.991  26.538  25.435  1.00  0.00     0.036 A 
ATOM     12  C   UNL A   1      31.667  25.892  24.241  1.00  0.00     0.088 A 
BRANCH  12  13
ATOM     13  S   UNL A   1      31.355  24.153  24.044  1.00  0.00     0.261 S 
ATOM     14  O   UNL A   1      31.236  23.623  25.389  1.00  0.00    -0.201 OA
ATOM     15  O   UNL A   1      30.239  24.042  23.127  1.00  0.00    -0.201 OA
BRANCH  13  16
ATOM     16  N   UNL A   1      32.614  23.301  23.330  1.00  0.00    -0.280 N 
ATOM     17  H   UNL A   1      33.278  23.803  22.802  1.00  0.00     0.180 HD
BRANCH  16  18
ATOM     18  C   UNL A   1      32.773  21.894  23.447  1.00  0.00     0.049 A 
ATOM     19  C   UNL A   1      33.770  21.500  24.336  1.00  0.00     0.029 A 
ATOM     20  C   UNL A   1      32.082  20.937  22.708  1.00  0.00     0.029 A 
ATOM     21  C   UNL A   1      33.935  20.156  24.645  1.00  0.00     0.028 A 
ATOM     22  C   UNL A   1      32.270  19.576  23.004  1.00  0.00     0.028 A 
ATOM     23  C   UNL A   1      33.148  19.182  24.024  1.00  0.00     0.046 A 
BRANCH  23  24
ATOM     24  N   UNL A   1      33.176  17.860  24.508  1.00  0.00    -0.293 N 
ATOM     25  C   UNL A   1      32.709  17.519  25.838  1.00  0.00     0.149 C 
ATOM     26  C   UNL A   1      33.528  16.703  23.807  1.00  0.00     0.321 C 
ATOM     27  C   UNL A   1      32.476  16.020  25.768  1.00  0.00     0.139 C 
ATOM     28  N   UNL A   1      33.230  15.614  24.617  1.00  0.00    -0.336 N 
ATOM     29  O   UNL A   1      34.027  16.596  22.693  1.00  0.00    -0.248 OA
ATOM     30  H   UNL A   1      33.499  14.686  24.427  1.00  0.00     0.165 HD
ENDBRANCH  23  24
ENDBRANCH  16  18
ENDBRANCH  13  16
ENDBRANCH  12  13
ENDBRANCH   3   6
ENDBRANCH   1   2
BRANCH   1  31
ATOM     31  C   UNL A   1      34.213  31.225  27.840  1.00  0.00     0.042 C 
BRANCH  31  32
ATOM     32  C   UNL A   1      35.604  31.813  27.873  1.00  0.00     0.118 C 
BRANCH  32  33
ATOM     33  N   UNL A   1      36.151  31.986  29.219  1.00  0.00    -0.352 N 
ATOM     34  C   UNL A   1      36.928  31.113  29.966  1.00  0.00     0.251 C 
ATOM     35  H   UNL A   1      35.936  32.842  29.656  1.00  0.00     0.163 HD
ATOM     36  O   UNL A   1      37.360  31.456  31.062  1.00  0.00    -0.269 OA
BRANCH  34  37
ATOM     37  C   UNL A   1      37.387  29.843  29.348  1.00  0.00     0.039 A 
ATOM     38  C   UNL A   1      37.558  28.778  30.237  1.00  0.00     0.014 A 
ATOM     39  C   UNL A   1      38.107  29.900  28.165  1.00  0.00     0.014 A 
ATOM     40  C   UNL A   1      38.726  28.037  30.156  1.00  0.00     0.010 A 
ATOM     41  C   UNL A   1      39.333  29.279  28.159  1.00  0.00     0.010 A 
ATOM     42  C   UNL A   1      39.670  28.420  29.209  1.00  0.00    -0.014 A 
BRANCH  42  43
ATOM     43  C   UNL A   1      41.012  27.883  29.165  1.00  0.00     0.031 A 
ATOM     44  C   UNL A   1      41.119  26.483  28.747  1.00  0.00     0.074 A 
ATOM     45  C   UNL A   1      42.089  28.636  29.475  1.00  0.00     0.049 A 
ATOM     46  N   UNL A   1      42.049  25.686  29.126  1.00  0.00    -0.248 NA
ATOM     47  C   UNL A   1      40.091  25.835  27.939  1.00  0.00     0.031 C 
ATOM     48  C   UNL A   1      43.496  28.300  29.304  1.00  0.00     0.029 A 
ATOM     49  N   UNL A   1      42.109  29.827  30.206  1.00  0.00    -0.354 N 
ATOM     50  C   UNL A   1      41.919  24.531  28.389  1.00  0.00     0.074 A 
ATOM     51  C   UNL A   1      40.617  24.622  27.780  1.00  0.00     0.031 C 
ATOM     52  C   UNL A   1      44.231  29.070  30.126  1.00  0.00     0.029 A 
ATOM     53  C   UNL A   1      43.315  29.837  30.948  1.00  0.00     0.049 A 
ATOM     54  H   UNL A   1      41.416  30.526  30.205  1.00  0.00     0.167 HD
ATOM     55  C   UNL A   1      43.010  23.725  28.268  1.00  0.00     0.037 A 
ATOM     56  C   UNL A   1      43.273  29.823  32.317  1.00  0.00     0.037 A 
ATOM     57  C   UNL A   1      44.102  24.237  29.107  1.00  0.00     0.049 A 
ATOM     58  C   UNL A   1      43.717  28.506  32.911  1.00  0.00     0.074 A 
ATOM     59  C   UNL A   1      45.207  25.037  28.862  1.00  0.00     0.029 A 
ATOM     60  N   UNL A   1      43.921  24.264  30.481  1.00  0.00    -0.354 N 
ATOM     61  N   UNL A   1      44.140  27.490  32.209  1.00  0.00    -0.248 NA
ATOM     62  C   UNL A   1      43.627  28.201  34.337  1.00  0.00     0.031 C 
ATOM     63  C   UNL A   1      45.664  25.561  30.110  1.00  0.00     0.029 A 
ATOM     64  C   UNL A   1      44.864  25.051  31.117  1.00  0.00     0.049 A 
ATOM     65  H   UNL A   1      43.203  23.780  30.950  1.00  0.00     0.167 HD
ATOM     66  C   UNL A   1      44.342  26.415  33.029  1.00  0.00     0.074 A 
ATOM     67  C   UNL A   1      43.974  26.903  34.349  1.00  0.00     0.031 C 
ATOM     68  C   UNL A   1      44.777  25.204  32.564  1.00  0.00     0.037 A 
BRANCH  55  69
ATOM     69  C   UNL A   1      43.183  22.668  27.197  1.00  0.00     0.057 A 
ATOM     70  C   UNL A   1      42.406  21.494  27.240  1.00  0.00     0.134 A 
ATOM     71  C   UNL A   1      44.115  22.691  26.141  1.00  0.00     0.134 A 
ATOM     72  F   UNL A   1      41.412  21.341  28.124  1.00  0.00    -0.206 F 
ATOM     73  C   UNL A   1      42.607  20.408  26.375  1.00  0.00     0.040 A 
ATOM     74  C   UNL A   1      44.356  21.599  25.295  1.00  0.00     0.040 A 
ATOM     75  F   UNL A   1      44.806  23.787  25.818  1.00  0.00    -0.206 F 
ATOM     76  C   UNL A   1      43.605  20.443  25.416  1.00  0.00     0.006 A 
ENDBRANCH  55  69
BRANCH  56  77
ATOM     77  C   UNL A   1      42.164  30.679  32.836  1.00  0.00     0.057 A 
ATOM     78  C   UNL A   1      41.036  29.986  33.314  1.00  0.00     0.134 A 
ATOM     79  C   UNL A   1      42.461  31.910  33.424  1.00  0.00     0.134 A 
ATOM     80  F   UNL A   1      40.646  28.845  32.722  1.00  0.00    -0.206 F 
ATOM     81  C   UNL A   1      40.454  30.324  34.534  1.00  0.00     0.040 A 
ATOM     82  C   UNL A   1      41.847  32.281  34.621  1.00  0.00     0.040 A 
ATOM     83  F   UNL A   1      43.457  32.675  32.958  1.00  0.00    -0.206 F 
ATOM     84  C   UNL A   1      40.916  31.437  35.227  1.00  0.00     0.006 A 
ENDBRANCH  56  77
BRANCH  68  85
ATOM     85  C   UNL A   1      45.108  24.038  33.465  1.00  0.00     0.057 A 
ATOM     86  C   UNL A   1      46.406  23.777  33.927  1.00  0.00     0.134 A 
ATOM     87  C   UNL A   1      44.147  23.073  33.834  1.00  0.00     0.134 A 
ATOM     88  F   UNL A   1      47.457  24.488  33.493  1.00  0.00    -0.206 F 
ATOM     89  C   UNL A   1      46.692  22.740  34.821  1.00  0.00     0.040 A 
ATOM     90  C   UNL A   1      44.431  22.000  34.681  1.00  0.00     0.040 A 
ATOM     91  F   UNL A   1      42.882  23.109  33.398  1.00  0.00    -0.206 F 
ATOM     92  C   UNL A   1      45.699  21.854  35.212  1.00  0.00     0.006 A 
ENDBRANCH  68  85
ENDBRANCH  42  43
ENDBRANCH  34  37
ENDBRANCH  32  33
ENDBRANCH  31  32
ENDBRANCH   1  31
TORSDOF 14
ENDMDL
MODEL 2
REMARK VINA RESULT:     -12.9      2.523      3.323
REMARK SMILES Cc1ccc(S(=O)(=O)Nc2ccc(N3CCNC3=O)cc2)cc1C(=O)NCCCNC(=O)c1ccc(-c2c3nc(c(-c4c(F)cccc4F)c4ccc([nH]4)c(-c4c(F)cccc4F)c4nc(c(-c5c(F)cccc5F)c5ccc2[nH]5)C=C4)C=C3)cc1
REMARK SMILES IDX 27 1 26 2 24 3 25 4 23 6 1 7 2 8 3 9 4 10 22 11 5 12 6 13
REMARK SMILES IDX 7 14 8 15 9 16 10 18 11 19 21 20 12 21 20 22 13 23 14 24
REMARK SMILES IDX 15 25 18 26 16 27 17 28 19 29 28 31 29 32 30 33 31 34 32 36
REMARK SMILES IDX 33 37 34 38 86 39 35 40 85 41 36 42 37 43 38 44 79 45 39 46
REMARK SMILES IDX 84 47 78 48 80 49 40 50 83 51 77 52 76 53 41 55 67 56 50 57
REMARK SMILES IDX 66 58 51 59 54 60 65 61 81 62 52 63 53 64 64 66 82 67 55 68
REMARK SMILES IDX 42 69 43 70 48 71 44 72 45 73 47 74 49 75 46 76 68 77 69 78
REMARK SMILES IDX 74 79 70 80 71 81 73 82 75 83 72 84 56 85 57 86 62 87 58 88
REMARK SMILES IDX 59 89 61 90 63 91 60 92
REMARK H PARENT 26 5 9 17 17 30 30 35 80 54 54 65
REMARK Flexibility Score: inf
ROOT
ATOM      1  C   UNL A   1      33.812  30.088  27.176  1.00  0.00     0.118 C 
ENDROOT
BRANCH   1   2
ATOM      2  N   UNL A   1      32.676  29.246  27.487  1.00  0.00    -0.352 N 
ATOM      3  C   UNL A   1      32.046  28.174  26.920  1.00  0.00     0.251 C 
ATOM      4  O   UNL A   1      31.205  27.675  27.679  1.00  0.00    -0.269 OA
ATOM      5  H   UNL A   1      32.243  29.518  28.329  1.00  0.00     0.163 HD
BRANCH   3   6
ATOM      6  C   UNL A   1      32.243  27.531  25.559  1.00  0.00     0.044 A 
ATOM      7  C   UNL A   1      30.339  28.556  24.114  1.00  0.00     0.045 C 
ATOM      8  C   UNL A   1      31.556  27.725  24.340  1.00  0.00    -0.038 A 
ATOM      9  C   UNL A   1      31.921  26.978  23.199  1.00  0.00     0.005 A 
ATOM     10  C   UNL A   1      32.778  25.898  23.292  1.00  0.00     0.022 A 
ATOM     11  C   UNL A   1      33.174  26.452  25.596  1.00  0.00     0.036 A 
ATOM     12  C   UNL A   1      33.339  25.576  24.522  1.00  0.00     0.088 A 
BRANCH  12  13
ATOM     13  S   UNL A   1      33.999  23.928  24.609  1.00  0.00     0.261 S 
ATOM     14  O   UNL A   1      34.080  23.613  26.022  1.00  0.00    -0.201 OA
ATOM     15  O   UNL A   1      33.175  23.114  23.737  1.00  0.00    -0.201 OA
BRANCH  13  16
ATOM     16  N   UNL A   1      35.565  23.779  24.019  1.00  0.00    -0.280 N 
ATOM     17  H   UNL A   1      35.760  24.128  23.119  1.00  0.00     0.180 HD
BRANCH  16  18
ATOM     18  C   UNL A   1      36.623  23.176  24.752  1.00  0.00     0.049 A 
ATOM     19  C   UNL A   1      36.754  21.804  24.549  1.00  0.00     0.029 A 
ATOM     20  C   UNL A   1      37.441  23.824  25.673  1.00  0.00     0.029 A 
ATOM     21  C   UNL A   1      37.829  21.119  25.099  1.00  0.00     0.028 A 
ATOM     22  C   UNL A   1      38.515  23.122  26.249  1.00  0.00     0.028 A 
ATOM     23  C   UNL A   1      38.755  21.783  25.910  1.00  0.00     0.046 A 
BRANCH  23  24
ATOM     24  N   UNL A   1      39.948  21.129  26.272  1.00  0.00    -0.293 N 
ATOM     25  C   UNL A   1      41.009  21.808  26.992  1.00  0.00     0.149 C 
ATOM     26  C   UNL A   1      40.260  19.776  26.115  1.00  0.00     0.321 C 
ATOM     27  C   UNL A   1      41.839  20.674  27.569  1.00  0.00     0.139 C 
ATOM     28  N   UNL A   1      41.456  19.540  26.781  1.00  0.00    -0.336 N 
ATOM     29  O   UNL A   1      39.648  18.908  25.504  1.00  0.00    -0.248 OA
ATOM     30  H   UNL A   1      41.974  18.704  26.720  1.00  0.00     0.165 HD
ENDBRANCH  23  24
ENDBRANCH  16  18
ENDBRANCH  13  16
ENDBRANCH  12  13
ENDBRANCH   3   6
ENDBRANCH   1   2
BRANCH   1  31
ATOM     31  C   UNL A   1      33.632  31.493  27.737  1.00  0.00     0.042 C 
BRANCH  31  32
ATOM     32  C   UNL A   1      34.906  32.224  28.089  1.00  0.00     0.118 C 
BRANCH  32  33
ATOM     33  N   UNL A   1      35.172  32.311  29.525  1.00  0.00    -0.352 N 
ATOM     34  C   UNL A   1      35.889  31.444  30.337  1.00  0.00     0.251 C 
ATOM     35  H   UNL A   1      34.785  33.095  29.980  1.00  0.00     0.163 HD
ATOM     36  O   UNL A   1      36.068  31.715  31.520  1.00  0.00    -0.269 OA
BRANCH  34  37
ATOM     37  C   UNL A   1      36.593  30.291  29.719  1.00  0.00     0.039 A 
ATOM     38  C   UNL A   1      36.866  29.229  30.585  1.00  0.00     0.014 A 
ATOM     39  C   UNL A   1      37.383  30.515  28.602  1.00  0.00     0.014 A 
ATOM     40  C   UNL A   1      38.141  28.688  30.579  1.00  0.00     0.010 A 
ATOM     41  C   UNL A   1      38.691  30.097  28.678  1.00  0.00     0.010 A 
ATOM     42  C   UNL A   1      39.081  29.258  29.725  1.00  0.00    -0.014 A 
BRANCH  42  43
ATOM     43  C   UNL A   1      40.491  28.944  29.775  1.00  0.00     0.031 A 
ATOM     44  C   UNL A   1      40.884  27.692  29.121  1.00  0.00     0.074 A 
ATOM     45  C   UNL A   1      41.381  29.764  30.373  1.00  0.00     0.049 A 
ATOM     46  N   UNL A   1      41.888  26.978  29.475  1.00  0.00    -0.248 NA
ATOM     47  C   UNL A   1      40.079  27.084  28.067  1.00  0.00     0.031 C 
ATOM     48  C   UNL A   1      42.835  29.680  30.347  1.00  0.00     0.029 A 
ATOM     49  N   UNL A   1      41.114  30.766  31.310  1.00  0.00    -0.354 N 
ATOM     50  C   UNL A   1      42.042  25.996  28.523  1.00  0.00     0.074 A 
ATOM     51  C   UNL A   1      40.820  26.020  27.761  1.00  0.00     0.031 C 
ATOM     52  C   UNL A   1      43.330  30.360  31.396  1.00  0.00     0.029 A 
ATOM     53  C   UNL A   1      42.209  30.797  32.207  1.00  0.00     0.049 A 
ATOM     54  H   UNL A   1      40.316  31.342  31.340  1.00  0.00     0.167 HD
ATOM     55  C   UNL A   1      43.262  25.401  28.411  1.00  0.00     0.037 A 
ATOM     56  C   UNL A   1      42.017  30.492  33.528  1.00  0.00     0.037 A 
ATOM     57  C   UNL A   1      44.148  25.880  29.481  1.00  0.00     0.049 A 
ATOM     58  C   UNL A   1      42.611  29.159  33.922  1.00  0.00     0.074 A 
ATOM     59  C   UNL A   1      45.119  26.866  29.552  1.00  0.00     0.029 A 
ATOM     60  N   UNL A   1      43.812  25.594  30.795  1.00  0.00    -0.354 N 
ATOM     61  N   UNL A   1      43.278  28.385  33.110  1.00  0.00    -0.248 NA
ATOM     62  C   UNL A   1      42.415  28.554  35.237  1.00  0.00     0.031 C 
ATOM     63  C   UNL A   1      45.338  27.179  30.929  1.00  0.00     0.029 A 
ATOM     64  C   UNL A   1      44.529  26.359  31.696  1.00  0.00     0.049 A 
ATOM     65  H   UNL A   1      43.140  24.923  31.056  1.00  0.00     0.167 HD
ATOM     66  C   UNL A   1      43.569  27.204  33.734  1.00  0.00     0.074 A 
ATOM     67  C   UNL A   1      42.977  27.347  35.056  1.00  0.00     0.031 C 
ATOM     68  C   UNL A   1      44.255  26.193  33.118  1.00  0.00     0.037 A 
BRANCH  55  69
ATOM     69  C   UNL A   1      43.733  24.627  27.198  1.00  0.00     0.057 A 
ATOM     70  C   UNL A   1      44.332  23.363  27.362  1.00  0.00     0.134 A 
ATOM     71  C   UNL A   1      43.694  25.065  25.858  1.00  0.00     0.134 A 
ATOM     72  F   UNL A   1      44.374  22.755  28.554  1.00  0.00    -0.206 F 
ATOM     73  C   UNL A   1      44.924  22.650  26.308  1.00  0.00     0.040 A 
ATOM     74  C   UNL A   1      44.317  24.385  24.802  1.00  0.00     0.040 A 
ATOM     75  F   UNL A   1      43.002  26.140  25.476  1.00  0.00    -0.206 F 
ATOM     76  C   UNL A   1      44.946  23.173  25.026  1.00  0.00     0.006 A 
ENDBRANCH  55  69
BRANCH  56  77
ATOM     77  C   UNL A   1      40.726  31.049  34.033  1.00  0.00     0.057 A 
ATOM     78  C   UNL A   1      40.714  32.437  34.268  1.00  0.00     0.134 A 
ATOM     79  C   UNL A   1      39.522  30.450  33.655  1.00  0.00     0.134 A 
ATOM     80  F   UNL A   1      41.816  33.052  34.726  1.00  0.00    -0.206 F 
ATOM     81  C   UNL A   1      39.664  33.230  33.810  1.00  0.00     0.040 A 
ATOM     82  C   UNL A   1      38.447  31.236  33.243  1.00  0.00     0.040 A 
ATOM     83  F   UNL A   1      39.430  29.120  33.511  1.00  0.00    -0.206 F 
ATOM     84  C   UNL A   1      38.556  32.627  33.225  1.00  0.00     0.006 A 
ENDBRANCH  56  77
BRANCH  68  85
ATOM     85  C   UNL A   1      44.678  24.926  33.822  1.00  0.00     0.057 A 
ATOM     86  C   UNL A   1      46.013  24.503  33.893  1.00  0.00     0.134 A 
ATOM     87  C   UNL A   1      43.745  24.026  34.383  1.00  0.00     0.134 A 
ATOM     88  F   UNL A   1      46.985  25.148  33.232  1.00  0.00    -0.206 F 
ATOM     89  C   UNL A   1      46.407  23.369  34.612  1.00  0.00     0.040 A 
ATOM     90  C   UNL A   1      44.120  22.860  35.054  1.00  0.00     0.040 A 
ATOM     91  F   UNL A   1      42.423  24.221  34.314  1.00  0.00    -0.206 F 
ATOM     92  C   UNL A   1      45.458  22.549  35.206  1.00  0.00     0.006 A 
ENDBRANCH  68  85
ENDBRANCH  42  43
ENDBRANCH  34  37
ENDBRANCH  32  33
ENDBRANCH  31  32
ENDBRANCH   1  31
TORSDOF 14
ENDMDL
MODEL 3
REMARK VINA RESULT:     -12.5      2.752      4.242
REMARK SMILES Cc1ccc(S(=O)(=O)Nc2ccc(N3CCNC3=O)cc2)cc1C(=O)NCCCNC(=O)c1ccc(-c2c3nc(c(-c4c(F)cccc4F)c4ccc([nH]4)c(-c4c(F)cccc4F)c4nc(c(-c5c(F)cccc5F)c5ccc2[nH]5)C=C4)C=C3)cc1
REMARK SMILES IDX 27 1 26 2 24 3 25 4 23 6 1 7 2 8 3 9 4 10 22 11 5 12 6 13
REMARK SMILES IDX 7 14 8 15 9 16 10 18 11 19 21 20 12 21 20 22 13 23 14 24
REMARK SMILES IDX 15 25 18 26 16 27 17 28 19 29 28 31 29 32 30 33 31 34 32 36
REMARK SMILES IDX 33 37 34 38 86 39 35 40 85 41 36 42 37 43 38 44 79 45 39 46
REMARK SMILES IDX 84 47 78 48 80 49 40 50 83 51 77 52 76 53 41 55 67 56 50 57
REMARK SMILES IDX 66 58 51 59 54 60 65 61 81 62 52 63 53 64 64 66 82 67 55 68
REMARK SMILES IDX 42 69 43 70 48 71 44 72 45 73 47 74 49 75 46 76 68 77 69 78
REMARK SMILES IDX 74 79 70 80 71 81 73 82 75 83 72 84 56 85 57 86 62 87 58 88
REMARK SMILES IDX 59 89 61 90 63 91 60 92
REMARK H PARENT 26 5 9 17 17 30 30 35 80 54 54 65
REMARK Flexibility Score: inf
ROOT
ATOM      1  C   UNL A   1      34.363  32.110  27.741  1.00  0.00     0.118 C 
ENDROOT
BRANCH   1   2
ATOM      2  N   UNL A   1      34.696  30.701  27.763  1.00  0.00    -0.352 N 
ATOM      3  C   UNL A   1      34.361  29.587  27.046  1.00  0.00     0.251 C 
ATOM      4  O   UNL A   1      35.069  28.616  27.340  1.00  0.00    -0.269 OA
ATOM      5  H   UNL A   1      35.332  30.491  28.485  1.00  0.00     0.163 HD
BRANCH   3   6
ATOM      6  C   UNL A   1      33.302  29.395  25.976  1.00  0.00     0.044 A 
ATOM      7  C   UNL A   1      31.466  31.123  26.609  1.00  0.00     0.045 C 
ATOM      8  C   UNL A   1      32.088  30.079  25.747  1.00  0.00    -0.038 A 
ATOM      9  C   UNL A   1      31.251  29.690  24.678  1.00  0.00     0.005 A 
ATOM     10  C   UNL A   1      31.469  28.514  23.986  1.00  0.00     0.022 A 
ATOM     11  C   UNL A   1      33.527  28.225  25.191  1.00  0.00     0.036 A 
ATOM     12  C   UNL A   1      32.568  27.727  24.308  1.00  0.00     0.088 A 
BRANCH  12  13
ATOM     13  S   UNL A   1      32.461  26.055  23.714  1.00  0.00     0.261 S 
ATOM     14  O   UNL A   1      31.044  25.772  23.595  1.00  0.00    -0.201 OA
ATOM     15  O   UNL A   1      33.309  25.987  22.540  1.00  0.00    -0.201 OA
BRANCH  13  16
ATOM     16  N   UNL A   1      33.067  24.904  24.777  1.00  0.00    -0.280 N 
ATOM     17  H   UNL A   1      33.642  25.209  25.517  1.00  0.00     0.180 HD
BRANCH  16  18
ATOM     18  C   UNL A   1      32.794  23.514  24.664  1.00  0.00     0.049 A 
ATOM     19  C   UNL A   1      33.696  22.813  23.869  1.00  0.00     0.029 A 
ATOM     20  C   UNL A   1      31.691  22.860  25.207  1.00  0.00     0.029 A 
ATOM     21  C   UNL A   1      33.622  21.429  23.786  1.00  0.00     0.028 A 
ATOM     22  C   UNL A   1      31.603  21.461  25.101  1.00  0.00     0.028 A 
ATOM     23  C   UNL A   1      32.606  20.732  24.448  1.00  0.00     0.046 A 
BRANCH  23  24
ATOM     24  N   UNL A   1      32.678  19.328  24.534  1.00  0.00    -0.293 N 
ATOM     25  C   UNL A   1      32.960  18.648  25.783  1.00  0.00     0.149 C 
ATOM     26  C   UNL A   1      32.398  18.397  23.529  1.00  0.00     0.321 C 
ATOM     27  C   UNL A   1      32.486  17.226  25.538  1.00  0.00     0.139 C 
ATOM     28  N   UNL A   1      32.415  17.134  24.109  1.00  0.00    -0.336 N 
ATOM     29  O   UNL A   1      32.186  18.587  22.337  1.00  0.00    -0.248 OA
ATOM     30  H   UNL A   1      32.382  16.289  23.606  1.00  0.00     0.165 HD
ENDBRANCH  23  24
ENDBRANCH  16  18
ENDBRANCH  13  16
ENDBRANCH  12  13
ENDBRANCH   3   6
ENDBRANCH   1   2
BRANCH   1  31
ATOM     31  C   UNL A   1      35.257  32.907  28.682  1.00  0.00     0.042 C 
BRANCH  31  32
ATOM     32  C   UNL A   1      35.301  32.419  30.111  1.00  0.00     0.118 C 
BRANCH  32  33
ATOM     33  N   UNL A   1      34.242  32.958  30.963  1.00  0.00    -0.352 N 
ATOM     34  C   UNL A   1      34.328  33.472  32.248  1.00  0.00     0.251 C 
ATOM     35  H   UNL A   1      33.339  32.954  30.568  1.00  0.00     0.163 HD
ATOM     36  O   UNL A   1      33.336  33.948  32.790  1.00  0.00    -0.269 OA
BRANCH  34  37
ATOM     37  C   UNL A   1      35.665  33.613  32.882  1.00  0.00     0.039 A 
ATOM     38  C   UNL A   1      36.544  34.479  32.226  1.00  0.00     0.014 A 
ATOM     39  C   UNL A   1      36.145  32.572  33.661  1.00  0.00     0.014 A 
ATOM     40  C   UNL A   1      37.841  34.047  31.997  1.00  0.00     0.010 A 
ATOM     41  C   UNL A   1      37.375  32.063  33.319  1.00  0.00     0.010 A 
ATOM     42  C   UNL A   1      38.177  32.763  32.413  1.00  0.00    -0.014 A 
BRANCH  42  43
ATOM     43  C   UNL A   1      39.412  32.109  32.045  1.00  0.00     0.031 A 
ATOM     44  C   UNL A   1      39.268  30.888  31.247  1.00  0.00     0.074 A 
ATOM     45  C   UNL A   1      40.615  32.606  32.405  1.00  0.00     0.049 A 
ATOM     46  N   UNL A   1      40.098  29.911  31.265  1.00  0.00    -0.248 NA
ATOM     47  C   UNL A   1      38.083  30.630  30.435  1.00  0.00     0.031 C 
ATOM     48  C   UNL A   1      41.933  32.170  31.963  1.00  0.00     0.029 A 
ATOM     49  N   UNL A   1      40.883  33.521  33.427  1.00  0.00    -0.354 N 
ATOM     50  C   UNL A   1      39.727  29.046  30.262  1.00  0.00     0.074 A 
ATOM     51  C   UNL A   1      38.403  29.462  29.880  1.00  0.00     0.031 C 
ATOM     52  C   UNL A   1      42.849  32.575  32.861  1.00  0.00     0.029 A 
ATOM     53  C   UNL A   1      42.140  33.172  33.977  1.00  0.00     0.049 A 
ATOM     54  H   UNL A   1      40.306  34.267  33.711  1.00  0.00     0.167 HD
ATOM     55  C   UNL A   1      40.668  28.187  29.780  1.00  0.00     0.037 A 
ATOM     56  C   UNL A   1      42.224  32.765  35.282  1.00  0.00     0.037 A 
ATOM     57  C   UNL A   1      41.898  28.299  30.576  1.00  0.00     0.049 A 
ATOM     58  C   UNL A   1      42.518  31.289  35.425  1.00  0.00     0.074 A 
ATOM     59  C   UNL A   1      43.083  29.000  30.417  1.00  0.00     0.029 A 
ATOM     60  N   UNL A   1      41.852  27.946  31.915  1.00  0.00    -0.354 N 
ATOM     61  N   UNL A   1      42.715  30.480  34.421  1.00  0.00    -0.248 NA
ATOM     62  C   UNL A   1      42.516  30.594  36.710  1.00  0.00     0.031 C 
ATOM     63  C   UNL A   1      43.729  29.080  31.688  1.00  0.00     0.029 A 
ATOM     64  C   UNL A   1      42.959  28.397  32.612  1.00  0.00     0.049 A 
ATOM     65  H   UNL A   1      41.116  27.434  32.323  1.00  0.00     0.167 HD
ATOM     66  C   UNL A   1      42.829  29.196  34.878  1.00  0.00     0.074 A 
ATOM     67  C   UNL A   1      42.663  29.318  36.319  1.00  0.00     0.031 C 
ATOM     68  C   UNL A   1      43.030  28.130  34.044  1.00  0.00     0.037 A 
BRANCH  55  69
ATOM     69  C   UNL A   1      40.579  27.475  28.446  1.00  0.00     0.057 A 
ATOM     70  C   UNL A   1      39.863  26.266  28.343  1.00  0.00     0.134 A 
ATOM     71  C   UNL A   1      41.206  27.865  27.245  1.00  0.00     0.134 A 
ATOM     72  F   UNL A   1      39.135  25.793  29.363  1.00  0.00    -0.206 F 
ATOM     73  C   UNL A   1      39.854  25.474  27.185  1.00  0.00     0.040 A 
ATOM     74  C   UNL A   1      41.241  27.065  26.094  1.00  0.00     0.040 A 
ATOM     75  F   UNL A   1      41.768  29.065  27.087  1.00  0.00    -0.206 F 
ATOM     76  C   UNL A   1      40.570  25.855  26.063  1.00  0.00     0.006 A 
ENDBRANCH  55  69
BRANCH  56  77
ATOM     77  C   UNL A   1      41.310  33.556  36.159  1.00  0.00     0.057 A 
ATOM     78  C   UNL A   1      40.143  32.890  36.577  1.00  0.00     0.134 A 
ATOM     79  C   UNL A   1      41.842  34.523  37.016  1.00  0.00     0.134 A 
ATOM     80  F   UNL A   1      39.532  32.022  35.754  1.00  0.00    -0.206 F 
ATOM     81  C   UNL A   1      39.738  32.927  37.909  1.00  0.00     0.040 A 
ATOM     82  C   UNL A   1      41.408  34.601  38.339  1.00  0.00     0.040 A 
ATOM     83  F   UNL A   1      42.892  35.269  36.646  1.00  0.00    -0.206 F 
ATOM     84  C   UNL A   1      40.425  33.731  38.811  1.00  0.00     0.006 A 
ENDBRANCH  56  77
BRANCH  68  85
ATOM     85  C   UNL A   1      43.264  26.722  34.536  1.00  0.00     0.057 A 
ATOM     86  C   UNL A   1      42.223  25.869  34.930  1.00  0.00     0.134 A 
ATOM     87  C   UNL A   1      44.560  26.193  34.723  1.00  0.00     0.134 A 
ATOM     88  F   UNL A   1      40.956  26.303  35.002  1.00  0.00    -0.206 F 
ATOM     89  C   UNL A   1      42.441  24.541  35.313  1.00  0.00     0.040 A 
ATOM     90  C   UNL A   1      44.794  24.888  35.159  1.00  0.00     0.040 A 
ATOM     91  F   UNL A   1      45.670  26.905  34.496  1.00  0.00    -0.206 F 
ATOM     92  C   UNL A   1      43.731  24.043  35.417  1.00  0.00     0.006 A 
ENDBRANCH  68  85
ENDBRANCH  42  43
ENDBRANCH  34  37
ENDBRANCH  32  33
ENDBRANCH  31  32
ENDBRANCH   1  31
TORSDOF 14
ENDMDL
