MODEL 1
REMARK VINA RESULT:     -13.4      0.000      0.000
REMARK SMILES O=C(CCN1C(=O)S/C(=C\c2ccc(F)cc2)C1=O)Nc1ccc(O)cc1C(=O)NCCCNC(=O)c1ccc(-c2c3nc(c(-c4c(F)cccc4F)c4ccc([nH]4)c(-c4c(F)cccc4F)c4nc(c(-c5c(F)cccc5F)c5ccc2[nH]5)C=C4)C=C3)cc1
REMARK SMILES IDX 28 1 29 2 30 3 27 5 21 6 22 7 23 8 26 9 24 10 20 11 1 12
REMARK SMILES IDX 2 13 3 15 4 16 5 17 6 18 18 19 7 20 8 21 9 22 19 23 10 24
REMARK SMILES IDX 11 25 12 26 17 27 13 28 16 29 14 30 15 31 25 32 31 34 32 35
REMARK SMILES IDX 33 36 34 37 35 38 36 40 37 41 38 42 90 43 39 44 89 45 40 46
REMARK SMILES IDX 41 47 42 48 83 49 43 50 88 51 82 52 84 53 44 54 87 55 81 56
REMARK SMILES IDX 80 57 45 59 71 60 54 61 70 62 55 63 58 64 69 65 85 66 56 67
REMARK SMILES IDX 57 68 68 70 86 71 59 72 46 73 47 74 52 75 48 76 49 77 51 78
REMARK SMILES IDX 53 79 50 80 72 81 73 82 78 83 74 84 75 85 77 86 79 87 76 88
REMARK SMILES IDX 60 89 61 90 66 91 62 92 63 93 65 94 67 95 64 96
REMARK H PARENT 30 4 20 14 25 33 34 39 84 58 58 69
REMARK Flexibility Score: inf
ROOT
ATOM      1  C   UNL A   1      31.854  28.447  23.362  1.00  0.00     0.253 C 
ATOM      2  O   UNL A   1      32.505  28.061  22.393  1.00  0.00    -0.269 OA
ATOM      3  N   UNL A   1      32.468  29.248  24.311  1.00  0.00    -0.352 N 
ATOM      4  H   UNL A   1      33.441  29.354  24.206  1.00  0.00     0.163 HD
ENDROOT
BRANCH   1   5
ATOM      5  C   UNL A   1      30.432  28.011  23.463  1.00  0.00     0.067 A 
ATOM      6  C   UNL A   1      30.007  26.778  23.991  1.00  0.00     0.054 A 
ATOM      7  C   UNL A   1      28.639  26.453  23.960  1.00  0.00     0.031 A 
ATOM      8  C   UNL A   1      27.692  27.371  23.501  1.00  0.00     0.048 A 
ATOM      9  C   UNL A   1      29.468  28.939  23.029  1.00  0.00     0.062 A 
ATOM     10  C   UNL A   1      28.113  28.618  23.064  1.00  0.00     0.116 A 
BRANCH   6  11
ATOM     11  N   UNL A   1      30.914  25.926  24.662  1.00  0.00    -0.325 N 
ATOM     12  O   UNL A   1      30.649  26.759  26.796  1.00  0.00    -0.275 OA
ATOM     13  C   UNL A   1      31.221  26.013  26.002  1.00  0.00     0.226 C 
ATOM     14  H   UNL A   1      31.356  25.222  24.135  1.00  0.00     0.169 HD
BRANCH  13  15
ATOM     15  C   UNL A   1      32.349  25.123  26.485  1.00  0.00     0.122 C 
BRANCH  15  16
ATOM     16  C   UNL A   1      33.448  24.760  25.493  1.00  0.00     0.140 C 
BRANCH  16  17
ATOM     17  N   UNL A   1      33.571  23.368  25.066  1.00  0.00    -0.268 N 
ATOM     18  C   UNL A   1      34.390  22.481  25.716  1.00  0.00     0.293 C 
ATOM     19  C   UNL A   1      32.953  22.821  23.964  1.00  0.00     0.268 C 
ATOM     20  O   UNL A   1      34.566  22.379  26.916  1.00  0.00    -0.261 OA
ATOM     21  S   UNL A   1      34.909  21.234  24.626  1.00  0.00    -0.022 SA
ATOM     22  C   UNL A   1      33.372  21.394  23.867  1.00  0.00     0.083 C 
ATOM     23  O   UNL A   1      32.133  23.353  23.235  1.00  0.00    -0.268 OA
ATOM     24  C   UNL A   1      32.500  20.397  23.674  1.00  0.00     0.029 C 
BRANCH  24  25
ATOM     25  C   UNL A   1      32.833  19.032  24.108  1.00  0.00    -0.024 A 
ATOM     26  C   UNL A   1      33.278  18.099  23.156  1.00  0.00     0.011 A 
ATOM     27  C   UNL A   1      32.528  18.606  25.406  1.00  0.00     0.011 A 
ATOM     28  C   UNL A   1      33.428  16.757  23.506  1.00  0.00     0.040 A 
ATOM     29  C   UNL A   1      32.675  17.261  25.751  1.00  0.00     0.040 A 
ATOM     30  C   UNL A   1      33.126  16.351  24.800  1.00  0.00     0.123 A 
ATOM     31  F   UNL A   1      33.252  15.060  25.134  1.00  0.00    -0.207 F 
ENDBRANCH  24  25
ENDBRANCH  16  17
ENDBRANCH  15  16
ENDBRANCH  13  15
ENDBRANCH   6  11
BRANCH  10  32
ATOM     32  O   UNL A   1      27.218  29.565  22.666  1.00  0.00    -0.508 OA
ATOM     33  H   UNL A   1      26.910  30.205  23.276  1.00  0.00     0.293 HD
ENDBRANCH  10  32
ENDBRANCH   1   5
BRANCH   3  34
ATOM     34  C   UNL A   1      31.888  29.953  25.439  1.00  0.00     0.118 C 
BRANCH  34  35
ATOM     35  C   UNL A   1      32.610  29.921  26.785  1.00  0.00     0.042 C 
BRANCH  35  36
ATOM     36  C   UNL A   1      33.498  31.077  27.292  1.00  0.00     0.118 C 
BRANCH  36  37
ATOM     37  N   UNL A   1      32.933  32.416  27.361  1.00  0.00    -0.352 N 
ATOM     38  C   UNL A   1      33.229  33.555  28.079  1.00  0.00     0.251 C 
ATOM     39  H   UNL A   1      32.164  32.535  26.758  1.00  0.00     0.163 HD
ATOM     40  O   UNL A   1      32.528  34.562  27.997  1.00  0.00    -0.269 OA
BRANCH  38  41
ATOM     41  C   UNL A   1      34.352  33.552  29.018  1.00  0.00     0.039 A 
ATOM     42  C   UNL A   1      34.268  32.819  30.208  1.00  0.00     0.014 A 
ATOM     43  C   UNL A   1      35.521  34.201  28.652  1.00  0.00     0.014 A 
ATOM     44  C   UNL A   1      35.430  32.581  30.938  1.00  0.00     0.010 A 
ATOM     45  C   UNL A   1      36.687  33.860  29.300  1.00  0.00     0.010 A 
ATOM     46  C   UNL A   1      36.658  33.017  30.424  1.00  0.00    -0.014 A 
BRANCH  46  47
ATOM     47  C   UNL A   1      37.965  32.574  30.953  1.00  0.00     0.031 A 
ATOM     48  C   UNL A   1      38.625  31.384  30.324  1.00  0.00     0.074 A 
ATOM     49  C   UNL A   1      38.406  33.086  32.119  1.00  0.00     0.049 A 
ATOM     50  N   UNL A   1      39.554  30.606  30.805  1.00  0.00    -0.248 NA
ATOM     51  C   UNL A   1      38.104  30.968  29.008  1.00  0.00     0.031 C 
ATOM     52  C   UNL A   1      37.789  34.196  32.853  1.00  0.00     0.029 A 
ATOM     53  N   UNL A   1      39.455  32.710  32.918  1.00  0.00    -0.354 N 
ATOM     54  C   UNL A   1      39.692  29.581  29.878  1.00  0.00     0.074 A 
ATOM     55  C   UNL A   1      38.711  29.804  28.839  1.00  0.00     0.031 C 
ATOM     56  C   UNL A   1      38.479  34.420  33.981  1.00  0.00     0.029 A 
ATOM     57  C   UNL A   1      39.550  33.436  34.081  1.00  0.00     0.049 A 
ATOM     58  H   UNL A   1      40.081  31.987  32.681  1.00  0.00     0.167 HD
ATOM     59  C   UNL A   1      40.579  28.561  29.889  1.00  0.00     0.037 A 
ATOM     60  C   UNL A   1      40.393  33.305  35.122  1.00  0.00     0.037 A 
ATOM     61  C   UNL A   1      41.585  28.404  30.903  1.00  0.00     0.049 A 
ATOM     62  C   UNL A   1      41.406  32.196  35.086  1.00  0.00     0.074 A 
ATOM     63  C   UNL A   1      42.606  27.476  30.965  1.00  0.00     0.029 A 
ATOM     64  N   UNL A   1      41.701  29.212  32.026  1.00  0.00    -0.354 N 
ATOM     65  N   UNL A   1      41.573  31.267  34.175  1.00  0.00    -0.248 NA
ATOM     66  C   UNL A   1      42.338  32.108  36.217  1.00  0.00     0.031 C 
ATOM     67  C   UNL A   1      43.324  27.703  32.143  1.00  0.00     0.029 A 
ATOM     68  C   UNL A   1      42.771  28.795  32.795  1.00  0.00     0.049 A 
ATOM     69  H   UNL A   1      41.109  29.968  32.242  1.00  0.00     0.167 HD
ATOM     70  C   UNL A   1      42.639  30.493  34.611  1.00  0.00     0.074 A 
ATOM     71  C   UNL A   1      43.087  31.071  35.863  1.00  0.00     0.031 C 
ATOM     72  C   UNL A   1      43.193  29.401  34.032  1.00  0.00     0.037 A 
BRANCH  59  73
ATOM     73  C   UNL A   1      40.524  27.572  28.763  1.00  0.00     0.057 A 
ATOM     74  C   UNL A   1      41.304  27.749  27.613  1.00  0.00     0.134 A 
ATOM     75  C   UNL A   1      39.668  26.463  28.797  1.00  0.00     0.134 A 
ATOM     76  F   UNL A   1      42.144  28.789  27.511  1.00  0.00    -0.206 F 
ATOM     77  C   UNL A   1      41.230  26.861  26.538  1.00  0.00     0.040 A 
ATOM     78  C   UNL A   1      39.607  25.553  27.742  1.00  0.00     0.040 A 
ATOM     79  F   UNL A   1      38.905  26.226  29.876  1.00  0.00    -0.206 F 
ATOM     80  C   UNL A   1      40.383  25.756  26.603  1.00  0.00     0.006 A 
ENDBRANCH  59  73
BRANCH  60  81
ATOM     81  C   UNL A   1      40.338  34.274  36.244  1.00  0.00     0.057 A 
ATOM     82  C   UNL A   1      39.549  34.054  37.382  1.00  0.00     0.134 A 
ATOM     83  C   UNL A   1      41.038  35.484  36.173  1.00  0.00     0.134 A 
ATOM     84  F   UNL A   1      38.840  32.923  37.506  1.00  0.00    -0.206 F 
ATOM     85  C   UNL A   1      39.446  35.009  38.396  1.00  0.00     0.040 A 
ATOM     86  C   UNL A   1      40.962  36.438  37.189  1.00  0.00     0.040 A 
ATOM     87  F   UNL A   1      41.818  35.747  35.115  1.00  0.00    -0.206 F 
ATOM     88  C   UNL A   1      40.156  36.205  38.302  1.00  0.00     0.006 A 
ENDBRANCH  60  81
BRANCH  72  89
ATOM     89  C   UNL A   1      44.352  28.762  34.734  1.00  0.00     0.057 A 
ATOM     90  C   UNL A   1      44.140  27.756  35.685  1.00  0.00     0.134 A 
ATOM     91  C   UNL A   1      45.658  29.226  34.552  1.00  0.00     0.134 A 
ATOM     92  F   UNL A   1      42.906  27.281  35.912  1.00  0.00    -0.206 F 
ATOM     93  C   UNL A   1      45.188  27.252  36.453  1.00  0.00     0.040 A 
ATOM     94  C   UNL A   1      46.719  28.713  35.297  1.00  0.00     0.040 A 
ATOM     95  F   UNL A   1      45.921  30.181  33.647  1.00  0.00    -0.206 F 
ATOM     96  C   UNL A   1      46.483  27.733  36.261  1.00  0.00     0.006 A 
ENDBRANCH  72  89
ENDBRANCH  46  47
ENDBRANCH  38  41
ENDBRANCH  36  37
ENDBRANCH  35  36
ENDBRANCH  34  35
ENDBRANCH   3  34
TORSDOF 16
ENDMDL
MODEL 2
REMARK VINA RESULT:     -13.2      4.771      8.275
REMARK SMILES O=C(CCN1C(=O)S/C(=C\c2ccc(F)cc2)C1=O)Nc1ccc(O)cc1C(=O)NCCCNC(=O)c1ccc(-c2c3nc(c(-c4c(F)cccc4F)c4ccc([nH]4)c(-c4c(F)cccc4F)c4nc(c(-c5c(F)cccc5F)c5ccc2[nH]5)C=C4)C=C3)cc1
REMARK SMILES IDX 28 1 29 2 30 3 27 5 21 6 22 7 23 8 26 9 24 10 20 11 1 12
REMARK SMILES IDX 2 13 3 15 4 16 5 17 6 18 18 19 7 20 8 21 9 22 19 23 10 24
REMARK SMILES IDX 11 25 12 26 17 27 13 28 16 29 14 30 15 31 25 32 31 34 32 35
REMARK SMILES IDX 33 36 34 37 35 38 36 40 37 41 38 42 90 43 39 44 89 45 40 46
REMARK SMILES IDX 41 47 42 48 83 49 43 50 88 51 82 52 84 53 44 54 87 55 81 56
REMARK SMILES IDX 80 57 45 59 71 60 54 61 70 62 55 63 58 64 69 65 85 66 56 67
REMARK SMILES IDX 57 68 68 70 86 71 59 72 46 73 47 74 52 75 48 76 49 77 51 78
REMARK SMILES IDX 53 79 50 80 72 81 73 82 78 83 74 84 75 85 77 86 79 87 76 88
REMARK SMILES IDX 60 89 61 90 66 91 62 92 63 93 65 94 67 95 64 96
REMARK H PARENT 30 4 20 14 25 33 34 39 84 58 58 69
REMARK Flexibility Score: inf
ROOT
ATOM      1  C   UNL A   1      32.424  28.049  23.012  1.00  0.00     0.253 C 
ATOM      2  O   UNL A   1      32.923  27.373  22.113  1.00  0.00    -0.269 OA
ATOM      3  N   UNL A   1      33.201  28.400  24.103  1.00  0.00    -0.352 N 
ATOM      4  H   UNL A   1      34.086  27.971  24.145  1.00  0.00     0.163 HD
ENDROOT
BRANCH   1   5
ATOM      5  C   UNL A   1      30.992  28.438  22.874  1.00  0.00     0.067 A 
ATOM      6  C   UNL A   1      29.908  27.704  23.390  1.00  0.00     0.054 A 
ATOM      7  C   UNL A   1      28.597  28.139  23.126  1.00  0.00     0.031 A 
ATOM      8  C   UNL A   1      28.359  29.334  22.443  1.00  0.00     0.048 A 
ATOM      9  C   UNL A   1      30.742  29.654  22.212  1.00  0.00     0.062 A 
ATOM     10  C   UNL A   1      29.436  30.096  22.015  1.00  0.00     0.116 A 
BRANCH   6  11
ATOM     11  N   UNL A   1      30.121  26.618  24.268  1.00  0.00    -0.325 N 
ATOM     12  O   UNL A   1      30.675  25.017  22.703  1.00  0.00    -0.275 OA
ATOM     13  C   UNL A   1      30.427  25.336  23.866  1.00  0.00     0.226 C 
ATOM     14  H   UNL A   1      30.046  26.789  25.234  1.00  0.00     0.169 HD
BRANCH  13  15
ATOM     15  C   UNL A   1      30.439  24.282  24.954  1.00  0.00     0.122 C 
BRANCH  15  16
ATOM     16  C   UNL A   1      31.280  24.548  26.198  1.00  0.00     0.140 C 
BRANCH  16  17
ATOM     17  N   UNL A   1      32.660  24.067  26.223  1.00  0.00    -0.268 N 
ATOM     18  C   UNL A   1      32.973  22.783  26.589  1.00  0.00     0.293 C 
ATOM     19  C   UNL A   1      33.771  24.835  25.957  1.00  0.00     0.268 C 
ATOM     20  O   UNL A   1      32.370  21.765  26.303  1.00  0.00    -0.261 OA
ATOM     21  S   UNL A   1      34.580  22.719  27.240  1.00  0.00    -0.022 SA
ATOM     22  C   UNL A   1      34.974  23.973  26.130  1.00  0.00     0.083 C 
ATOM     23  O   UNL A   1      33.795  25.988  25.557  1.00  0.00    -0.268 OA
ATOM     24  C   UNL A   1      35.961  23.922  25.227  1.00  0.00     0.029 C 
BRANCH  24  25
ATOM     25  C   UNL A   1      36.821  22.732  25.141  1.00  0.00    -0.024 A 
ATOM     26  C   UNL A   1      36.293  21.543  24.611  1.00  0.00     0.011 A 
ATOM     27  C   UNL A   1      38.080  22.720  25.752  1.00  0.00     0.011 A 
ATOM     28  C   UNL A   1      37.026  20.357  24.683  1.00  0.00     0.040 A 
ATOM     29  C   UNL A   1      38.808  21.531  25.826  1.00  0.00     0.040 A 
ATOM     30  C   UNL A   1      38.276  20.363  25.289  1.00  0.00     0.123 A 
ATOM     31  F   UNL A   1      38.974  19.223  25.376  1.00  0.00    -0.207 F 
ENDBRANCH  24  25
ENDBRANCH  16  17
ENDBRANCH  15  16
ENDBRANCH  13  15
ENDBRANCH   6  11
BRANCH  10  32
ATOM     32  O   UNL A   1      29.250  31.297  21.399  1.00  0.00    -0.508 OA
ATOM     33  H   UNL A   1      28.384  31.630  21.274  1.00  0.00     0.293 HD
ENDBRANCH  10  32
ENDBRANCH   1   5
BRANCH   3  34
ATOM     34  C   UNL A   1      32.903  29.308  25.195  1.00  0.00     0.118 C 
BRANCH  34  35
ATOM     35  C   UNL A   1      34.038  29.770  26.107  1.00  0.00     0.042 C 
BRANCH  35  36
ATOM     36  C   UNL A   1      34.054  29.512  27.629  1.00  0.00     0.118 C 
BRANCH  36  37
ATOM     37  N   UNL A   1      34.608  30.532  28.507  1.00  0.00    -0.352 N 
ATOM     38  C   UNL A   1      35.842  30.745  29.083  1.00  0.00     0.251 C 
ATOM     39  H   UNL A   1      33.952  31.226  28.743  1.00  0.00     0.163 HD
ATOM     40  O   UNL A   1      36.030  31.676  29.865  1.00  0.00    -0.269 OA
BRANCH  38  41
ATOM     41  C   UNL A   1      36.937  29.808  28.827  1.00  0.00     0.039 A 
ATOM     42  C   UNL A   1      37.545  29.769  27.566  1.00  0.00     0.014 A 
ATOM     43  C   UNL A   1      37.416  29.046  29.882  1.00  0.00     0.014 A 
ATOM     44  C   UNL A   1      38.760  29.102  27.423  1.00  0.00     0.010 A 
ATOM     45  C   UNL A   1      38.674  28.498  29.774  1.00  0.00     0.010 A 
ATOM     46  C   UNL A   1      39.374  28.555  28.557  1.00  0.00    -0.014 A 
BRANCH  46  47
ATOM     47  C   UNL A   1      40.777  28.090  28.578  1.00  0.00     0.031 A 
ATOM     48  C   UNL A   1      41.867  29.113  28.688  1.00  0.00     0.074 A 
ATOM     49  C   UNL A   1      41.047  26.809  28.258  1.00  0.00     0.049 A 
ATOM     50  N   UNL A   1      43.130  29.009  28.381  1.00  0.00    -0.248 NA
ATOM     51  C   UNL A   1      41.457  30.461  29.126  1.00  0.00     0.031 C 
ATOM     52  C   UNL A   1      40.051  25.752  28.052  1.00  0.00     0.029 A 
ATOM     53  N   UNL A   1      42.241  26.186  28.005  1.00  0.00    -0.354 N 
ATOM     54  C   UNL A   1      43.654  30.286  28.537  1.00  0.00     0.074 A 
ATOM     55  C   UNL A   1      42.561  31.158  28.906  1.00  0.00     0.031 C 
ATOM     56  C   UNL A   1      40.676  24.612  27.722  1.00  0.00     0.029 A 
ATOM     57  C   UNL A   1      42.108  24.868  27.636  1.00  0.00     0.049 A 
ATOM     58  H   UNL A   1      43.112  26.640  28.079  1.00  0.00     0.167 HD
ATOM     59  C   UNL A   1      44.939  30.682  28.404  1.00  0.00     0.037 A 
ATOM     60  C   UNL A   1      43.038  23.976  27.249  1.00  0.00     0.037 A 
ATOM     61  C   UNL A   1      46.014  29.777  28.100  1.00  0.00     0.049 A 
ATOM     62  C   UNL A   1      44.468  24.426  27.161  1.00  0.00     0.074 A 
ATOM     63  C   UNL A   1      47.368  30.039  28.046  1.00  0.00     0.029 A 
ATOM     64  N   UNL A   1      45.848  28.429  27.813  1.00  0.00    -0.354 N 
ATOM     65  N   UNL A   1      44.967  25.621  27.371  1.00  0.00    -0.248 NA
ATOM     66  C   UNL A   1      45.463  23.416  26.777  1.00  0.00     0.031 C 
ATOM     67  C   UNL A   1      48.023  28.854  27.696  1.00  0.00     0.029 A 
ATOM     68  C   UNL A   1      47.077  27.847  27.569  1.00  0.00     0.049 A 
ATOM     69  H   UNL A   1      44.984  27.959  27.787  1.00  0.00     0.167 HD
ATOM     70  C   UNL A   1      46.333  25.506  27.163  1.00  0.00     0.074 A 
ATOM     71  C   UNL A   1      46.587  24.119  26.822  1.00  0.00     0.031 C 
ATOM     72  C   UNL A   1      47.292  26.461  27.240  1.00  0.00     0.037 A 
BRANCH  59  73
ATOM     73  C   UNL A   1      45.252  32.132  28.625  1.00  0.00     0.057 A 
ATOM     74  C   UNL A   1      45.558  32.614  29.904  1.00  0.00     0.134 A 
ATOM     75  C   UNL A   1      45.213  33.062  27.577  1.00  0.00     0.134 A 
ATOM     76  F   UNL A   1      45.612  31.780  30.953  1.00  0.00    -0.206 F 
ATOM     77  C   UNL A   1      45.807  33.969  30.132  1.00  0.00     0.040 A 
ATOM     78  C   UNL A   1      45.490  34.413  27.787  1.00  0.00     0.040 A 
ATOM     79  F   UNL A   1      44.942  32.663  26.325  1.00  0.00    -0.206 F 
ATOM     80  C   UNL A   1      45.779  34.872  29.071  1.00  0.00     0.006 A 
ENDBRANCH  59  73
BRANCH  60  81
ATOM     81  C   UNL A   1      42.643  22.573  26.967  1.00  0.00     0.057 A 
ATOM     82  C   UNL A   1      42.256  21.688  27.982  1.00  0.00     0.134 A 
ATOM     83  C   UNL A   1      42.703  22.068  25.663  1.00  0.00     0.134 A 
ATOM     84  F   UNL A   1      42.193  22.105  29.255  1.00  0.00    -0.206 F 
ATOM     85  C   UNL A   1      41.960  20.350  27.713  1.00  0.00     0.040 A 
ATOM     86  C   UNL A   1      42.389  20.738  25.375  1.00  0.00     0.040 A 
ATOM     87  F   UNL A   1      43.056  22.868  24.647  1.00  0.00    -0.206 F 
ATOM     88  C   UNL A   1      42.024  19.872  26.404  1.00  0.00     0.006 A 
ENDBRANCH  60  81
BRANCH  72  89
ATOM     89  C   UNL A   1      48.704  26.045  26.965  1.00  0.00     0.057 A 
ATOM     90  C   UNL A   1      49.519  25.570  27.999  1.00  0.00     0.134 A 
ATOM     91  C   UNL A   1      49.283  26.226  25.705  1.00  0.00     0.134 A 
ATOM     92  F   UNL A   1      49.021  25.388  29.231  1.00  0.00    -0.206 F 
ATOM     93  C   UNL A   1      50.875  25.316  27.795  1.00  0.00     0.040 A 
ATOM     94  C   UNL A   1      50.632  25.953  25.482  1.00  0.00     0.040 A 
ATOM     95  F   UNL A   1      48.546  26.670  24.675  1.00  0.00    -0.206 F 
ATOM     96  C   UNL A   1      51.435  25.510  26.533  1.00  0.00     0.006 A 
ENDBRANCH  72  89
ENDBRANCH  46  47
ENDBRANCH  38  41
ENDBRANCH  36  37
ENDBRANCH  35  36
ENDBRANCH  34  35
ENDBRANCH   3  34
TORSDOF 16
ENDMDL
MODEL 3
REMARK VINA RESULT:     -13.0      4.112      7.725
REMARK SMILES O=C(CCN1C(=O)S/C(=C\c2ccc(F)cc2)C1=O)Nc1ccc(O)cc1C(=O)NCCCNC(=O)c1ccc(-c2c3nc(c(-c4c(F)cccc4F)c4ccc([nH]4)c(-c4c(F)cccc4F)c4nc(c(-c5c(F)cccc5F)c5ccc2[nH]5)C=C4)C=C3)cc1
REMARK SMILES IDX 28 1 29 2 30 3 27 5 21 6 22 7 23 8 26 9 24 10 20 11 1 12
REMARK SMILES IDX 2 13 3 15 4 16 5 17 6 18 18 19 7 20 8 21 9 22 19 23 10 24
REMARK SMILES IDX 11 25 12 26 17 27 13 28 16 29 14 30 15 31 25 32 31 34 32 35
REMARK SMILES IDX 33 36 34 37 35 38 36 40 37 41 38 42 90 43 39 44 89 45 40 46
REMARK SMILES IDX 41 47 42 48 83 49 43 50 88 51 82 52 84 53 44 54 87 55 81 56
REMARK SMILES IDX 80 57 45 59 71 60 54 61 70 62 55 63 58 64 69 65 85 66 56 67
REMARK SMILES IDX 57 68 68 70 86 71 59 72 46 73 47 74 52 75 48 76 49 77 51 78
REMARK SMILES IDX 53 79 50 80 72 81 73 82 78 83 74 84 75 85 77 86 79 87 76 88
REMARK SMILES IDX 60 89 61 90 66 91 62 92 63 93 65 94 67 95 64 96
REMARK H PARENT 30 4 20 14 25 33 34 39 84 58 58 69
REMARK Flexibility Score: inf
ROOT
ATOM      1  C   UNL A   1      31.846  29.023  23.391  1.00  0.00     0.253 C 
ATOM      2  O   UNL A   1      32.563  28.708  22.442  1.00  0.00    -0.269 OA
ATOM      3  N   UNL A   1      32.431  29.543  24.534  1.00  0.00    -0.352 N 
ATOM      4  H   UNL A   1      33.414  29.508  24.556  1.00  0.00     0.163 HD
ENDROOT
BRANCH   1   5
ATOM      5  C   UNL A   1      30.378  28.808  23.253  1.00  0.00     0.067 A 
ATOM      6  C   UNL A   1      29.681  27.691  23.751  1.00  0.00     0.054 A 
ATOM      7  C   UNL A   1      28.305  27.569  23.489  1.00  0.00     0.031 A 
ATOM      8  C   UNL A   1      27.605  28.580  22.827  1.00  0.00     0.048 A 
ATOM      9  C   UNL A   1      29.659  29.833  22.612  1.00  0.00     0.062 A 
ATOM     10  C   UNL A   1      28.285  29.718  22.418  1.00  0.00     0.116 A 
BRANCH   6  11
ATOM     11  N   UNL A   1      30.314  26.766  24.611  1.00  0.00    -0.325 N 
ATOM     12  O   UNL A   1      30.959  25.217  23.028  1.00  0.00    -0.275 OA
ATOM     13  C   UNL A   1      30.854  25.565  24.204  1.00  0.00     0.226 C 
ATOM     14  H   UNL A   1      30.375  26.995  25.565  1.00  0.00     0.169 HD
BRANCH  13  15
ATOM     15  C   UNL A   1      31.326  24.639  25.308  1.00  0.00     0.122 C 
BRANCH  15  16
ATOM     16  C   UNL A   1      32.801  24.255  25.336  1.00  0.00     0.140 C 
BRANCH  16  17
ATOM     17  N   UNL A   1      33.165  22.863  25.079  1.00  0.00    -0.268 N 
ATOM     18  C   UNL A   1      33.729  22.072  26.046  1.00  0.00     0.293 C 
ATOM     19  C   UNL A   1      33.049  22.226  23.864  1.00  0.00     0.268 C 
ATOM     20  O   UNL A   1      33.441  22.029  27.228  1.00  0.00    -0.261 OA
ATOM     21  S   UNL A   1      34.701  20.833  25.317  1.00  0.00    -0.022 SA
ATOM     22  C   UNL A   1      33.563  20.836  24.026  1.00  0.00     0.083 C 
ATOM     23  O   UNL A   1      32.536  22.662  22.846  1.00  0.00    -0.268 OA
ATOM     24  C   UNL A   1      32.894  19.764  23.584  1.00  0.00     0.029 C 
BRANCH  24  25
ATOM     25  C   UNL A   1      33.122  18.448  24.200  1.00  0.00    -0.024 A 
ATOM     26  C   UNL A   1      33.915  17.504  23.526  1.00  0.00     0.011 A 
ATOM     27  C   UNL A   1      32.407  18.065  25.341  1.00  0.00     0.011 A 
ATOM     28  C   UNL A   1      34.000  16.194  24.000  1.00  0.00     0.040 A 
ATOM     29  C   UNL A   1      32.491  16.753  25.808  1.00  0.00     0.040 A 
ATOM     30  C   UNL A   1      33.288  15.831  25.136  1.00  0.00     0.123 A 
ATOM     31  F   UNL A   1      33.353  14.570  25.582  1.00  0.00    -0.207 F 
ENDBRANCH  24  25
ENDBRANCH  16  17
ENDBRANCH  15  16
ENDBRANCH  13  15
ENDBRANCH   6  11
BRANCH  10  32
ATOM     32  O   UNL A   1      27.630  30.754  21.823  1.00  0.00    -0.508 OA
ATOM     33  H   UNL A   1      27.735  31.625  22.151  1.00  0.00     0.293 HD
ENDBRANCH  10  32
ENDBRANCH   1   5
BRANCH   3  34
ATOM     34  C   UNL A   1      31.806  30.129  25.705  1.00  0.00     0.118 C 
BRANCH  34  35
ATOM     35  C   UNL A   1      32.456  29.926  27.072  1.00  0.00     0.042 C 
BRANCH  35  36
ATOM     36  C   UNL A   1      33.971  30.083  27.317  1.00  0.00     0.118 C 
BRANCH  36  37
ATOM     37  N   UNL A   1      34.422  30.955  28.391  1.00  0.00    -0.352 N 
ATOM     38  C   UNL A   1      35.558  31.024  29.169  1.00  0.00     0.251 C 
ATOM     39  H   UNL A   1      33.765  31.654  28.612  1.00  0.00     0.163 HD
ATOM     40  O   UNL A   1      35.658  31.842  30.082  1.00  0.00    -0.269 OA
BRANCH  38  41
ATOM     41  C   UNL A   1      36.641  30.061  28.964  1.00  0.00     0.039 A 
ATOM     42  C   UNL A   1      37.309  30.010  27.735  1.00  0.00     0.014 A 
ATOM     43  C   UNL A   1      37.047  29.285  30.038  1.00  0.00     0.014 A 
ATOM     44  C   UNL A   1      38.513  29.315  27.649  1.00  0.00     0.010 A 
ATOM     45  C   UNL A   1      38.296  28.706  29.990  1.00  0.00     0.010 A 
ATOM     46  C   UNL A   1      39.056  28.749  28.809  1.00  0.00    -0.014 A 
BRANCH  46  47
ATOM     47  C   UNL A   1      40.445  28.250  28.898  1.00  0.00     0.031 A 
ATOM     48  C   UNL A   1      41.548  29.241  29.117  1.00  0.00     0.074 A 
ATOM     49  C   UNL A   1      40.706  26.977  28.543  1.00  0.00     0.049 A 
ATOM     50  N   UNL A   1      42.825  29.119  28.884  1.00  0.00    -0.248 NA
ATOM     51  C   UNL A   1      41.141  30.580  29.584  1.00  0.00     0.031 C 
ATOM     52  C   UNL A   1      39.702  25.953  28.232  1.00  0.00     0.029 A 
ATOM     53  N   UNL A   1      41.900  26.335  28.338  1.00  0.00    -0.354 N 
ATOM     54  C   UNL A   1      43.365  30.376  29.125  1.00  0.00     0.074 A 
ATOM     55  C   UNL A   1      42.271  31.258  29.461  1.00  0.00     0.031 C 
ATOM     56  C   UNL A   1      40.322  24.812  27.895  1.00  0.00     0.029 A 
ATOM     57  C   UNL A   1      41.762  25.037  27.908  1.00  0.00     0.049 A 
ATOM     58  H   UNL A   1      42.774  26.765  28.485  1.00  0.00     0.167 HD
ATOM     59  C   UNL A   1      44.665  30.745  29.088  1.00  0.00     0.037 A 
ATOM     60  C   UNL A   1      42.694  24.138  27.543  1.00  0.00     0.037 A 
ATOM     61  C   UNL A   1      45.737  29.827  28.813  1.00  0.00     0.049 A 
ATOM     62  C   UNL A   1      44.137  24.556  27.562  1.00  0.00     0.074 A 
ATOM     63  C   UNL A   1      47.098  30.058  28.854  1.00  0.00     0.029 A 
ATOM     64  N   UNL A   1      45.560  28.495  28.462  1.00  0.00    -0.354 N 
ATOM     65  N   UNL A   1      44.647  25.730  27.851  1.00  0.00    -0.248 NA
ATOM     66  C   UNL A   1      45.131  23.539  27.198  1.00  0.00     0.031 C 
ATOM     67  C   UNL A   1      47.746  28.872  28.497  1.00  0.00     0.029 A 
ATOM     68  C   UNL A   1      46.789  27.894  28.270  1.00  0.00     0.049 A 
ATOM     69  H   UNL A   1      44.689  28.048  28.363  1.00  0.00     0.167 HD
ATOM     70  C   UNL A   1      46.021  25.590  27.723  1.00  0.00     0.074 A 
ATOM     71  C   UNL A   1      46.265  24.212  27.342  1.00  0.00     0.031 C 
ATOM     72  C   UNL A   1      46.993  26.517  27.899  1.00  0.00     0.037 A 
BRANCH  59  73
ATOM     73  C   UNL A   1      44.996  32.177  29.387  1.00  0.00     0.057 A 
ATOM     74  C   UNL A   1      45.217  32.603  30.702  1.00  0.00     0.134 A 
ATOM     75  C   UNL A   1      45.056  33.146  28.376  1.00  0.00     0.134 A 
ATOM     76  F   UNL A   1      45.172  31.730  31.719  1.00  0.00    -0.206 F 
ATOM     77  C   UNL A   1      45.480  33.942  31.000  1.00  0.00     0.040 A 
ATOM     78  C   UNL A   1      45.349  34.480  28.658  1.00  0.00     0.040 A 
ATOM     79  F   UNL A   1      44.870  32.801  27.092  1.00  0.00    -0.206 F 
ATOM     80  C   UNL A   1      45.552  34.884  29.976  1.00  0.00     0.006 A 
ENDBRANCH  59  73
BRANCH  60  81
ATOM     81  C   UNL A   1      42.287  22.757  27.179  1.00  0.00     0.057 A 
ATOM     82  C   UNL A   1      41.884  21.821  28.141  1.00  0.00     0.134 A 
ATOM     83  C   UNL A   1      42.351  22.326  25.849  1.00  0.00     0.134 A 
ATOM     84  F   UNL A   1      41.817  22.165  29.435  1.00  0.00    -0.206 F 
ATOM     85  C   UNL A   1      41.577  20.503  27.794  1.00  0.00     0.040 A 
ATOM     86  C   UNL A   1      42.025  21.018  25.485  1.00  0.00     0.040 A 
ATOM     87  F   UNL A   1      42.719  23.179  24.883  1.00  0.00    -0.206 F 
ATOM     88  C   UNL A   1      41.646  20.099  26.462  1.00  0.00     0.006 A 
ENDBRANCH  60  81
BRANCH  72  89
ATOM     89  C   UNL A   1      48.410  26.078  27.694  1.00  0.00     0.057 A 
ATOM     90  C   UNL A   1      49.182  25.641  28.777  1.00  0.00     0.134 A 
ATOM     91  C   UNL A   1      49.038  26.202  26.450  1.00  0.00     0.134 A 
ATOM     92  F   UNL A   1      48.637  25.515  29.996  1.00  0.00    -0.206 F 
ATOM     93  C   UNL A   1      50.542  25.367  28.635  1.00  0.00     0.040 A 
ATOM     94  C   UNL A   1      50.391  25.908  26.290  1.00  0.00     0.040 A 
ATOM     95  F   UNL A   1      48.344  26.607  25.375  1.00  0.00    -0.206 F 
ATOM     96  C   UNL A   1      51.150  25.503  27.388  1.00  0.00     0.006 A 
ENDBRANCH  72  89
ENDBRANCH  46  47
ENDBRANCH  38  41
ENDBRANCH  36  37
ENDBRANCH  35  36
ENDBRANCH  34  35
ENDBRANCH   3  34
TORSDOF 16
ENDMDL
