MODEL 1
REMARK VINA RESULT:     -10.4      0.000      0.000
REMARK SMILES C#CC[N@@H+](CC(=O)NCCCNC(=O)c1ccc(-c2c3nc(c(-c4c(F)cccc4F)c4ccc([nH]4)c(-c4c(F)cccc4F)c4nc(c(-c5c(F)cccc5F)c5ccc2[nH]5)C=C4)C=C3)cc1)CC(=O)NC(=O)NC
REMARK SMILES IDX 9 1 8 2 6 3 7 4 5 6 4 7 3 9 2 10 1 11 69 12 70 13 71 14
REMARK SMILES IDX 72 15 73 16 74 18 75 19 76 20 10 22 11 23 12 24 13 25 14 27
REMARK SMILES IDX 15 28 16 29 68 30 17 31 67 32 18 33 19 34 20 35 61 36 21 37
REMARK SMILES IDX 66 38 60 39 62 40 22 41 65 42 59 43 58 44 23 46 49 47 32 48
REMARK SMILES IDX 48 49 33 50 36 51 47 52 63 53 34 54 35 55 46 57 64 58 37 59
REMARK SMILES IDX 24 60 25 61 30 62 26 63 27 64 29 65 31 66 28 67 50 68 51 69
REMARK SMILES IDX 56 70 52 71 53 72 55 73 57 74 54 75 38 76 39 77 44 78 40 79
REMARK SMILES IDX 41 80 43 81 45 82 42 83
REMARK H PARENT 8 5 4 8 72 17 75 21 12 26 62 45 36 56
REMARK Flexibility Score: inf
ROOT
ATOM      1  C   UNL A   1      36.437  20.074  24.978  1.00  0.00     0.118 C 
ENDROOT
BRANCH   1   2
ATOM      2  N   UNL A   1      36.243  21.378  25.600  1.00  0.00    -0.351 N 
ATOM      3  C   UNL A   1      35.225  22.282  25.630  1.00  0.00     0.275 C 
ATOM      4  O   UNL A   1      35.342  23.183  26.467  1.00  0.00    -0.269 OA
ATOM      5  H   UNL A   1      37.027  21.672  26.117  1.00  0.00     0.163 HD
BRANCH   3   6
ATOM      6  C   UNL A   1      33.970  22.225  24.731  1.00  0.00     0.364 C 
BRANCH   6   7
ATOM      7  N   UNL A   1      32.833  21.378  25.201  1.00  0.00    -0.309 N 
ATOM      8  H   UNL A   1      33.151  20.931  26.061  1.00  0.00     0.349 HD
BRANCH   7   9
ATOM      9  C   UNL A   1      32.547  20.415  24.173  1.00  0.00     0.354 C 
BRANCH   9  10
ATOM     10  C   UNL A   1      32.988  18.964  24.281  1.00  0.00    -0.047 C 
ATOM     11  C   UNL A   1      33.367  17.719  24.373  1.00  0.00     0.010 C 
ENDBRANCH   9  10
ENDBRANCH   7   9
BRANCH   7  12
ATOM     12  C   UNL A   1      31.626  22.060  25.705  1.00  0.00     0.365 C 
BRANCH  12  13
ATOM     13  C   UNL A   1      31.786  23.129  26.766  1.00  0.00     0.283 C 
ATOM     14  O   UNL A   1      32.129  22.827  27.915  1.00  0.00    -0.268 OA
ATOM     15  N   UNL A   1      31.620  24.465  26.439  1.00  0.00    -0.273 N 
ATOM     16  C   UNL A   1      30.571  25.127  25.879  1.00  0.00     0.321 C 
ATOM     17  H   UNL A   1      32.395  25.034  26.650  1.00  0.00     0.175 HD
ATOM     18  O   UNL A   1      30.031  26.043  26.504  1.00  0.00    -0.248 OA
ATOM     19  N   UNL A   1      30.111  24.861  24.644  1.00  0.00    -0.341 N 
ATOM     20  C   UNL A   1      30.743  24.258  23.499  1.00  0.00     0.144 C 
ATOM     21  H   UNL A   1      29.174  25.127  24.495  1.00  0.00     0.165 HD
ENDBRANCH  12  13
ENDBRANCH   7  12
ENDBRANCH   6   7
ENDBRANCH   3   6
ENDBRANCH   1   2
BRANCH   1  22
ATOM     22  C   UNL A   1      37.903  19.693  24.701  1.00  0.00     0.042 C 
BRANCH  22  23
ATOM     23  C   UNL A   1      38.927  20.194  25.719  1.00  0.00     0.118 C 
BRANCH  23  24
ATOM     24  N   UNL A   1      40.027  19.256  25.857  1.00  0.00    -0.352 N 
ATOM     25  C   UNL A   1      41.361  19.520  26.045  1.00  0.00     0.251 C 
ATOM     26  H   UNL A   1      39.782  18.304  25.809  1.00  0.00     0.163 HD
ATOM     27  O   UNL A   1      42.191  18.650  25.793  1.00  0.00    -0.269 OA
BRANCH  25  28
ATOM     28  C   UNL A   1      41.815  20.834  26.559  1.00  0.00     0.039 A 
ATOM     29  C   UNL A   1      41.709  21.097  27.930  1.00  0.00     0.014 A 
ATOM     30  C   UNL A   1      42.236  21.847  25.691  1.00  0.00     0.014 A 
ATOM     31  C   UNL A   1      42.031  22.364  28.429  1.00  0.00     0.010 A 
ATOM     32  C   UNL A   1      42.607  23.094  26.196  1.00  0.00     0.010 A 
ATOM     33  C   UNL A   1      42.481  23.375  27.566  1.00  0.00    -0.014 A 
BRANCH  33  34
ATOM     34  C   UNL A   1      42.752  24.749  28.068  1.00  0.00     0.031 A 
ATOM     35  C   UNL A   1      44.151  25.139  28.469  1.00  0.00     0.074 A 
ATOM     36  C   UNL A   1      41.746  25.631  28.212  1.00  0.00     0.049 A 
ATOM     37  N   UNL A   1      44.583  26.259  28.994  1.00  0.00    -0.248 NA
ATOM     38  C   UNL A   1      45.201  24.125  28.277  1.00  0.00     0.031 C 
ATOM     39  C   UNL A   1      40.340  25.369  27.902  1.00  0.00     0.029 A 
ATOM     40  N   UNL A   1      41.751  26.926  28.670  1.00  0.00    -0.354 N 
ATOM     41  C   UNL A   1      45.940  26.071  29.225  1.00  0.00     0.074 A 
ATOM     42  C   UNL A   1      46.256  24.722  28.814  1.00  0.00     0.031 C 
ATOM     43  C   UNL A   1      39.620  26.471  28.173  1.00  0.00     0.029 A 
ATOM     44  C   UNL A   1      40.507  27.506  28.696  1.00  0.00     0.049 A 
ATOM     45  H   UNL A   1      42.570  27.394  28.952  1.00  0.00     0.167 HD
ATOM     46  C   UNL A   1      46.845  26.948  29.721  1.00  0.00     0.037 A 
ATOM     47  C   UNL A   1      40.124  28.732  29.101  1.00  0.00     0.037 A 
ATOM     48  C   UNL A   1      46.547  28.309  30.079  1.00  0.00     0.049 A 
ATOM     49  C   UNL A   1      41.156  29.704  29.604  1.00  0.00     0.074 A 
ATOM     50  C   UNL A   1      47.415  29.300  30.506  1.00  0.00     0.029 A 
ATOM     51  N   UNL A   1      45.281  28.872  30.047  1.00  0.00    -0.354 N 
ATOM     52  N   UNL A   1      42.447  29.534  29.752  1.00  0.00    -0.248 NA
ATOM     53  C   UNL A   1      40.678  31.041  29.988  1.00  0.00     0.031 C 
ATOM     54  C   UNL A   1      46.669  30.456  30.759  1.00  0.00     0.029 A 
ATOM     55  C   UNL A   1      45.342  30.193  30.459  1.00  0.00     0.049 A 
ATOM     56  H   UNL A   1      44.460  28.403  29.771  1.00  0.00     0.167 HD
ATOM     57  C   UNL A   1      42.938  30.745  30.223  1.00  0.00     0.074 A 
ATOM     58  C   UNL A   1      41.809  31.645  30.324  1.00  0.00     0.031 C 
ATOM     59  C   UNL A   1      44.211  31.080  30.545  1.00  0.00     0.037 A 
BRANCH  46  60
ATOM     60  C   UNL A   1      48.255  26.465  29.900  1.00  0.00     0.057 A 
ATOM     61  C   UNL A   1      49.227  26.634  28.906  1.00  0.00     0.134 A 
ATOM     62  C   UNL A   1      48.653  25.858  31.097  1.00  0.00     0.134 A 
ATOM     63  F   UNL A   1      48.907  27.200  27.733  1.00  0.00    -0.206 F 
ATOM     64  C   UNL A   1      50.540  26.197  29.087  1.00  0.00     0.040 A 
ATOM     65  C   UNL A   1      49.968  25.435  31.299  1.00  0.00     0.040 A 
ATOM     66  F   UNL A   1      47.773  25.671  32.093  1.00  0.00    -0.206 F 
ATOM     67  C   UNL A   1      50.915  25.600  30.290  1.00  0.00     0.006 A 
ENDBRANCH  46  60
BRANCH  47  68
ATOM     68  C   UNL A   1      38.694  29.123  29.029  1.00  0.00     0.057 A 
ATOM     69  C   UNL A   1      37.861  29.018  30.148  1.00  0.00     0.134 A 
ATOM     70  C   UNL A   1      38.127  29.601  27.842  1.00  0.00     0.134 A 
ATOM     71  F   UNL A   1      38.344  28.547  31.307  1.00  0.00    -0.206 F 
ATOM     72  C   UNL A   1      36.508  29.360  30.087  1.00  0.00     0.040 A 
ATOM     73  C   UNL A   1      36.782  29.965  27.772  1.00  0.00     0.040 A 
ATOM     74  F   UNL A   1      38.875  29.727  26.737  1.00  0.00    -0.206 F 
ATOM     75  C   UNL A   1      35.967  29.840  28.897  1.00  0.00     0.006 A 
ENDBRANCH  47  68
BRANCH  59  76
ATOM     76  C   UNL A   1      44.455  32.482  31.009  1.00  0.00     0.057 A 
ATOM     77  C   UNL A   1      44.437  32.821  32.368  1.00  0.00     0.134 A 
ATOM     78  C   UNL A   1      44.755  33.497  30.092  1.00  0.00     0.134 A 
ATOM     79  F   UNL A   1      44.143  31.896  33.295  1.00  0.00    -0.206 F 
ATOM     80  C   UNL A   1      44.691  34.125  32.796  1.00  0.00     0.040 A 
ATOM     81  C   UNL A   1      45.031  34.798  30.509  1.00  0.00     0.040 A 
ATOM     82  F   UNL A   1      44.795  33.234  28.776  1.00  0.00    -0.206 F 
ATOM     83  C   UNL A   1      44.996  35.116  31.865  1.00  0.00     0.006 A 
ENDBRANCH  59  76
ENDBRANCH  33  34
ENDBRANCH  25  28
ENDBRANCH  23  24
ENDBRANCH  22  23
ENDBRANCH   1  22
TORSDOF 15
ENDMDL
MODEL 2
REMARK VINA RESULT:     -10.4      4.720      9.367
REMARK SMILES C#CC[N@@H+](CC(=O)NCCCNC(=O)c1ccc(-c2c3nc(c(-c4c(F)cccc4F)c4ccc([nH]4)c(-c4c(F)cccc4F)c4nc(c(-c5c(F)cccc5F)c5ccc2[nH]5)C=C4)C=C3)cc1)CC(=O)NC(=O)NC
REMARK SMILES IDX 9 1 8 2 6 3 7 4 5 6 4 7 3 9 2 10 1 11 69 12 70 13 71 14
REMARK SMILES IDX 72 15 73 16 74 18 75 19 76 20 10 22 11 23 12 24 13 25 14 27
REMARK SMILES IDX 15 28 16 29 68 30 17 31 67 32 18 33 19 34 20 35 61 36 21 37
REMARK SMILES IDX 66 38 60 39 62 40 22 41 65 42 59 43 58 44 23 46 49 47 32 48
REMARK SMILES IDX 48 49 33 50 36 51 47 52 63 53 34 54 35 55 46 57 64 58 37 59
REMARK SMILES IDX 24 60 25 61 30 62 26 63 27 64 29 65 31 66 28 67 50 68 51 69
REMARK SMILES IDX 56 70 52 71 53 72 55 73 57 74 54 75 38 76 39 77 44 78 40 79
REMARK SMILES IDX 41 80 43 81 45 82 42 83
REMARK H PARENT 8 5 4 8 72 17 75 21 12 26 62 45 36 56
REMARK Flexibility Score: inf
ROOT
ATOM      1  C   UNL A   1      31.628  30.722  26.315  1.00  0.00     0.118 C 
ENDROOT
BRANCH   1   2
ATOM      2  N   UNL A   1      32.788  30.036  26.868  1.00  0.00    -0.351 N 
ATOM      3  C   UNL A   1      33.713  29.167  26.372  1.00  0.00     0.275 C 
ATOM      4  O   UNL A   1      34.699  28.978  27.091  1.00  0.00    -0.269 OA
ATOM      5  H   UNL A   1      32.936  30.247  27.817  1.00  0.00     0.163 HD
BRANCH   3   6
ATOM      6  C   UNL A   1      33.612  28.461  25.002  1.00  0.00     0.364 C 
BRANCH   6   7
ATOM      7  N   UNL A   1      33.066  27.071  24.990  1.00  0.00    -0.309 N 
ATOM      8  H   UNL A   1      33.299  26.669  25.898  1.00  0.00     0.349 HD
BRANCH   7   9
ATOM      9  C   UNL A   1      33.701  26.359  23.914  1.00  0.00     0.354 C 
BRANCH   9  10
ATOM     10  C   UNL A   1      34.148  24.913  24.056  1.00  0.00    -0.047 C 
ATOM     11  C   UNL A   1      34.531  23.672  24.177  1.00  0.00     0.010 C 
ENDBRANCH   9  10
ENDBRANCH   7   9
BRANCH   7  12
ATOM     12  C   UNL A   1      31.601  26.904  25.007  1.00  0.00     0.365 C 
BRANCH  12  13
ATOM     13  C   UNL A   1      30.920  26.618  26.330  1.00  0.00     0.283 C 
ATOM     14  O   UNL A   1      31.009  27.420  27.268  1.00  0.00    -0.268 OA
ATOM     15  N   UNL A   1      30.132  25.489  26.477  1.00  0.00    -0.273 N 
ATOM     16  C   UNL A   1      30.411  24.170  26.294  1.00  0.00     0.321 C 
ATOM     17  H   UNL A   1      29.208  25.673  26.765  1.00  0.00     0.175 HD
ATOM     18  O   UNL A   1      30.297  23.390  27.243  1.00  0.00    -0.248 OA
ATOM     19  N   UNL A   1      30.770  23.653  25.106  1.00  0.00    -0.341 N 
ATOM     20  C   UNL A   1      30.544  24.112  23.759  1.00  0.00     0.144 C 
ATOM     21  H   UNL A   1      31.277  22.812  25.167  1.00  0.00     0.165 HD
ENDBRANCH  12  13
ENDBRANCH   7  12
ENDBRANCH   6   7
ENDBRANCH   3   6
ENDBRANCH   1   2
BRANCH   1  22
ATOM     22  C   UNL A   1      31.545  32.227  26.633  1.00  0.00     0.042 C 
BRANCH  22  23
ATOM     23  C   UNL A   1      32.798  32.850  27.247  1.00  0.00     0.118 C 
BRANCH  23  24
ATOM     24  N   UNL A   1      32.583  34.250  27.563  1.00  0.00    -0.352 N 
ATOM     25  C   UNL A   1      33.054  34.971  28.633  1.00  0.00     0.251 C 
ATOM     26  H   UNL A   1      32.025  34.749  26.924  1.00  0.00     0.163 HD
ATOM     27  O   UNL A   1      32.507  36.028  28.939  1.00  0.00    -0.269 OA
BRANCH  25  28
ATOM     28  C   UNL A   1      34.221  34.500  29.416  1.00  0.00     0.039 A 
ATOM     29  C   UNL A   1      35.500  34.613  28.859  1.00  0.00     0.014 A 
ATOM     30  C   UNL A   1      34.056  33.848  30.643  1.00  0.00     0.014 A 
ATOM     31  C   UNL A   1      36.608  34.083  29.529  1.00  0.00     0.010 A 
ATOM     32  C   UNL A   1      35.168  33.366  31.336  1.00  0.00     0.010 A 
ATOM     33  C   UNL A   1      36.451  33.452  30.774  1.00  0.00    -0.014 A 
BRANCH  33  34
ATOM     34  C   UNL A   1      37.605  32.814  31.462  1.00  0.00     0.031 A 
ATOM     35  C   UNL A   1      38.290  31.626  30.838  1.00  0.00     0.074 A 
ATOM     36  C   UNL A   1      38.011  33.262  32.665  1.00  0.00     0.049 A 
ATOM     37  N   UNL A   1      39.264  30.887  31.307  1.00  0.00    -0.248 NA
ATOM     38  C   UNL A   1      37.796  31.197  29.519  1.00  0.00     0.031 C 
ATOM     39  C   UNL A   1      37.409  34.375  33.402  1.00  0.00     0.029 A 
ATOM     40  N   UNL A   1      39.020  32.825  33.487  1.00  0.00    -0.354 N 
ATOM     41  C   UNL A   1      39.474  29.891  30.362  1.00  0.00     0.074 A 
ATOM     42  C   UNL A   1      38.508  30.099  29.307  1.00  0.00     0.031 C 
ATOM     43  C   UNL A   1      38.065  34.536  34.563  1.00  0.00     0.029 A 
ATOM     44  C   UNL A   1      39.116  33.528  34.664  1.00  0.00     0.049 A 
ATOM     45  H   UNL A   1      39.619  32.079  33.255  1.00  0.00     0.167 HD
ATOM     46  C   UNL A   1      40.399  28.902  30.364  1.00  0.00     0.037 A 
ATOM     47  C   UNL A   1      39.952  33.372  35.708  1.00  0.00     0.037 A 
ATOM     48  C   UNL A   1      41.398  28.724  31.383  1.00  0.00     0.049 A 
ATOM     49  C   UNL A   1      41.000  32.295  35.665  1.00  0.00     0.074 A 
ATOM     50  C   UNL A   1      42.433  27.806  31.428  1.00  0.00     0.029 A 
ATOM     51  N   UNL A   1      41.490  29.487  32.537  1.00  0.00    -0.354 N 
ATOM     52  N   UNL A   1      41.230  31.403  34.732  1.00  0.00    -0.248 NA
ATOM     53  C   UNL A   1      41.911  32.207  36.817  1.00  0.00     0.031 C 
ATOM     54  C   UNL A   1      43.134  27.994  32.623  1.00  0.00     0.029 A 
ATOM     55  C   UNL A   1      42.555  29.051  33.308  1.00  0.00     0.049 A 
ATOM     56  H   UNL A   1      40.887  30.229  32.774  1.00  0.00     0.167 HD
ATOM     57  C   UNL A   1      42.323  30.666  35.172  1.00  0.00     0.074 A 
ATOM     58  C   UNL A   1      42.718  31.222  36.449  1.00  0.00     0.031 C 
ATOM     59  C   UNL A   1      42.942  29.620  34.571  1.00  0.00     0.037 A 
BRANCH  46  60
ATOM     60  C   UNL A   1      40.380  27.931  29.219  1.00  0.00     0.057 A 
ATOM     61  C   UNL A   1      39.584  26.779  29.240  1.00  0.00     0.134 A 
ATOM     62  C   UNL A   1      41.137  28.173  28.066  1.00  0.00     0.134 A 
ATOM     63  F   UNL A   1      38.842  26.485  30.319  1.00  0.00    -0.206 F 
ATOM     64  C   UNL A   1      39.559  25.890  28.164  1.00  0.00     0.040 A 
ATOM     65  C   UNL A   1      41.104  27.302  26.976  1.00  0.00     0.040 A 
ATOM     66  F   UNL A   1      41.917  29.262  27.979  1.00  0.00    -0.206 F 
ATOM     67  C   UNL A   1      40.317  26.154  27.025  1.00  0.00     0.006 A 
ENDBRANCH  46  60
BRANCH  47  68
ATOM     68  C   UNL A   1      39.847  34.274  36.881  1.00  0.00     0.057 A 
ATOM     69  C   UNL A   1      39.080  33.922  37.996  1.00  0.00     0.134 A 
ATOM     70  C   UNL A   1      40.505  35.510  36.912  1.00  0.00     0.134 A 
ATOM     71  F   UNL A   1      38.410  32.760  38.014  1.00  0.00    -0.206 F 
ATOM     72  C   UNL A   1      38.955  34.773  39.096  1.00  0.00     0.040 A 
ATOM     73  C   UNL A   1      40.405  36.361  38.013  1.00  0.00     0.040 A 
ATOM     74  F   UNL A   1      41.260  35.901  35.875  1.00  0.00    -0.206 F 
ATOM     75  C   UNL A   1      39.623  35.995  39.108  1.00  0.00     0.006 A 
ENDBRANCH  47  68
BRANCH  59  76
ATOM     76  C   UNL A   1      44.124  29.028  35.273  1.00  0.00     0.057 A 
ATOM     77  C   UNL A   1      45.424  29.499  35.050  1.00  0.00     0.134 A 
ATOM     78  C   UNL A   1      43.957  28.005  36.214  1.00  0.00     0.134 A 
ATOM     79  F   UNL A   1      45.650  30.469  34.151  1.00  0.00    -0.206 F 
ATOM     80  C   UNL A   1      46.519  28.960  35.727  1.00  0.00     0.040 A 
ATOM     81  C   UNL A   1      45.041  27.473  36.913  1.00  0.00     0.040 A 
ATOM     82  F   UNL A   1      42.736  27.515  36.479  1.00  0.00    -0.206 F 
ATOM     83  C   UNL A   1      46.327  27.949  36.667  1.00  0.00     0.006 A 
ENDBRANCH  59  76
ENDBRANCH  33  34
ENDBRANCH  25  28
ENDBRANCH  23  24
ENDBRANCH  22  23
ENDBRANCH   1  22
TORSDOF 15
ENDMDL
MODEL 3
REMARK VINA RESULT:     -10.3      1.447      6.506
REMARK SMILES C#CC[N@@H+](CC(=O)NCCCNC(=O)c1ccc(-c2c3nc(c(-c4c(F)cccc4F)c4ccc([nH]4)c(-c4c(F)cccc4F)c4nc(c(-c5c(F)cccc5F)c5ccc2[nH]5)C=C4)C=C3)cc1)CC(=O)NC(=O)NC
REMARK SMILES IDX 9 1 8 2 6 3 7 4 5 6 4 7 3 9 2 10 1 11 69 12 70 13 71 14
REMARK SMILES IDX 72 15 73 16 74 18 75 19 76 20 10 22 11 23 12 24 13 25 14 27
REMARK SMILES IDX 15 28 16 29 68 30 17 31 67 32 18 33 19 34 20 35 61 36 21 37
REMARK SMILES IDX 66 38 60 39 62 40 22 41 65 42 59 43 58 44 23 46 49 47 32 48
REMARK SMILES IDX 48 49 33 50 36 51 47 52 63 53 34 54 35 55 46 57 64 58 37 59
REMARK SMILES IDX 24 60 25 61 30 62 26 63 27 64 29 65 31 66 28 67 50 68 51 69
REMARK SMILES IDX 56 70 52 71 53 72 55 73 57 74 54 75 38 76 39 77 44 78 40 79
REMARK SMILES IDX 41 80 43 81 45 82 42 83
REMARK H PARENT 8 5 4 8 72 17 75 21 12 26 62 45 36 56
REMARK Flexibility Score: inf
ROOT
ATOM      1  C   UNL A   1      36.464  20.219  25.002  1.00  0.00     0.118 C 
ENDROOT
BRANCH   1   2
ATOM      2  N   UNL A   1      36.255  21.581  25.477  1.00  0.00    -0.351 N 
ATOM      3  C   UNL A   1      35.211  22.456  25.447  1.00  0.00     0.275 C 
ATOM      4  O   UNL A   1      35.335  23.451  26.169  1.00  0.00    -0.269 OA
ATOM      5  H   UNL A   1      37.050  21.953  25.921  1.00  0.00     0.163 HD
BRANCH   3   6
ATOM      6  C   UNL A   1      33.923  22.262  24.617  1.00  0.00     0.364 C 
BRANCH   6   7
ATOM      7  N   UNL A   1      32.858  21.396  25.205  1.00  0.00    -0.309 N 
ATOM      8  H   UNL A   1      33.246  21.018  26.069  1.00  0.00     0.349 HD
BRANCH   7   9
ATOM      9  C   UNL A   1      32.562  20.358  24.255  1.00  0.00     0.354 C 
BRANCH   9  10
ATOM     10  C   UNL A   1      32.551  18.888  24.643  1.00  0.00    -0.047 C 
ATOM     11  C   UNL A   1      32.542  17.627  24.975  1.00  0.00     0.010 C 
ENDBRANCH   9  10
ENDBRANCH   7   9
BRANCH   7  12
ATOM     12  C   UNL A   1      31.649  22.052  25.737  1.00  0.00     0.365 C 
BRANCH  12  13
ATOM     13  C   UNL A   1      31.815  23.139  26.781  1.00  0.00     0.283 C 
ATOM     14  O   UNL A   1      32.176  22.856  27.929  1.00  0.00    -0.268 OA
ATOM     15  N   UNL A   1      31.631  24.468  26.437  1.00  0.00    -0.273 N 
ATOM     16  C   UNL A   1      30.569  25.112  25.881  1.00  0.00     0.321 C 
ATOM     17  H   UNL A   1      32.404  25.047  26.629  1.00  0.00     0.175 HD
ATOM     18  O   UNL A   1      30.029  26.032  26.500  1.00  0.00    -0.248 OA
ATOM     19  N   UNL A   1      30.095  24.824  24.657  1.00  0.00    -0.341 N 
ATOM     20  C   UNL A   1      30.718  24.210  23.512  1.00  0.00     0.144 C 
ATOM     21  H   UNL A   1      29.154  25.079  24.517  1.00  0.00     0.165 HD
ENDBRANCH  12  13
ENDBRANCH   7  12
ENDBRANCH   6   7
ENDBRANCH   3   6
ENDBRANCH   1   2
BRANCH   1  22
ATOM     22  C   UNL A   1      37.926  19.852  24.690  1.00  0.00     0.042 C 
BRANCH  22  23
ATOM     23  C   UNL A   1      38.955  20.251  25.749  1.00  0.00     0.118 C 
BRANCH  23  24
ATOM     24  N   UNL A   1      39.939  19.202  25.941  1.00  0.00    -0.352 N 
ATOM     25  C   UNL A   1      41.305  19.312  26.033  1.00  0.00     0.251 C 
ATOM     26  H   UNL A   1      39.579  18.289  26.014  1.00  0.00     0.163 HD
ATOM     27  O   UNL A   1      42.007  18.323  25.844  1.00  0.00    -0.269 OA
BRANCH  25  28
ATOM     28  C   UNL A   1      41.944  20.606  26.372  1.00  0.00     0.039 A 
ATOM     29  C   UNL A   1      42.109  20.947  27.719  1.00  0.00     0.014 A 
ATOM     30  C   UNL A   1      42.278  21.533  25.378  1.00  0.00     0.014 A 
ATOM     31  C   UNL A   1      42.613  22.205  28.069  1.00  0.00     0.010 A 
ATOM     32  C   UNL A   1      42.830  22.767  25.727  1.00  0.00     0.010 A 
ATOM     33  C   UNL A   1      42.976  23.128  27.075  1.00  0.00    -0.014 A 
BRANCH  33  34
ATOM     34  C   UNL A   1      43.439  24.496  27.429  1.00  0.00     0.031 A 
ATOM     35  C   UNL A   1      42.442  25.535  27.873  1.00  0.00     0.074 A 
ATOM     36  C   UNL A   1      44.739  24.826  27.309  1.00  0.00     0.049 A 
ATOM     37  N   UNL A   1      42.631  26.799  28.158  1.00  0.00    -0.248 NA
ATOM     38  C   UNL A   1      41.041  25.100  27.987  1.00  0.00     0.031 C 
ATOM     39  C   UNL A   1      45.801  23.930  26.850  1.00  0.00     0.029 A 
ATOM     40  N   UNL A   1      45.385  26.013  27.552  1.00  0.00    -0.354 N 
ATOM     41  C   UNL A   1      41.374  27.315  28.449  1.00  0.00     0.074 A 
ATOM     42  C   UNL A   1      40.425  26.238  28.278  1.00  0.00     0.031 C 
ATOM     43  C   UNL A   1      46.967  24.598  26.850  1.00  0.00     0.029 A 
ATOM     44  C   UNL A   1      46.732  25.972  27.286  1.00  0.00     0.049 A 
ATOM     45  H   UNL A   1      44.926  26.818  27.885  1.00  0.00     0.167 HD
ATOM     46  C   UNL A   1      41.042  28.568  28.841  1.00  0.00     0.037 A 
ATOM     47  C   UNL A   1      47.670  26.934  27.378  1.00  0.00     0.037 A 
ATOM     48  C   UNL A   1      41.988  29.627  29.066  1.00  0.00     0.049 A 
ATOM     49  C   UNL A   1      47.282  28.305  27.859  1.00  0.00     0.074 A 
ATOM     50  C   UNL A   1      41.756  30.905  29.549  1.00  0.00     0.029 A 
ATOM     51  N   UNL A   1      43.350  29.530  28.830  1.00  0.00    -0.354 N 
ATOM     52  N   UNL A   1      46.099  28.758  28.197  1.00  0.00    -0.248 NA
ATOM     53  C   UNL A   1      48.362  29.297  27.980  1.00  0.00     0.031 C 
ATOM     54  C   UNL A   1      42.974  31.590  29.577  1.00  0.00     0.029 A 
ATOM     55  C   UNL A   1      43.970  30.729  29.143  1.00  0.00     0.049 A 
ATOM     56  H   UNL A   1      43.809  28.728  28.490  1.00  0.00     0.167 HD
ATOM     57  C   UNL A   1      46.295  30.075  28.591  1.00  0.00     0.074 A 
ATOM     58  C   UNL A   1      47.711  30.346  28.463  1.00  0.00     0.031 C 
ATOM     59  C   UNL A   1      45.381  30.980  29.020  1.00  0.00     0.037 A 
BRANCH  46  60
ATOM     60  C   UNL A   1      39.586  28.864  29.058  1.00  0.00     0.057 A 
ATOM     61  C   UNL A   1      38.985  28.735  30.317  1.00  0.00     0.134 A 
ATOM     62  C   UNL A   1      38.786  29.321  28.004  1.00  0.00     0.134 A 
ATOM     63  F   UNL A   1      39.695  28.293  31.366  1.00  0.00    -0.206 F 
ATOM     64  C   UNL A   1      37.635  29.029  30.514  1.00  0.00     0.040 A 
ATOM     65  C   UNL A   1      37.440  29.639  28.193  1.00  0.00     0.040 A 
ATOM     66  F   UNL A   1      39.302  29.474  26.774  1.00  0.00    -0.206 F 
ATOM     67  C   UNL A   1      36.860  29.488  29.451  1.00  0.00     0.006 A 
ENDBRANCH  46  60
BRANCH  47  68
ATOM     68  C   UNL A   1      49.078  26.630  27.025  1.00  0.00     0.057 A 
ATOM     69  C   UNL A   1      49.991  26.210  27.997  1.00  0.00     0.134 A 
ATOM     70  C   UNL A   1      49.546  26.761  25.712  1.00  0.00     0.134 A 
ATOM     71  F   UNL A   1      49.606  26.087  29.276  1.00  0.00    -0.206 F 
ATOM     72  C   UNL A   1      51.325  25.944  27.682  1.00  0.00     0.040 A 
ATOM     73  C   UNL A   1      50.871  26.479  25.378  1.00  0.00     0.040 A 
ATOM     74  F   UNL A   1      48.718  27.156  24.734  1.00  0.00    -0.206 F 
ATOM     75  C   UNL A   1      51.767  26.074  26.367  1.00  0.00     0.006 A 
ENDBRANCH  47  68
BRANCH  59  76
ATOM     76  C   UNL A   1      45.887  32.336  29.406  1.00  0.00     0.057 A 
ATOM     77  C   UNL A   1      45.941  33.390  28.486  1.00  0.00     0.134 A 
ATOM     78  C   UNL A   1      46.285  32.602  30.722  1.00  0.00     0.134 A 
ATOM     79  F   UNL A   1      45.587  33.194  27.206  1.00  0.00    -0.206 F 
ATOM     80  C   UNL A   1      46.389  34.658  28.858  1.00  0.00     0.040 A 
ATOM     81  C   UNL A   1      46.714  33.870  31.111  1.00  0.00     0.040 A 
ATOM     82  F   UNL A   1      46.249  31.635  31.652  1.00  0.00    -0.206 F 
ATOM     83  C   UNL A   1      46.771  34.902  30.176  1.00  0.00     0.006 A 
ENDBRANCH  59  76
ENDBRANCH  33  34
ENDBRANCH  25  28
ENDBRANCH  23  24
ENDBRANCH  22  23
ENDBRANCH   1  22
TORSDOF 15
ENDMDL
