MODEL 1
REMARK VINA RESULT:     -12.8      0.000      0.000
REMARK SMILES O=C(NCCCNC(=O)[C@H]1Cc2ccc(Cl)cc2C[N@@H+]1Cc1ccc(Cl)cc1)c1ccc(-c2c3nc(c(-c4c(F)cccc4F)c4ccc([nH]4)c(-c4c(F)cccc4F)c4nc(c(-c5c(F)cccc5F)c5ccc2[nH]5)C=C4)C=C3)cc1
REMARK SMILES IDX 5 1 4 2 3 3 1 4 2 5 29 7 30 8 82 9 31 10 81 11 32 12 33 13
REMARK SMILES IDX 34 14 75 15 35 16 80 17 74 18 76 19 36 20 79 21 73 22 72 23
REMARK SMILES IDX 37 25 63 26 46 27 62 28 47 29 50 30 61 31 77 32 48 33 49 34
REMARK SMILES IDX 60 36 78 37 51 38 38 39 39 40 44 41 40 42 41 43 43 44 45 45
REMARK SMILES IDX 42 46 64 47 65 48 70 49 66 50 67 51 69 52 71 53 68 54 52 55
REMARK SMILES IDX 53 56 58 57 54 58 55 59 57 60 59 61 56 62 6 63 7 64 8 65
REMARK SMILES IDX 9 67 10 68 11 69 20 70 12 71 19 72 13 74 18 75 14 76 17 77
REMARK SMILES IDX 15 78 16 79 21 80 22 81 23 82 28 83 24 84 27 85 25 86 26 87
REMARK H PARENT 3 6 76 24 50 35 7 66 20 73
REMARK Flexibility Score: inf
ROOT
ATOM      1  C   UNL A   1      33.800  28.884  25.887  1.00  0.00     0.042 C 
ENDROOT
BRANCH   1   2
ATOM      2  C   UNL A   1      33.322  29.105  27.321  1.00  0.00     0.118 C 
BRANCH   2   3
ATOM      3  N   UNL A   1      33.661  30.441  27.790  1.00  0.00    -0.352 N 
ATOM      4  O   UNL A   1      34.630  31.947  29.130  1.00  0.00    -0.269 OA
ATOM      5  C   UNL A   1      34.735  30.890  28.512  1.00  0.00     0.251 C 
ATOM      6  H   UNL A   1      33.010  31.137  27.547  1.00  0.00     0.163 HD
BRANCH   5   7
ATOM      7  C   UNL A   1      36.023  30.160  28.527  1.00  0.00     0.039 A 
ATOM      8  C   UNL A   1      36.431  29.551  29.721  1.00  0.00     0.014 A 
ATOM      9  C   UNL A   1      36.903  30.206  27.443  1.00  0.00     0.014 A 
ATOM     10  C   UNL A   1      37.719  29.024  29.834  1.00  0.00     0.010 A 
ATOM     11  C   UNL A   1      38.152  29.593  27.523  1.00  0.00     0.010 A 
ATOM     12  C   UNL A   1      38.595  29.058  28.739  1.00  0.00    -0.014 A 
BRANCH  12  13
ATOM     13  C   UNL A   1      40.024  28.687  28.892  1.00  0.00     0.031 A 
ATOM     14  C   UNL A   1      40.976  29.669  29.529  1.00  0.00     0.074 A 
ATOM     15  C   UNL A   1      40.470  27.494  28.460  1.00  0.00     0.049 A 
ATOM     16  N   UNL A   1      42.271  29.580  29.704  1.00  0.00    -0.248 NA
ATOM     17  C   UNL A   1      40.398  30.938  30.003  1.00  0.00     0.031 C 
ATOM     18  C   UNL A   1      39.658  26.471  27.799  1.00  0.00     0.029 A 
ATOM     19  N   UNL A   1      41.723  26.942  28.517  1.00  0.00    -0.354 N 
ATOM     20  C   UNL A   1      42.657  30.783  30.283  1.00  0.00     0.074 A 
ATOM     21  C   UNL A   1      41.476  31.613  30.367  1.00  0.00     0.031 C 
ATOM     22  C   UNL A   1      40.430  25.404  27.536  1.00  0.00     0.029 A 
ATOM     23  C   UNL A   1      41.791  25.677  27.987  1.00  0.00     0.049 A 
ATOM     24  H   UNL A   1      42.501  27.408  28.900  1.00  0.00     0.167 HD
ATOM     25  C   UNL A   1      43.876  31.156  30.742  1.00  0.00     0.037 A 
ATOM     26  C   UNL A   1      42.836  24.836  27.886  1.00  0.00     0.037 A 
ATOM     27  C   UNL A   1      45.042  30.316  30.701  1.00  0.00     0.049 A 
ATOM     28  C   UNL A   1      44.172  25.258  28.432  1.00  0.00     0.074 A 
ATOM     29  C   UNL A   1      46.322  30.585  31.152  1.00  0.00     0.029 A 
ATOM     30  N   UNL A   1      45.058  29.027  30.192  1.00  0.00    -0.354 N 
ATOM     31  N   UNL A   1      44.517  26.392  28.994  1.00  0.00    -0.248 NA
ATOM     32  C   UNL A   1      45.260  24.275  28.341  1.00  0.00     0.031 C 
ATOM     33  C   UNL A   1      47.117  29.459  30.902  1.00  0.00     0.029 A 
ATOM     34  C   UNL A   1      46.323  28.482  30.325  1.00  0.00     0.049 A 
ATOM     35  H   UNL A   1      44.283  28.566  29.795  1.00  0.00     0.167 HD
ATOM     36  C   UNL A   1      45.854  26.251  29.344  1.00  0.00     0.074 A 
ATOM     37  C   UNL A   1      46.249  24.913  28.951  1.00  0.00     0.031 C 
ATOM     38  C   UNL A   1      46.686  27.146  29.931  1.00  0.00     0.037 A 
BRANCH  25  39
ATOM     39  C   UNL A   1      43.987  32.527  31.346  1.00  0.00     0.057 A 
ATOM     40  C   UNL A   1      44.292  33.640  30.555  1.00  0.00     0.134 A 
ATOM     41  C   UNL A   1      43.772  32.746  32.714  1.00  0.00     0.134 A 
ATOM     42  F   UNL A   1      44.513  33.503  29.238  1.00  0.00    -0.206 F 
ATOM     43  C   UNL A   1      44.371  34.923  31.101  1.00  0.00     0.040 A 
ATOM     44  C   UNL A   1      43.821  34.027  33.266  1.00  0.00     0.040 A 
ATOM     45  F   UNL A   1      43.456  31.724  33.524  1.00  0.00    -0.206 F 
ATOM     46  C   UNL A   1      44.125  35.121  32.458  1.00  0.00     0.006 A 
ENDBRANCH  25  39
BRANCH  26  47
ATOM     47  C   UNL A   1      42.657  23.494  27.281  1.00  0.00     0.057 A 
ATOM     48  C   UNL A   1      42.939  23.258  25.931  1.00  0.00     0.134 A 
ATOM     49  C   UNL A   1      42.223  22.408  28.050  1.00  0.00     0.134 A 
ATOM     50  F   UNL A   1      43.350  24.259  25.139  1.00  0.00    -0.206 F 
ATOM     51  C   UNL A   1      42.801  21.987  25.369  1.00  0.00     0.040 A 
ATOM     52  C   UNL A   1      42.102  21.128  27.507  1.00  0.00     0.040 A 
ATOM     53  F   UNL A   1      41.954  22.570  29.354  1.00  0.00    -0.206 F 
ATOM     54  C   UNL A   1      42.390  20.916  26.160  1.00  0.00     0.006 A 
ENDBRANCH  26  47
BRANCH  38  55
ATOM     55  C   UNL A   1      48.087  26.685  30.203  1.00  0.00     0.057 A 
ATOM     56  C   UNL A   1      48.395  26.011  31.391  1.00  0.00     0.134 A 
ATOM     57  C   UNL A   1      49.125  26.907  29.291  1.00  0.00     0.134 A 
ATOM     58  F   UNL A   1      47.445  25.775  32.308  1.00  0.00    -0.206 F 
ATOM     59  C   UNL A   1      49.690  25.564  31.657  1.00  0.00     0.040 A 
ATOM     60  C   UNL A   1      50.418  26.444  29.536  1.00  0.00     0.040 A 
ATOM     61  F   UNL A   1      48.888  27.534  28.129  1.00  0.00    -0.206 F 
ATOM     62  C   UNL A   1      50.704  25.773  30.723  1.00  0.00     0.006 A 
ENDBRANCH  38  55
ENDBRANCH  12  13
ENDBRANCH   5   7
ENDBRANCH   2   3
ENDBRANCH   1   2
BRANCH   1  63
ATOM     63  C   UNL A   1      33.880  27.402  25.523  1.00  0.00     0.118 C 
BRANCH  63  64
ATOM     64  N   UNL A   1      32.936  26.621  26.302  1.00  0.00    -0.351 N 
ATOM     65  C   UNL A   1      32.273  25.451  26.146  1.00  0.00     0.278 C 
ATOM     66  H   UNL A   1      32.724  27.052  27.162  1.00  0.00     0.163 HD
ATOM     67  O   UNL A   1      31.297  25.368  26.906  1.00  0.00    -0.268 OA
BRANCH  65  68
ATOM     68  C   UNL A   1      32.632  24.260  25.197  1.00  0.00     0.279 C 
ATOM     69  C   UNL A   1      32.452  22.897  25.877  1.00  0.00     0.111 C 
ATOM     70  N   UNL A   1      31.872  24.324  23.910  1.00  0.00    -0.317 N 
ATOM     71  C   UNL A   1      32.591  21.694  24.995  1.00  0.00    -0.033 A 
ATOM     72  C   UNL A   1      32.196  23.198  23.011  1.00  0.00     0.300 C 
ATOM     73  H   UNL A   1      30.899  24.251  24.211  1.00  0.00     0.349 HD
ATOM     74  C   UNL A   1      32.809  20.425  25.550  1.00  0.00     0.006 A 
ATOM     75  C   UNL A   1      32.304  21.829  23.635  1.00  0.00     0.011 A 
ATOM     76  C   UNL A   1      32.751  19.289  24.747  1.00  0.00     0.021 A 
ATOM     77  C   UNL A   1      32.247  20.680  22.832  1.00  0.00     0.030 A 
ATOM     78  C   UNL A   1      32.460  19.420  23.391  1.00  0.00     0.041 A 
ATOM     79  Cl  UNL A   1      32.363  18.017  22.400  1.00  0.00    -0.084 Cl
BRANCH  70  80
ATOM     80  C   UNL A   1      31.972  25.615  23.169  1.00  0.00     0.299 C 
BRANCH  80  81
ATOM     81  C   UNL A   1      30.786  26.576  23.224  1.00  0.00     0.006 A 
ATOM     82  C   UNL A   1      29.549  26.193  23.768  1.00  0.00     0.011 A 
ATOM     83  C   UNL A   1      30.901  27.890  22.745  1.00  0.00     0.011 A 
ATOM     84  C   UNL A   1      28.437  27.041  23.709  1.00  0.00     0.021 A 
ATOM     85  C   UNL A   1      29.799  28.747  22.693  1.00  0.00     0.021 A 
ATOM     86  C   UNL A   1      28.563  28.310  23.153  1.00  0.00     0.041 A 
ATOM     87  Cl  UNL A   1      27.192  29.341  23.041  1.00  0.00    -0.084 Cl
ENDBRANCH  80  81
ENDBRANCH  70  80
ENDBRANCH  65  68
ENDBRANCH  63  64
ENDBRANCH   1  63
TORSDOF 12
ENDMDL
MODEL 2
REMARK VINA RESULT:     -12.6      2.487      7.503
REMARK SMILES O=C(NCCCNC(=O)[C@H]1Cc2ccc(Cl)cc2C[N@@H+]1Cc1ccc(Cl)cc1)c1ccc(-c2c3nc(c(-c4c(F)cccc4F)c4ccc([nH]4)c(-c4c(F)cccc4F)c4nc(c(-c5c(F)cccc5F)c5ccc2[nH]5)C=C4)C=C3)cc1
REMARK SMILES IDX 5 1 4 2 3 3 1 4 2 5 29 7 30 8 82 9 31 10 81 11 32 12 33 13
REMARK SMILES IDX 34 14 75 15 35 16 80 17 74 18 76 19 36 20 79 21 73 22 72 23
REMARK SMILES IDX 37 25 63 26 46 27 62 28 47 29 50 30 61 31 77 32 48 33 49 34
REMARK SMILES IDX 60 36 78 37 51 38 38 39 39 40 44 41 40 42 41 43 43 44 45 45
REMARK SMILES IDX 42 46 64 47 65 48 70 49 66 50 67 51 69 52 71 53 68 54 52 55
REMARK SMILES IDX 53 56 58 57 54 58 55 59 57 60 59 61 56 62 6 63 7 64 8 65
REMARK SMILES IDX 9 67 10 68 11 69 20 70 12 71 19 72 13 74 18 75 14 76 17 77
REMARK SMILES IDX 15 78 16 79 21 80 22 81 23 82 28 83 24 84 27 85 25 86 26 87
REMARK H PARENT 3 6 76 24 50 35 7 66 20 73
REMARK Flexibility Score: inf
ROOT
ATOM      1  C   UNL A   1      38.063  22.277  26.249  1.00  0.00     0.042 C 
ENDROOT
BRANCH   1   2
ATOM      2  C   UNL A   1      38.349  21.320  25.093  1.00  0.00     0.118 C 
BRANCH   2   3
ATOM      3  N   UNL A   1      39.057  20.134  25.552  1.00  0.00    -0.352 N 
ATOM      4  O   UNL A   1      40.846  18.850  25.942  1.00  0.00    -0.269 OA
ATOM      5  C   UNL A   1      40.347  19.972  25.981  1.00  0.00     0.251 C 
ATOM      6  H   UNL A   1      38.517  19.311  25.556  1.00  0.00     0.163 HD
BRANCH   5   7
ATOM      7  C   UNL A   1      41.133  21.101  26.530  1.00  0.00     0.039 A 
ATOM      8  C   UNL A   1      41.095  21.330  27.911  1.00  0.00     0.014 A 
ATOM      9  C   UNL A   1      41.765  22.027  25.696  1.00  0.00     0.014 A 
ATOM     10  C   UNL A   1      41.658  22.492  28.444  1.00  0.00     0.010 A 
ATOM     11  C   UNL A   1      42.412  23.136  26.237  1.00  0.00     0.010 A 
ATOM     12  C   UNL A   1      42.306  23.412  27.606  1.00  0.00    -0.014 A 
BRANCH  12  13
ATOM     13  C   UNL A   1      42.734  24.739  28.115  1.00  0.00     0.031 A 
ATOM     14  C   UNL A   1      41.696  25.810  28.346  1.00  0.00     0.074 A 
ATOM     15  C   UNL A   1      44.032  24.990  28.360  1.00  0.00     0.049 A 
ATOM     16  N   UNL A   1      41.854  27.054  28.723  1.00  0.00    -0.248 NA
ATOM     17  C   UNL A   1      40.295  25.440  28.084  1.00  0.00     0.031 C 
ATOM     18  C   UNL A   1      45.134  24.051  28.148  1.00  0.00     0.029 A 
ATOM     19  N   UNL A   1      44.642  26.117  28.845  1.00  0.00    -0.354 N 
ATOM     20  C   UNL A   1      40.581  27.613  28.720  1.00  0.00     0.074 A 
ATOM     21  C   UNL A   1      39.672  26.598  28.237  1.00  0.00     0.031 C 
ATOM     22  C   UNL A   1      46.284  24.633  28.527  1.00  0.00     0.029 A 
ATOM     23  C   UNL A   1      46.002  25.990  28.985  1.00  0.00     0.049 A 
ATOM     24  H   UNL A   1      44.152  26.941  29.071  1.00  0.00     0.167 HD
ATOM     25  C   UNL A   1      40.191  28.848  29.118  1.00  0.00     0.037 A 
ATOM     26  C   UNL A   1      46.912  26.871  29.438  1.00  0.00     0.037 A 
ATOM     27  C   UNL A   1      41.085  29.844  29.640  1.00  0.00     0.049 A 
ATOM     28  C   UNL A   1      46.451  28.224  29.906  1.00  0.00     0.074 A 
ATOM     29  C   UNL A   1      40.797  31.122  30.088  1.00  0.00     0.029 A 
ATOM     30  N   UNL A   1      42.450  29.660  29.801  1.00  0.00    -0.354 N 
ATOM     31  N   UNL A   1      45.242  28.732  29.914  1.00  0.00    -0.248 NA
ATOM     32  C   UNL A   1      47.484  29.122  30.440  1.00  0.00     0.031 C 
ATOM     33  C   UNL A   1      41.993  31.715  30.509  1.00  0.00     0.029 A 
ATOM     34  C   UNL A   1      43.018  30.796  30.351  1.00  0.00     0.049 A 
ATOM     35  H   UNL A   1      42.943  28.842  29.562  1.00  0.00     0.167 HD
ATOM     36  C   UNL A   1      45.365  29.997  30.473  1.00  0.00     0.074 A 
ATOM     37  C   UNL A   1      46.763  30.169  30.813  1.00  0.00     0.031 C 
ATOM     38  C   UNL A   1      44.411  30.937  30.684  1.00  0.00     0.037 A 
BRANCH  25  39
ATOM     39  C   UNL A   1      38.726  29.165  29.018  1.00  0.00     0.057 A 
ATOM     40  C   UNL A   1      37.888  29.061  30.134  1.00  0.00     0.134 A 
ATOM     41  C   UNL A   1      38.148  29.591  27.814  1.00  0.00     0.134 A 
ATOM     42  F   UNL A   1      38.374  28.655  31.317  1.00  0.00    -0.206 F 
ATOM     43  C   UNL A   1      36.530  29.379  30.059  1.00  0.00     0.040 A 
ATOM     44  C   UNL A   1      36.798  29.939  27.733  1.00  0.00     0.040 A 
ATOM     45  F   UNL A   1      38.900  29.731  26.712  1.00  0.00    -0.206 F 
ATOM     46  C   UNL A   1      35.984  29.830  28.859  1.00  0.00     0.006 A 
ENDBRANCH  25  39
BRANCH  26  47
ATOM     47  C   UNL A   1      48.344  26.493  29.513  1.00  0.00     0.057 A 
ATOM     48  C   UNL A   1      49.234  26.795  28.477  1.00  0.00     0.134 A 
ATOM     49  C   UNL A   1      48.859  25.841  30.640  1.00  0.00     0.134 A 
ATOM     50  F   UNL A   1      48.800  27.410  27.368  1.00  0.00    -0.206 F 
ATOM     51  C   UNL A   1      50.589  26.467  28.562  1.00  0.00     0.040 A 
ATOM     52  C   UNL A   1      50.214  25.527  30.748  1.00  0.00     0.040 A 
ATOM     53  F   UNL A   1      48.056  25.542  31.672  1.00  0.00    -0.206 F 
ATOM     54  C   UNL A   1      51.083  25.839  29.703  1.00  0.00     0.006 A 
ENDBRANCH  26  47
BRANCH  38  55
ATOM     55  C   UNL A   1      44.856  32.213  31.335  1.00  0.00     0.057 A 
ATOM     56  C   UNL A   1      44.842  32.342  32.729  1.00  0.00     0.134 A 
ATOM     57  C   UNL A   1      45.298  33.308  30.583  1.00  0.00     0.134 A 
ATOM     58  F   UNL A   1      44.422  31.331  33.504  1.00  0.00    -0.206 F 
ATOM     59  C   UNL A   1      45.263  33.517  33.354  1.00  0.00     0.040 A 
ATOM     60  C   UNL A   1      45.744  34.479  31.198  1.00  0.00     0.040 A 
ATOM     61  F   UNL A   1      45.348  33.239  29.245  1.00  0.00    -0.206 F 
ATOM     62  C   UNL A   1      45.724  34.586  32.588  1.00  0.00     0.006 A 
ENDBRANCH  38  55
ENDBRANCH  12  13
ENDBRANCH   5   7
ENDBRANCH   2   3
ENDBRANCH   1   2
BRANCH   1  63
ATOM     63  C   UNL A   1      37.325  23.535  25.793  1.00  0.00     0.118 C 
BRANCH  63  64
ATOM     64  N   UNL A   1      36.927  23.431  24.400  1.00  0.00    -0.351 N 
ATOM     65  C   UNL A   1      35.768  23.524  23.706  1.00  0.00     0.278 C 
ATOM     66  H   UNL A   1      37.695  23.245  23.812  1.00  0.00     0.163 HD
ATOM     67  O   UNL A   1      35.857  22.999  22.586  1.00  0.00    -0.268 OA
BRANCH  65  68
ATOM     68  C   UNL A   1      34.440  24.228  24.139  1.00  0.00     0.279 C 
ATOM     69  C   UNL A   1      33.991  25.296  23.136  1.00  0.00     0.111 C 
ATOM     70  N   UNL A   1      33.346  23.242  24.401  1.00  0.00    -0.317 N 
ATOM     71  C   UNL A   1      32.636  25.895  23.366  1.00  0.00    -0.033 A 
ATOM     72  C   UNL A   1      32.084  23.898  24.801  1.00  0.00     0.300 C 
ATOM     73  H   UNL A   1      33.222  22.787  23.496  1.00  0.00     0.349 HD
ATOM     74  C   UNL A   1      32.279  27.104  22.755  1.00  0.00     0.006 A 
ATOM     75  C   UNL A   1      31.678  25.132  24.036  1.00  0.00     0.011 A 
ATOM     76  C   UNL A   1      30.964  27.560  22.819  1.00  0.00     0.021 A 
ATOM     77  C   UNL A   1      30.356  25.597  24.097  1.00  0.00     0.030 A 
ATOM     78  C   UNL A   1      30.005  26.799  23.482  1.00  0.00     0.041 A 
ATOM     79  Cl  UNL A   1      28.375  27.347  23.543  1.00  0.00    -0.084 Cl
BRANCH  70  80
ATOM     80  C   UNL A   1      33.682  22.150  25.362  1.00  0.00     0.299 C 
BRANCH  80  81
ATOM     81  C   UNL A   1      33.723  20.715  24.841  1.00  0.00     0.006 A 
ATOM     82  C   UNL A   1      32.599  20.109  24.255  1.00  0.00     0.011 A 
ATOM     83  C   UNL A   1      34.901  19.956  24.917  1.00  0.00     0.011 A 
ATOM     84  C   UNL A   1      32.614  18.759  23.887  1.00  0.00     0.021 A 
ATOM     85  C   UNL A   1      34.926  18.610  24.540  1.00  0.00     0.021 A 
ATOM     86  C   UNL A   1      33.774  18.009  24.050  1.00  0.00     0.041 A 
ATOM     87  Cl  UNL A   1      33.786  16.340  23.637  1.00  0.00    -0.084 Cl
ENDBRANCH  80  81
ENDBRANCH  70  80
ENDBRANCH  65  68
ENDBRANCH  63  64
ENDBRANCH   1  63
TORSDOF 12
ENDMDL
MODEL 3
REMARK VINA RESULT:     -12.6      3.382      4.511
REMARK SMILES O=C(NCCCNC(=O)[C@H]1Cc2ccc(Cl)cc2C[N@@H+]1Cc1ccc(Cl)cc1)c1ccc(-c2c3nc(c(-c4c(F)cccc4F)c4ccc([nH]4)c(-c4c(F)cccc4F)c4nc(c(-c5c(F)cccc5F)c5ccc2[nH]5)C=C4)C=C3)cc1
REMARK SMILES IDX 5 1 4 2 3 3 1 4 2 5 29 7 30 8 82 9 31 10 81 11 32 12 33 13
REMARK SMILES IDX 34 14 75 15 35 16 80 17 74 18 76 19 36 20 79 21 73 22 72 23
REMARK SMILES IDX 37 25 63 26 46 27 62 28 47 29 50 30 61 31 77 32 48 33 49 34
REMARK SMILES IDX 60 36 78 37 51 38 38 39 39 40 44 41 40 42 41 43 43 44 45 45
REMARK SMILES IDX 42 46 64 47 65 48 70 49 66 50 67 51 69 52 71 53 68 54 52 55
REMARK SMILES IDX 53 56 58 57 54 58 55 59 57 60 59 61 56 62 6 63 7 64 8 65
REMARK SMILES IDX 9 67 10 68 11 69 20 70 12 71 19 72 13 74 18 75 14 76 17 77
REMARK SMILES IDX 15 78 16 79 21 80 22 81 23 82 28 83 24 84 27 85 25 86 26 87
REMARK H PARENT 3 6 76 24 50 35 7 66 20 73
REMARK Flexibility Score: inf
ROOT
ATOM      1  C   UNL A   1      31.683  30.395  25.706  1.00  0.00     0.042 C 
ENDROOT
BRANCH   1   2
ATOM      2  C   UNL A   1      31.770  30.967  27.120  1.00  0.00     0.118 C 
BRANCH   2   3
ATOM      3  N   UNL A   1      32.054  32.395  27.095  1.00  0.00    -0.352 N 
ATOM      4  O   UNL A   1      32.914  34.317  27.848  1.00  0.00    -0.269 OA
ATOM      5  C   UNL A   1      33.076  33.115  27.655  1.00  0.00     0.251 C 
ATOM      6  H   UNL A   1      31.402  32.933  26.590  1.00  0.00     0.163 HD
BRANCH   5   7
ATOM      7  C   UNL A   1      34.377  32.490  27.987  1.00  0.00     0.039 A 
ATOM      8  C   UNL A   1      34.409  31.113  28.242  1.00  0.00     0.014 A 
ATOM      9  C   UNL A   1      35.522  33.258  28.211  1.00  0.00     0.014 A 
ATOM     10  C   UNL A   1      35.569  30.522  28.747  1.00  0.00     0.010 A 
ATOM     11  C   UNL A   1      36.708  32.652  28.620  1.00  0.00     0.010 A 
ATOM     12  C   UNL A   1      36.722  31.293  28.955  1.00  0.00    -0.014 A 
BRANCH  12  13
ATOM     13  C   UNL A   1      37.895  30.734  29.672  1.00  0.00     0.031 A 
ATOM     14  C   UNL A   1      38.134  31.119  31.111  1.00  0.00     0.074 A 
ATOM     15  C   UNL A   1      38.744  29.899  29.045  1.00  0.00     0.049 A 
ATOM     16  N   UNL A   1      39.125  30.802  31.905  1.00  0.00    -0.248 NA
ATOM     17  C   UNL A   1      37.138  32.011  31.730  1.00  0.00     0.031 C 
ATOM     18  C   UNL A   1      38.643  29.475  27.648  1.00  0.00     0.029 A 
ATOM     19  N   UNL A   1      39.863  29.257  29.509  1.00  0.00    -0.354 N 
ATOM     20  C   UNL A   1      38.881  31.470  33.099  1.00  0.00     0.074 A 
ATOM     21  C   UNL A   1      37.690  32.265  32.905  1.00  0.00     0.031 C 
ATOM     22  C   UNL A   1      39.644  28.621  27.377  1.00  0.00     0.029 A 
ATOM     23  C   UNL A   1      40.467  28.458  28.571  1.00  0.00     0.049 A 
ATOM     24  H   UNL A   1      40.201  29.360  30.428  1.00  0.00     0.167 HD
ATOM     25  C   UNL A   1      39.562  31.403  34.268  1.00  0.00     0.037 A 
ATOM     26  C   UNL A   1      41.559  27.678  28.672  1.00  0.00     0.037 A 
ATOM     27  C   UNL A   1      40.722  30.580  34.478  1.00  0.00     0.049 A 
ATOM     28  C   UNL A   1      42.280  27.594  29.989  1.00  0.00     0.074 A 
ATOM     29  C   UNL A   1      41.480  30.423  35.624  1.00  0.00     0.029 A 
ATOM     30  N   UNL A   1      41.278  29.755  33.512  1.00  0.00    -0.354 N 
ATOM     31  N   UNL A   1      42.026  28.218  31.115  1.00  0.00    -0.248 NA
ATOM     32  C   UNL A   1      43.432  26.685  30.051  1.00  0.00     0.031 C 
ATOM     33  C   UNL A   1      42.505  29.510  35.347  1.00  0.00     0.029 A 
ATOM     34  C   UNL A   1      42.364  29.078  34.038  1.00  0.00     0.049 A 
ATOM     35  H   UNL A   1      40.948  29.663  32.589  1.00  0.00     0.167 HD
ATOM     36  C   UNL A   1      42.971  27.761  32.023  1.00  0.00     0.074 A 
ATOM     37  C   UNL A   1      43.788  26.790  31.323  1.00  0.00     0.031 C 
ATOM     38  C   UNL A   1      43.155  28.113  33.320  1.00  0.00     0.037 A 
BRANCH  25  39
ATOM     39  C   UNL A   1      39.043  32.233  35.407  1.00  0.00     0.057 A 
ATOM     40  C   UNL A   1      38.205  31.678  36.381  1.00  0.00     0.134 A 
ATOM     41  C   UNL A   1      39.391  33.584  35.549  1.00  0.00     0.134 A 
ATOM     42  F   UNL A   1      37.830  30.392  36.306  1.00  0.00    -0.206 F 
ATOM     43  C   UNL A   1      37.739  32.434  37.459  1.00  0.00     0.040 A 
ATOM     44  C   UNL A   1      38.953  34.342  36.637  1.00  0.00     0.040 A 
ATOM     45  F   UNL A   1      40.206  34.172  34.661  1.00  0.00    -0.206 F 
ATOM     46  C   UNL A   1      38.121  33.767  37.595  1.00  0.00     0.006 A 
ENDBRANCH  25  39
BRANCH  26  47
ATOM     47  C   UNL A   1      42.017  26.882  27.508  1.00  0.00     0.057 A 
ATOM     48  C   UNL A   1      42.870  27.425  26.541  1.00  0.00     0.134 A 
ATOM     49  C   UNL A   1      41.629  25.546  27.352  1.00  0.00     0.134 A 
ATOM     50  F   UNL A   1      43.270  28.702  26.630  1.00  0.00    -0.206 F 
ATOM     51  C   UNL A   1      43.326  26.665  25.462  1.00  0.00     0.040 A 
ATOM     52  C   UNL A   1      42.096  24.768  26.291  1.00  0.00     0.040 A 
ATOM     53  F   UNL A   1      40.827  24.966  28.256  1.00  0.00    -0.206 F 
ATOM     54  C   UNL A   1      42.946  25.330  25.340  1.00  0.00     0.006 A 
ENDBRANCH  26  47
BRANCH  38  55
ATOM     55  C   UNL A   1      44.262  27.419  34.056  1.00  0.00     0.057 A 
ATOM     56  C   UNL A   1      44.020  26.219  34.736  1.00  0.00     0.134 A 
ATOM     57  C   UNL A   1      45.563  27.936  34.088  1.00  0.00     0.134 A 
ATOM     58  F   UNL A   1      42.794  25.677  34.749  1.00  0.00    -0.206 F 
ATOM     59  C   UNL A   1      45.040  25.552  35.417  1.00  0.00     0.040 A 
ATOM     60  C   UNL A   1      46.595  27.265  34.745  1.00  0.00     0.040 A 
ATOM     61  F   UNL A   1      45.859  29.074  33.442  1.00  0.00    -0.206 F 
ATOM     62  C   UNL A   1      46.333  26.071  35.415  1.00  0.00     0.006 A 
ENDBRANCH  38  55
ENDBRANCH  12  13
ENDBRANCH   5   7
ENDBRANCH   2   3
ENDBRANCH   1   2
BRANCH   1  63
ATOM     63  C   UNL A   1      32.673  29.253  25.480  1.00  0.00     0.118 C 
BRANCH  63  64
ATOM     64  N   UNL A   1      33.226  29.300  24.138  1.00  0.00    -0.351 N 
ATOM     65  C   UNL A   1      33.693  28.397  23.243  1.00  0.00     0.278 C 
ATOM     66  H   UNL A   1      33.274  30.220  23.792  1.00  0.00     0.163 HD
ATOM     67  O   UNL A   1      34.402  28.931  22.377  1.00  0.00    -0.268 OA
BRANCH  65  68
ATOM     68  C   UNL A   1      33.397  26.862  23.178  1.00  0.00     0.279 C 
ATOM     69  C   UNL A   1      34.035  26.096  24.343  1.00  0.00     0.111 C 
ATOM     70  N   UNL A   1      31.930  26.581  23.088  1.00  0.00    -0.317 N 
ATOM     71  C   UNL A   1      33.655  24.651  24.472  1.00  0.00    -0.033 A 
ATOM     72  C   UNL A   1      31.639  25.133  23.038  1.00  0.00     0.300 C 
ATOM     73  H   UNL A   1      31.564  26.971  23.957  1.00  0.00     0.349 HD
ATOM     74  C   UNL A   1      34.431  23.778  25.247  1.00  0.00     0.006 A 
ATOM     75  C   UNL A   1      32.416  24.243  23.974  1.00  0.00     0.011 A 
ATOM     76  C   UNL A   1      33.976  22.490  25.517  1.00  0.00     0.021 A 
ATOM     77  C   UNL A   1      31.964  22.944  24.251  1.00  0.00     0.030 A 
ATOM     78  C   UNL A   1      32.738  22.081  25.026  1.00  0.00     0.041 A 
ATOM     79  Cl  UNL A   1      32.162  20.498  25.379  1.00  0.00    -0.084 Cl
BRANCH  70  80
ATOM     80  C   UNL A   1      31.207  27.286  21.990  1.00  0.00     0.299 C 
BRANCH  80  81
ATOM     81  C   UNL A   1      30.180  28.352  22.366  1.00  0.00     0.006 A 
ATOM     82  C   UNL A   1      30.358  29.703  22.024  1.00  0.00     0.011 A 
ATOM     83  C   UNL A   1      29.007  28.009  23.057  1.00  0.00     0.011 A 
ATOM     84  C   UNL A   1      29.469  30.687  22.473  1.00  0.00     0.021 A 
ATOM     85  C   UNL A   1      28.109  28.985  23.499  1.00  0.00     0.021 A 
ATOM     86  C   UNL A   1      28.358  30.324  23.227  1.00  0.00     0.041 A 
ATOM     87  Cl  UNL A   1      27.286  31.533  23.815  1.00  0.00    -0.084 Cl
ENDBRANCH  80  81
ENDBRANCH  70  80
ENDBRANCH  65  68
ENDBRANCH  63  64
ENDBRANCH   1  63
TORSDOF 12
ENDMDL
