MODEL 1
REMARK VINA RESULT:     -12.1      0.000      0.000
REMARK SMILES O=C(NCCCNC(=O)[C@H]1[C@H]2C[C@@H]3[C@@H](OC(=O)[C@@H]31)[C@@H]2Sc1ccccc1)c1ccc(-c2c3nc(c(-c4c(F)cccc4F)c4ccc([nH]4)c(-c4c(F)cccc4F)c4nc(c(-c5c(F)cccc5F)c5ccc2[nH]5)C=C4)C=C3)cc1
REMARK SMILES IDX 5 1 4 2 3 3 1 4 2 5 27 7 28 8 80 9 29 10 79 11 30 12 31 13
REMARK SMILES IDX 32 14 73 15 33 16 78 17 72 18 74 19 34 20 77 21 71 22 70 23
REMARK SMILES IDX 35 25 61 26 44 27 60 28 45 29 48 30 59 31 75 32 46 33 47 34
REMARK SMILES IDX 58 36 76 37 49 38 36 39 37 40 42 41 38 42 39 43 41 44 43 45
REMARK SMILES IDX 40 46 62 47 63 48 68 49 64 50 65 51 67 52 69 53 66 54 50 55
REMARK SMILES IDX 51 56 56 57 52 58 53 59 55 60 57 61 54 62 6 63 7 64 8 65
REMARK SMILES IDX 9 67 10 68 11 69 18 70 12 71 19 72 13 73 16 74 14 75 15 76
REMARK SMILES IDX 17 77 20 78 21 79 22 80 26 81 23 82 25 83 24 84
REMARK H PARENT 3 6 74 24 48 35 7 66
REMARK Flexibility Score: inf
ROOT
ATOM      1  C   UNL A   1      33.552  28.835  27.212  1.00  0.00     0.042 C 
ENDROOT
BRANCH   1   2
ATOM      2  C   UNL A   1      34.949  29.325  27.516  1.00  0.00     0.118 C 
BRANCH   2   3
ATOM      3  N   UNL A   1      34.967  30.305  28.606  1.00  0.00    -0.352 N 
ATOM      4  O   UNL A   1      35.638  31.301  30.514  1.00  0.00    -0.269 OA
ATOM      5  C   UNL A   1      35.932  30.618  29.536  1.00  0.00     0.251 C 
ATOM      6  H   UNL A   1      34.140  30.834  28.689  1.00  0.00     0.163 HD
BRANCH   5   7
ATOM      7  C   UNL A   1      37.310  30.118  29.370  1.00  0.00     0.039 A 
ATOM      8  C   UNL A   1      37.964  30.298  28.158  1.00  0.00     0.014 A 
ATOM      9  C   UNL A   1      37.971  29.479  30.425  1.00  0.00     0.014 A 
ATOM     10  C   UNL A   1      39.140  29.624  27.902  1.00  0.00     0.010 A 
ATOM     11  C   UNL A   1      39.257  28.966  30.225  1.00  0.00     0.010 A 
ATOM     12  C   UNL A   1      39.837  29.006  28.949  1.00  0.00    -0.014 A 
BRANCH  12  13
ATOM     13  C   UNL A   1      41.213  28.532  28.673  1.00  0.00     0.031 A 
ATOM     14  C   UNL A   1      41.489  27.120  28.249  1.00  0.00     0.074 A 
ATOM     15  C   UNL A   1      42.215  29.433  28.754  1.00  0.00     0.049 A 
ATOM     16  N   UNL A   1      42.636  26.563  27.956  1.00  0.00    -0.248 NA
ATOM     17  C   UNL A   1      40.337  26.210  28.151  1.00  0.00     0.031 C 
ATOM     18  C   UNL A   1      42.056  30.836  29.160  1.00  0.00     0.029 A 
ATOM     19  N   UNL A   1      43.550  29.327  28.470  1.00  0.00    -0.354 N 
ATOM     20  C   UNL A   1      42.353  25.236  27.667  1.00  0.00     0.074 A 
ATOM     21  C   UNL A   1      40.926  25.063  27.840  1.00  0.00     0.031 C 
ATOM     22  C   UNL A   1      43.223  31.474  29.020  1.00  0.00     0.029 A 
ATOM     23  C   UNL A   1      44.236  30.507  28.629  1.00  0.00     0.049 A 
ATOM     24  H   UNL A   1      43.976  28.489  28.180  1.00  0.00     0.167 HD
ATOM     25  C   UNL A   1      43.210  24.257  27.290  1.00  0.00     0.037 A 
ATOM     26  C   UNL A   1      45.547  30.779  28.512  1.00  0.00     0.037 A 
ATOM     27  C   UNL A   1      44.627  24.455  27.115  1.00  0.00     0.049 A 
ATOM     28  C   UNL A   1      46.474  29.664  28.138  1.00  0.00     0.074 A 
ATOM     29  C   UNL A   1      45.582  23.535  26.713  1.00  0.00     0.029 A 
ATOM     30  N   UNL A   1      45.296  25.650  27.336  1.00  0.00    -0.354 N 
ATOM     31  N   UNL A   1      46.188  28.417  27.853  1.00  0.00    -0.248 NA
ATOM     32  C   UNL A   1      47.902  29.989  28.082  1.00  0.00     0.031 C 
ATOM     33  C   UNL A   1      46.833  24.159  26.748  1.00  0.00     0.029 A 
ATOM     34  C   UNL A   1      46.653  25.485  27.108  1.00  0.00     0.049 A 
ATOM     35  H   UNL A   1      44.869  26.492  27.615  1.00  0.00     0.167 HD
ATOM     36  C   UNL A   1      47.401  27.810  27.566  1.00  0.00     0.074 A 
ATOM     37  C   UNL A   1      48.419  28.835  27.687  1.00  0.00     0.031 C 
ATOM     38  C   UNL A   1      47.650  26.519  27.234  1.00  0.00     0.037 A 
BRANCH  25  39
ATOM     39  C   UNL A   1      42.649  22.880  27.074  1.00  0.00     0.057 A 
ATOM     40  C   UNL A   1      42.487  22.331  25.796  1.00  0.00     0.134 A 
ATOM     41  C   UNL A   1      42.307  22.073  28.169  1.00  0.00     0.134 A 
ATOM     42  F   UNL A   1      42.781  23.052  24.703  1.00  0.00    -0.206 F 
ATOM     43  C   UNL A   1      41.987  21.039  25.613  1.00  0.00     0.040 A 
ATOM     44  C   UNL A   1      41.833  20.771  27.999  1.00  0.00     0.040 A 
ATOM     45  F   UNL A   1      42.441  22.533  29.421  1.00  0.00    -0.206 F 
ATOM     46  C   UNL A   1      41.666  20.252  26.717  1.00  0.00     0.006 A 
ENDBRANCH  25  39
BRANCH  26  47
ATOM     47  C   UNL A   1      46.048  32.148  28.791  1.00  0.00     0.057 A 
ATOM     48  C   UNL A   1      46.405  32.541  30.085  1.00  0.00     0.134 A 
ATOM     49  C   UNL A   1      46.196  33.093  27.767  1.00  0.00     0.134 A 
ATOM     50  F   UNL A   1      46.277  31.686  31.110  1.00  0.00    -0.206 F 
ATOM     51  C   UNL A   1      46.871  33.829  30.354  1.00  0.00     0.040 A 
ATOM     52  C   UNL A   1      46.693  34.372  28.015  1.00  0.00     0.040 A 
ATOM     53  F   UNL A   1      45.886  32.774  26.501  1.00  0.00    -0.206 F 
ATOM     54  C   UNL A   1      47.022  34.746  29.315  1.00  0.00     0.006 A 
ENDBRANCH  26  47
BRANCH  38  55
ATOM     55  C   UNL A   1      49.078  26.162  26.945  1.00  0.00     0.057 A 
ATOM     56  C   UNL A   1      49.935  25.667  27.936  1.00  0.00     0.134 A 
ATOM     57  C   UNL A   1      49.596  26.302  25.651  1.00  0.00     0.134 A 
ATOM     58  F   UNL A   1      49.505  25.526  29.200  1.00  0.00    -0.206 F 
ATOM     59  C   UNL A   1      51.265  25.351  27.657  1.00  0.00     0.040 A 
ATOM     60  C   UNL A   1      50.914  25.959  25.353  1.00  0.00     0.040 A 
ATOM     61  F   UNL A   1      48.826  26.765  24.655  1.00  0.00    -0.206 F 
ATOM     62  C   UNL A   1      51.755  25.491  26.359  1.00  0.00     0.006 A 
ENDBRANCH  38  55
ENDBRANCH  12  13
ENDBRANCH   5   7
ENDBRANCH   2   3
ENDBRANCH   1   2
BRANCH   1  63
ATOM     63  C   UNL A   1      33.488  28.141  25.874  1.00  0.00     0.117 C 
BRANCH  63  64
ATOM     64  N   UNL A   1      32.143  27.806  25.452  1.00  0.00    -0.356 N 
ATOM     65  C   UNL A   1      31.592  26.703  24.894  1.00  0.00     0.224 C 
ATOM     66  H   UNL A   1      31.495  28.531  25.604  1.00  0.00     0.163 HD
ATOM     67  O   UNL A   1      30.356  26.676  24.861  1.00  0.00    -0.275 OA
BRANCH  65  68
ATOM     68  C   UNL A   1      32.364  25.528  24.307  1.00  0.00     0.097 C 
ATOM     69  C   UNL A   1      32.373  24.155  25.017  1.00  0.00     0.020 C 
ATOM     70  C   UNL A   1      31.902  25.144  22.877  1.00  0.00     0.119 C 
ATOM     71  C   UNL A   1      31.139  23.482  24.382  1.00  0.00     0.014 C 
ATOM     72  C   UNL A   1      33.557  23.366  24.406  1.00  0.00     0.097 C 
ATOM     73  C   UNL A   1      31.621  23.643  22.976  1.00  0.00     0.047 C 
ATOM     74  C   UNL A   1      33.053  25.115  21.911  1.00  0.00     0.310 C 
ATOM     75  C   UNL A   1      33.037  23.079  22.972  1.00  0.00     0.194 C 
ATOM     76  O   UNL A   1      33.698  23.903  22.001  1.00  0.00    -0.461 OA
ATOM     77  O   UNL A   1      33.393  26.021  21.176  1.00  0.00    -0.252 OA
BRANCH  72  78
ATOM     78  S   UNL A   1      34.222  21.927  25.350  1.00  0.00    -0.119 SA
BRANCH  78  79
ATOM     79  C   UNL A   1      35.941  22.289  25.625  1.00  0.00     0.008 A 
ATOM     80  C   UNL A   1      36.334  23.561  26.060  1.00  0.00     0.015 A 
ATOM     81  C   UNL A   1      36.924  21.341  25.327  1.00  0.00     0.015 A 
ATOM     82  C   UNL A   1      37.688  23.858  26.249  1.00  0.00     0.001 A 
ATOM     83  C   UNL A   1      38.275  21.626  25.545  1.00  0.00     0.001 A 
ATOM     84  C   UNL A   1      38.656  22.884  26.009  1.00  0.00     0.000 A 
ENDBRANCH  78  79
ENDBRANCH  72  78
ENDBRANCH  65  68
ENDBRANCH  63  64
ENDBRANCH   1  63
TORSDOF 12
ENDMDL
MODEL 2
REMARK VINA RESULT:     -12.0      5.076      9.200
REMARK SMILES O=C(NCCCNC(=O)[C@H]1[C@H]2C[C@@H]3[C@@H](OC(=O)[C@@H]31)[C@@H]2Sc1ccccc1)c1ccc(-c2c3nc(c(-c4c(F)cccc4F)c4ccc([nH]4)c(-c4c(F)cccc4F)c4nc(c(-c5c(F)cccc5F)c5ccc2[nH]5)C=C4)C=C3)cc1
REMARK SMILES IDX 5 1 4 2 3 3 1 4 2 5 27 7 28 8 80 9 29 10 79 11 30 12 31 13
REMARK SMILES IDX 32 14 73 15 33 16 78 17 72 18 74 19 34 20 77 21 71 22 70 23
REMARK SMILES IDX 35 25 61 26 44 27 60 28 45 29 48 30 59 31 75 32 46 33 47 34
REMARK SMILES IDX 58 36 76 37 49 38 36 39 37 40 42 41 38 42 39 43 41 44 43 45
REMARK SMILES IDX 40 46 62 47 63 48 68 49 64 50 65 51 67 52 69 53 66 54 50 55
REMARK SMILES IDX 51 56 56 57 52 58 53 59 55 60 57 61 54 62 6 63 7 64 8 65
REMARK SMILES IDX 9 67 10 68 11 69 18 70 12 71 19 72 13 73 16 74 14 75 15 76
REMARK SMILES IDX 17 77 20 78 21 79 22 80 26 81 23 82 25 83 24 84
REMARK H PARENT 3 6 74 24 48 35 7 66
REMARK Flexibility Score: inf
ROOT
ATOM      1  C   UNL A   1      31.910  31.335  27.216  1.00  0.00     0.042 C 
ENDROOT
BRANCH   1   2
ATOM      2  C   UNL A   1      32.673  32.466  26.566  1.00  0.00     0.118 C 
BRANCH   2   3
ATOM      3  N   UNL A   1      32.458  33.744  27.251  1.00  0.00    -0.352 N 
ATOM      4  O   UNL A   1      32.528  35.265  28.914  1.00  0.00    -0.269 OA
ATOM      5  C   UNL A   1      33.039  34.286  28.376  1.00  0.00     0.251 C 
ATOM      6  H   UNL A   1      31.775  34.318  26.833  1.00  0.00     0.163 HD
BRANCH   5   7
ATOM      7  C   UNL A   1      34.258  33.681  28.944  1.00  0.00     0.039 A 
ATOM      8  C   UNL A   1      34.153  32.561  29.758  1.00  0.00     0.014 A 
ATOM      9  C   UNL A   1      35.520  34.215  28.660  1.00  0.00     0.014 A 
ATOM     10  C   UNL A   1      35.241  32.139  30.494  1.00  0.00     0.010 A 
ATOM     11  C   UNL A   1      36.657  33.656  29.255  1.00  0.00     0.010 A 
ATOM     12  C   UNL A   1      36.519  32.634  30.205  1.00  0.00    -0.014 A 
BRANCH  12  13
ATOM     13  C   UNL A   1      37.677  31.958  30.836  1.00  0.00     0.031 A 
ATOM     14  C   UNL A   1      38.089  32.257  32.246  1.00  0.00     0.074 A 
ATOM     15  C   UNL A   1      38.318  31.012  30.118  1.00  0.00     0.049 A 
ATOM     16  N   UNL A   1      39.068  31.736  32.940  1.00  0.00    -0.248 NA
ATOM     17  C   UNL A   1      37.316  33.277  32.971  1.00  0.00     0.031 C 
ATOM     18  C   UNL A   1      37.999  30.644  28.732  1.00  0.00     0.029 A 
ATOM     19  N   UNL A   1      39.339  30.163  30.452  1.00  0.00    -0.354 N 
ATOM     20  C   UNL A   1      39.049  32.379  34.169  1.00  0.00     0.074 A 
ATOM     21  C   UNL A   1      37.974  33.347  34.121  1.00  0.00     0.031 C 
ATOM     22  C   UNL A   1      38.746  29.597  28.367  1.00  0.00     0.029 A 
ATOM     23  C   UNL A   1      39.677  29.294  29.443  1.00  0.00     0.049 A 
ATOM     24  H   UNL A   1      39.787  30.175  31.328  1.00  0.00     0.167 HD
ATOM     25  C   UNL A   1      39.858  32.175  35.237  1.00  0.00     0.037 A 
ATOM     26  C   UNL A   1      40.654  28.374  29.371  1.00  0.00     0.037 A 
ATOM     27  C   UNL A   1      40.918  31.198  35.266  1.00  0.00     0.049 A 
ATOM     28  C   UNL A   1      41.559  28.204  30.552  1.00  0.00     0.074 A 
ATOM     29  C   UNL A   1      41.780  30.894  36.306  1.00  0.00     0.029 A 
ATOM     30  N   UNL A   1      41.265  30.371  34.207  1.00  0.00    -0.354 N 
ATOM     31  N   UNL A   1      41.518  28.810  31.714  1.00  0.00    -0.248 NA
ATOM     32  C   UNL A   1      42.649  27.235  30.409  1.00  0.00     0.031 C 
ATOM     33  C   UNL A   1      42.685  29.926  35.856  1.00  0.00     0.029 A 
ATOM     34  C   UNL A   1      42.347  29.579  34.558  1.00  0.00     0.049 A 
ATOM     35  H   UNL A   1      40.810  30.350  33.335  1.00  0.00     0.167 HD
ATOM     36  C   UNL A   1      42.569  28.284  32.449  1.00  0.00     0.074 A 
ATOM     37  C   UNL A   1      43.209  27.291  31.609  1.00  0.00     0.031 C 
ATOM     38  C   UNL A   1      42.970  28.596  33.707  1.00  0.00     0.037 A 
BRANCH  25  39
ATOM     39  C   UNL A   1      39.652  33.041  36.447  1.00  0.00     0.057 A 
ATOM     40  C   UNL A   1      38.753  32.702  37.465  1.00  0.00     0.134 A 
ATOM     41  C   UNL A   1      40.403  34.214  36.616  1.00  0.00     0.134 A 
ATOM     42  F   UNL A   1      37.992  31.601  37.363  1.00  0.00    -0.206 F 
ATOM     43  C   UNL A   1      38.592  33.506  38.597  1.00  0.00     0.040 A 
ATOM     44  C   UNL A   1      40.270  35.010  37.755  1.00  0.00     0.040 A 
ATOM     45  F   UNL A   1      41.286  34.598  35.683  1.00  0.00    -0.206 F 
ATOM     46  C   UNL A   1      39.358  34.660  38.747  1.00  0.00     0.006 A 
ENDBRANCH  25  39
BRANCH  26  47
ATOM     47  C   UNL A   1      40.840  27.586  28.128  1.00  0.00     0.057 A 
ATOM     48  C   UNL A   1      40.222  26.343  27.956  1.00  0.00     0.134 A 
ATOM     49  C   UNL A   1      41.630  28.064  27.073  1.00  0.00     0.134 A 
ATOM     50  F   UNL A   1      39.462  25.826  28.932  1.00  0.00    -0.206 F 
ATOM     51  C   UNL A   1      40.400  25.595  26.790  1.00  0.00     0.040 A 
ATOM     52  C   UNL A   1      41.788  27.344  25.889  1.00  0.00     0.040 A 
ATOM     53  F   UNL A   1      42.237  29.256  27.168  1.00  0.00    -0.206 F 
ATOM     54  C   UNL A   1      41.179  26.099  25.750  1.00  0.00     0.006 A 
ENDBRANCH  26  47
BRANCH  38  55
ATOM     55  C   UNL A   1      44.133  27.823  34.254  1.00  0.00     0.057 A 
ATOM     56  C   UNL A   1      43.968  26.591  34.899  1.00  0.00     0.134 A 
ATOM     57  C   UNL A   1      45.437  28.314  34.118  1.00  0.00     0.134 A 
ATOM     58  F   UNL A   1      42.741  26.075  35.078  1.00  0.00    -0.206 F 
ATOM     59  C   UNL A   1      45.056  25.888  35.416  1.00  0.00     0.040 A 
ATOM     60  C   UNL A   1      46.536  27.605  34.602  1.00  0.00     0.040 A 
ATOM     61  F   UNL A   1      45.665  29.486  33.504  1.00  0.00    -0.206 F 
ATOM     62  C   UNL A   1      46.347  26.393  35.261  1.00  0.00     0.006 A 
ENDBRANCH  38  55
ENDBRANCH  12  13
ENDBRANCH   5   7
ENDBRANCH   2   3
ENDBRANCH   1   2
BRANCH   1  63
ATOM     63  C   UNL A   1      32.660  30.029  27.109  1.00  0.00     0.117 C 
BRANCH  63  64
ATOM     64  N   UNL A   1      33.193  29.767  25.788  1.00  0.00    -0.356 N 
ATOM     65  C   UNL A   1      32.681  29.183  24.679  1.00  0.00     0.224 C 
ATOM     66  H   UNL A   1      34.120  30.078  25.673  1.00  0.00     0.163 HD
ATOM     67  O   UNL A   1      33.345  29.318  23.645  1.00  0.00    -0.275 OA
BRANCH  65  68
ATOM     68  C   UNL A   1      31.387  28.382  24.617  1.00  0.00     0.097 C 
ATOM     69  C   UNL A   1      30.376  28.602  23.469  1.00  0.00     0.020 C 
ATOM     70  C   UNL A   1      31.617  26.849  24.549  1.00  0.00     0.119 C 
ATOM     71  C   UNL A   1      30.889  27.591  22.421  1.00  0.00     0.014 C 
ATOM     72  C   UNL A   1      29.045  27.970  23.944  1.00  0.00     0.097 C 
ATOM     73  C   UNL A   1      30.797  26.411  23.334  1.00  0.00     0.047 C 
ATOM     74  C   UNL A   1      30.862  26.127  25.630  1.00  0.00     0.310 C 
ATOM     75  C   UNL A   1      29.384  26.455  23.904  1.00  0.00     0.194 C 
ATOM     76  O   UNL A   1      29.563  25.924  25.224  1.00  0.00    -0.461 OA
ATOM     77  O   UNL A   1      31.305  25.789  26.709  1.00  0.00    -0.252 OA
BRANCH  72  78
ATOM     78  S   UNL A   1      27.486  28.493  23.107  1.00  0.00    -0.119 SA
BRANCH  78  79
ATOM     79  C   UNL A   1      27.767  30.166  22.575  1.00  0.00     0.008 A 
ATOM     80  C   UNL A   1      28.028  30.444  21.228  1.00  0.00     0.015 A 
ATOM     81  C   UNL A   1      27.819  31.208  23.505  1.00  0.00     0.015 A 
ATOM     82  C   UNL A   1      28.278  31.756  20.810  1.00  0.00     0.001 A 
ATOM     83  C   UNL A   1      28.038  32.523  23.085  1.00  0.00     0.001 A 
ATOM     84  C   UNL A   1      28.265  32.797  21.738  1.00  0.00     0.000 A 
ENDBRANCH  78  79
ENDBRANCH  72  78
ENDBRANCH  65  68
ENDBRANCH  63  64
ENDBRANCH   1  63
TORSDOF 12
ENDMDL
MODEL 3
REMARK VINA RESULT:     -12.0      1.517      1.765
REMARK SMILES O=C(NCCCNC(=O)[C@H]1[C@H]2C[C@@H]3[C@@H](OC(=O)[C@@H]31)[C@@H]2Sc1ccccc1)c1ccc(-c2c3nc(c(-c4c(F)cccc4F)c4ccc([nH]4)c(-c4c(F)cccc4F)c4nc(c(-c5c(F)cccc5F)c5ccc2[nH]5)C=C4)C=C3)cc1
REMARK SMILES IDX 5 1 4 2 3 3 1 4 2 5 27 7 28 8 80 9 29 10 79 11 30 12 31 13
REMARK SMILES IDX 32 14 73 15 33 16 78 17 72 18 74 19 34 20 77 21 71 22 70 23
REMARK SMILES IDX 35 25 61 26 44 27 60 28 45 29 48 30 59 31 75 32 46 33 47 34
REMARK SMILES IDX 58 36 76 37 49 38 36 39 37 40 42 41 38 42 39 43 41 44 43 45
REMARK SMILES IDX 40 46 62 47 63 48 68 49 64 50 65 51 67 52 69 53 66 54 50 55
REMARK SMILES IDX 51 56 56 57 52 58 53 59 55 60 57 61 54 62 6 63 7 64 8 65
REMARK SMILES IDX 9 67 10 68 11 69 18 70 12 71 19 72 13 73 16 74 14 75 15 76
REMARK SMILES IDX 17 77 20 78 21 79 22 80 26 81 23 82 25 83 24 84
REMARK H PARENT 3 6 74 24 48 35 7 66
REMARK Flexibility Score: inf
ROOT
ATOM      1  C   UNL A   1      33.776  28.445  25.619  1.00  0.00     0.042 C 
ENDROOT
BRANCH   1   2
ATOM      2  C   UNL A   1      34.120  28.530  27.087  1.00  0.00     0.118 C 
BRANCH   2   3
ATOM      3  N   UNL A   1      34.033  29.901  27.597  1.00  0.00    -0.352 N 
ATOM      4  O   UNL A   1      34.511  31.690  28.883  1.00  0.00    -0.269 OA
ATOM      5  C   UNL A   1      34.899  30.647  28.364  1.00  0.00     0.251 C 
ATOM      6  H   UNL A   1      33.206  30.374  27.348  1.00  0.00     0.163 HD
BRANCH   5   7
ATOM      7  C   UNL A   1      36.284  30.184  28.579  1.00  0.00     0.039 A 
ATOM      8  C   UNL A   1      37.235  30.382  27.586  1.00  0.00     0.014 A 
ATOM      9  C   UNL A   1      36.652  29.563  29.777  1.00  0.00     0.014 A 
ATOM     10  C   UNL A   1      38.453  29.739  27.662  1.00  0.00     0.010 A 
ATOM     11  C   UNL A   1      37.958  29.085  29.935  1.00  0.00     0.010 A 
ATOM     12  C   UNL A   1      38.859  29.140  28.861  1.00  0.00    -0.014 A 
BRANCH  12  13
ATOM     13  C   UNL A   1      40.270  28.703  28.970  1.00  0.00     0.031 A 
ATOM     14  C   UNL A   1      40.715  27.354  28.489  1.00  0.00     0.074 A 
ATOM     15  C   UNL A   1      41.164  29.587  29.461  1.00  0.00     0.049 A 
ATOM     16  N   UNL A   1      41.917  26.837  28.501  1.00  0.00    -0.248 NA
ATOM     17  C   UNL A   1      39.684  26.464  27.935  1.00  0.00     0.031 C 
ATOM     18  C   UNL A   1      40.835  30.930  29.960  1.00  0.00     0.029 A 
ATOM     19  N   UNL A   1      42.525  29.516  29.592  1.00  0.00    -0.354 N 
ATOM     20  C   UNL A   1      41.786  25.556  27.985  1.00  0.00     0.074 A 
ATOM     21  C   UNL A   1      40.382  25.363  27.688  1.00  0.00     0.031 C 
ATOM     22  C   UNL A   1      41.965  31.579  30.263  1.00  0.00     0.029 A 
ATOM     23  C   UNL A   1      43.084  30.667  30.093  1.00  0.00     0.049 A 
ATOM     24  H   UNL A   1      43.050  28.720  29.352  1.00  0.00     0.167 HD
ATOM     25  C   UNL A   1      42.754  24.630  27.779  1.00  0.00     0.037 A 
ATOM     26  C   UNL A   1      44.357  30.951  30.419  1.00  0.00     0.037 A 
ATOM     27  C   UNL A   1      44.148  24.848  28.074  1.00  0.00     0.049 A 
ATOM     28  C   UNL A   1      45.395  29.890  30.221  1.00  0.00     0.074 A 
ATOM     29  C   UNL A   1      45.214  23.984  27.881  1.00  0.00     0.029 A 
ATOM     30  N   UNL A   1      44.671  26.007  28.629  1.00  0.00    -0.354 N 
ATOM     31  N   UNL A   1      45.258  28.688  29.717  1.00  0.00    -0.248 NA
ATOM     32  C   UNL A   1      46.759  30.219  30.646  1.00  0.00     0.031 C 
ATOM     33  C   UNL A   1      46.369  24.599  28.373  1.00  0.00     0.029 A 
ATOM     34  C   UNL A   1      46.038  25.870  28.813  1.00  0.00     0.049 A 
ATOM     35  H   UNL A   1      44.148  26.808  28.859  1.00  0.00     0.167 HD
ATOM     36  C   UNL A   1      46.522  28.120  29.749  1.00  0.00     0.074 A 
ATOM     37  C   UNL A   1      47.415  29.123  30.297  1.00  0.00     0.031 C 
ATOM     38  C   UNL A   1      46.909  26.880  29.361  1.00  0.00     0.037 A 
BRANCH  25  39
ATOM     39  C   UNL A   1      42.338  23.291  27.240  1.00  0.00     0.057 A 
ATOM     40  C   UNL A   1      42.365  22.995  25.872  1.00  0.00     0.134 A 
ATOM     41  C   UNL A   1      41.947  22.265  28.113  1.00  0.00     0.134 A 
ATOM     42  F   UNL A   1      42.715  23.933  24.979  1.00  0.00    -0.206 F 
ATOM     43  C   UNL A   1      41.999  21.735  25.389  1.00  0.00     0.040 A 
ATOM     44  C   UNL A   1      41.606  20.995  27.644  1.00  0.00     0.040 A 
ATOM     45  F   UNL A   1      41.903  22.477  29.436  1.00  0.00    -0.206 F 
ATOM     46  C   UNL A   1      41.626  20.729  26.277  1.00  0.00     0.006 A 
ENDBRANCH  25  39
BRANCH  26  47
ATOM     47  C   UNL A   1      44.696  32.275  30.998  1.00  0.00     0.057 A 
ATOM     48  C   UNL A   1      44.646  32.499  32.377  1.00  0.00     0.134 A 
ATOM     49  C   UNL A   1      45.094  33.345  30.185  1.00  0.00     0.134 A 
ATOM     50  F   UNL A   1      44.263  31.518  33.207  1.00  0.00    -0.206 F 
ATOM     51  C   UNL A   1      44.959  33.744  32.926  1.00  0.00     0.040 A 
ATOM     52  C   UNL A   1      45.443  34.584  30.722  1.00  0.00     0.040 A 
ATOM     53  F   UNL A   1      45.179  33.192  28.855  1.00  0.00    -0.206 F 
ATOM     54  C   UNL A   1      45.365  34.789  32.097  1.00  0.00     0.006 A 
ENDBRANCH  26  47
BRANCH  38  55
ATOM     55  C   UNL A   1      48.370  26.561  29.486  1.00  0.00     0.057 A 
ATOM     56  C   UNL A   1      48.898  25.939  30.624  1.00  0.00     0.134 A 
ATOM     57  C   UNL A   1      49.254  26.868  28.445  1.00  0.00     0.134 A 
ATOM     58  F   UNL A   1      48.106  25.636  31.665  1.00  0.00    -0.206 F 
ATOM     59  C   UNL A   1      50.261  25.660  30.735  1.00  0.00     0.040 A 
ATOM     60  C   UNL A   1      50.613  26.564  28.530  1.00  0.00     0.040 A 
ATOM     61  F   UNL A   1      48.811  27.459  27.325  1.00  0.00    -0.206 F 
ATOM     62  C   UNL A   1      51.121  25.966  29.681  1.00  0.00     0.006 A 
ENDBRANCH  38  55
ENDBRANCH  12  13
ENDBRANCH   5   7
ENDBRANCH   2   3
ENDBRANCH   1   2
BRANCH   1  63
ATOM     63  C   UNL A   1      32.340  28.834  25.363  1.00  0.00     0.117 C 
BRANCH  63  64
ATOM     64  N   UNL A   1      31.379  27.835  25.787  1.00  0.00    -0.356 N 
ATOM     65  C   UNL A   1      31.324  26.489  25.664  1.00  0.00     0.224 C 
ATOM     66  H   UNL A   1      30.606  28.215  26.264  1.00  0.00     0.163 HD
ATOM     67  O   UNL A   1      30.456  25.922  26.338  1.00  0.00    -0.275 OA
BRANCH  65  68
ATOM     68  C   UNL A   1      32.221  25.643  24.768  1.00  0.00     0.097 C 
ATOM     69  C   UNL A   1      32.252  24.105  24.909  1.00  0.00     0.020 C 
ATOM     70  C   UNL A   1      31.919  25.819  23.257  1.00  0.00     0.119 C 
ATOM     71  C   UNL A   1      31.128  23.692  23.936  1.00  0.00     0.014 C 
ATOM     72  C   UNL A   1      33.536  23.635  24.182  1.00  0.00     0.097 C 
ATOM     73  C   UNL A   1      31.727  24.387  22.755  1.00  0.00     0.047 C 
ATOM     74  C   UNL A   1      33.155  26.187  22.484  1.00  0.00     0.310 C 
ATOM     75  C   UNL A   1      33.171  23.901  22.696  1.00  0.00     0.194 C 
ATOM     76  O   UNL A   1      33.864  25.047  22.185  1.00  0.00    -0.461 OA
ATOM     77  O   UNL A   1      33.502  27.312  22.184  1.00  0.00    -0.252 OA
BRANCH  72  78
ATOM     78  S   UNL A   1      34.201  21.961  24.585  1.00  0.00    -0.119 SA
BRANCH  78  79
ATOM     79  C   UNL A   1      35.858  22.234  25.170  1.00  0.00     0.008 A 
ATOM     80  C   UNL A   1      36.228  23.483  25.684  1.00  0.00     0.015 A 
ATOM     81  C   UNL A   1      36.830  21.238  25.044  1.00  0.00     0.015 A 
ATOM     82  C   UNL A   1      37.539  23.710  26.120  1.00  0.00     0.001 A 
ATOM     83  C   UNL A   1      38.131  21.453  25.506  1.00  0.00     0.001 A 
ATOM     84  C   UNL A   1      38.483  22.688  26.046  1.00  0.00     0.000 A 
ENDBRANCH  78  79
ENDBRANCH  72  78
ENDBRANCH  65  68
ENDBRANCH  63  64
ENDBRANCH   1  63
TORSDOF 12
ENDMDL
