MODEL 1
REMARK VINA RESULT:     -10.8      0.000      0.000
REMARK SMILES CO[C@@H]1C[C@@H](C(=O)NCCCNC(=O)c2ccc(-c3c4nc(c(-c5c(F)cccc5F)c5ccc([nH]5)c(-c5c(F)cccc5F)c5nc(c(-c6c(F)cccc6F)c6ccc3[nH]6)C=C5)C=C4)cc2)N(C(=O)CSc2cccs2)C1
REMARK SMILES IDX 9 1 8 2 6 3 7 4 5 6 3 7 4 8 79 9 69 10 2 11 1 12 70 13 71 14
REMARK SMILES IDX 72 15 73 16 74 17 75 18 78 19 76 20 77 21 10 22 11 23 12 24
REMARK SMILES IDX 13 25 14 27 15 28 16 29 68 30 17 31 67 32 18 33 19 34 20 35
REMARK SMILES IDX 61 36 21 37 66 38 60 39 62 40 22 41 65 42 59 43 58 44 23 46
REMARK SMILES IDX 49 47 32 48 48 49 33 50 36 51 47 52 63 53 34 54 35 55 46 57
REMARK SMILES IDX 64 58 37 59 24 60 25 61 30 62 26 63 27 64 29 65 31 66 28 67
REMARK SMILES IDX 50 68 51 69 56 70 52 71 53 72 55 73 57 74 54 75 38 76 39 77
REMARK SMILES IDX 44 78 40 79 41 80 43 81 45 82 42 83
REMARK H PARENT 8 5 12 26 62 45 36 56
REMARK Flexibility Score: inf
ROOT
ATOM      1  C   UNL A   1      36.134  20.706  24.881  1.00  0.00     0.117 C 
ENDROOT
BRANCH   1   2
ATOM      2  N   UNL A   1      35.604  21.155  26.156  1.00  0.00    -0.354 N 
ATOM      3  C   UNL A   1      34.676  22.093  26.490  1.00  0.00     0.242 C 
ATOM      4  O   UNL A   1      34.287  22.081  27.664  1.00  0.00    -0.273 OA
ATOM      5  H   UNL A   1      35.993  20.691  26.932  1.00  0.00     0.163 HD
BRANCH   3   6
ATOM      6  C   UNL A   1      34.016  23.043  25.474  1.00  0.00     0.177 C 
ATOM      7  C   UNL A   1      32.514  24.928  25.362  1.00  0.00     0.139 C 
ATOM      8  C   UNL A   1      33.694  24.379  26.158  1.00  0.00     0.069 C 
ATOM      9  C   UNL A   1      31.741  23.660  24.987  1.00  0.00     0.152 C 
ATOM     10  N   UNL A   1      32.753  22.617  24.867  1.00  0.00    -0.327 N 
BRANCH   7  11
ATOM     11  O   UNL A   1      33.041  25.616  24.223  1.00  0.00    -0.380 OA
ATOM     12  C   UNL A   1      33.849  26.735  24.569  1.00  0.00     0.195 C 
ENDBRANCH   7  11
BRANCH  10  13
ATOM     13  C   UNL A   1      32.558  21.570  23.986  1.00  0.00     0.233 C 
ATOM     14  O   UNL A   1      32.501  21.774  22.769  1.00  0.00    -0.274 OA
BRANCH  13  15
ATOM     15  C   UNL A   1      32.310  20.174  24.537  1.00  0.00     0.175 C 
BRANCH  15  16
ATOM     16  S   UNL A   1      32.370  18.927  23.223  1.00  0.00    -0.105 SA
BRANCH  16  17
ATOM     17  C   UNL A   1      33.212  17.642  24.070  1.00  0.00     0.060 A 
ATOM     18  C   UNL A   1      34.440  17.120  23.729  1.00  0.00     0.027 A 
ATOM     19  S   UNL A   1      32.556  16.881  25.451  1.00  0.00    -0.137 S 
ATOM     20  C   UNL A   1      34.870  16.117  24.646  1.00  0.00     0.013 A 
ATOM     21  C   UNL A   1      33.944  15.901  25.643  1.00  0.00     0.066 A 
ENDBRANCH  16  17
ENDBRANCH  15  16
ENDBRANCH  13  15
ENDBRANCH  10  13
ENDBRANCH   3   6
ENDBRANCH   1   2
BRANCH   1  22
ATOM     22  C   UNL A   1      37.338  19.773  24.975  1.00  0.00     0.042 C 
BRANCH  22  23
ATOM     23  C   UNL A   1      38.589  20.375  25.608  1.00  0.00     0.118 C 
BRANCH  23  24
ATOM     24  N   UNL A   1      39.664  19.407  25.728  1.00  0.00    -0.352 N 
ATOM     25  C   UNL A   1      40.991  19.601  26.027  1.00  0.00     0.251 C 
ATOM     26  H   UNL A   1      39.403  18.472  25.569  1.00  0.00     0.163 HD
ATOM     27  O   UNL A   1      41.783  18.678  25.854  1.00  0.00    -0.269 OA
BRANCH  25  28
ATOM     28  C   UNL A   1      41.489  20.896  26.552  1.00  0.00     0.039 A 
ATOM     29  C   UNL A   1      41.387  21.142  27.926  1.00  0.00     0.014 A 
ATOM     30  C   UNL A   1      41.960  21.905  25.705  1.00  0.00     0.014 A 
ATOM     31  C   UNL A   1      41.778  22.378  28.452  1.00  0.00     0.010 A 
ATOM     32  C   UNL A   1      42.396  23.123  26.236  1.00  0.00     0.010 A 
ATOM     33  C   UNL A   1      42.293  23.378  27.614  1.00  0.00    -0.014 A 
BRANCH  33  34
ATOM     34  C   UNL A   1      42.683  24.704  28.161  1.00  0.00     0.031 A 
ATOM     35  C   UNL A   1      41.643  25.769  28.389  1.00  0.00     0.074 A 
ATOM     36  C   UNL A   1      43.975  24.972  28.430  1.00  0.00     0.049 A 
ATOM     37  N   UNL A   1      41.795  26.996  28.821  1.00  0.00    -0.248 NA
ATOM     38  C   UNL A   1      40.251  25.412  28.073  1.00  0.00     0.031 C 
ATOM     39  C   UNL A   1      45.090  24.045  28.233  1.00  0.00     0.029 A 
ATOM     40  N   UNL A   1      44.569  26.107  28.924  1.00  0.00    -0.354 N 
ATOM     41  C   UNL A   1      40.526  27.561  28.812  1.00  0.00     0.074 A 
ATOM     42  C   UNL A   1      39.619  26.555  28.303  1.00  0.00     0.031 C 
ATOM     43  C   UNL A   1      46.230  24.643  28.618  1.00  0.00     0.029 A 
ATOM     44  C   UNL A   1      45.930  26.001  29.064  1.00  0.00     0.049 A 
ATOM     45  H   UNL A   1      44.065  26.920  29.158  1.00  0.00     0.167 HD
ATOM     46  C   UNL A   1      40.146  28.801  29.205  1.00  0.00     0.037 A 
ATOM     47  C   UNL A   1      46.837  26.898  29.498  1.00  0.00     0.037 A 
ATOM     48  C   UNL A   1      41.031  29.795  29.752  1.00  0.00     0.049 A 
ATOM     49  C   UNL A   1      46.388  28.264  29.935  1.00  0.00     0.074 A 
ATOM     50  C   UNL A   1      40.719  31.052  30.242  1.00  0.00     0.029 A 
ATOM     51  N   UNL A   1      42.401  29.644  29.887  1.00  0.00    -0.354 N 
ATOM     52  N   UNL A   1      45.177  28.764  29.971  1.00  0.00    -0.248 NA
ATOM     53  C   UNL A   1      47.434  29.190  30.398  1.00  0.00     0.031 C 
ATOM     54  C   UNL A   1      41.906  31.672  30.646  1.00  0.00     0.029 A 
ATOM     55  C   UNL A   1      42.951  30.791  30.435  1.00  0.00     0.049 A 
ATOM     56  H   UNL A   1      42.909  28.839  29.630  1.00  0.00     0.167 HD
ATOM     57  C   UNL A   1      45.312  30.048  30.481  1.00  0.00     0.074 A 
ATOM     58  C   UNL A   1      46.721  30.251  30.748  1.00  0.00     0.031 C 
ATOM     59  C   UNL A   1      44.352  30.977  30.708  1.00  0.00     0.037 A 
BRANCH  46  60
ATOM     60  C   UNL A   1      38.696  29.157  29.064  1.00  0.00     0.057 A 
ATOM     61  C   UNL A   1      37.816  29.104  30.151  1.00  0.00     0.134 A 
ATOM     62  C   UNL A   1      38.189  29.605  27.838  1.00  0.00     0.134 A 
ATOM     63  F   UNL A   1      38.241  28.673  31.349  1.00  0.00    -0.206 F 
ATOM     64  C   UNL A   1      36.476  29.469  30.021  1.00  0.00     0.040 A 
ATOM     65  C   UNL A   1      36.855  29.991  27.700  1.00  0.00     0.040 A 
ATOM     66  F   UNL A   1      38.982  29.684  26.760  1.00  0.00    -0.206 F 
ATOM     67  C   UNL A   1      35.994  29.921  28.793  1.00  0.00     0.006 A 
ENDBRANCH  46  60
BRANCH  47  68
ATOM     68  C   UNL A   1      48.272  26.528  29.562  1.00  0.00     0.057 A 
ATOM     69  C   UNL A   1      48.795  25.876  30.685  1.00  0.00     0.134 A 
ATOM     70  C   UNL A   1      49.152  26.833  28.520  1.00  0.00     0.134 A 
ATOM     71  F   UNL A   1      48.002  25.581  31.725  1.00  0.00    -0.206 F 
ATOM     72  C   UNL A   1      50.149  25.552  30.774  1.00  0.00     0.040 A 
ATOM     73  C   UNL A   1      50.505  26.497  28.587  1.00  0.00     0.040 A 
ATOM     74  F   UNL A   1      48.709  27.458  27.419  1.00  0.00    -0.206 F 
ATOM     75  C   UNL A   1      51.008  25.860  29.721  1.00  0.00     0.006 A 
ENDBRANCH  47  68
BRANCH  59  76
ATOM     76  C   UNL A   1      44.786  32.282  31.301  1.00  0.00     0.057 A 
ATOM     77  C   UNL A   1      45.137  33.374  30.499  1.00  0.00     0.134 A 
ATOM     78  C   UNL A   1      44.817  32.459  32.690  1.00  0.00     0.134 A 
ATOM     79  F   UNL A   1      45.140  33.262  29.162  1.00  0.00    -0.206 F 
ATOM     80  C   UNL A   1      45.521  34.593  31.057  1.00  0.00     0.040 A 
ATOM     81  C   UNL A   1      45.181  33.679  33.259  1.00  0.00     0.040 A 
ATOM     82  F   UNL A   1      44.486  31.453  33.512  1.00  0.00    -0.206 F 
ATOM     83  C   UNL A   1      45.539  34.751  32.443  1.00  0.00     0.006 A 
ENDBRANCH  59  76
ENDBRANCH  33  34
ENDBRANCH  25  28
ENDBRANCH  23  24
ENDBRANCH  22  23
ENDBRANCH   1  22
TORSDOF 15
ENDMDL
MODEL 2
REMARK VINA RESULT:     -10.8      0.507      6.169
REMARK SMILES CO[C@@H]1C[C@@H](C(=O)NCCCNC(=O)c2ccc(-c3c4nc(c(-c5c(F)cccc5F)c5ccc([nH]5)c(-c5c(F)cccc5F)c5nc(c(-c6c(F)cccc6F)c6ccc3[nH]6)C=C5)C=C4)cc2)N(C(=O)CSc2cccs2)C1
REMARK SMILES IDX 9 1 8 2 6 3 7 4 5 6 3 7 4 8 79 9 69 10 2 11 1 12 70 13 71 14
REMARK SMILES IDX 72 15 73 16 74 17 75 18 78 19 76 20 77 21 10 22 11 23 12 24
REMARK SMILES IDX 13 25 14 27 15 28 16 29 68 30 17 31 67 32 18 33 19 34 20 35
REMARK SMILES IDX 61 36 21 37 66 38 60 39 62 40 22 41 65 42 59 43 58 44 23 46
REMARK SMILES IDX 49 47 32 48 48 49 33 50 36 51 47 52 63 53 34 54 35 55 46 57
REMARK SMILES IDX 64 58 37 59 24 60 25 61 30 62 26 63 27 64 29 65 31 66 28 67
REMARK SMILES IDX 50 68 51 69 56 70 52 71 53 72 55 73 57 74 54 75 38 76 39 77
REMARK SMILES IDX 44 78 40 79 41 80 43 81 45 82 42 83
REMARK H PARENT 8 5 12 26 62 45 36 56
REMARK Flexibility Score: inf
ROOT
ATOM      1  C   UNL A   1      36.341  20.442  24.740  1.00  0.00     0.117 C 
ENDROOT
BRANCH   1   2
ATOM      2  N   UNL A   1      35.761  21.000  25.949  1.00  0.00    -0.354 N 
ATOM      3  C   UNL A   1      34.934  22.057  26.174  1.00  0.00     0.242 C 
ATOM      4  O   UNL A   1      34.445  22.135  27.306  1.00  0.00    -0.273 OA
ATOM      5  H   UNL A   1      36.018  20.518  26.769  1.00  0.00     0.163 HD
BRANCH   3   6
ATOM      6  C   UNL A   1      34.493  23.045  25.077  1.00  0.00     0.177 C 
ATOM      7  C   UNL A   1      33.420  25.187  24.798  1.00  0.00     0.139 C 
ATOM      8  C   UNL A   1      34.455  24.465  25.656  1.00  0.00     0.069 C 
ATOM      9  C   UNL A   1      32.400  24.084  24.501  1.00  0.00     0.152 C 
ATOM     10  N   UNL A   1      33.172  22.847  24.477  1.00  0.00    -0.327 N 
BRANCH   7  11
ATOM     11  O   UNL A   1      34.086  25.663  23.624  1.00  0.00    -0.380 OA
ATOM     12  C   UNL A   1      33.271  25.616  22.459  1.00  0.00     0.195 C 
ENDBRANCH   7  11
BRANCH  10  13
ATOM     13  C   UNL A   1      32.766  21.800  23.671  1.00  0.00     0.233 C 
ATOM     14  O   UNL A   1      32.562  21.978  22.465  1.00  0.00    -0.274 OA
BRANCH  13  15
ATOM     15  C   UNL A   1      32.473  20.449  24.302  1.00  0.00     0.175 C 
BRANCH  15  16
ATOM     16  S   UNL A   1      32.300  19.156  23.044  1.00  0.00    -0.105 SA
BRANCH  16  17
ATOM     17  C   UNL A   1      33.086  17.825  23.873  1.00  0.00     0.060 A 
ATOM     18  C   UNL A   1      34.157  17.099  23.399  1.00  0.00     0.027 A 
ATOM     19  S   UNL A   1      32.570  17.277  25.406  1.00  0.00    -0.137 S 
ATOM     20  C   UNL A   1      34.591  16.114  24.333  1.00  0.00     0.013 A 
ATOM     21  C   UNL A   1      33.824  16.115  25.477  1.00  0.00     0.066 A 
ENDBRANCH  16  17
ENDBRANCH  15  16
ENDBRANCH  13  15
ENDBRANCH  10  13
ENDBRANCH   3   6
ENDBRANCH   1   2
BRANCH   1  22
ATOM     22  C   UNL A   1      37.556  19.545  24.960  1.00  0.00     0.042 C 
BRANCH  22  23
ATOM     23  C   UNL A   1      38.739  20.201  25.665  1.00  0.00     0.118 C 
BRANCH  23  24
ATOM     24  N   UNL A   1      39.882  19.312  25.764  1.00  0.00    -0.352 N 
ATOM     25  C   UNL A   1      41.197  19.598  26.044  1.00  0.00     0.251 C 
ATOM     26  H   UNL A   1      39.686  18.361  25.606  1.00  0.00     0.163 HD
ATOM     27  O   UNL A   1      42.049  18.734  25.855  1.00  0.00    -0.269 OA
BRANCH  25  28
ATOM     28  C   UNL A   1      41.610  20.924  26.565  1.00  0.00     0.039 A 
ATOM     29  C   UNL A   1      41.446  21.184  27.930  1.00  0.00     0.014 A 
ATOM     30  C   UNL A   1      42.061  21.943  25.719  1.00  0.00     0.014 A 
ATOM     31  C   UNL A   1      41.755  22.445  28.451  1.00  0.00     0.010 A 
ATOM     32  C   UNL A   1      42.417  23.189  26.247  1.00  0.00     0.010 A 
ATOM     33  C   UNL A   1      42.251  23.458  27.615  1.00  0.00    -0.014 A 
BRANCH  33  34
ATOM     34  C   UNL A   1      42.554  24.810  28.155  1.00  0.00     0.031 A 
ATOM     35  C   UNL A   1      43.959  25.167  28.563  1.00  0.00     0.074 A 
ATOM     36  C   UNL A   1      41.569  25.715  28.306  1.00  0.00     0.049 A 
ATOM     37  N   UNL A   1      44.410  26.279  29.089  1.00  0.00    -0.248 NA
ATOM     38  C   UNL A   1      44.987  24.133  28.372  1.00  0.00     0.031 C 
ATOM     39  C   UNL A   1      40.160  25.496  27.977  1.00  0.00     0.029 A 
ATOM     40  N   UNL A   1      41.603  27.002  28.784  1.00  0.00    -0.354 N 
ATOM     41  C   UNL A   1      45.766  26.072  29.307  1.00  0.00     0.074 A 
ATOM     42  C   UNL A   1      46.060  24.718  28.886  1.00  0.00     0.031 C 
ATOM     43  C   UNL A   1      39.468  26.616  28.246  1.00  0.00     0.029 A 
ATOM     44  C   UNL A   1      40.378  27.621  28.791  1.00  0.00     0.049 A 
ATOM     45  H   UNL A   1      42.430  27.440  29.091  1.00  0.00     0.167 HD
ATOM     46  C   UNL A   1      46.689  26.933  29.799  1.00  0.00     0.037 A 
ATOM     47  C   UNL A   1      40.024  28.857  29.193  1.00  0.00     0.037 A 
ATOM     48  C   UNL A   1      46.418  28.294  30.182  1.00  0.00     0.049 A 
ATOM     49  C   UNL A   1      41.068  29.796  29.729  1.00  0.00     0.074 A 
ATOM     50  C   UNL A   1      47.307  29.259  30.624  1.00  0.00     0.029 A 
ATOM     51  N   UNL A   1      45.165  28.885  30.163  1.00  0.00    -0.354 N 
ATOM     52  N   UNL A   1      42.356  29.602  29.877  1.00  0.00    -0.248 NA
ATOM     53  C   UNL A   1      40.609  31.129  30.148  1.00  0.00     0.031 C 
ATOM     54  C   UNL A   1      46.586  30.426  30.900  1.00  0.00     0.029 A 
ATOM     55  C   UNL A   1      45.255  30.195  30.602  1.00  0.00     0.049 A 
ATOM     56  H   UNL A   1      44.334  28.438  29.879  1.00  0.00     0.167 HD
ATOM     57  C   UNL A   1      42.863  30.793  30.382  1.00  0.00     0.074 A 
ATOM     58  C   UNL A   1      41.747  31.706  30.509  1.00  0.00     0.031 C 
ATOM     59  C   UNL A   1      44.141  31.099  30.712  1.00  0.00     0.037 A 
BRANCH  46  60
ATOM     60  C   UNL A   1      48.093  26.431  29.950  1.00  0.00     0.057 A 
ATOM     61  C   UNL A   1      48.526  25.797  31.121  1.00  0.00     0.134 A 
ATOM     62  C   UNL A   1      49.006  26.538  28.893  1.00  0.00     0.134 A 
ATOM     63  F   UNL A   1      47.701  25.674  32.171  1.00  0.00    -0.206 F 
ATOM     64  C   UNL A   1      49.825  25.301  31.242  1.00  0.00     0.040 A 
ATOM     65  C   UNL A   1      50.301  26.029  28.995  1.00  0.00     0.040 A 
ATOM     66  F   UNL A   1      48.650  27.129  27.743  1.00  0.00    -0.206 F 
ATOM     67  C   UNL A   1      50.715  25.411  30.174  1.00  0.00     0.006 A 
ENDBRANCH  46  60
BRANCH  47  68
ATOM     68  C   UNL A   1      38.612  29.294  29.087  1.00  0.00     0.057 A 
ATOM     69  C   UNL A   1      37.766  29.267  30.202  1.00  0.00     0.134 A 
ATOM     70  C   UNL A   1      38.071  29.729  27.873  1.00  0.00     0.134 A 
ATOM     71  F   UNL A   1      38.225  28.836  31.386  1.00  0.00    -0.206 F 
ATOM     72  C   UNL A   1      36.426  29.643  30.110  1.00  0.00     0.040 A 
ATOM     73  C   UNL A   1      36.737  30.127  27.771  1.00  0.00     0.040 A 
ATOM     74  F   UNL A   1      38.832  29.775  26.770  1.00  0.00    -0.206 F 
ATOM     75  C   UNL A   1      35.909  30.079  28.891  1.00  0.00     0.006 A 
ENDBRANCH  47  68
BRANCH  59  76
ATOM     76  C   UNL A   1      44.407  32.487  31.209  1.00  0.00     0.057 A 
ATOM     77  C   UNL A   1      44.693  33.540  30.333  1.00  0.00     0.134 A 
ATOM     78  C   UNL A   1      44.340  32.778  32.577  1.00  0.00     0.134 A 
ATOM     79  F   UNL A   1      44.784  33.320  29.013  1.00  0.00    -0.206 F 
ATOM     80  C   UNL A   1      44.921  34.835  30.801  1.00  0.00     0.040 A 
ATOM     81  C   UNL A   1      44.547  34.073  33.056  1.00  0.00     0.040 A 
ATOM     82  F   UNL A   1      44.065  31.814  33.467  1.00  0.00    -0.206 F 
ATOM     83  C   UNL A   1      44.842  35.105  32.167  1.00  0.00     0.006 A 
ENDBRANCH  59  76
ENDBRANCH  33  34
ENDBRANCH  25  28
ENDBRANCH  23  24
ENDBRANCH  22  23
ENDBRANCH   1  22
TORSDOF 15
ENDMDL
MODEL 3
REMARK VINA RESULT:     -10.7      5.173      9.989
REMARK SMILES CO[C@@H]1C[C@@H](C(=O)NCCCNC(=O)c2ccc(-c3c4nc(c(-c5c(F)cccc5F)c5ccc([nH]5)c(-c5c(F)cccc5F)c5nc(c(-c6c(F)cccc6F)c6ccc3[nH]6)C=C5)C=C4)cc2)N(C(=O)CSc2cccs2)C1
REMARK SMILES IDX 9 1 8 2 6 3 7 4 5 6 3 7 4 8 79 9 69 10 2 11 1 12 70 13 71 14
REMARK SMILES IDX 72 15 73 16 74 17 75 18 78 19 76 20 77 21 10 22 11 23 12 24
REMARK SMILES IDX 13 25 14 27 15 28 16 29 68 30 17 31 67 32 18 33 19 34 20 35
REMARK SMILES IDX 61 36 21 37 66 38 60 39 62 40 22 41 65 42 59 43 58 44 23 46
REMARK SMILES IDX 49 47 32 48 48 49 33 50 36 51 47 52 63 53 34 54 35 55 46 57
REMARK SMILES IDX 64 58 37 59 24 60 25 61 30 62 26 63 27 64 29 65 31 66 28 67
REMARK SMILES IDX 50 68 51 69 56 70 52 71 53 72 55 73 57 74 54 75 38 76 39 77
REMARK SMILES IDX 44 78 40 79 41 80 43 81 45 82 42 83
REMARK H PARENT 8 5 12 26 62 45 36 56
REMARK Flexibility Score: inf
ROOT
ATOM      1  C   UNL A   1      31.394  30.432  26.013  1.00  0.00     0.117 C 
ENDROOT
BRANCH   1   2
ATOM      2  N   UNL A   1      32.401  30.078  25.029  1.00  0.00    -0.354 N 
ATOM      3  C   UNL A   1      32.857  28.883  24.563  1.00  0.00     0.242 C 
ATOM      4  O   UNL A   1      33.574  28.928  23.558  1.00  0.00    -0.273 OA
ATOM      5  H   UNL A   1      32.843  30.856  24.618  1.00  0.00     0.163 HD
BRANCH   3   6
ATOM      6  C   UNL A   1      32.420  27.521  25.134  1.00  0.00     0.177 C 
ATOM      7  C   UNL A   1      33.099  25.207  25.202  1.00  0.00     0.139 C 
ATOM      8  C   UNL A   1      33.653  26.624  25.312  1.00  0.00     0.069 C 
ATOM      9  C   UNL A   1      31.981  25.361  24.167  1.00  0.00     0.152 C 
ATOM     10  N   UNL A   1      31.484  26.721  24.340  1.00  0.00    -0.327 N 
BRANCH   7  11
ATOM     11  O   UNL A   1      32.613  24.830  26.495  1.00  0.00    -0.380 OA
ATOM     12  C   UNL A   1      31.598  23.835  26.445  1.00  0.00     0.195 C 
ENDBRANCH   7  11
BRANCH  10  13
ATOM     13  C   UNL A   1      30.160  27.008  24.066  1.00  0.00     0.233 C 
ATOM     14  O   UNL A   1      29.253  26.347  24.582  1.00  0.00    -0.274 OA
BRANCH  13  15
ATOM     15  C   UNL A   1      29.832  28.082  23.040  1.00  0.00     0.175 C 
BRANCH  15  16
ATOM     16  S   UNL A   1      28.088  28.565  23.126  1.00  0.00    -0.105 SA
BRANCH  16  17
ATOM     17  C   UNL A   1      28.199  30.199  22.498  1.00  0.00     0.060 A 
ATOM     18  C   UNL A   1      28.028  30.571  21.182  1.00  0.00     0.027 A 
ATOM     19  S   UNL A   1      28.553  31.536  23.499  1.00  0.00    -0.137 S 
ATOM     20  C   UNL A   1      28.137  31.981  21.005  1.00  0.00     0.013 A 
ATOM     21  C   UNL A   1      28.404  32.629  22.191  1.00  0.00     0.066 A 
ENDBRANCH  16  17
ENDBRANCH  15  16
ENDBRANCH  13  15
ENDBRANCH  10  13
ENDBRANCH   3   6
ENDBRANCH   1   2
BRANCH   1  22
ATOM     22  C   UNL A   1      31.357  31.909  26.398  1.00  0.00     0.042 C 
BRANCH  22  23
ATOM     23  C   UNL A   1      32.666  32.482  26.931  1.00  0.00     0.118 C 
BRANCH  23  24
ATOM     24  N   UNL A   1      32.525  33.858  27.370  1.00  0.00    -0.352 N 
ATOM     25  C   UNL A   1      33.111  34.507  28.430  1.00  0.00     0.251 C 
ATOM     26  H   UNL A   1      31.917  34.409  26.827  1.00  0.00     0.163 HD
ATOM     27  O   UNL A   1      32.684  35.608  28.767  1.00  0.00    -0.269 OA
BRANCH  25  28
ATOM     28  C   UNL A   1      34.244  33.909  29.178  1.00  0.00     0.039 A 
ATOM     29  C   UNL A   1      35.547  34.274  28.818  1.00  0.00     0.014 A 
ATOM     30  C   UNL A   1      34.049  32.926  30.153  1.00  0.00     0.014 A 
ATOM     31  C   UNL A   1      36.645  33.680  29.449  1.00  0.00     0.010 A 
ATOM     32  C   UNL A   1      35.146  32.367  30.818  1.00  0.00     0.010 A 
ATOM     33  C   UNL A   1      36.456  32.726  30.460  1.00  0.00    -0.014 A 
BRANCH  33  34
ATOM     34  C   UNL A   1      37.618  32.068  31.114  1.00  0.00     0.031 A 
ATOM     35  C   UNL A   1      38.373  30.976  30.404  1.00  0.00     0.074 A 
ATOM     36  C   UNL A   1      37.987  32.428  32.358  1.00  0.00     0.049 A 
ATOM     37  N   UNL A   1      39.385  30.260  30.826  1.00  0.00    -0.248 NA
ATOM     38  C   UNL A   1      37.918  30.630  29.048  1.00  0.00     0.031 C 
ATOM     39  C   UNL A   1      37.331  33.451  33.173  1.00  0.00     0.029 A 
ATOM     40  N   UNL A   1      39.003  31.966  33.158  1.00  0.00    -0.354 N 
ATOM     41  C   UNL A   1      39.676  29.371  29.799  1.00  0.00     0.074 A 
ATOM     42  C   UNL A   1      38.714  29.615  28.745  1.00  0.00     0.031 C 
ATOM     43  C   UNL A   1      37.972  33.552  34.350  1.00  0.00     0.029 A 
ATOM     44  C   UNL A   1      39.065  32.584  34.382  1.00  0.00     0.049 A 
ATOM     45  H   UNL A   1      39.630  31.260  32.879  1.00  0.00     0.167 HD
ATOM     46  C   UNL A   1      40.662  28.444  29.731  1.00  0.00     0.037 A 
ATOM     47  C   UNL A   1      39.905  32.390  35.418  1.00  0.00     0.037 A 
ATOM     48  C   UNL A   1      41.649  28.221  30.754  1.00  0.00     0.049 A 
ATOM     49  C   UNL A   1      40.995  31.361  35.314  1.00  0.00     0.074 A 
ATOM     50  C   UNL A   1      42.726  27.351  30.739  1.00  0.00     0.029 A 
ATOM     51  N   UNL A   1      41.682  28.875  31.975  1.00  0.00    -0.354 N 
ATOM     52  N   UNL A   1      41.289  30.566  34.314  1.00  0.00    -0.248 NA
ATOM     53  C   UNL A   1      41.874  31.205  36.483  1.00  0.00     0.031 C 
ATOM     54  C   UNL A   1      43.395  27.460  31.962  1.00  0.00     0.029 A 
ATOM     55  C   UNL A   1      42.751  28.417  32.727  1.00  0.00     0.049 A 
ATOM     56  H   UNL A   1      41.041  29.565  32.264  1.00  0.00     0.167 HD
ATOM     57  C   UNL A   1      42.398  29.837  34.723  1.00  0.00     0.074 A 
ATOM     58  C   UNL A   1      42.730  30.287  36.059  1.00  0.00     0.031 C 
ATOM     59  C   UNL A   1      43.080  28.880  34.049  1.00  0.00     0.037 A 
BRANCH  46  60
ATOM     60  C   UNL A   1      40.730  27.596  28.497  1.00  0.00     0.057 A 
ATOM     61  C   UNL A   1      40.009  26.401  28.384  1.00  0.00     0.134 A 
ATOM     62  C   UNL A   1      41.485  28.006  27.391  1.00  0.00     0.134 A 
ATOM     63  F   UNL A   1      39.275  25.951  29.414  1.00  0.00    -0.206 F 
ATOM     64  C   UNL A   1      40.049  25.634  27.220  1.00  0.00     0.040 A 
ATOM     65  C   UNL A   1      41.518  27.257  26.215  1.00  0.00     0.040 A 
ATOM     66  F   UNL A   1      42.193  29.144  27.433  1.00  0.00    -0.206 F 
ATOM     67  C   UNL A   1      40.801  26.065  26.128  1.00  0.00     0.006 A 
ENDBRANCH  46  60
BRANCH  47  68
ATOM     68  C   UNL A   1      39.764  33.206  36.648  1.00  0.00     0.057 A 
ATOM     69  C   UNL A   1      38.874  32.831  37.660  1.00  0.00     0.134 A 
ATOM     70  C   UNL A   1      40.497  34.383  36.831  1.00  0.00     0.134 A 
ATOM     71  F   UNL A   1      38.127  31.726  37.527  1.00  0.00    -0.206 F 
ATOM     72  C   UNL A   1      38.706  33.608  38.808  1.00  0.00     0.040 A 
ATOM     73  C   UNL A   1      40.354  35.158  37.983  1.00  0.00     0.040 A 
ATOM     74  F   UNL A   1      41.365  34.793  35.894  1.00  0.00    -0.206 F 
ATOM     75  C   UNL A   1      39.451  34.774  38.973  1.00  0.00     0.006 A 
ENDBRANCH  47  68
BRANCH  59  76
ATOM     76  C   UNL A   1      44.270  28.276  34.730  1.00  0.00     0.057 A 
ATOM     77  C   UNL A   1      45.540  28.857  34.641  1.00  0.00     0.134 A 
ATOM     78  C   UNL A   1      44.135  27.123  35.512  1.00  0.00     0.134 A 
ATOM     79  F   UNL A   1      45.735  29.955  33.897  1.00  0.00    -0.206 F 
ATOM     80  C   UNL A   1      46.641  28.302  35.295  1.00  0.00     0.040 A 
ATOM     81  C   UNL A   1      45.225  26.569  36.185  1.00  0.00     0.040 A 
ATOM     82  F   UNL A   1      42.943  26.522  35.641  1.00  0.00    -0.206 F 
ATOM     83  C   UNL A   1      46.484  27.156  36.075  1.00  0.00     0.006 A 
ENDBRANCH  59  76
ENDBRANCH  33  34
ENDBRANCH  25  28
ENDBRANCH  23  24
ENDBRANCH  22  23
ENDBRANCH   1  22
TORSDOF 15
ENDMDL
