MODEL 1
REMARK VINA RESULT:     -12.3      0.000      0.000
REMARK SMILES O=C(Cn1nc(-c2cccs2)ccc1=O)N[C@H](Cc1ccccc1)C(=O)NCCCNC(=O)c1ccc(-c2c3nc(c(-c4c(F)cccc4F)c4ccc([nH]4)c(-c4c(F)cccc4F)c4nc(c(-c5c(F)cccc5F)c5ccc2[nH]5)C=C4)C=C3)cc1
REMARK SMILES IDX 28 1 27 2 25 3 26 4 17 6 16 7 1 8 2 9 3 11 4 12 5 13 14 14
REMARK SMILES IDX 6 15 13 16 15 17 12 18 7 19 8 20 11 21 9 22 10 23 18 24
REMARK SMILES IDX 19 25 20 26 24 27 21 28 23 29 22 30 29 31 30 32 31 33 32 34
REMARK SMILES IDX 33 36 34 37 35 38 87 39 36 40 86 41 37 42 38 43 39 44 80 45
REMARK SMILES IDX 40 46 85 47 79 48 81 49 41 50 84 51 78 52 77 53 42 55 68 56
REMARK SMILES IDX 51 57 67 58 52 59 55 60 66 61 82 62 53 63 54 64 65 66 83 67
REMARK SMILES IDX 56 68 43 69 44 70 49 71 45 72 46 73 48 74 50 75 47 76 69 77
REMARK SMILES IDX 70 78 75 79 71 80 72 81 74 82 76 83 73 84 57 85 58 86 63 87
REMARK SMILES IDX 59 88 60 89 62 90 64 91 61 92
REMARK H PARENT 27 5 16 10 31 35 81 54 55 65
REMARK Flexibility Score: inf
ROOT
ATOM      1  C   UNL A   1      36.915  21.619  24.241  1.00  0.00     0.117 C 
ENDROOT
BRANCH   1   2
ATOM      2  N   UNL A   1      36.214  22.405  25.238  1.00  0.00    -0.354 N 
ATOM      3  C   UNL A   1      34.891  22.461  25.569  1.00  0.00     0.242 C 
ATOM      4  O   UNL A   1      34.548  23.337  26.369  1.00  0.00    -0.273 OA
ATOM      5  H   UNL A   1      36.792  23.001  25.767  1.00  0.00     0.163 HD
BRANCH   3   6
ATOM      6  C   UNL A   1      33.854  21.553  24.881  1.00  0.00     0.175 C 
BRANCH   6   7
ATOM      7  N   UNL A   1      32.658  22.386  24.625  1.00  0.00    -0.342 N 
ATOM      8  O   UNL A   1      32.180  21.345  22.659  1.00  0.00    -0.273 OA
ATOM      9  C   UNL A   1      31.994  22.292  23.418  1.00  0.00     0.242 C 
ATOM     10  H   UNL A   1      32.336  23.008  25.316  1.00  0.00     0.164 HD
BRANCH   9  11
ATOM     11  C   UNL A   1      31.174  23.535  23.046  1.00  0.00     0.248 C 
BRANCH  11  12
ATOM     12  N   UNL A   1      32.054  24.668  23.204  1.00  0.00    -0.220 N 
ATOM     13  N   UNL A   1      31.863  25.453  24.313  1.00  0.00    -0.168 NA
ATOM     14  C   UNL A   1      32.989  24.939  22.211  1.00  0.00     0.267 A 
ATOM     15  C   UNL A   1      32.398  26.635  24.287  1.00  0.00     0.101 A 
ATOM     16  C   UNL A   1      33.401  26.355  22.129  1.00  0.00     0.075 A 
ATOM     17  O   UNL A   1      33.404  24.127  21.388  1.00  0.00    -0.268 OA
ATOM     18  C   UNL A   1      33.083  27.207  23.107  1.00  0.00     0.037 A 
BRANCH  15  19
ATOM     19  C   UNL A   1      32.371  27.407  25.503  1.00  0.00     0.054 A 
ATOM     20  C   UNL A   1      31.511  27.225  26.568  1.00  0.00     0.022 A 
ATOM     21  S   UNL A   1      33.432  28.717  25.748  1.00  0.00    -0.142 S 
ATOM     22  C   UNL A   1      31.748  28.162  27.611  1.00  0.00     0.012 A 
ATOM     23  C   UNL A   1      32.756  29.044  27.288  1.00  0.00     0.065 A 
ENDBRANCH  15  19
ENDBRANCH  11  12
ENDBRANCH   9  11
ENDBRANCH   6   7
BRANCH   6  24
ATOM     24  C   UNL A   1      33.450  20.301  25.693  1.00  0.00     0.070 C 
BRANCH  24  25
ATOM     25  C   UNL A   1      33.471  18.874  25.174  1.00  0.00    -0.045 A 
ATOM     26  C   UNL A   1      32.546  17.974  25.738  1.00  0.00     0.004 A 
ATOM     27  C   UNL A   1      34.421  18.340  24.294  1.00  0.00     0.004 A 
ATOM     28  C   UNL A   1      32.577  16.607  25.441  1.00  0.00     0.000 A 
ATOM     29  C   UNL A   1      34.456  16.973  23.996  1.00  0.00     0.000 A 
ATOM     30  C   UNL A   1      33.539  16.105  24.572  1.00  0.00     0.000 A 
ENDBRANCH  24  25
ENDBRANCH   6  24
ENDBRANCH   3   6
ENDBRANCH   1   2
BRANCH   1  31
ATOM     31  C   UNL A   1      37.562  20.385  24.843  1.00  0.00     0.042 C 
BRANCH  31  32
ATOM     32  C   UNL A   1      38.733  20.713  25.751  1.00  0.00     0.118 C 
BRANCH  32  33
ATOM     33  N   UNL A   1      39.759  19.674  25.739  1.00  0.00    -0.352 N 
ATOM     34  C   UNL A   1      41.104  19.754  26.005  1.00  0.00     0.251 C 
ATOM     35  H   UNL A   1      39.436  18.774  25.503  1.00  0.00     0.163 HD
ATOM     36  O   UNL A   1      41.844  18.814  25.739  1.00  0.00    -0.269 OA
BRANCH  34  37
ATOM     37  C   UNL A   1      41.658  20.993  26.585  1.00  0.00     0.039 A 
ATOM     38  C   UNL A   1      41.679  21.171  27.967  1.00  0.00     0.014 A 
ATOM     39  C   UNL A   1      42.132  22.000  25.740  1.00  0.00     0.014 A 
ATOM     40  C   UNL A   1      41.954  22.424  28.490  1.00  0.00     0.010 A 
ATOM     41  C   UNL A   1      42.536  23.223  26.282  1.00  0.00     0.010 A 
ATOM     42  C   UNL A   1      42.394  23.465  27.657  1.00  0.00    -0.014 A 
BRANCH  42  43
ATOM     43  C   UNL A   1      42.700  24.785  28.266  1.00  0.00     0.031 A 
ATOM     44  C   UNL A   1      44.115  25.180  28.592  1.00  0.00     0.074 A 
ATOM     45  C   UNL A   1      41.694  25.662  28.445  1.00  0.00     0.049 A 
ATOM     46  N   UNL A   1      44.561  26.306  29.092  1.00  0.00    -0.248 NA
ATOM     47  C   UNL A   1      45.166  24.183  28.338  1.00  0.00     0.031 C 
ATOM     48  C   UNL A   1      40.281  25.394  28.160  1.00  0.00     0.029 A 
ATOM     49  N   UNL A   1      41.704  26.965  28.870  1.00  0.00    -0.354 N 
ATOM     50  C   UNL A   1      45.934  26.145  29.232  1.00  0.00     0.074 A 
ATOM     51  C   UNL A   1      46.246  24.802  28.795  1.00  0.00     0.031 C 
ATOM     52  C   UNL A   1      39.574  26.517  28.346  1.00  0.00     0.029 A 
ATOM     53  C   UNL A   1      40.467  27.560  28.835  1.00  0.00     0.049 A 
ATOM     54  H   UNL A   1      42.519  27.429  29.170  1.00  0.00     0.167 HD
ATOM     55  C   UNL A   1      46.851  27.039  29.676  1.00  0.00     0.037 A 
ATOM     56  C   UNL A   1      40.088  28.805  29.174  1.00  0.00     0.037 A 
ATOM     57  C   UNL A   1      46.539  28.382  30.091  1.00  0.00     0.049 A 
ATOM     58  C   UNL A   1      41.121  29.763  29.684  1.00  0.00     0.074 A 
ATOM     59  C   UNL A   1      47.397  29.367  30.549  1.00  0.00     0.029 A 
ATOM     60  N   UNL A   1      45.265  28.932  30.093  1.00  0.00    -0.354 N 
ATOM     61  N   UNL A   1      42.413  29.591  29.818  1.00  0.00    -0.248 NA
ATOM     62  C   UNL A   1      40.639  31.085  30.102  1.00  0.00     0.031 C 
ATOM     63  C   UNL A   1      46.637  30.502  30.861  1.00  0.00     0.029 A 
ATOM     64  C   UNL A   1      45.311  30.236  30.558  1.00  0.00     0.049 A 
ATOM     65  H   UNL A   1      44.447  28.463  29.808  1.00  0.00     0.167 HD
ATOM     66  C   UNL A   1      42.901  30.783  30.332  1.00  0.00     0.074 A 
ATOM     67  C   UNL A   1      41.769  31.681  30.454  1.00  0.00     0.031 C 
ATOM     68  C   UNL A   1      44.170  31.106  30.682  1.00  0.00     0.037 A 
BRANCH  55  69
ATOM     69  C   UNL A   1      48.279  26.579  29.752  1.00  0.00     0.057 A 
ATOM     70  C   UNL A   1      49.165  26.826  28.697  1.00  0.00     0.134 A 
ATOM     71  C   UNL A   1      48.774  25.877  30.860  1.00  0.00     0.134 A 
ATOM     72  F   UNL A   1      48.756  27.489  27.604  1.00  0.00    -0.206 F 
ATOM     73  C   UNL A   1      50.492  26.395  28.740  1.00  0.00     0.040 A 
ATOM     74  C   UNL A   1      50.106  25.461  30.925  1.00  0.00     0.040 A 
ATOM     75  F   UNL A   1      47.982  25.620  31.911  1.00  0.00    -0.206 F 
ATOM     76  C   UNL A   1      50.968  25.716  29.861  1.00  0.00     0.006 A 
ENDBRANCH  55  69
BRANCH  56  77
ATOM     77  C   UNL A   1      38.664  29.203  29.057  1.00  0.00     0.057 A 
ATOM     78  C   UNL A   1      38.122  29.618  27.834  1.00  0.00     0.134 A 
ATOM     79  C   UNL A   1      37.811  29.175  30.166  1.00  0.00     0.134 A 
ATOM     80  F   UNL A   1      38.891  29.672  26.736  1.00  0.00    -0.206 F 
ATOM     81  C   UNL A   1      36.788  30.004  27.720  1.00  0.00     0.040 A 
ATOM     82  C   UNL A   1      36.466  29.532  30.060  1.00  0.00     0.040 A 
ATOM     83  F   UNL A   1      38.269  28.769  31.359  1.00  0.00    -0.206 F 
ATOM     84  C   UNL A   1      35.953  29.954  28.835  1.00  0.00     0.006 A 
ENDBRANCH  56  77
BRANCH  68  85
ATOM     85  C   UNL A   1      44.384  32.491  31.214  1.00  0.00     0.057 A 
ATOM     86  C   UNL A   1      44.357  32.741  32.591  1.00  0.00     0.134 A 
ATOM     87  C   UNL A   1      44.634  33.575  30.363  1.00  0.00     0.134 A 
ATOM     88  F   UNL A   1      44.119  31.746  33.460  1.00  0.00    -0.206 F 
ATOM     89  C   UNL A   1      44.577  34.020  33.104  1.00  0.00     0.040 A 
ATOM     90  C   UNL A   1      44.881  34.854  30.865  1.00  0.00     0.040 A 
ATOM     91  F   UNL A   1      44.691  33.396  29.034  1.00  0.00    -0.206 F 
ATOM     92  C   UNL A   1      44.851  35.079  32.240  1.00  0.00     0.006 A 
ENDBRANCH  68  85
ENDBRANCH  42  43
ENDBRANCH  34  37
ENDBRANCH  32  33
ENDBRANCH  31  32
ENDBRANCH   1  31
TORSDOF 16
ENDMDL
MODEL 2
REMARK VINA RESULT:     -12.3      2.738      7.123
REMARK SMILES O=C(Cn1nc(-c2cccs2)ccc1=O)N[C@H](Cc1ccccc1)C(=O)NCCCNC(=O)c1ccc(-c2c3nc(c(-c4c(F)cccc4F)c4ccc([nH]4)c(-c4c(F)cccc4F)c4nc(c(-c5c(F)cccc5F)c5ccc2[nH]5)C=C4)C=C3)cc1
REMARK SMILES IDX 28 1 27 2 25 3 26 4 17 6 16 7 1 8 2 9 3 11 4 12 5 13 14 14
REMARK SMILES IDX 6 15 13 16 15 17 12 18 7 19 8 20 11 21 9 22 10 23 18 24
REMARK SMILES IDX 19 25 20 26 24 27 21 28 23 29 22 30 29 31 30 32 31 33 32 34
REMARK SMILES IDX 33 36 34 37 35 38 87 39 36 40 86 41 37 42 38 43 39 44 80 45
REMARK SMILES IDX 40 46 85 47 79 48 81 49 41 50 84 51 78 52 77 53 42 55 68 56
REMARK SMILES IDX 51 57 67 58 52 59 55 60 66 61 82 62 53 63 54 64 65 66 83 67
REMARK SMILES IDX 56 68 43 69 44 70 49 71 45 72 46 73 48 74 50 75 47 76 69 77
REMARK SMILES IDX 70 78 75 79 71 80 72 81 74 82 76 83 73 84 57 85 58 86 63 87
REMARK SMILES IDX 59 88 60 89 62 90 64 91 61 92
REMARK H PARENT 27 5 16 10 31 35 81 54 55 65
REMARK Flexibility Score: inf
ROOT
ATOM      1  C   UNL A   1      33.848  27.460  25.012  1.00  0.00     0.117 C 
ENDROOT
BRANCH   1   2
ATOM      2  N   UNL A   1      33.500  26.143  25.508  1.00  0.00    -0.354 N 
ATOM      3  C   UNL A   1      33.678  24.903  24.964  1.00  0.00     0.242 C 
ATOM      4  O   UNL A   1      33.148  23.952  25.547  1.00  0.00    -0.273 OA
ATOM      5  H   UNL A   1      33.059  26.142  26.388  1.00  0.00     0.163 HD
BRANCH   3   6
ATOM      6  C   UNL A   1      34.404  24.715  23.618  1.00  0.00     0.175 C 
BRANCH   6   7
ATOM      7  N   UNL A   1      33.363  24.720  22.566  1.00  0.00    -0.342 N 
ATOM      8  O   UNL A   1      34.018  26.732  21.729  1.00  0.00    -0.273 OA
ATOM      9  C   UNL A   1      33.173  25.841  21.784  1.00  0.00     0.242 C 
ATOM     10  H   UNL A   1      32.805  23.922  22.425  1.00  0.00     0.164 HD
BRANCH   9  11
ATOM     11  C   UNL A   1      31.776  25.952  21.161  1.00  0.00     0.248 C 
BRANCH  11  12
ATOM     12  N   UNL A   1      30.924  26.539  22.168  1.00  0.00    -0.220 N 
ATOM     13  N   UNL A   1      30.603  27.865  22.014  1.00  0.00    -0.168 NA
ATOM     14  C   UNL A   1      30.535  25.766  23.255  1.00  0.00     0.267 A 
ATOM     15  C   UNL A   1      30.142  28.476  23.062  1.00  0.00     0.101 A 
ATOM     16  C   UNL A   1      30.211  26.539  24.471  1.00  0.00     0.075 A 
ATOM     17  O   UNL A   1      30.528  24.538  23.285  1.00  0.00    -0.268 OA
ATOM     18  C   UNL A   1      30.062  27.864  24.407  1.00  0.00     0.037 A 
BRANCH  15  19
ATOM     19  C   UNL A   1      29.627  29.809  22.884  1.00  0.00     0.054 A 
ATOM     20  C   UNL A   1      29.436  30.752  23.874  1.00  0.00     0.022 A 
ATOM     21  S   UNL A   1      29.140  30.375  21.352  1.00  0.00    -0.142 S 
ATOM     22  C   UNL A   1      28.907  31.967  23.359  1.00  0.00     0.012 A 
ATOM     23  C   UNL A   1      28.681  31.892  22.002  1.00  0.00     0.065 A 
ENDBRANCH  15  19
ENDBRANCH  11  12
ENDBRANCH   9  11
ENDBRANCH   6   7
BRANCH   6  24
ATOM     24  C   UNL A   1      35.245  23.423  23.511  1.00  0.00     0.070 C 
BRANCH  24  25
ATOM     25  C   UNL A   1      36.463  23.096  24.356  1.00  0.00    -0.045 A 
ATOM     26  C   UNL A   1      36.929  21.767  24.320  1.00  0.00     0.004 A 
ATOM     27  C   UNL A   1      37.072  23.959  25.276  1.00  0.00     0.004 A 
ATOM     28  C   UNL A   1      37.949  21.325  25.169  1.00  0.00     0.000 A 
ATOM     29  C   UNL A   1      38.092  23.518  26.127  1.00  0.00     0.000 A 
ATOM     30  C   UNL A   1      38.528  22.201  26.079  1.00  0.00     0.000 A 
ENDBRANCH  24  25
ENDBRANCH   6  24
ENDBRANCH   3   6
ENDBRANCH   1   2
BRANCH   1  31
ATOM     31  C   UNL A   1      33.289  28.564  25.890  1.00  0.00     0.042 C 
BRANCH  31  32
ATOM     32  C   UNL A   1      33.921  28.603  27.270  1.00  0.00     0.118 C 
BRANCH  32  33
ATOM     33  N   UNL A   1      33.963  29.951  27.829  1.00  0.00    -0.352 N 
ATOM     34  C   UNL A   1      34.971  30.602  28.497  1.00  0.00     0.251 C 
ATOM     35  H   UNL A   1      33.139  30.476  27.707  1.00  0.00     0.163 HD
ATOM     36  O   UNL A   1      34.747  31.658  29.076  1.00  0.00    -0.269 OA
BRANCH  34  37
ATOM     37  C   UNL A   1      36.319  30.004  28.541  1.00  0.00     0.039 A 
ATOM     38  C   UNL A   1      36.758  29.353  29.693  1.00  0.00     0.014 A 
ATOM     39  C   UNL A   1      37.163  30.120  27.434  1.00  0.00     0.014 A 
ATOM     40  C   UNL A   1      38.099  29.026  29.822  1.00  0.00     0.010 A 
ATOM     41  C   UNL A   1      38.483  29.668  27.522  1.00  0.00     0.010 A 
ATOM     42  C   UNL A   1      38.977  29.171  28.737  1.00  0.00    -0.014 A 
BRANCH  42  43
ATOM     43  C   UNL A   1      40.401  28.785  28.916  1.00  0.00     0.031 A 
ATOM     44  C   UNL A   1      40.903  27.439  28.467  1.00  0.00     0.074 A 
ATOM     45  C   UNL A   1      41.259  29.696  29.412  1.00  0.00     0.049 A 
ATOM     46  N   UNL A   1      42.120  26.956  28.514  1.00  0.00    -0.248 NA
ATOM     47  C   UNL A   1      39.913  26.508  27.903  1.00  0.00     0.031 C 
ATOM     48  C   UNL A   1      40.891  31.037  29.876  1.00  0.00     0.029 A 
ATOM     49  N   UNL A   1      42.619  29.653  29.574  1.00  0.00    -0.354 N 
ATOM     50  C   UNL A   1      42.038  25.664  28.011  1.00  0.00     0.074 A 
ATOM     51  C   UNL A   1      40.648  25.424  27.692  1.00  0.00     0.031 C 
ATOM     52  C   UNL A   1      42.002  31.713  30.198  1.00  0.00     0.029 A 
ATOM     53  C   UNL A   1      43.152  30.831  30.037  1.00  0.00     0.049 A 
ATOM     54  H   UNL A   1      43.162  28.855  29.376  1.00  0.00     0.167 HD
ATOM     55  C   UNL A   1      43.033  24.763  27.823  1.00  0.00     0.037 A 
ATOM     56  C   UNL A   1      44.425  31.162  30.318  1.00  0.00     0.037 A 
ATOM     57  C   UNL A   1      44.420  25.013  28.123  1.00  0.00     0.049 A 
ATOM     58  C   UNL A   1      45.500  30.137  30.123  1.00  0.00     0.074 A 
ATOM     59  C   UNL A   1      45.505  24.169  27.961  1.00  0.00     0.029 A 
ATOM     60  N   UNL A   1      44.913  26.201  28.643  1.00  0.00    -0.354 N 
ATOM     61  N   UNL A   1      45.404  28.918  29.653  1.00  0.00    -0.248 NA
ATOM     62  C   UNL A   1      46.860  30.532  30.510  1.00  0.00     0.031 C 
ATOM     63  C   UNL A   1      46.651  24.835  28.415  1.00  0.00     0.029 A 
ATOM     64  C   UNL A   1      46.284  26.108  28.822  1.00  0.00     0.049 A 
ATOM     65  H   UNL A   1      44.369  26.993  28.855  1.00  0.00     0.167 HD
ATOM     66  C   UNL A   1      46.690  28.399  29.683  1.00  0.00     0.074 A 
ATOM     67  C   UNL A   1      47.553  29.450  30.186  1.00  0.00     0.031 C 
ATOM     68  C   UNL A   1      47.120  27.162  29.336  1.00  0.00     0.037 A 
BRANCH  55  69
ATOM     69  C   UNL A   1      42.649  23.415  27.283  1.00  0.00     0.057 A 
ATOM     70  C   UNL A   1      42.697  23.157  25.908  1.00  0.00     0.134 A 
ATOM     71  C   UNL A   1      42.214  22.378  28.120  1.00  0.00     0.134 A 
ATOM     72  F   UNL A   1      43.100  24.106  25.049  1.00  0.00    -0.206 F 
ATOM     73  C   UNL A   1      42.330  21.916  25.383  1.00  0.00     0.040 A 
ATOM     74  C   UNL A   1      41.866  21.126  27.609  1.00  0.00     0.040 A 
ATOM     75  F   UNL A   1      42.158  22.554  29.448  1.00  0.00    -0.206 F 
ATOM     76  C   UNL A   1      41.920  20.894  26.237  1.00  0.00     0.006 A 
ENDBRANCH  55  69
BRANCH  56  77
ATOM     77  C   UNL A   1      44.741  32.518  30.830  1.00  0.00     0.057 A 
ATOM     78  C   UNL A   1      44.718  32.802  32.201  1.00  0.00     0.134 A 
ATOM     79  C   UNL A   1      45.075  33.561  29.959  1.00  0.00     0.134 A 
ATOM     80  F   UNL A   1      44.398  31.846  33.085  1.00  0.00    -0.206 F 
ATOM     81  C   UNL A   1      45.003  34.077  32.688  1.00  0.00     0.040 A 
ATOM     82  C   UNL A   1      45.390  34.834  30.434  1.00  0.00     0.040 A 
ATOM     83  F   UNL A   1      45.131  33.344  28.637  1.00  0.00    -0.206 F 
ATOM     84  C   UNL A   1      45.349  35.097  31.803  1.00  0.00     0.006 A 
ENDBRANCH  56  77
BRANCH  68  85
ATOM     85  C   UNL A   1      48.589  26.900  29.481  1.00  0.00     0.057 A 
ATOM     86  C   UNL A   1      49.479  27.220  28.449  1.00  0.00     0.134 A 
ATOM     87  C   UNL A   1      49.124  26.345  30.651  1.00  0.00     0.134 A 
ATOM     88  F   UNL A   1      49.029  27.750  27.301  1.00  0.00    -0.206 F 
ATOM     89  C   UNL A   1      50.851  27.003  28.578  1.00  0.00     0.040 A 
ATOM     90  C   UNL A   1      50.497  26.147  30.801  1.00  0.00     0.040 A 
ATOM     91  F   UNL A   1      48.325  26.034  31.683  1.00  0.00    -0.206 F 
ATOM     92  C   UNL A   1      51.365  26.475  29.761  1.00  0.00     0.006 A 
ENDBRANCH  68  85
ENDBRANCH  42  43
ENDBRANCH  34  37
ENDBRANCH  32  33
ENDBRANCH  31  32
ENDBRANCH   1  31
TORSDOF 16
ENDMDL
MODEL 3
REMARK VINA RESULT:     -12.1      3.786      7.610
REMARK SMILES O=C(Cn1nc(-c2cccs2)ccc1=O)N[C@H](Cc1ccccc1)C(=O)NCCCNC(=O)c1ccc(-c2c3nc(c(-c4c(F)cccc4F)c4ccc([nH]4)c(-c4c(F)cccc4F)c4nc(c(-c5c(F)cccc5F)c5ccc2[nH]5)C=C4)C=C3)cc1
REMARK SMILES IDX 28 1 27 2 25 3 26 4 17 6 16 7 1 8 2 9 3 11 4 12 5 13 14 14
REMARK SMILES IDX 6 15 13 16 15 17 12 18 7 19 8 20 11 21 9 22 10 23 18 24
REMARK SMILES IDX 19 25 20 26 24 27 21 28 23 29 22 30 29 31 30 32 31 33 32 34
REMARK SMILES IDX 33 36 34 37 35 38 87 39 36 40 86 41 37 42 38 43 39 44 80 45
REMARK SMILES IDX 40 46 85 47 79 48 81 49 41 50 84 51 78 52 77 53 42 55 68 56
REMARK SMILES IDX 51 57 67 58 52 59 55 60 66 61 82 62 53 63 54 64 65 66 83 67
REMARK SMILES IDX 56 68 43 69 44 70 49 71 45 72 46 73 48 74 50 75 47 76 69 77
REMARK SMILES IDX 70 78 75 79 71 80 72 81 74 82 76 83 73 84 57 85 58 86 63 87
REMARK SMILES IDX 59 88 60 89 62 90 64 91 61 92
REMARK H PARENT 27 5 16 10 31 35 81 54 55 65
REMARK Flexibility Score: inf
ROOT
ATOM      1  C   UNL A   1      35.686  23.929  24.866  1.00  0.00     0.117 C 
ENDROOT
BRANCH   1   2
ATOM      2  N   UNL A   1      35.066  23.475  26.096  1.00  0.00    -0.354 N 
ATOM      3  C   UNL A   1      34.071  22.566  26.318  1.00  0.00     0.242 C 
ATOM      4  O   UNL A   1      33.636  22.480  27.471  1.00  0.00    -0.273 OA
ATOM      5  H   UNL A   1      35.425  23.893  26.911  1.00  0.00     0.163 HD
BRANCH   3   6
ATOM      6  C   UNL A   1      33.436  21.774  25.159  1.00  0.00     0.175 C 
BRANCH   6   7
ATOM      7  N   UNL A   1      32.277  22.562  24.687  1.00  0.00    -0.342 N 
ATOM      8  O   UNL A   1      32.483  21.843  22.538  1.00  0.00    -0.273 OA
ATOM      9  C   UNL A   1      31.990  22.634  23.339  1.00  0.00     0.242 C 
ATOM     10  H   UNL A   1      31.708  23.036  25.336  1.00  0.00     0.164 HD
BRANCH   9  11
ATOM     11  C   UNL A   1      31.176  23.868  22.927  1.00  0.00     0.248 C 
BRANCH  11  12
ATOM     12  N   UNL A   1      32.044  25.007  23.101  1.00  0.00    -0.220 N 
ATOM     13  N   UNL A   1      31.900  25.727  24.261  1.00  0.00    -0.168 NA
ATOM     14  C   UNL A   1      32.919  25.350  22.077  1.00  0.00     0.267 A 
ATOM     15  C   UNL A   1      32.413  26.919  24.272  1.00  0.00     0.101 A 
ATOM     16  C   UNL A   1      33.303  26.776  22.053  1.00  0.00     0.075 A 
ATOM     17  O   UNL A   1      33.303  24.593  21.190  1.00  0.00    -0.268 OA
ATOM     18  C   UNL A   1      33.024  27.567  23.091  1.00  0.00     0.037 A 
BRANCH  15  19
ATOM     19  C   UNL A   1      32.437  27.622  25.529  1.00  0.00     0.054 A 
ATOM     20  C   UNL A   1      31.576  27.431  26.591  1.00  0.00     0.022 A 
ATOM     21  S   UNL A   1      33.574  28.855  25.835  1.00  0.00    -0.142 S 
ATOM     22  C   UNL A   1      31.874  28.293  27.682  1.00  0.00     0.012 A 
ATOM     23  C   UNL A   1      32.928  29.133  27.397  1.00  0.00     0.065 A 
ENDBRANCH  15  19
ENDBRANCH  11  12
ENDBRANCH   9  11
ENDBRANCH   6   7
BRANCH   6  24
ATOM     24  C   UNL A   1      32.978  20.345  25.526  1.00  0.00     0.070 C 
BRANCH  24  25
ATOM     25  C   UNL A   1      33.203  19.106  24.677  1.00  0.00    -0.045 A 
ATOM     26  C   UNL A   1      34.398  18.391  24.891  1.00  0.00     0.004 A 
ATOM     27  C   UNL A   1      32.401  18.696  23.605  1.00  0.00     0.004 A 
ATOM     28  C   UNL A   1      34.772  17.324  24.067  1.00  0.00     0.000 A 
ATOM     29  C   UNL A   1      32.774  17.630  22.777  1.00  0.00     0.000 A 
ATOM     30  C   UNL A   1      33.961  16.948  23.003  1.00  0.00     0.000 A 
ENDBRANCH  24  25
ENDBRANCH   6  24
ENDBRANCH   3   6
ENDBRANCH   1   2
BRANCH   1  31
ATOM     31  C   UNL A   1      37.168  23.609  24.824  1.00  0.00     0.042 C 
BRANCH  31  32
ATOM     32  C   UNL A   1      37.869  23.870  26.145  1.00  0.00     0.118 C 
BRANCH  32  33
ATOM     33  N   UNL A   1      39.296  23.569  26.091  1.00  0.00    -0.352 N 
ATOM     34  C   UNL A   1      40.370  24.278  26.571  1.00  0.00     0.251 C 
ATOM     35  H   UNL A   1      39.525  22.724  25.640  1.00  0.00     0.163 HD
ATOM     36  O   UNL A   1      41.511  23.969  26.246  1.00  0.00    -0.269 OA
BRANCH  34  37
ATOM     37  C   UNL A   1      40.140  25.437  27.456  1.00  0.00     0.039 A 
ATOM     38  C   UNL A   1      40.780  26.649  27.202  1.00  0.00     0.014 A 
ATOM     39  C   UNL A   1      39.302  25.303  28.566  1.00  0.00     0.014 A 
ATOM     40  C   UNL A   1      40.767  27.642  28.168  1.00  0.00     0.010 A 
ATOM     41  C   UNL A   1      39.186  26.358  29.474  1.00  0.00     0.010 A 
ATOM     42  C   UNL A   1      39.964  27.515  29.312  1.00  0.00    -0.014 A 
BRANCH  42  43
ATOM     43  C   UNL A   1      39.965  28.616  30.309  1.00  0.00     0.031 A 
ATOM     44  C   UNL A   1      38.952  29.728  30.239  1.00  0.00     0.074 A 
ATOM     45  C   UNL A   1      40.838  28.561  31.333  1.00  0.00     0.049 A 
ATOM     46  N   UNL A   1      38.788  30.745  31.048  1.00  0.00    -0.248 NA
ATOM     47  C   UNL A   1      38.007  29.704  29.112  1.00  0.00     0.031 C 
ATOM     48  C   UNL A   1      41.864  27.529  31.511  1.00  0.00     0.029 A 
ATOM     49  N   UNL A   1      40.981  29.362  32.436  1.00  0.00    -0.354 N 
ATOM     50  C   UNL A   1      37.743  31.491  30.518  1.00  0.00     0.074 A 
ATOM     51  C   UNL A   1      37.329  30.828  29.300  1.00  0.00     0.031 C 
ATOM     52  C   UNL A   1      42.477  27.716  32.687  1.00  0.00     0.029 A 
ATOM     53  C   UNL A   1      41.943  28.922  33.309  1.00  0.00     0.049 A 
ATOM     54  H   UNL A   1      40.444  30.174  32.586  1.00  0.00     0.167 HD
ATOM     55  C   UNL A   1      37.174  32.620  31.006  1.00  0.00     0.037 A 
ATOM     56  C   UNL A   1      42.364  29.438  34.478  1.00  0.00     0.037 A 
ATOM     57  C   UNL A   1      37.575  33.265  32.230  1.00  0.00     0.049 A 
ATOM     58  C   UNL A   1      41.732  30.701  34.981  1.00  0.00     0.074 A 
ATOM     59  C   UNL A   1      37.056  34.408  32.815  1.00  0.00     0.029 A 
ATOM     60  N   UNL A   1      38.592  32.819  33.061  1.00  0.00    -0.354 N 
ATOM     61  N   UNL A   1      40.751  31.397  34.462  1.00  0.00    -0.248 NA
ATOM     62  C   UNL A   1      42.277  31.255  36.226  1.00  0.00     0.031 C 
ATOM     63  C   UNL A   1      37.783  34.672  33.983  1.00  0.00     0.029 A 
ATOM     64  C   UNL A   1      38.727  33.671  34.146  1.00  0.00     0.049 A 
ATOM     65  H   UNL A   1      39.139  32.016  32.903  1.00  0.00     0.167 HD
ATOM     66  C   UNL A   1      40.555  32.470  35.319  1.00  0.00     0.074 A 
ATOM     67  C   UNL A   1      41.500  32.313  36.407  1.00  0.00     0.031 C 
ATOM     68  C   UNL A   1      39.682  33.501  35.211  1.00  0.00     0.037 A 
BRANCH  55  69
ATOM     69  C   UNL A   1      36.067  33.237  30.200  1.00  0.00     0.057 A 
ATOM     70  C   UNL A   1      36.353  33.995  29.058  1.00  0.00     0.134 A 
ATOM     71  C   UNL A   1      34.720  33.099  30.562  1.00  0.00     0.134 A 
ATOM     72  F   UNL A   1      37.622  34.172  28.657  1.00  0.00    -0.206 F 
ATOM     73  C   UNL A   1      35.342  34.590  28.302  1.00  0.00     0.040 A 
ATOM     74  C   UNL A   1      33.698  33.670  29.801  1.00  0.00     0.040 A 
ATOM     75  F   UNL A   1      34.376  32.374  31.636  1.00  0.00    -0.206 F 
ATOM     76  C   UNL A   1      34.008  34.422  28.670  1.00  0.00     0.006 A 
ENDBRANCH  55  69
BRANCH  56  77
ATOM     77  C   UNL A   1      43.448  28.769  35.236  1.00  0.00     0.057 A 
ATOM     78  C   UNL A   1      43.166  27.839  36.244  1.00  0.00     0.134 A 
ATOM     79  C   UNL A   1      44.794  29.043  34.968  1.00  0.00     0.134 A 
ATOM     80  F   UNL A   1      41.895  27.540  36.552  1.00  0.00    -0.206 F 
ATOM     81  C   UNL A   1      44.180  27.215  36.968  1.00  0.00     0.040 A 
ATOM     82  C   UNL A   1      45.821  28.405  35.666  1.00  0.00     0.040 A 
ATOM     83  F   UNL A   1      45.128  29.911  34.002  1.00  0.00    -0.206 F 
ATOM     84  C   UNL A   1      45.514  27.491  36.674  1.00  0.00     0.006 A 
ENDBRANCH  56  77
BRANCH  68  85
ATOM     85  C   UNL A   1      39.710  34.519  36.311  1.00  0.00     0.057 A 
ATOM     86  C   UNL A   1      38.955  34.336  37.476  1.00  0.00     0.134 A 
ATOM     87  C   UNL A   1      40.499  35.673  36.224  1.00  0.00     0.134 A 
ATOM     88  F   UNL A   1      38.176  33.253  37.619  1.00  0.00    -0.206 F 
ATOM     89  C   UNL A   1      38.988  35.262  38.518  1.00  0.00     0.040 A 
ATOM     90  C   UNL A   1      40.560  36.594  37.271  1.00  0.00     0.040 A 
ATOM     91  F   UNL A   1      41.260  35.896  35.141  1.00  0.00    -0.206 F 
ATOM     92  C   UNL A   1      39.801  36.390  38.421  1.00  0.00     0.006 A 
ENDBRANCH  68  85
ENDBRANCH  42  43
ENDBRANCH  34  37
ENDBRANCH  32  33
ENDBRANCH  31  32
ENDBRANCH   1  31
TORSDOF 16
ENDMDL
