MODEL 1
REMARK VINA RESULT:     -12.5      0.000      0.000
REMARK SMILES O=C(NCCCNC(=O)[C@@H]1CC2(CCN(C(=O)C3(c4ccccc4F)CC3)CC2)C[NH2+]1)c1ccc(-c2c3nc(c(-c4c(F)cccc4F)c4ccc([nH]4)c(-c4c(F)cccc4F)c4nc(c(-c5c(F)cccc5F)c5ccc2[nH]5)C=C4)C=C3)cc1
REMARK SMILES IDX 5 1 4 2 3 3 1 4 2 5 32 7 33 8 85 9 34 10 84 11 35 12 36 13
REMARK SMILES IDX 37 14 78 15 38 16 83 17 77 18 79 19 39 20 82 21 76 22 75 23
REMARK SMILES IDX 40 25 66 26 49 27 65 28 50 29 53 30 64 31 80 32 51 33 52 34
REMARK SMILES IDX 63 36 81 37 54 38 41 39 42 40 47 41 43 42 44 43 46 44 48 45
REMARK SMILES IDX 45 46 67 47 68 48 73 49 69 50 70 51 72 52 74 53 71 54 55 55
REMARK SMILES IDX 56 56 61 57 57 58 58 59 60 60 62 61 59 62 6 63 7 64 8 65
REMARK SMILES IDX 9 67 10 68 11 69 31 70 12 71 30 72 13 75 29 76 14 77 28 78
REMARK SMILES IDX 15 79 16 80 17 81 18 82 26 83 27 84 19 85 20 86 24 87 21 88
REMARK SMILES IDX 23 89 25 90 22 91
REMARK H PARENT 3 6 79 24 53 35 7 66 31 73 31 74
REMARK Flexibility Score: inf
ROOT
ATOM      1  C   UNL A   1      37.830  19.757  24.647  1.00  0.00     0.042 C 
ENDROOT
BRANCH   1   2
ATOM      2  C   UNL A   1      38.923  20.225  25.595  1.00  0.00     0.118 C 
BRANCH   2   3
ATOM      3  N   UNL A   1      40.015  19.266  25.711  1.00  0.00    -0.352 N 
ATOM      4  O   UNL A   1      42.154  18.576  25.902  1.00  0.00    -0.269 OA
ATOM      5  C   UNL A   1      41.331  19.468  26.055  1.00  0.00     0.251 C 
ATOM      6  H   UNL A   1      39.772  18.332  25.514  1.00  0.00     0.163 HD
BRANCH   5   7
ATOM      7  C   UNL A   1      41.746  20.781  26.587  1.00  0.00     0.039 A 
ATOM      8  C   UNL A   1      41.670  21.039  27.955  1.00  0.00     0.014 A 
ATOM      9  C   UNL A   1      42.207  21.767  25.710  1.00  0.00     0.014 A 
ATOM     10  C   UNL A   1      41.862  22.329  28.422  1.00  0.00     0.010 A 
ATOM     11  C   UNL A   1      42.527  23.034  26.204  1.00  0.00     0.010 A 
ATOM     12  C   UNL A   1      42.324  23.334  27.559  1.00  0.00    -0.014 A 
BRANCH  12  13
ATOM     13  C   UNL A   1      42.667  24.658  28.131  1.00  0.00     0.031 A 
ATOM     14  C   UNL A   1      44.087  25.034  28.444  1.00  0.00     0.074 A 
ATOM     15  C   UNL A   1      41.669  25.544  28.318  1.00  0.00     0.049 A 
ATOM     16  N   UNL A   1      44.546  26.158  28.934  1.00  0.00    -0.248 NA
ATOM     17  C   UNL A   1      45.124  24.025  28.182  1.00  0.00     0.031 C 
ATOM     18  C   UNL A   1      40.252  25.284  28.046  1.00  0.00     0.029 A 
ATOM     19  N   UNL A   1      41.689  26.846  28.746  1.00  0.00    -0.354 N 
ATOM     20  C   UNL A   1      45.918  25.985  29.060  1.00  0.00     0.074 A 
ATOM     21  C   UNL A   1      46.218  24.642  28.613  1.00  0.00     0.031 C 
ATOM     22  C   UNL A   1      39.551  26.407  28.243  1.00  0.00     0.029 A 
ATOM     23  C   UNL A   1      40.450  27.442  28.736  1.00  0.00     0.049 A 
ATOM     24  H   UNL A   1      42.508  27.309  29.031  1.00  0.00     0.167 HD
ATOM     25  C   UNL A   1      46.839  26.874  29.503  1.00  0.00     0.037 A 
ATOM     26  C   UNL A   1      40.072  28.679  29.102  1.00  0.00     0.037 A 
ATOM     27  C   UNL A   1      46.530  28.217  29.924  1.00  0.00     0.049 A 
ATOM     28  C   UNL A   1      41.108  29.630  29.617  1.00  0.00     0.074 A 
ATOM     29  C   UNL A   1      47.398  29.201  30.367  1.00  0.00     0.029 A 
ATOM     30  N   UNL A   1      45.256  28.765  29.953  1.00  0.00    -0.354 N 
ATOM     31  N   UNL A   1      42.402  29.451  29.731  1.00  0.00    -0.248 NA
ATOM     32  C   UNL A   1      40.636  30.943  30.069  1.00  0.00     0.031 C 
ATOM     33  C   UNL A   1      46.645  30.328  30.704  1.00  0.00     0.029 A 
ATOM     34  C   UNL A   1      45.312  30.067  30.426  1.00  0.00     0.049 A 
ATOM     35  H   UNL A   1      44.433  28.299  29.677  1.00  0.00     0.167 HD
ATOM     36  C   UNL A   1      42.901  30.630  30.262  1.00  0.00     0.074 A 
ATOM     37  C   UNL A   1      41.773  31.525  30.427  1.00  0.00     0.031 C 
ATOM     38  C   UNL A   1      44.179  30.940  30.587  1.00  0.00     0.037 A 
BRANCH  25  39
ATOM     39  C   UNL A   1      48.271  26.430  29.571  1.00  0.00     0.057 A 
ATOM     40  C   UNL A   1      48.772  25.813  30.725  1.00  0.00     0.134 A 
ATOM     41  C   UNL A   1      49.174  26.685  28.531  1.00  0.00     0.134 A 
ATOM     42  F   UNL A   1      47.962  25.547  31.761  1.00  0.00    -0.206 F 
ATOM     43  C   UNL A   1      50.122  25.479  30.848  1.00  0.00     0.040 A 
ATOM     44  C   UNL A   1      50.522  26.335  28.634  1.00  0.00     0.040 A 
ATOM     45  F   UNL A   1      48.756  27.263  27.394  1.00  0.00    -0.206 F 
ATOM     46  C   UNL A   1      51.001  25.740  29.800  1.00  0.00     0.006 A 
ENDBRANCH  25  39
BRANCH  26  47
ATOM     47  C   UNL A   1      38.644  29.066  28.995  1.00  0.00     0.057 A 
ATOM     48  C   UNL A   1      38.119  29.590  27.807  1.00  0.00     0.134 A 
ATOM     49  C   UNL A   1      37.789  28.977  30.096  1.00  0.00     0.134 A 
ATOM     50  F   UNL A   1      38.894  29.711  26.719  1.00  0.00    -0.206 F 
ATOM     51  C   UNL A   1      36.800  30.037  27.726  1.00  0.00     0.040 A 
ATOM     52  C   UNL A   1      36.459  29.397  30.022  1.00  0.00     0.040 A 
ATOM     53  F   UNL A   1      38.232  28.473  31.258  1.00  0.00    -0.206 F 
ATOM     54  C   UNL A   1      35.965  29.939  28.837  1.00  0.00     0.006 A 
ENDBRANCH  26  47
BRANCH  38  55
ATOM     55  C   UNL A   1      44.430  32.308  31.147  1.00  0.00     0.057 A 
ATOM     56  C   UNL A   1      44.355  32.539  32.526  1.00  0.00     0.134 A 
ATOM     57  C   UNL A   1      44.681  33.405  30.314  1.00  0.00     0.134 A 
ATOM     58  F   UNL A   1      44.110  31.530  33.374  1.00  0.00    -0.206 F 
ATOM     59  C   UNL A   1      44.511  33.820  33.056  1.00  0.00     0.040 A 
ATOM     60  C   UNL A   1      44.861  34.686  30.836  1.00  0.00     0.040 A 
ATOM     61  F   UNL A   1      44.776  33.243  28.986  1.00  0.00    -0.206 F 
ATOM     62  C   UNL A   1      44.767  34.897  32.210  1.00  0.00     0.006 A 
ENDBRANCH  38  55
ENDBRANCH  12  13
ENDBRANCH   5   7
ENDBRANCH   2   3
ENDBRANCH   1   2
BRANCH   1  63
ATOM     63  C   UNL A   1      36.574  19.290  25.361  1.00  0.00     0.118 C 
BRANCH  63  64
ATOM     64  N   UNL A   1      35.387  19.664  24.622  1.00  0.00    -0.351 N 
ATOM     65  C   UNL A   1      34.381  20.508  24.977  1.00  0.00     0.278 C 
ATOM     66  H   UNL A   1      35.293  19.247  23.736  1.00  0.00     0.163 HD
ATOM     67  O   UNL A   1      33.328  20.427  24.343  1.00  0.00    -0.268 OA
BRANCH  65  68
ATOM     68  C   UNL A   1      34.599  21.496  26.138  1.00  0.00     0.273 C 
ATOM     69  C   UNL A   1      33.582  22.628  26.101  1.00  0.00     0.088 C 
ATOM     70  N   UNL A   1      35.866  22.249  26.012  1.00  0.00    -0.336 N 
ATOM     71  C   UNL A   1      34.188  23.670  25.124  1.00  0.00     0.029 C 
ATOM     72  C   UNL A   1      35.643  23.215  24.940  1.00  0.00     0.268 C 
ATOM     73  H   UNL A   1      36.632  21.619  25.770  1.00  0.00     0.346 HD
ATOM     74  H   UNL A   1      36.123  22.707  26.886  1.00  0.00     0.346 HD
ATOM     75  C   UNL A   1      34.138  25.080  25.745  1.00  0.00     0.034 C 
ATOM     76  C   UNL A   1      33.470  23.703  23.756  1.00  0.00     0.034 C 
ATOM     77  C   UNL A   1      32.713  25.639  25.796  1.00  0.00     0.120 C 
ATOM     78  C   UNL A   1      32.059  24.265  23.880  1.00  0.00     0.120 C 
ATOM     79  N   UNL A   1      32.104  25.599  24.474  1.00  0.00    -0.342 N 
ATOM     80  C   UNL A   1      31.969  26.673  23.596  1.00  0.00     0.233 C 
ATOM     81  O   UNL A   1      32.107  26.489  22.384  1.00  0.00    -0.274 OA
BRANCH  80  82
ATOM     82  C   UNL A   1      31.552  28.069  24.039  1.00  0.00     0.077 C 
ATOM     83  C   UNL A   1      31.709  28.748  25.396  1.00  0.00     0.023 C 
ATOM     84  C   UNL A   1      32.726  29.006  24.335  1.00  0.00     0.023 C 
BRANCH  82  85
ATOM     85  C   UNL A   1      30.333  28.587  23.254  1.00  0.00     0.003 A 
ATOM     86  C   UNL A   1      30.449  29.691  22.388  1.00  0.00     0.008 A 
ATOM     87  C   UNL A   1      29.050  28.046  23.430  1.00  0.00     0.127 A 
ATOM     88  C   UNL A   1      29.332  30.233  21.745  1.00  0.00     0.001 A 
ATOM     89  C   UNL A   1      27.929  28.590  22.808  1.00  0.00     0.039 A 
ATOM     90  F   UNL A   1      28.881  26.982  24.230  1.00  0.00    -0.207 F 
ATOM     91  C   UNL A   1      28.069  29.689  21.965  1.00  0.00     0.003 A 
ENDBRANCH  82  85
ENDBRANCH  80  82
ENDBRANCH  65  68
ENDBRANCH  63  64
ENDBRANCH   1  63
TORSDOF 12
ENDMDL
MODEL 2
REMARK VINA RESULT:     -12.4      0.922      2.098
REMARK SMILES O=C(NCCCNC(=O)[C@@H]1CC2(CCN(C(=O)C3(c4ccccc4F)CC3)CC2)C[NH2+]1)c1ccc(-c2c3nc(c(-c4c(F)cccc4F)c4ccc([nH]4)c(-c4c(F)cccc4F)c4nc(c(-c5c(F)cccc5F)c5ccc2[nH]5)C=C4)C=C3)cc1
REMARK SMILES IDX 5 1 4 2 3 3 1 4 2 5 32 7 33 8 85 9 34 10 84 11 35 12 36 13
REMARK SMILES IDX 37 14 78 15 38 16 83 17 77 18 79 19 39 20 82 21 76 22 75 23
REMARK SMILES IDX 40 25 66 26 49 27 65 28 50 29 53 30 64 31 80 32 51 33 52 34
REMARK SMILES IDX 63 36 81 37 54 38 41 39 42 40 47 41 43 42 44 43 46 44 48 45
REMARK SMILES IDX 45 46 67 47 68 48 73 49 69 50 70 51 72 52 74 53 71 54 55 55
REMARK SMILES IDX 56 56 61 57 57 58 58 59 60 60 62 61 59 62 6 63 7 64 8 65
REMARK SMILES IDX 9 67 10 68 11 69 31 70 12 71 30 72 13 75 29 76 14 77 28 78
REMARK SMILES IDX 15 79 16 80 17 81 18 82 26 83 27 84 19 85 20 86 24 87 21 88
REMARK SMILES IDX 23 89 25 90 22 91
REMARK H PARENT 3 6 79 24 53 35 7 66 31 73 31 74
REMARK Flexibility Score: inf
ROOT
ATOM      1  C   UNL A   1      37.790  19.779  24.665  1.00  0.00     0.042 C 
ENDROOT
BRANCH   1   2
ATOM      2  C   UNL A   1      38.845  20.193  25.679  1.00  0.00     0.118 C 
BRANCH   2   3
ATOM      3  N   UNL A   1      39.963  19.260  25.739  1.00  0.00    -0.352 N 
ATOM      4  O   UNL A   1      42.124  18.622  25.844  1.00  0.00    -0.269 OA
ATOM      5  C   UNL A   1      41.284  19.490  26.043  1.00  0.00     0.251 C 
ATOM      6  H   UNL A   1      39.737  18.324  25.531  1.00  0.00     0.163 HD
BRANCH   5   7
ATOM      7  C   UNL A   1      41.684  20.802  26.587  1.00  0.00     0.039 A 
ATOM      8  C   UNL A   1      41.621  21.041  27.959  1.00  0.00     0.014 A 
ATOM      9  C   UNL A   1      42.118  21.807  25.717  1.00  0.00     0.014 A 
ATOM     10  C   UNL A   1      41.797  22.327  28.441  1.00  0.00     0.010 A 
ATOM     11  C   UNL A   1      42.423  23.072  26.224  1.00  0.00     0.010 A 
ATOM     12  C   UNL A   1      42.232  23.351  27.586  1.00  0.00    -0.014 A 
BRANCH  12  13
ATOM     13  C   UNL A   1      42.560  24.674  28.171  1.00  0.00     0.031 A 
ATOM     14  C   UNL A   1      43.970  25.045  28.528  1.00  0.00     0.074 A 
ATOM     15  C   UNL A   1      41.559  25.561  28.330  1.00  0.00     0.049 A 
ATOM     16  N   UNL A   1      44.417  26.167  29.034  1.00  0.00    -0.248 NA
ATOM     17  C   UNL A   1      45.014  24.036  28.295  1.00  0.00     0.031 C 
ATOM     18  C   UNL A   1      40.150  25.304  28.015  1.00  0.00     0.029 A 
ATOM     19  N   UNL A   1      41.568  26.861  28.761  1.00  0.00    -0.354 N 
ATOM     20  C   UNL A   1      45.784  25.992  29.200  1.00  0.00     0.074 A 
ATOM     21  C   UNL A   1      46.095  24.649  28.760  1.00  0.00     0.031 C 
ATOM     22  C   UNL A   1      39.446  26.428  28.194  1.00  0.00     0.029 A 
ATOM     23  C   UNL A   1      40.332  27.460  28.716  1.00  0.00     0.049 A 
ATOM     24  H   UNL A   1      42.380  27.322  29.072  1.00  0.00     0.167 HD
ATOM     25  C   UNL A   1      46.693  26.878  29.674  1.00  0.00     0.037 A 
ATOM     26  C   UNL A   1      39.945  28.697  29.073  1.00  0.00     0.037 A 
ATOM     27  C   UNL A   1      46.374  28.220  30.088  1.00  0.00     0.049 A 
ATOM     28  C   UNL A   1      40.967  29.644  29.621  1.00  0.00     0.074 A 
ATOM     29  C   UNL A   1      47.230  29.201  30.560  1.00  0.00     0.029 A 
ATOM     30  N   UNL A   1      45.100  28.771  30.080  1.00  0.00    -0.354 N 
ATOM     31  N   UNL A   1      42.256  29.463  29.774  1.00  0.00    -0.248 NA
ATOM     32  C   UNL A   1      40.483  30.958  30.062  1.00  0.00     0.031 C 
ATOM     33  C   UNL A   1      46.469  30.329  30.877  1.00  0.00     0.029 A 
ATOM     34  C   UNL A   1      45.145  30.071  30.559  1.00  0.00     0.049 A 
ATOM     35  H   UNL A   1      44.286  28.307  29.779  1.00  0.00     0.167 HD
ATOM     36  C   UNL A   1      42.741  30.640  30.323  1.00  0.00     0.074 A 
ATOM     37  C   UNL A   1      41.610  31.537  30.456  1.00  0.00     0.031 C 
ATOM     38  C   UNL A   1      44.009  30.946  30.687  1.00  0.00     0.037 A 
BRANCH  25  39
ATOM     39  C   UNL A   1      48.121  26.431  29.784  1.00  0.00     0.057 A 
ATOM     40  C   UNL A   1      48.996  26.564  28.697  1.00  0.00     0.134 A 
ATOM     41  C   UNL A   1      48.610  25.795  30.932  1.00  0.00     0.134 A 
ATOM     42  F   UNL A   1      48.590  27.157  27.565  1.00  0.00    -0.206 F 
ATOM     43  C   UNL A   1      50.300  26.068  28.744  1.00  0.00     0.040 A 
ATOM     44  C   UNL A   1      49.920  25.315  30.999  1.00  0.00     0.040 A 
ATOM     45  F   UNL A   1      47.827  25.645  32.012  1.00  0.00    -0.206 F 
ATOM     46  C   UNL A   1      50.766  25.442  29.898  1.00  0.00     0.006 A 
ENDBRANCH  25  39
BRANCH  26  47
ATOM     47  C   UNL A   1      38.522  29.087  28.924  1.00  0.00     0.057 A 
ATOM     48  C   UNL A   1      38.028  29.591  27.714  1.00  0.00     0.134 A 
ATOM     49  C   UNL A   1      37.639  29.020  30.005  1.00  0.00     0.134 A 
ATOM     50  F   UNL A   1      38.830  29.691  26.644  1.00  0.00    -0.206 F 
ATOM     51  C   UNL A   1      36.713  30.042  27.593  1.00  0.00     0.040 A 
ATOM     52  C   UNL A   1      36.313  29.444  29.891  1.00  0.00     0.040 A 
ATOM     53  F   UNL A   1      38.051  28.535  31.186  1.00  0.00    -0.206 F 
ATOM     54  C   UNL A   1      35.851  29.966  28.685  1.00  0.00     0.006 A 
ENDBRANCH  26  47
BRANCH  38  55
ATOM     55  C   UNL A   1      44.245  32.313  31.257  1.00  0.00     0.057 A 
ATOM     56  C   UNL A   1      44.566  33.388  30.420  1.00  0.00     0.134 A 
ATOM     57  C   UNL A   1      44.216  32.546  32.637  1.00  0.00     0.134 A 
ATOM     58  F   UNL A   1      44.617  33.226  29.089  1.00  0.00    -0.206 F 
ATOM     59  C   UNL A   1      44.863  34.649  30.939  1.00  0.00     0.040 A 
ATOM     60  C   UNL A   1      44.490  33.808  33.166  1.00  0.00     0.040 A 
ATOM     61  F   UNL A   1      43.903  31.557  33.488  1.00  0.00    -0.206 F 
ATOM     62  C   UNL A   1      44.822  34.861  32.316  1.00  0.00     0.006 A 
ENDBRANCH  38  55
ENDBRANCH  12  13
ENDBRANCH   5   7
ENDBRANCH   2   3
ENDBRANCH   1   2
BRANCH   1  63
ATOM     63  C   UNL A   1      36.605  19.061  25.287  1.00  0.00     0.118 C 
BRANCH  63  64
ATOM     64  N   UNL A   1      35.433  19.163  24.444  1.00  0.00    -0.351 N 
ATOM     65  C   UNL A   1      34.183  19.600  24.755  1.00  0.00     0.278 C 
ATOM     66  H   UNL A   1      35.558  18.876  23.511  1.00  0.00     0.163 HD
ATOM     67  O   UNL A   1      33.273  19.299  23.981  1.00  0.00    -0.268 OA
BRANCH  65  68
ATOM     68  C   UNL A   1      33.968  20.421  26.039  1.00  0.00     0.273 C 
ATOM     69  C   UNL A   1      32.816  21.404  25.883  1.00  0.00     0.088 C 
ATOM     70  N   UNL A   1      35.091  21.343  26.318  1.00  0.00    -0.336 N 
ATOM     71  C   UNL A   1      33.450  22.652  25.212  1.00  0.00     0.029 C 
ATOM     72  C   UNL A   1      34.962  22.423  25.342  1.00  0.00     0.268 C 
ATOM     73  H   UNL A   1      35.984  20.862  26.202  1.00  0.00     0.346 HD
ATOM     74  H   UNL A   1      35.064  21.694  27.275  1.00  0.00     0.346 HD
ATOM     75  C   UNL A   1      33.031  23.933  25.960  1.00  0.00     0.034 C 
ATOM     76  C   UNL A   1      33.066  22.796  23.723  1.00  0.00     0.034 C 
ATOM     77  C   UNL A   1      31.561  24.287  25.722  1.00  0.00     0.120 C 
ATOM     78  C   UNL A   1      31.591  23.144  23.558  1.00  0.00     0.120 C 
ATOM     79  N   UNL A   1      31.282  24.368  24.294  1.00  0.00    -0.342 N 
ATOM     80  C   UNL A   1      31.178  25.535  23.539  1.00  0.00     0.233 C 
ATOM     81  O   UNL A   1      31.615  25.555  22.386  1.00  0.00    -0.274 OA
BRANCH  80  82
ATOM     82  C   UNL A   1      30.449  26.782  24.024  1.00  0.00     0.077 C 
ATOM     83  C   UNL A   1      29.436  27.662  23.298  1.00  0.00     0.023 C 
ATOM     84  C   UNL A   1      28.943  26.590  24.212  1.00  0.00     0.023 C 
BRANCH  82  85
ATOM     85  C   UNL A   1      31.265  27.558  25.074  1.00  0.00     0.003 A 
ATOM     86  C   UNL A   1      31.015  27.388  26.450  1.00  0.00     0.008 A 
ATOM     87  C   UNL A   1      32.220  28.521  24.713  1.00  0.00     0.127 A 
ATOM     88  C   UNL A   1      31.678  28.158  27.410  1.00  0.00     0.001 A 
ATOM     89  C   UNL A   1      32.872  29.305  25.661  1.00  0.00     0.039 A 
ATOM     90  F   UNL A   1      32.512  28.715  23.418  1.00  0.00    -0.207 F 
ATOM     91  C   UNL A   1      32.599  29.125  27.015  1.00  0.00     0.003 A 
ENDBRANCH  82  85
ENDBRANCH  80  82
ENDBRANCH  65  68
ENDBRANCH  63  64
ENDBRANCH   1  63
TORSDOF 12
ENDMDL
MODEL 3
REMARK VINA RESULT:     -12.4      1.694      2.779
REMARK SMILES O=C(NCCCNC(=O)[C@@H]1CC2(CCN(C(=O)C3(c4ccccc4F)CC3)CC2)C[NH2+]1)c1ccc(-c2c3nc(c(-c4c(F)cccc4F)c4ccc([nH]4)c(-c4c(F)cccc4F)c4nc(c(-c5c(F)cccc5F)c5ccc2[nH]5)C=C4)C=C3)cc1
REMARK SMILES IDX 5 1 4 2 3 3 1 4 2 5 32 7 33 8 85 9 34 10 84 11 35 12 36 13
REMARK SMILES IDX 37 14 78 15 38 16 83 17 77 18 79 19 39 20 82 21 76 22 75 23
REMARK SMILES IDX 40 25 66 26 49 27 65 28 50 29 53 30 64 31 80 32 51 33 52 34
REMARK SMILES IDX 63 36 81 37 54 38 41 39 42 40 47 41 43 42 44 43 46 44 48 45
REMARK SMILES IDX 45 46 67 47 68 48 73 49 69 50 70 51 72 52 74 53 71 54 55 55
REMARK SMILES IDX 56 56 61 57 57 58 58 59 60 60 62 61 59 62 6 63 7 64 8 65
REMARK SMILES IDX 9 67 10 68 11 69 31 70 12 71 30 72 13 75 29 76 14 77 28 78
REMARK SMILES IDX 15 79 16 80 17 81 18 82 26 83 27 84 19 85 20 86 24 87 21 88
REMARK SMILES IDX 23 89 25 90 22 91
REMARK H PARENT 3 6 79 24 53 35 7 66 31 73 31 74
REMARK Flexibility Score: inf
ROOT
ATOM      1  C   UNL A   1      37.819  19.685  25.001  1.00  0.00     0.042 C 
ENDROOT
BRANCH   1   2
ATOM      2  C   UNL A   1      39.018  20.185  25.791  1.00  0.00     0.118 C 
BRANCH   2   3
ATOM      3  N   UNL A   1      40.089  19.199  25.870  1.00  0.00    -0.352 N 
ATOM      4  O   UNL A   1      42.215  18.446  25.875  1.00  0.00    -0.269 OA
ATOM      5  C   UNL A   1      41.442  19.380  26.038  1.00  0.00     0.251 C 
ATOM      6  H   UNL A   1      39.799  18.261  25.792  1.00  0.00     0.163 HD
BRANCH   5   7
ATOM      7  C   UNL A   1      41.953  20.719  26.390  1.00  0.00     0.039 A 
ATOM      8  C   UNL A   1      42.132  21.072  27.727  1.00  0.00     0.014 A 
ATOM      9  C   UNL A   1      42.250  21.634  25.376  1.00  0.00     0.014 A 
ATOM     10  C   UNL A   1      42.411  22.387  28.059  1.00  0.00     0.010 A 
ATOM     11  C   UNL A   1      42.661  22.926  25.712  1.00  0.00     0.010 A 
ATOM     12  C   UNL A   1      42.713  23.322  27.057  1.00  0.00    -0.014 A 
BRANCH  12  13
ATOM     13  C   UNL A   1      43.160  24.676  27.461  1.00  0.00     0.031 A 
ATOM     14  C   UNL A   1      44.604  25.082  27.378  1.00  0.00     0.074 A 
ATOM     15  C   UNL A   1      42.225  25.559  27.863  1.00  0.00     0.049 A 
ATOM     16  N   UNL A   1      45.148  26.233  27.681  1.00  0.00    -0.248 NA
ATOM     17  C   UNL A   1      45.561  24.074  26.900  1.00  0.00     0.031 C 
ATOM     18  C   UNL A   1      40.792  25.270  27.980  1.00  0.00     0.029 A 
ATOM     19  N   UNL A   1      42.324  26.880  28.212  1.00  0.00    -0.354 N 
ATOM     20  C   UNL A   1      46.509  26.083  27.454  1.00  0.00     0.074 A 
ATOM     21  C   UNL A   1      46.714  24.722  27.005  1.00  0.00     0.031 C 
ATOM     22  C   UNL A   1      40.140  26.394  28.303  1.00  0.00     0.029 A 
ATOM     23  C   UNL A   1      41.112  27.461  28.499  1.00  0.00     0.049 A 
ATOM     24  H   UNL A   1      43.179  27.365  28.254  1.00  0.00     0.167 HD
ATOM     25  C   UNL A   1      47.492  27.002  27.603  1.00  0.00     0.037 A 
ATOM     26  C   UNL A   1      40.813  28.710  28.896  1.00  0.00     0.037 A 
ATOM     27  C   UNL A   1      47.272  28.360  28.030  1.00  0.00     0.049 A 
ATOM     28  C   UNL A   1      41.925  29.696  29.081  1.00  0.00     0.074 A 
ATOM     29  C   UNL A   1      48.202  29.374  28.189  1.00  0.00     0.029 A 
ATOM     30  N   UNL A   1      46.036  28.895  28.365  1.00  0.00    -0.354 N 
ATOM     31  N   UNL A   1      43.207  29.537  28.863  1.00  0.00    -0.248 NA
ATOM     32  C   UNL A   1      41.555  31.025  29.582  1.00  0.00     0.031 C 
ATOM     33  C   UNL A   1      47.536  30.508  28.660  1.00  0.00     0.029 A 
ATOM     34  C   UNL A   1      46.184  30.218  28.750  1.00  0.00     0.049 A 
ATOM     35  H   UNL A   1      45.182  28.407  28.334  1.00  0.00     0.167 HD
ATOM     36  C   UNL A   1      43.799  30.747  29.193  1.00  0.00     0.074 A 
ATOM     37  C   UNL A   1      42.732  31.636  29.607  1.00  0.00     0.031 C 
ATOM     38  C   UNL A   1      45.111  31.086  29.162  1.00  0.00     0.037 A 
BRANCH  25  39
ATOM     39  C   UNL A   1      48.903  26.578  27.316  1.00  0.00     0.057 A 
ATOM     40  C   UNL A   1      49.413  26.631  26.012  1.00  0.00     0.134 A 
ATOM     41  C   UNL A   1      49.730  26.040  28.311  1.00  0.00     0.134 A 
ATOM     42  F   UNL A   1      48.671  27.130  25.012  1.00  0.00    -0.206 F 
ATOM     43  C   UNL A   1      50.688  26.152  25.705  1.00  0.00     0.040 A 
ATOM     44  C   UNL A   1      51.016  25.578  28.020  1.00  0.00     0.040 A 
ATOM     45  F   UNL A   1      49.306  25.970  29.582  1.00  0.00    -0.206 F 
ATOM     46  C   UNL A   1      51.493  25.624  26.711  1.00  0.00     0.006 A 
ENDBRANCH  25  39
BRANCH  26  47
ATOM     47  C   UNL A   1      39.397  29.075  29.146  1.00  0.00     0.057 A 
ATOM     48  C   UNL A   1      38.818  28.922  30.413  1.00  0.00     0.134 A 
ATOM     49  C   UNL A   1      38.576  29.526  28.110  1.00  0.00     0.134 A 
ATOM     50  F   UNL A   1      39.553  28.481  31.444  1.00  0.00    -0.206 F 
ATOM     51  C   UNL A   1      37.465  29.180  30.633  1.00  0.00     0.040 A 
ATOM     52  C   UNL A   1      37.226  29.813  28.322  1.00  0.00     0.040 A 
ATOM     53  F   UNL A   1      39.076  29.703  26.877  1.00  0.00    -0.206 F 
ATOM     54  C   UNL A   1      36.665  29.629  29.585  1.00  0.00     0.006 A 
ENDBRANCH  26  47
BRANCH  38  55
ATOM     55  C   UNL A   1      45.465  32.482  29.576  1.00  0.00     0.057 A 
ATOM     56  C   UNL A   1      45.765  32.775  30.912  1.00  0.00     0.134 A 
ATOM     57  C   UNL A   1      45.448  33.544  28.663  1.00  0.00     0.134 A 
ATOM     58  F   UNL A   1      45.790  31.802  31.835  1.00  0.00    -0.206 F 
ATOM     59  C   UNL A   1      46.024  34.081  31.328  1.00  0.00     0.040 A 
ATOM     60  C   UNL A   1      45.727  34.851  29.064  1.00  0.00     0.040 A 
ATOM     61  F   UNL A   1      45.180  33.323  27.368  1.00  0.00    -0.206 F 
ATOM     62  C   UNL A   1      46.007  35.123  30.403  1.00  0.00     0.006 A 
ENDBRANCH  38  55
ENDBRANCH  12  13
ENDBRANCH   5   7
ENDBRANCH   2   3
ENDBRANCH   1   2
BRANCH   1  63
ATOM     63  C   UNL A   1      36.739  20.737  24.816  1.00  0.00     0.118 C 
BRANCH  63  64
ATOM     64  N   UNL A   1      35.519  20.355  25.494  1.00  0.00    -0.351 N 
ATOM     65  C   UNL A   1      34.233  20.704  25.219  1.00  0.00     0.278 C 
ATOM     66  H   UNL A   1      35.635  19.755  26.266  1.00  0.00     0.163 HD
ATOM     67  O   UNL A   1      33.400  20.529  26.108  1.00  0.00    -0.268 OA
BRANCH  65  68
ATOM     68  C   UNL A   1      33.893  21.303  23.842  1.00  0.00     0.273 C 
ATOM     69  C   UNL A   1      34.046  22.818  23.843  1.00  0.00     0.088 C 
ATOM     70  N   UNL A   1      32.460  21.164  23.500  1.00  0.00    -0.336 N 
ATOM     71  C   UNL A   1      32.694  23.350  24.389  1.00  0.00     0.029 C 
ATOM     72  C   UNL A   1      31.761  22.133  24.341  1.00  0.00     0.268 C 
ATOM     73  H   UNL A   1      32.137  20.217  23.703  1.00  0.00     0.346 HD
ATOM     74  H   UNL A   1      32.289  21.331  22.509  1.00  0.00     0.346 HD
ATOM     75  C   UNL A   1      32.158  24.478  23.486  1.00  0.00     0.034 C 
ATOM     76  C   UNL A   1      32.796  23.879  25.838  1.00  0.00     0.034 C 
ATOM     77  C   UNL A   1      32.968  25.769  23.629  1.00  0.00     0.120 C 
ATOM     78  C   UNL A   1      33.618  25.160  25.908  1.00  0.00     0.120 C 
ATOM     79  N   UNL A   1      33.040  26.172  25.027  1.00  0.00    -0.342 N 
ATOM     80  C   UNL A   1      32.275  27.163  25.639  1.00  0.00     0.233 C 
ATOM     81  O   UNL A   1      31.884  27.001  26.797  1.00  0.00    -0.274 OA
BRANCH  80  82
ATOM     82  C   UNL A   1      31.972  28.507  24.989  1.00  0.00     0.077 C 
ATOM     83  C   UNL A   1      31.963  28.897  23.514  1.00  0.00     0.023 C 
ATOM     84  C   UNL A   1      30.677  28.529  24.175  1.00  0.00     0.023 C 
BRANCH  82  85
ATOM     85  C   UNL A   1      32.321  29.689  25.913  1.00  0.00     0.003 A 
ATOM     86  C   UNL A   1      31.403  30.737  26.120  1.00  0.00     0.008 A 
ATOM     87  C   UNL A   1      33.584  29.819  26.511  1.00  0.00     0.127 A 
ATOM     88  C   UNL A   1      31.743  31.863  26.876  1.00  0.00     0.001 A 
ATOM     89  C   UNL A   1      33.937  30.945  27.251  1.00  0.00     0.039 A 
ATOM     90  F   UNL A   1      34.493  28.844  26.363  1.00  0.00    -0.207 F 
ATOM     91  C   UNL A   1      33.015  31.972  27.432  1.00  0.00     0.003 A 
ENDBRANCH  82  85
ENDBRANCH  80  82
ENDBRANCH  65  68
ENDBRANCH  63  64
ENDBRANCH   1  63
TORSDOF 12
ENDMDL
