MODEL 1
REMARK VINA RESULT:     -12.9      0.000      0.000
REMARK SMILES Cc1noc2c1-c1c(c(C(=O)NCCCNC(=O)c3ccc(-c4c5nc(c(-c6c(F)cccc6F)c6ccc([nH]6)c(-c6c(F)cccc6F)c6nc(c(-c7c(F)cccc7F)c7ccc4[nH]7)C=C6)C=C5)cc3)nn1C)CC2
REMARK SMILES IDX 15 1 14 2 13 3 12 4 10 5 11 6 9 8 1 9 2 10 3 11 6 12 4 13
REMARK SMILES IDX 5 14 7 15 77 16 8 17 74 18 76 19 73 20 75 21 16 22 17 23
REMARK SMILES IDX 18 25 19 26 20 27 72 28 21 29 71 30 22 31 23 32 24 33 65 34
REMARK SMILES IDX 25 35 70 36 64 37 66 38 26 39 69 40 63 41 62 42 27 44 53 45
REMARK SMILES IDX 36 46 52 47 37 48 40 49 51 50 67 51 38 52 39 53 50 55 68 56
REMARK SMILES IDX 41 57 28 58 29 59 34 60 30 61 31 62 33 63 35 64 32 65 54 66
REMARK SMILES IDX 55 67 60 68 56 69 57 70 59 71 61 72 58 73 42 74 43 75 48 76
REMARK SMILES IDX 44 77 45 78 47 79 49 80 46 81
REMARK H PARENT 12 7 16 24 66 43 40 54
REMARK Flexibility Score: inf
ROOT
ATOM      1  C   UNL A   1      39.151  20.845  25.775  1.00  0.00     0.118 C 
ENDROOT
BRANCH   1   2
ATOM      2  C   UNL A   1      37.839  20.832  25.038  1.00  0.00     0.042 C 
BRANCH   2   3
ATOM      3  C   UNL A   1      36.821  21.808  25.587  1.00  0.00     0.118 C 
BRANCH   3   4
ATOM      4  N   UNL A   1      35.814  21.409  26.518  1.00  0.00    -0.351 N 
ATOM      5  C   UNL A   1      34.517  21.910  26.574  1.00  0.00     0.272 C 
ATOM      6  O   UNL A   1      33.766  21.324  27.363  1.00  0.00    -0.267 OA
ATOM      7  H   UNL A   1      36.059  20.721  27.176  1.00  0.00     0.163 HD
BRANCH   5   8
ATOM      8  C   UNL A   1      34.063  23.129  25.805  1.00  0.00     0.154 A 
ATOM      9  C   UNL A   1      33.574  28.138  23.296  1.00  0.00     0.071 C 
ATOM     10  C   UNL A   1      33.457  26.844  22.597  1.00  0.00     0.090 A 
ATOM     11  N   UNL A   1      33.366  26.844  21.254  1.00  0.00    -0.084 NA
ATOM     12  C   UNL A   1      33.457  25.529  23.096  1.00  0.00     0.066 A 
ATOM     13  O   UNL A   1      33.274  25.516  20.868  1.00  0.00    -0.360 OA
ATOM     14  C   UNL A   1      33.315  24.751  21.975  1.00  0.00     0.146 A 
ATOM     15  C   UNL A   1      33.588  24.819  24.388  1.00  0.00     0.077 A 
ATOM     16  C   UNL A   1      33.180  23.287  21.883  1.00  0.00     0.084 C 
ATOM     17  C   UNL A   1      33.799  23.444  24.406  1.00  0.00     0.012 A 
ATOM     18  N   UNL A   1      33.575  25.230  25.678  1.00  0.00    -0.267 N 
ATOM     19  C   UNL A   1      33.852  22.644  23.108  1.00  0.00     0.048 C 
ATOM     20  N   UNL A   1      33.859  24.246  26.542  1.00  0.00    -0.167 NA
ATOM     21  C   UNL A   1      33.245  26.528  26.207  1.00  0.00     0.174 C 
ENDBRANCH   5   8
ENDBRANCH   3   4
ENDBRANCH   2   3
ENDBRANCH   1   2
BRANCH   1  22
ATOM     22  N   UNL A   1      39.875  19.561  25.794  1.00  0.00    -0.352 N 
ATOM     23  C   UNL A   1      41.242  19.380  25.990  1.00  0.00     0.251 C 
ATOM     24  H   UNL A   1      39.337  18.748  25.653  1.00  0.00     0.163 HD
ATOM     25  O   UNL A   1      41.805  18.323  25.737  1.00  0.00    -0.269 OA
BRANCH  23  26
ATOM     26  C   UNL A   1      41.989  20.528  26.528  1.00  0.00     0.039 A 
ATOM     27  C   UNL A   1      42.561  21.511  25.715  1.00  0.00     0.014 A 
ATOM     28  C   UNL A   1      41.832  20.718  27.888  1.00  0.00     0.014 A 
ATOM     29  C   UNL A   1      42.844  22.758  26.276  1.00  0.00     0.010 A 
ATOM     30  C   UNL A   1      41.819  22.007  28.334  1.00  0.00     0.010 A 
ATOM     31  C   UNL A   1      42.424  23.014  27.586  1.00  0.00    -0.014 A 
BRANCH  31  32
ATOM     32  C   UNL A   1      42.520  24.320  28.235  1.00  0.00     0.031 A 
ATOM     33  C   UNL A   1      41.378  25.262  28.042  1.00  0.00     0.074 A 
ATOM     34  C   UNL A   1      43.411  24.507  29.238  1.00  0.00     0.049 A 
ATOM     35  N   UNL A   1      41.399  26.453  27.538  1.00  0.00    -0.248 NA
ATOM     36  C   UNL A   1      40.026  24.799  28.396  1.00  0.00     0.031 C 
ATOM     37  C   UNL A   1      44.368  23.537  29.803  1.00  0.00     0.029 A 
ATOM     38  N   UNL A   1      43.534  25.558  30.087  1.00  0.00    -0.354 N 
ATOM     39  C   UNL A   1      40.111  26.968  27.693  1.00  0.00     0.074 A 
ATOM     40  C   UNL A   1      39.278  25.850  28.054  1.00  0.00     0.031 C 
ATOM     41  C   UNL A   1      44.746  23.935  31.034  1.00  0.00     0.029 A 
ATOM     42  C   UNL A   1      44.251  25.278  31.243  1.00  0.00     0.049 A 
ATOM     43  H   UNL A   1      43.147  26.443  29.900  1.00  0.00     0.167 HD
ATOM     44  C   UNL A   1      39.878  28.311  27.746  1.00  0.00     0.037 A 
ATOM     45  C   UNL A   1      44.425  26.090  32.311  1.00  0.00     0.037 A 
ATOM     46  C   UNL A   1      41.023  29.055  27.279  1.00  0.00     0.049 A 
ATOM     47  C   UNL A   1      44.102  27.466  31.864  1.00  0.00     0.074 A 
ATOM     48  C   UNL A   1      41.754  29.086  26.107  1.00  0.00     0.029 A 
ATOM     49  N   UNL A   1      41.815  29.671  28.219  1.00  0.00    -0.354 N 
ATOM     50  N   UNL A   1      44.811  28.134  30.995  1.00  0.00    -0.248 NA
ATOM     51  C   UNL A   1      42.733  27.927  32.037  1.00  0.00     0.031 C 
ATOM     52  C   UNL A   1      43.110  29.233  26.528  1.00  0.00     0.029 A 
ATOM     53  C   UNL A   1      43.113  29.353  27.918  1.00  0.00     0.049 A 
ATOM     54  H   UNL A   1      41.507  30.234  28.965  1.00  0.00     0.167 HD
ATOM     55  C   UNL A   1      43.881  28.808  30.220  1.00  0.00     0.074 A 
ATOM     56  C   UNL A   1      42.630  28.726  30.972  1.00  0.00     0.031 C 
ATOM     57  C   UNL A   1      44.135  29.111  28.911  1.00  0.00     0.037 A 
BRANCH  44  58
ATOM     58  C   UNL A   1      38.777  28.982  28.543  1.00  0.00     0.057 A 
ATOM     59  C   UNL A   1      38.650  28.696  29.917  1.00  0.00     0.134 A 
ATOM     60  C   UNL A   1      37.676  29.659  27.978  1.00  0.00     0.134 A 
ATOM     61  F   UNL A   1      39.622  28.051  30.580  1.00  0.00    -0.206 F 
ATOM     62  C   UNL A   1      37.488  28.980  30.646  1.00  0.00     0.040 A 
ATOM     63  C   UNL A   1      36.533  29.997  28.712  1.00  0.00     0.040 A 
ATOM     64  F   UNL A   1      37.596  29.940  26.673  1.00  0.00    -0.206 F 
ATOM     65  C   UNL A   1      36.418  29.627  30.041  1.00  0.00     0.006 A 
ENDBRANCH  44  58
BRANCH  45  66
ATOM     66  C   UNL A   1      44.639  25.724  33.725  1.00  0.00     0.057 A 
ATOM     67  C   UNL A   1      43.558  25.491  34.583  1.00  0.00     0.134 A 
ATOM     68  C   UNL A   1      45.908  25.356  34.210  1.00  0.00     0.134 A 
ATOM     69  F   UNL A   1      42.308  25.780  34.195  1.00  0.00    -0.206 F 
ATOM     70  C   UNL A   1      43.724  24.902  35.843  1.00  0.00     0.040 A 
ATOM     71  C   UNL A   1      46.089  24.775  35.468  1.00  0.00     0.040 A 
ATOM     72  F   UNL A   1      47.003  25.473  33.442  1.00  0.00    -0.206 F 
ATOM     73  C   UNL A   1      44.992  24.532  36.285  1.00  0.00     0.006 A 
ENDBRANCH  45  66
BRANCH  57  74
ATOM     74  C   UNL A   1      45.536  28.918  28.395  1.00  0.00     0.057 A 
ATOM     75  C   UNL A   1      45.986  27.749  27.763  1.00  0.00     0.134 A 
ATOM     76  C   UNL A   1      46.405  30.014  28.374  1.00  0.00     0.134 A 
ATOM     77  F   UNL A   1      45.194  26.680  27.637  1.00  0.00    -0.206 F 
ATOM     78  C   UNL A   1      47.250  27.660  27.174  1.00  0.00     0.040 A 
ATOM     79  C   UNL A   1      47.659  29.950  27.761  1.00  0.00     0.040 A 
ATOM     80  F   UNL A   1      46.024  31.187  28.904  1.00  0.00    -0.206 F 
ATOM     81  C   UNL A   1      48.089  28.767  27.164  1.00  0.00     0.006 A 
ENDBRANCH  57  74
ENDBRANCH  31  32
ENDBRANCH  23  26
ENDBRANCH   1  22
TORSDOF 10
ENDMDL
MODEL 2
REMARK VINA RESULT:     -12.6      4.067      8.968
REMARK SMILES Cc1noc2c1-c1c(c(C(=O)NCCCNC(=O)c3ccc(-c4c5nc(c(-c6c(F)cccc6F)c6ccc([nH]6)c(-c6c(F)cccc6F)c6nc(c(-c7c(F)cccc7F)c7ccc4[nH]7)C=C6)C=C5)cc3)nn1C)CC2
REMARK SMILES IDX 15 1 14 2 13 3 12 4 10 5 11 6 9 8 1 9 2 10 3 11 6 12 4 13
REMARK SMILES IDX 5 14 7 15 77 16 8 17 74 18 76 19 73 20 75 21 16 22 17 23
REMARK SMILES IDX 18 25 19 26 20 27 72 28 21 29 71 30 22 31 23 32 24 33 65 34
REMARK SMILES IDX 25 35 70 36 64 37 66 38 26 39 69 40 63 41 62 42 27 44 53 45
REMARK SMILES IDX 36 46 52 47 37 48 40 49 51 50 67 51 38 52 39 53 50 55 68 56
REMARK SMILES IDX 41 57 28 58 29 59 34 60 30 61 31 62 33 63 35 64 32 65 54 66
REMARK SMILES IDX 55 67 60 68 56 69 57 70 59 71 61 72 58 73 42 74 43 75 48 76
REMARK SMILES IDX 44 77 45 78 47 79 49 80 46 81
REMARK H PARENT 12 7 16 24 66 43 40 54
REMARK Flexibility Score: inf
ROOT
ATOM      1  C   UNL A   1      33.121  31.974  27.533  1.00  0.00     0.118 C 
ENDROOT
BRANCH   1   2
ATOM      2  C   UNL A   1      32.271  30.986  26.780  1.00  0.00     0.042 C 
BRANCH   2   3
ATOM      3  C   UNL A   1      33.066  29.903  26.084  1.00  0.00     0.118 C 
BRANCH   3   4
ATOM      4  N   UNL A   1      33.258  29.894  24.669  1.00  0.00    -0.351 N 
ATOM      5  C   UNL A   1      33.155  28.779  23.843  1.00  0.00     0.272 C 
ATOM      6  O   UNL A   1      33.216  29.020  22.632  1.00  0.00    -0.267 OA
ATOM      7  H   UNL A   1      33.482  30.751  24.241  1.00  0.00     0.163 HD
BRANCH   5   8
ATOM      8  C   UNL A   1      33.061  27.364  24.366  1.00  0.00     0.154 A 
ATOM      9  C   UNL A   1      33.577  22.550  27.226  1.00  0.00     0.071 C 
ATOM     10  C   UNL A   1      32.297  23.248  27.000  1.00  0.00     0.090 A 
ATOM     11  N   UNL A   1      31.195  22.794  27.627  1.00  0.00    -0.084 NA
ATOM     12  C   UNL A   1      31.998  24.389  26.234  1.00  0.00     0.066 A 
ATOM     13  O   UNL A   1      30.155  23.626  27.244  1.00  0.00    -0.360 OA
ATOM     14  C   UNL A   1      30.648  24.557  26.406  1.00  0.00     0.146 A 
ATOM     15  C   UNL A   1      32.693  25.388  25.390  1.00  0.00     0.077 A 
ATOM     16  C   UNL A   1      29.759  25.556  25.786  1.00  0.00     0.084 C 
ATOM     17  C   UNL A   1      32.035  26.554  25.011  1.00  0.00     0.012 A 
ATOM     18  N   UNL A   1      33.941  25.457  24.870  1.00  0.00    -0.267 N 
ATOM     19  C   UNL A   1      30.584  26.800  25.415  1.00  0.00     0.048 C 
ATOM     20  N   UNL A   1      34.188  26.623  24.259  1.00  0.00    -0.167 NA
ATOM     21  C   UNL A   1      34.963  24.442  24.845  1.00  0.00     0.174 C 
ENDBRANCH   5   8
ENDBRANCH   3   4
ENDBRANCH   2   3
ENDBRANCH   1   2
BRANCH   1  22
ATOM     22  N   UNL A   1      32.576  33.341  27.614  1.00  0.00    -0.352 N 
ATOM     23  C   UNL A   1      33.009  34.362  28.457  1.00  0.00     0.251 C 
ATOM     24  H   UNL A   1      31.828  33.555  27.010  1.00  0.00     0.163 HD
ATOM     25  O   UNL A   1      32.350  35.374  28.651  1.00  0.00    -0.269 OA
BRANCH  23  26
ATOM     26  C   UNL A   1      34.315  34.169  29.107  1.00  0.00     0.039 A 
ATOM     27  C   UNL A   1      34.457  33.570  30.363  1.00  0.00     0.014 A 
ATOM     28  C   UNL A   1      35.398  34.352  28.268  1.00  0.00     0.014 A 
ATOM     29  C   UNL A   1      35.697  33.024  30.705  1.00  0.00     0.010 A 
ATOM     30  C   UNL A   1      36.484  33.556  28.480  1.00  0.00     0.010 A 
ATOM     31  C   UNL A   1      36.701  32.981  29.730  1.00  0.00    -0.014 A 
BRANCH  31  32
ATOM     32  C   UNL A   1      37.983  32.303  29.907  1.00  0.00     0.031 A 
ATOM     33  C   UNL A   1      38.090  30.905  29.395  1.00  0.00     0.074 A 
ATOM     34  C   UNL A   1      39.094  33.029  30.179  1.00  0.00     0.049 A 
ATOM     35  N   UNL A   1      38.391  29.833  30.054  1.00  0.00    -0.248 NA
ATOM     36  C   UNL A   1      37.758  30.652  27.983  1.00  0.00     0.031 C 
ATOM     37  C   UNL A   1      39.213  34.489  30.346  1.00  0.00     0.029 A 
ATOM     38  N   UNL A   1      40.391  32.633  30.194  1.00  0.00    -0.354 N 
ATOM     39  C   UNL A   1      38.486  28.807  29.111  1.00  0.00     0.074 A 
ATOM     40  C   UNL A   1      37.911  29.329  27.899  1.00  0.00     0.031 C 
ATOM     41  C   UNL A   1      40.494  34.866  30.162  1.00  0.00     0.029 A 
ATOM     42  C   UNL A   1      41.308  33.672  30.097  1.00  0.00     0.049 A 
ATOM     43  H   UNL A   1      40.660  31.689  30.266  1.00  0.00     0.167 HD
ATOM     44  C   UNL A   1      39.245  27.695  29.336  1.00  0.00     0.037 A 
ATOM     45  C   UNL A   1      42.650  33.565  29.966  1.00  0.00     0.037 A 
ATOM     46  C   UNL A   1      39.599  27.583  30.730  1.00  0.00     0.049 A 
ATOM     47  C   UNL A   1      43.016  32.190  30.380  1.00  0.00     0.074 A 
ATOM     48  C   UNL A   1      38.890  27.510  31.913  1.00  0.00     0.029 A 
ATOM     49  N   UNL A   1      40.884  27.909  31.094  1.00  0.00    -0.354 N 
ATOM     50  N   UNL A   1      42.905  31.744  31.601  1.00  0.00    -0.248 NA
ATOM     51  C   UNL A   1      43.073  31.167  29.346  1.00  0.00     0.031 C 
ATOM     52  C   UNL A   1      39.643  28.295  32.837  1.00  0.00     0.029 A 
ATOM     53  C   UNL A   1      40.793  28.737  32.182  1.00  0.00     0.049 A 
ATOM     54  H   UNL A   1      41.711  27.605  30.656  1.00  0.00     0.167 HD
ATOM     55  C   UNL A   1      42.459  30.438  31.465  1.00  0.00     0.074 A 
ATOM     56  C   UNL A   1      42.681  30.107  30.058  1.00  0.00     0.031 C 
ATOM     57  C   UNL A   1      41.681  29.851  32.424  1.00  0.00     0.037 A 
BRANCH  44  58
ATOM     58  C   UNL A   1      39.974  26.899  28.272  1.00  0.00     0.057 A 
ATOM     59  C   UNL A   1      40.831  27.570  27.377  1.00  0.00     0.134 A 
ATOM     60  C   UNL A   1      39.660  25.574  27.905  1.00  0.00     0.134 A 
ATOM     61  F   UNL A   1      41.207  28.839  27.601  1.00  0.00    -0.206 F 
ATOM     62  C   UNL A   1      41.266  27.001  26.173  1.00  0.00     0.040 A 
ATOM     63  C   UNL A   1      40.135  24.976  26.732  1.00  0.00     0.040 A 
ATOM     64  F   UNL A   1      38.802  24.819  28.599  1.00  0.00    -0.206 F 
ATOM     65  C   UNL A   1      40.911  25.700  25.842  1.00  0.00     0.006 A 
ENDBRANCH  44  58
BRANCH  45  66
ATOM     66  C   UNL A   1      43.591  34.494  29.309  1.00  0.00     0.057 A 
ATOM     67  C   UNL A   1      43.858  34.402  27.939  1.00  0.00     0.134 A 
ATOM     68  C   UNL A   1      44.065  35.648  29.959  1.00  0.00     0.134 A 
ATOM     69  F   UNL A   1      43.416  33.354  27.229  1.00  0.00    -0.206 F 
ATOM     70  C   UNL A   1      44.538  35.412  27.245  1.00  0.00     0.040 A 
ATOM     71  C   UNL A   1      44.753  36.659  29.282  1.00  0.00     0.040 A 
ATOM     72  F   UNL A   1      43.805  35.868  31.257  1.00  0.00    -0.206 F 
ATOM     73  C   UNL A   1      44.979  36.550  27.915  1.00  0.00     0.006 A 
ENDBRANCH  45  66
BRANCH  57  74
ATOM     74  C   UNL A   1      41.520  30.559  33.742  1.00  0.00     0.057 A 
ATOM     75  C   UNL A   1      40.471  31.444  34.036  1.00  0.00     0.134 A 
ATOM     76  C   UNL A   1      42.351  30.198  34.808  1.00  0.00     0.134 A 
ATOM     77  F   UNL A   1      39.561  31.770  33.114  1.00  0.00    -0.206 F 
ATOM     78  C   UNL A   1      40.279  31.972  35.316  1.00  0.00     0.040 A 
ATOM     79  C   UNL A   1      42.152  30.694  36.100  1.00  0.00     0.040 A 
ATOM     80  F   UNL A   1      43.341  29.310  34.622  1.00  0.00    -0.206 F 
ATOM     81  C   UNL A   1      41.117  31.590  36.356  1.00  0.00     0.006 A 
ENDBRANCH  57  74
ENDBRANCH  31  32
ENDBRANCH  23  26
ENDBRANCH   1  22
TORSDOF 10
ENDMDL
MODEL 3
REMARK VINA RESULT:     -12.5      2.917      7.564
REMARK SMILES Cc1noc2c1-c1c(c(C(=O)NCCCNC(=O)c3ccc(-c4c5nc(c(-c6c(F)cccc6F)c6ccc([nH]6)c(-c6c(F)cccc6F)c6nc(c(-c7c(F)cccc7F)c7ccc4[nH]7)C=C6)C=C5)cc3)nn1C)CC2
REMARK SMILES IDX 15 1 14 2 13 3 12 4 10 5 11 6 9 8 1 9 2 10 3 11 6 12 4 13
REMARK SMILES IDX 5 14 7 15 77 16 8 17 74 18 76 19 73 20 75 21 16 22 17 23
REMARK SMILES IDX 18 25 19 26 20 27 72 28 21 29 71 30 22 31 23 32 24 33 65 34
REMARK SMILES IDX 25 35 70 36 64 37 66 38 26 39 69 40 63 41 62 42 27 44 53 45
REMARK SMILES IDX 36 46 52 47 37 48 40 49 51 50 67 51 38 52 39 53 50 55 68 56
REMARK SMILES IDX 41 57 28 58 29 59 34 60 30 61 31 62 33 63 35 64 32 65 54 66
REMARK SMILES IDX 55 67 60 68 56 69 57 70 59 71 61 72 58 73 42 74 43 75 48 76
REMARK SMILES IDX 44 77 45 78 47 79 49 80 46 81
REMARK H PARENT 12 7 16 24 66 43 40 54
REMARK Flexibility Score: inf
ROOT
ATOM      1  C   UNL A   1      34.799  29.089  27.543  1.00  0.00     0.118 C 
ENDROOT
BRANCH   1   2
ATOM      2  C   UNL A   1      33.382  29.179  27.043  1.00  0.00     0.042 C 
BRANCH   2   3
ATOM      3  C   UNL A   1      33.275  29.506  25.569  1.00  0.00     0.118 C 
BRANCH   3   4
ATOM      4  N   UNL A   1      32.096  30.077  25.003  1.00  0.00    -0.351 N 
ATOM      5  C   UNL A   1      31.090  29.376  24.344  1.00  0.00     0.272 C 
ATOM      6  O   UNL A   1      30.089  30.045  24.060  1.00  0.00    -0.267 OA
ATOM      7  H   UNL A   1      31.984  31.051  25.086  1.00  0.00     0.163 HD
BRANCH   5   8
ATOM      8  C   UNL A   1      31.224  27.931  23.922  1.00  0.00     0.154 A 
ATOM      9  C   UNL A   1      33.024  22.861  22.285  1.00  0.00     0.071 C 
ATOM     10  C   UNL A   1      32.260  23.112  23.523  1.00  0.00     0.090 A 
ATOM     11  N   UNL A   1      32.096  22.099  24.394  1.00  0.00    -0.084 NA
ATOM     12  C   UNL A   1      31.665  24.289  24.011  1.00  0.00     0.066 A 
ATOM     13  O   UNL A   1      31.358  22.608  25.451  1.00  0.00    -0.360 OA
ATOM     14  C   UNL A   1      31.099  23.904  25.199  1.00  0.00     0.146 A 
ATOM     15  C   UNL A   1      31.524  25.714  23.634  1.00  0.00     0.077 A 
ATOM     16  C   UNL A   1      30.278  24.701  26.126  1.00  0.00     0.084 C 
ATOM     17  C   UNL A   1      31.055  26.634  24.566  1.00  0.00     0.012 A 
ATOM     18  N   UNL A   1      31.790  26.406  22.501  1.00  0.00    -0.267 N 
ATOM     19  C   UNL A   1      30.638  26.188  25.965  1.00  0.00     0.048 C 
ATOM     20  N   UNL A   1      31.624  27.727  22.646  1.00  0.00    -0.167 NA
ATOM     21  C   UNL A   1      32.152  25.901  21.202  1.00  0.00     0.174 C 
ENDBRANCH   5   8
ENDBRANCH   3   4
ENDBRANCH   2   3
ENDBRANCH   1   2
BRANCH   1  22
ATOM     22  N   UNL A   1      35.178  30.102  28.545  1.00  0.00    -0.352 N 
ATOM     23  C   UNL A   1      36.379  30.169  29.247  1.00  0.00     0.251 C 
ATOM     24  H   UNL A   1      34.514  30.803  28.737  1.00  0.00     0.163 HD
ATOM     25  O   UNL A   1      36.520  30.875  30.237  1.00  0.00    -0.269 OA
BRANCH  23  26
ATOM     26  C   UNL A   1      37.488  29.348  28.736  1.00  0.00     0.039 A 
ATOM     27  C   UNL A   1      38.240  29.703  27.611  1.00  0.00     0.014 A 
ATOM     28  C   UNL A   1      37.916  28.366  29.609  1.00  0.00     0.014 A 
ATOM     29  C   UNL A   1      39.512  29.146  27.457  1.00  0.00     0.010 A 
ATOM     30  C   UNL A   1      39.249  28.082  29.614  1.00  0.00     0.010 A 
ATOM     31  C   UNL A   1      40.031  28.365  28.496  1.00  0.00    -0.014 A 
BRANCH  31  32
ATOM     32  C   UNL A   1      41.400  27.854  28.530  1.00  0.00     0.031 A 
ATOM     33  C   UNL A   1      41.677  26.600  27.769  1.00  0.00     0.074 A 
ATOM     34  C   UNL A   1      42.410  28.668  28.917  1.00  0.00     0.049 A 
ATOM     35  N   UNL A   1      42.146  25.481  28.215  1.00  0.00    -0.248 NA
ATOM     36  C   UNL A   1      41.329  26.562  26.338  1.00  0.00     0.031 C 
ATOM     37  C   UNL A   1      42.335  30.077  29.348  1.00  0.00     0.029 A 
ATOM     38  N   UNL A   1      43.749  28.463  28.844  1.00  0.00    -0.354 N 
ATOM     39  C   UNL A   1      42.344  24.666  27.099  1.00  0.00     0.074 A 
ATOM     40  C   UNL A   1      41.659  25.311  26.010  1.00  0.00     0.031 C 
ATOM     41  C   UNL A   1      43.545  30.657  29.221  1.00  0.00     0.029 A 
ATOM     42  C   UNL A   1      44.511  29.621  28.928  1.00  0.00     0.049 A 
ATOM     43  H   UNL A   1      44.147  27.569  28.737  1.00  0.00     0.167 HD
ATOM     44  C   UNL A   1      43.256  23.650  27.106  1.00  0.00     0.037 A 
ATOM     45  C   UNL A   1      45.849  29.730  28.763  1.00  0.00     0.037 A 
ATOM     46  C   UNL A   1      43.675  23.339  28.452  1.00  0.00     0.049 A 
ATOM     47  C   UNL A   1      46.415  28.369  28.913  1.00  0.00     0.074 A 
ATOM     48  C   UNL A   1      43.028  22.954  29.610  1.00  0.00     0.029 A 
ATOM     49  N   UNL A   1      44.916  23.772  28.853  1.00  0.00    -0.354 N 
ATOM     50  N   UNL A   1      46.413  27.698  30.033  1.00  0.00    -0.248 NA
ATOM     51  C   UNL A   1      46.572  27.568  27.708  1.00  0.00     0.031 C 
ATOM     52  C   UNL A   1      43.700  23.659  30.653  1.00  0.00     0.029 A 
ATOM     53  C   UNL A   1      44.753  24.369  30.076  1.00  0.00     0.049 A 
ATOM     54  H   UNL A   1      45.759  23.672  28.357  1.00  0.00     0.167 HD
ATOM     55  C   UNL A   1      46.143  26.389  29.664  1.00  0.00     0.074 A 
ATOM     56  C   UNL A   1      46.356  26.352  28.218  1.00  0.00     0.031 C 
ATOM     57  C   UNL A   1      45.490  25.535  30.508  1.00  0.00     0.037 A 
BRANCH  44  58
ATOM     58  C   UNL A   1      44.046  23.169  25.906  1.00  0.00     0.057 A 
ATOM     59  C   UNL A   1      44.080  21.791  25.611  1.00  0.00     0.134 A 
ATOM     60  C   UNL A   1      44.995  23.943  25.207  1.00  0.00     0.134 A 
ATOM     61  F   UNL A   1      43.235  20.936  26.208  1.00  0.00    -0.206 F 
ATOM     62  C   UNL A   1      45.036  21.221  24.760  1.00  0.00     0.040 A 
ATOM     63  C   UNL A   1      45.919  23.391  24.312  1.00  0.00     0.040 A 
ATOM     64  F   UNL A   1      45.153  25.254  25.422  1.00  0.00    -0.206 F 
ATOM     65  C   UNL A   1      45.967  22.022  24.113  1.00  0.00     0.006 A 
ENDBRANCH  44  58
BRANCH  45  66
ATOM     66  C   UNL A   1      46.629  30.886  28.277  1.00  0.00     0.057 A 
ATOM     67  C   UNL A   1      46.575  31.281  26.936  1.00  0.00     0.134 A 
ATOM     68  C   UNL A   1      47.257  31.780  29.163  1.00  0.00     0.134 A 
ATOM     69  F   UNL A   1      45.967  30.509  26.024  1.00  0.00    -0.206 F 
ATOM     70  C   UNL A   1      47.094  32.508  26.501  1.00  0.00     0.040 A 
ATOM     71  C   UNL A   1      47.788  33.003  28.743  1.00  0.00     0.040 A 
ATOM     72  F   UNL A   1      47.304  31.530  30.481  1.00  0.00    -0.206 F 
ATOM     73  C   UNL A   1      47.693  33.378  27.408  1.00  0.00     0.006 A 
ENDBRANCH  45  66
BRANCH  57  74
ATOM     74  C   UNL A   1      45.284  25.964  31.936  1.00  0.00     0.057 A 
ATOM     75  C   UNL A   1      44.126  26.602  32.405  1.00  0.00     0.134 A 
ATOM     76  C   UNL A   1      46.210  25.559  32.903  1.00  0.00     0.134 A 
ATOM     77  F   UNL A   1      43.133  26.936  31.575  1.00  0.00    -0.206 F 
ATOM     78  C   UNL A   1      43.915  26.858  33.763  1.00  0.00     0.040 A 
ATOM     79  C   UNL A   1      45.998  25.780  34.266  1.00  0.00     0.040 A 
ATOM     80  F   UNL A   1      47.316  24.889  32.540  1.00  0.00    -0.206 F 
ATOM     81  C   UNL A   1      44.850  26.438  34.701  1.00  0.00     0.006 A 
ENDBRANCH  57  74
ENDBRANCH  31  32
ENDBRANCH  23  26
ENDBRANCH   1  22
TORSDOF 10
ENDMDL
