MODEL 1
REMARK VINA RESULT:     -11.7      0.000      0.000
REMARK SMILES O=C(NCCCNC(=O)[C@H]1C[C@@H]2CCCC[C@H]2N1C(=O)CN1CSCC1=O)c1ccc(-c2c3nc(c(-c4c(F)cccc4F)c4ccc([nH]4)c(-c4c(F)cccc4F)c4nc(c(-c5c(F)cccc5F)c5ccc2[nH]5)C=C4)C=C3)cc1
REMARK SMILES IDX 5 1 4 2 3 3 1 4 2 5 28 7 29 8 81 9 30 10 80 11 31 12 32 13
REMARK SMILES IDX 33 14 74 15 34 16 79 17 73 18 75 19 35 20 78 21 72 22 71 23
REMARK SMILES IDX 36 25 62 26 45 27 61 28 46 29 49 30 60 31 76 32 47 33 48 34
REMARK SMILES IDX 59 36 77 37 50 38 37 39 38 40 43 41 39 42 40 43 42 44 44 45
REMARK SMILES IDX 41 46 63 47 64 48 69 49 65 50 66 51 68 52 70 53 67 54 51 55
REMARK SMILES IDX 52 56 57 57 53 58 54 59 56 60 58 61 55 62 6 63 7 64 8 65
REMARK SMILES IDX 9 67 10 68 11 69 18 70 12 71 17 72 13 73 16 74 14 75 15 76
REMARK SMILES IDX 19 77 20 78 21 79 22 80 23 81 26 82 24 83 25 84 27 85
REMARK H PARENT 3 6 75 24 49 35 7 66
REMARK Flexibility Score: inf
ROOT
ATOM      1  C   UNL A   1      36.043  23.242  24.218  1.00  0.00     0.042 C 
ENDROOT
BRANCH   1   2
ATOM      2  C   UNL A   1      36.683  23.590  25.549  1.00  0.00     0.118 C 
BRANCH   2   3
ATOM      3  N   UNL A   1      37.628  22.568  25.982  1.00  0.00    -0.352 N 
ATOM      4  O   UNL A   1      39.640  21.721  26.543  1.00  0.00    -0.269 OA
ATOM      5  C   UNL A   1      38.901  22.701  26.474  1.00  0.00     0.251 C 
ATOM      6  H   UNL A   1      37.301  21.641  25.913  1.00  0.00     0.163 HD
BRANCH   5   7
ATOM      7  C   UNL A   1      39.385  24.026  26.908  1.00  0.00     0.039 A 
ATOM      8  C   UNL A   1      39.278  24.408  28.246  1.00  0.00     0.014 A 
ATOM      9  C   UNL A   1      39.970  24.889  25.977  1.00  0.00     0.014 A 
ATOM     10  C   UNL A   1      39.580  25.707  28.619  1.00  0.00     0.010 A 
ATOM     11  C   UNL A   1      40.401  26.154  26.386  1.00  0.00     0.010 A 
ATOM     12  C   UNL A   1      40.185  26.581  27.705  1.00  0.00    -0.014 A 
BRANCH  12  13
ATOM     13  C   UNL A   1      40.673  27.893  28.193  1.00  0.00     0.031 A 
ATOM     14  C   UNL A   1      42.134  28.234  28.196  1.00  0.00     0.074 A 
ATOM     15  C   UNL A   1      39.760  28.790  28.614  1.00  0.00     0.049 A 
ATOM     16  N   UNL A   1      42.718  29.337  28.590  1.00  0.00    -0.248 NA
ATOM     17  C   UNL A   1      43.062  27.205  27.703  1.00  0.00     0.031 C 
ATOM     18  C   UNL A   1      38.312  28.558  28.665  1.00  0.00     0.029 A 
ATOM     19  N   UNL A   1      39.901  30.077  29.060  1.00  0.00    -0.354 N 
ATOM     20  C   UNL A   1      44.079  29.130  28.415  1.00  0.00     0.074 A 
ATOM     21  C   UNL A   1      44.239  27.786  27.903  1.00  0.00     0.031 C 
ATOM     22  C   UNL A   1      37.698  29.679  29.064  1.00  0.00     0.029 A 
ATOM     23  C   UNL A   1      38.709  30.679  29.379  1.00  0.00     0.049 A 
ATOM     24  H   UNL A   1      40.773  30.527  29.144  1.00  0.00     0.167 HD
ATOM     25  C   UNL A   1      45.098  29.989  28.658  1.00  0.00     0.037 A 
ATOM     26  C   UNL A   1      38.453  31.893  29.897  1.00  0.00     0.037 A 
ATOM     27  C   UNL A   1      44.922  31.329  29.160  1.00  0.00     0.049 A 
ATOM     28  C   UNL A   1      39.604  32.806  30.189  1.00  0.00     0.074 A 
ATOM     29  C   UNL A   1      45.886  32.290  29.407  1.00  0.00     0.029 A 
ATOM     30  N   UNL A   1      43.701  31.892  29.503  1.00  0.00    -0.354 N 
ATOM     31  N   UNL A   1      40.885  32.610  29.987  1.00  0.00    -0.248 NA
ATOM     32  C   UNL A   1      39.278  34.107  30.785  1.00  0.00     0.031 C 
ATOM     33  C   UNL A   1      45.255  33.414  29.951  1.00  0.00     0.029 A 
ATOM     34  C   UNL A   1      43.891  33.178  29.987  1.00  0.00     0.049 A 
ATOM     35  H   UNL A   1      42.828  31.445  29.416  1.00  0.00     0.167 HD
ATOM     36  C   UNL A   1      41.517  33.769  30.413  1.00  0.00     0.074 A 
ATOM     37  C   UNL A   1      40.475  34.671  30.864  1.00  0.00     0.031 C 
ATOM     38  C   UNL A   1      42.840  34.060  30.433  1.00  0.00     0.037 A 
BRANCH  25  39
ATOM     39  C   UNL A   1      46.497  29.500  28.410  1.00  0.00     0.057 A 
ATOM     40  C   UNL A   1      47.251  28.860  29.403  1.00  0.00     0.134 A 
ATOM     41  C   UNL A   1      47.085  29.635  27.145  1.00  0.00     0.134 A 
ATOM     42  F   UNL A   1      46.755  28.708  30.641  1.00  0.00    -0.206 F 
ATOM     43  C   UNL A   1      48.543  28.394  29.154  1.00  0.00     0.040 A 
ATOM     44  C   UNL A   1      48.366  29.149  26.876  1.00  0.00     0.040 A 
ATOM     45  F   UNL A   1      46.418  30.231  26.144  1.00  0.00    -0.206 F 
ATOM     46  C   UNL A   1      49.101  28.531  27.884  1.00  0.00     0.006 A 
ENDBRANCH  25  39
BRANCH  26  47
ATOM     47  C   UNL A   1      37.054  32.289  30.191  1.00  0.00     0.057 A 
ATOM     48  C   UNL A   1      36.486  32.069  31.450  1.00  0.00     0.134 A 
ATOM     49  C   UNL A   1      36.256  32.916  29.224  1.00  0.00     0.134 A 
ATOM     50  F   UNL A   1      37.195  31.462  32.414  1.00  0.00    -0.206 F 
ATOM     51  C   UNL A   1      35.171  32.440  31.733  1.00  0.00     0.040 A 
ATOM     52  C   UNL A   1      34.952  33.321  29.502  1.00  0.00     0.040 A 
ATOM     53  F   UNL A   1      36.747  33.168  28.001  1.00  0.00    -0.206 F 
ATOM     54  C   UNL A   1      34.402  33.075  30.758  1.00  0.00     0.006 A 
ENDBRANCH  26  47
BRANCH  38  55
ATOM     55  C   UNL A   1      43.228  35.422  30.929  1.00  0.00     0.057 A 
ATOM     56  C   UNL A   1      43.430  35.686  32.290  1.00  0.00     0.134 A 
ATOM     57  C   UNL A   1      43.422  36.478  30.030  1.00  0.00     0.134 A 
ATOM     58  F   UNL A   1      43.244  34.721  33.205  1.00  0.00    -0.206 F 
ATOM     59  C   UNL A   1      43.784  36.957  32.740  1.00  0.00     0.040 A 
ATOM     60  C   UNL A   1      43.805  37.746  30.465  1.00  0.00     0.040 A 
ATOM     61  F   UNL A   1      43.251  36.291  28.712  1.00  0.00    -0.206 F 
ATOM     62  C   UNL A   1      43.980  37.991  31.826  1.00  0.00     0.006 A 
ENDBRANCH  38  55
ENDBRANCH  12  13
ENDBRANCH   5   7
ENDBRANCH   2   3
ENDBRANCH   1   2
BRANCH   1  63
ATOM     63  C   UNL A   1      34.566  23.593  24.182  1.00  0.00     0.117 C 
BRANCH  63  64
ATOM     64  N   UNL A   1      34.327  24.785  23.393  1.00  0.00    -0.354 N 
ATOM     65  C   UNL A   1      33.653  25.937  23.646  1.00  0.00     0.242 C 
ATOM     66  H   UNL A   1      34.731  24.752  22.497  1.00  0.00     0.163 HD
ATOM     67  O   UNL A   1      33.552  26.720  22.690  1.00  0.00    -0.273 OA
BRANCH  65  68
ATOM     68  C   UNL A   1      32.900  26.233  24.963  1.00  0.00     0.175 C 
ATOM     69  C   UNL A   1      33.879  26.696  26.057  1.00  0.00     0.041 C 
ATOM     70  N   UNL A   1      31.820  27.233  24.955  1.00  0.00    -0.326 N 
ATOM     71  C   UNL A   1      33.634  28.191  26.087  1.00  0.00     0.014 C 
ATOM     72  C   UNL A   1      32.109  28.291  25.923  1.00  0.00     0.089 C 
ATOM     73  C   UNL A   1      34.110  28.960  27.306  1.00  0.00     0.006 C 
ATOM     74  C   UNL A   1      31.785  29.752  25.614  1.00  0.00     0.025 C 
ATOM     75  C   UNL A   1      33.731  30.436  27.143  1.00  0.00     0.000 C 
ATOM     76  C   UNL A   1      32.251  30.634  26.787  1.00  0.00     0.002 C 
BRANCH  70  77
ATOM     77  C   UNL A   1      30.654  26.855  24.319  1.00  0.00     0.243 C 
ATOM     78  O   UNL A   1      30.026  25.869  24.732  1.00  0.00    -0.273 OA
BRANCH  77  79
ATOM     79  C   UNL A   1      30.229  27.434  22.967  1.00  0.00     0.220 C 
BRANCH  79  80
ATOM     80  N   UNL A   1      29.504  28.687  22.871  1.00  0.00    -0.323 N 
ATOM     81  C   UNL A   1      30.035  29.703  22.001  1.00  0.00     0.190 C 
ATOM     82  C   UNL A   1      28.145  28.787  23.114  1.00  0.00     0.233 C 
ATOM     83  S   UNL A   1      29.000  31.149  22.205  1.00  0.00    -0.130 SA
ATOM     84  C   UNL A   1      27.653  30.207  22.953  1.00  0.00     0.171 C 
ATOM     85  O   UNL A   1      27.430  27.871  23.500  1.00  0.00    -0.274 OA
ENDBRANCH  79  80
ENDBRANCH  77  79
ENDBRANCH  70  77
ENDBRANCH  65  68
ENDBRANCH  63  64
ENDBRANCH   1  63
TORSDOF 13
ENDMDL
MODEL 2
REMARK VINA RESULT:     -11.7      4.242      8.847
REMARK SMILES O=C(NCCCNC(=O)[C@H]1C[C@@H]2CCCC[C@H]2N1C(=O)CN1CSCC1=O)c1ccc(-c2c3nc(c(-c4c(F)cccc4F)c4ccc([nH]4)c(-c4c(F)cccc4F)c4nc(c(-c5c(F)cccc5F)c5ccc2[nH]5)C=C4)C=C3)cc1
REMARK SMILES IDX 5 1 4 2 3 3 1 4 2 5 28 7 29 8 81 9 30 10 80 11 31 12 32 13
REMARK SMILES IDX 33 14 74 15 34 16 79 17 73 18 75 19 35 20 78 21 72 22 71 23
REMARK SMILES IDX 36 25 62 26 45 27 61 28 46 29 49 30 60 31 76 32 47 33 48 34
REMARK SMILES IDX 59 36 77 37 50 38 37 39 38 40 43 41 39 42 40 43 42 44 44 45
REMARK SMILES IDX 41 46 63 47 64 48 69 49 65 50 66 51 68 52 70 53 67 54 51 55
REMARK SMILES IDX 52 56 57 57 53 58 54 59 56 60 58 61 55 62 6 63 7 64 8 65
REMARK SMILES IDX 9 67 10 68 11 69 18 70 12 71 17 72 13 73 16 74 14 75 15 76
REMARK SMILES IDX 19 77 20 78 21 79 22 80 23 81 26 82 24 83 25 84 27 85
REMARK H PARENT 3 6 75 24 49 35 7 66
REMARK Flexibility Score: inf
ROOT
ATOM      1  C   UNL A   1      32.840  27.665  26.736  1.00  0.00     0.042 C 
ENDROOT
BRANCH   1   2
ATOM      2  C   UNL A   1      33.878  28.565  26.093  1.00  0.00     0.118 C 
BRANCH   2   3
ATOM      3  N   UNL A   1      33.685  29.964  26.455  1.00  0.00    -0.352 N 
ATOM      4  O   UNL A   1      33.867  31.807  27.739  1.00  0.00    -0.269 OA
ATOM      5  C   UNL A   1      34.336  30.726  27.391  1.00  0.00     0.251 C 
ATOM      6  H   UNL A   1      32.981  30.433  25.951  1.00  0.00     0.163 HD
BRANCH   5   7
ATOM      7  C   UNL A   1      35.595  30.238  27.987  1.00  0.00     0.039 A 
ATOM      8  C   UNL A   1      36.793  30.338  27.278  1.00  0.00     0.014 A 
ATOM      9  C   UNL A   1      35.587  29.694  29.275  1.00  0.00     0.014 A 
ATOM     10  C   UNL A   1      37.939  29.735  27.768  1.00  0.00     0.010 A 
ATOM     11  C   UNL A   1      36.775  29.207  29.825  1.00  0.00     0.010 A 
ATOM     12  C   UNL A   1      37.954  29.201  29.065  1.00  0.00    -0.014 A 
BRANCH  12  13
ATOM     13  C   UNL A   1      39.247  28.742  29.627  1.00  0.00     0.031 A 
ATOM     14  C   UNL A   1      39.841  29.381  30.848  1.00  0.00     0.074 A 
ATOM     15  C   UNL A   1      39.868  27.709  29.025  1.00  0.00     0.049 A 
ATOM     16  N   UNL A   1      40.961  29.094  31.462  1.00  0.00    -0.248 NA
ATOM     17  C   UNL A   1      39.090  30.491  31.455  1.00  0.00     0.031 C 
ATOM     18  C   UNL A   1      39.384  27.020  27.823  1.00  0.00     0.029 A 
ATOM     19  N   UNL A   1      41.022  27.044  29.341  1.00  0.00    -0.354 N 
ATOM     20  C   UNL A   1      41.062  29.997  32.511  1.00  0.00     0.074 A 
ATOM     21  C   UNL A   1      39.902  30.860  32.437  1.00  0.00     0.031 C 
ATOM     22  C   UNL A   1      40.204  26.001  27.537  1.00  0.00     0.029 A 
ATOM     23  C   UNL A   1      41.314  26.015  28.480  1.00  0.00     0.049 A 
ATOM     24  H   UNL A   1      41.589  27.281  30.111  1.00  0.00     0.167 HD
ATOM     25  C   UNL A   1      42.035  30.090  33.449  1.00  0.00     0.037 A 
ATOM     26  C   UNL A   1      42.374  25.189  28.431  1.00  0.00     0.037 A 
ATOM     27  C   UNL A   1      43.180  29.218  33.514  1.00  0.00     0.049 A 
ATOM     28  C   UNL A   1      43.451  25.341  29.461  1.00  0.00     0.074 A 
ATOM     29  C   UNL A   1      44.204  29.206  34.444  1.00  0.00     0.029 A 
ATOM     30  N   UNL A   1      43.459  28.207  32.603  1.00  0.00    -0.354 N 
ATOM     31  N   UNL A   1      43.517  26.178  30.469  1.00  0.00    -0.248 NA
ATOM     32  C   UNL A   1      44.603  24.439  29.347  1.00  0.00     0.031 C 
ATOM     33  C   UNL A   1      45.129  28.227  34.067  1.00  0.00     0.029 A 
ATOM     34  C   UNL A   1      44.654  27.586  32.935  1.00  0.00     0.049 A 
ATOM     35  H   UNL A   1      42.892  27.967  31.835  1.00  0.00     0.167 HD
ATOM     36  C   UNL A   1      44.708  25.892  31.120  1.00  0.00     0.074 A 
ATOM     37  C   UNL A   1      45.320  24.789  30.406  1.00  0.00     0.031 C 
ATOM     38  C   UNL A   1      45.247  26.491  32.210  1.00  0.00     0.037 A 
BRANCH  25  39
ATOM     39  C   UNL A   1      41.920  31.190  34.467  1.00  0.00     0.057 A 
ATOM     40  C   UNL A   1      42.487  32.455  34.266  1.00  0.00     0.134 A 
ATOM     41  C   UNL A   1      41.194  30.992  35.649  1.00  0.00     0.134 A 
ATOM     42  F   UNL A   1      43.206  32.711  33.161  1.00  0.00    -0.206 F 
ATOM     43  C   UNL A   1      42.357  33.474  35.212  1.00  0.00     0.040 A 
ATOM     44  C   UNL A   1      41.033  32.011  36.590  1.00  0.00     0.040 A 
ATOM     45  F   UNL A   1      40.617  29.807  35.904  1.00  0.00    -0.206 F 
ATOM     46  C   UNL A   1      41.621  33.255  36.375  1.00  0.00     0.006 A 
ENDBRANCH  25  39
BRANCH  26  47
ATOM     47  C   UNL A   1      42.467  24.172  27.355  1.00  0.00     0.057 A 
ATOM     48  C   UNL A   1      43.064  24.469  26.126  1.00  0.00     0.134 A 
ATOM     49  C   UNL A   1      41.977  22.872  27.537  1.00  0.00     0.134 A 
ATOM     50  F   UNL A   1      43.541  25.700  25.886  1.00  0.00    -0.206 F 
ATOM     51  C   UNL A   1      43.155  23.517  25.110  1.00  0.00     0.040 A 
ATOM     52  C   UNL A   1      42.090  21.902  26.543  1.00  0.00     0.040 A 
ATOM     53  F   UNL A   1      41.406  22.521  28.699  1.00  0.00    -0.206 F 
ATOM     54  C   UNL A   1      42.673  22.226  25.321  1.00  0.00     0.006 A 
ENDBRANCH  26  47
BRANCH  38  55
ATOM     55  C   UNL A   1      46.551  25.939  32.711  1.00  0.00     0.057 A 
ATOM     56  C   UNL A   1      47.784  26.405  32.238  1.00  0.00     0.134 A 
ATOM     57  C   UNL A   1      46.569  24.943  33.694  1.00  0.00     0.134 A 
ATOM     58  F   UNL A   1      47.834  27.347  31.283  1.00  0.00    -0.206 F 
ATOM     59  C   UNL A   1      48.988  25.881  32.707  1.00  0.00     0.040 A 
ATOM     60  C   UNL A   1      47.768  24.431  34.192  1.00  0.00     0.040 A 
ATOM     61  F   UNL A   1      45.423  24.457  34.194  1.00  0.00    -0.206 F 
ATOM     62  C   UNL A   1      48.983  24.896  33.692  1.00  0.00     0.006 A 
ENDBRANCH  38  55
ENDBRANCH  12  13
ENDBRANCH   5   7
ENDBRANCH   2   3
ENDBRANCH   1   2
BRANCH   1  63
ATOM     63  C   UNL A   1      32.365  26.573  25.794  1.00  0.00     0.117 C 
BRANCH  63  64
ATOM     64  N   UNL A   1      32.314  25.287  26.461  1.00  0.00    -0.354 N 
ATOM     65  C   UNL A   1      32.880  24.083  26.186  1.00  0.00     0.242 C 
ATOM     66  H   UNL A   1      31.758  25.286  27.273  1.00  0.00     0.163 HD
ATOM     67  O   UNL A   1      32.533  23.147  26.921  1.00  0.00    -0.273 OA
BRANCH  65  68
ATOM     68  C   UNL A   1      33.773  23.803  24.956  1.00  0.00     0.175 C 
ATOM     69  C   UNL A   1      35.176  24.403  25.153  1.00  0.00     0.041 C 
ATOM     70  N   UNL A   1      33.997  22.407  24.545  1.00  0.00    -0.326 N 
ATOM     71  C   UNL A   1      35.999  23.175  25.489  1.00  0.00     0.014 C 
ATOM     72  C   UNL A   1      35.430  22.111  24.536  1.00  0.00     0.089 C 
ATOM     73  C   UNL A   1      37.508  23.281  25.360  1.00  0.00     0.006 C 
ATOM     74  C   UNL A   1      35.957  20.757  25.009  1.00  0.00     0.025 C 
ATOM     75  C   UNL A   1      38.133  21.926  25.710  1.00  0.00     0.000 C 
ATOM     76  C   UNL A   1      37.496  20.760  24.941  1.00  0.00     0.002 C 
BRANCH  70  77
ATOM     77  C   UNL A   1      32.918  21.768  23.965  1.00  0.00     0.243 C 
ATOM     78  O   UNL A   1      32.349  22.291  22.996  1.00  0.00    -0.273 OA
BRANCH  77  79
ATOM     79  C   UNL A   1      32.222  20.572  24.620  1.00  0.00     0.220 C 
BRANCH  79  80
ATOM     80  N   UNL A   1      32.717  19.219  24.449  1.00  0.00    -0.323 N 
ATOM     81  C   UNL A   1      32.834  18.397  25.624  1.00  0.00     0.190 C 
ATOM     82  C   UNL A   1      32.587  18.518  23.263  1.00  0.00     0.233 C 
ATOM     83  S   UNL A   1      33.585  16.857  25.103  1.00  0.00    -0.130 SA
ATOM     84  C   UNL A   1      33.199  17.139  23.361  1.00  0.00     0.171 C 
ATOM     85  O   UNL A   1      32.121  18.970  22.226  1.00  0.00    -0.274 OA
ENDBRANCH  79  80
ENDBRANCH  77  79
ENDBRANCH  70  77
ENDBRANCH  65  68
ENDBRANCH  63  64
ENDBRANCH   1  63
TORSDOF 13
ENDMDL
MODEL 3
REMARK VINA RESULT:     -11.7      0.207      6.111
REMARK SMILES O=C(NCCCNC(=O)[C@H]1C[C@@H]2CCCC[C@H]2N1C(=O)CN1CSCC1=O)c1ccc(-c2c3nc(c(-c4c(F)cccc4F)c4ccc([nH]4)c(-c4c(F)cccc4F)c4nc(c(-c5c(F)cccc5F)c5ccc2[nH]5)C=C4)C=C3)cc1
REMARK SMILES IDX 5 1 4 2 3 3 1 4 2 5 28 7 29 8 81 9 30 10 80 11 31 12 32 13
REMARK SMILES IDX 33 14 74 15 34 16 79 17 73 18 75 19 35 20 78 21 72 22 71 23
REMARK SMILES IDX 36 25 62 26 45 27 61 28 46 29 49 30 60 31 76 32 47 33 48 34
REMARK SMILES IDX 59 36 77 37 50 38 37 39 38 40 43 41 39 42 40 43 42 44 44 45
REMARK SMILES IDX 41 46 63 47 64 48 69 49 65 50 66 51 68 52 70 53 67 54 51 55
REMARK SMILES IDX 52 56 57 57 53 58 54 59 56 60 58 61 55 62 6 63 7 64 8 65
REMARK SMILES IDX 9 67 10 68 11 69 18 70 12 71 17 72 13 73 16 74 14 75 15 76
REMARK SMILES IDX 19 77 20 78 21 79 22 80 23 81 26 82 24 83 25 84 27 85
REMARK H PARENT 3 6 75 24 49 35 7 66
REMARK Flexibility Score: inf
ROOT
ATOM      1  C   UNL A   1      36.180  23.395  24.400  1.00  0.00     0.042 C 
ENDROOT
BRANCH   1   2
ATOM      2  C   UNL A   1      36.668  23.443  25.835  1.00  0.00     0.118 C 
BRANCH   2   3
ATOM      3  N   UNL A   1      37.728  22.473  26.082  1.00  0.00    -0.352 N 
ATOM      4  O   UNL A   1      39.849  21.750  26.323  1.00  0.00    -0.269 OA
ATOM      5  C   UNL A   1      39.045  22.676  26.407  1.00  0.00     0.251 C 
ATOM      6  H   UNL A   1      37.457  21.529  26.004  1.00  0.00     0.163 HD
BRANCH   5   7
ATOM      7  C   UNL A   1      39.495  24.011  26.848  1.00  0.00     0.039 A 
ATOM      8  C   UNL A   1      39.378  24.385  28.187  1.00  0.00     0.014 A 
ATOM      9  C   UNL A   1      40.058  24.893  25.921  1.00  0.00     0.014 A 
ATOM     10  C   UNL A   1      39.647  25.689  28.566  1.00  0.00     0.010 A 
ATOM     11  C   UNL A   1      40.457  26.167  26.334  1.00  0.00     0.010 A 
ATOM     12  C   UNL A   1      40.230  26.582  27.655  1.00  0.00    -0.014 A 
BRANCH  12  13
ATOM     13  C   UNL A   1      40.683  27.904  28.149  1.00  0.00     0.031 A 
ATOM     14  C   UNL A   1      39.708  28.934  28.637  1.00  0.00     0.074 A 
ATOM     15  C   UNL A   1      42.008  28.149  28.175  1.00  0.00     0.049 A 
ATOM     16  N   UNL A   1      39.946  30.135  29.100  1.00  0.00    -0.248 NA
ATOM     17  C   UNL A   1      38.281  28.580  28.592  1.00  0.00     0.031 C 
ATOM     18  C   UNL A   1      43.046  27.221  27.713  1.00  0.00     0.029 A 
ATOM     19  N   UNL A   1      42.714  29.235  28.620  1.00  0.00    -0.354 N 
ATOM     20  C   UNL A   1      38.704  30.688  29.381  1.00  0.00     0.074 A 
ATOM     21  C   UNL A   1      37.711  29.702  29.012  1.00  0.00     0.031 C 
ATOM     22  C   UNL A   1      44.252  27.753  27.948  1.00  0.00     0.029 A 
ATOM     23  C   UNL A   1      44.074  29.092  28.495  1.00  0.00     0.049 A 
ATOM     24  H   UNL A   1      42.288  30.041  28.993  1.00  0.00     0.167 HD
ATOM     25  C   UNL A   1      38.425  31.907  29.902  1.00  0.00     0.037 A 
ATOM     26  C   UNL A   1      45.072  29.951  28.762  1.00  0.00     0.037 A 
ATOM     27  C   UNL A   1      39.426  32.876  30.271  1.00  0.00     0.049 A 
ATOM     28  C   UNL A   1      44.729  31.305  29.304  1.00  0.00     0.074 A 
ATOM     29  C   UNL A   1      39.249  34.125  30.839  1.00  0.00     0.029 A 
ATOM     30  N   UNL A   1      40.793  32.707  30.099  1.00  0.00    -0.354 N 
ATOM     31  N   UNL A   1      43.551  31.802  29.596  1.00  0.00    -0.248 NA
ATOM     32  C   UNL A   1      45.850  32.220  29.548  1.00  0.00     0.031 C 
ATOM     33  C   UNL A   1      40.503  34.734  30.960  1.00  0.00     0.029 A 
ATOM     34  C   UNL A   1      41.469  33.842  30.523  1.00  0.00     0.049 A 
ATOM     35  H   UNL A   1      41.221  31.901  29.730  1.00  0.00     0.167 HD
ATOM     36  C   UNL A   1      43.790  33.082  30.077  1.00  0.00     0.074 A 
ATOM     37  C   UNL A   1      45.227  33.274  30.056  1.00  0.00     0.031 C 
ATOM     38  C   UNL A   1      42.900  34.014  30.494  1.00  0.00     0.037 A 
BRANCH  25  39
ATOM     39  C   UNL A   1      36.979  32.275  30.079  1.00  0.00     0.057 A 
ATOM     40  C   UNL A   1      36.286  32.026  31.270  1.00  0.00     0.134 A 
ATOM     41  C   UNL A   1      36.280  32.928  29.054  1.00  0.00     0.134 A 
ATOM     42  F   UNL A   1      36.889  31.394  32.289  1.00  0.00    -0.206 F 
ATOM     43  C   UNL A   1      34.947  32.391  31.429  1.00  0.00     0.040 A 
ATOM     44  C   UNL A   1      34.949  33.322  29.209  1.00  0.00     0.040 A 
ATOM     45  F   UNL A   1      36.883  33.205  27.887  1.00  0.00    -0.206 F 
ATOM     46  C   UNL A   1      34.277  33.048  30.398  1.00  0.00     0.006 A 
ENDBRANCH  25  39
BRANCH  26  47
ATOM     47  C   UNL A   1      46.477  29.556  28.494  1.00  0.00     0.057 A 
ATOM     48  C   UNL A   1      47.270  28.975  29.489  1.00  0.00     0.134 A 
ATOM     49  C   UNL A   1      47.055  29.734  27.230  1.00  0.00     0.134 A 
ATOM     50  F   UNL A   1      46.778  28.791  30.723  1.00  0.00    -0.206 F 
ATOM     51  C   UNL A   1      48.592  28.601  29.243  1.00  0.00     0.040 A 
ATOM     52  C   UNL A   1      48.363  29.335  26.961  1.00  0.00     0.040 A 
ATOM     53  F   UNL A   1      46.342  30.272  26.229  1.00  0.00    -0.206 F 
ATOM     54  C   UNL A   1      49.139  28.774  27.973  1.00  0.00     0.006 A 
ENDBRANCH  26  47
BRANCH  38  55
ATOM     55  C   UNL A   1      43.462  35.314  30.992  1.00  0.00     0.057 A 
ATOM     56  C   UNL A   1      43.791  35.511  32.340  1.00  0.00     0.134 A 
ATOM     57  C   UNL A   1      43.696  36.373  30.107  1.00  0.00     0.134 A 
ATOM     58  F   UNL A   1      43.575  34.541  33.242  1.00  0.00    -0.206 F 
ATOM     59  C   UNL A   1      44.308  36.725  32.792  1.00  0.00     0.040 A 
ATOM     60  C   UNL A   1      44.240  37.581  30.543  1.00  0.00     0.040 A 
ATOM     61  F   UNL A   1      43.409  36.248  28.803  1.00  0.00    -0.206 F 
ATOM     62  C   UNL A   1      44.540  37.762  31.891  1.00  0.00     0.006 A 
ENDBRANCH  38  55
ENDBRANCH  12  13
ENDBRANCH   5   7
ENDBRANCH   2   3
ENDBRANCH   1   2
BRANCH   1  63
ATOM     63  C   UNL A   1      34.689  23.656  24.291  1.00  0.00     0.117 C 
BRANCH  63  64
ATOM     64  N   UNL A   1      34.413  24.795  23.439  1.00  0.00    -0.354 N 
ATOM     65  C   UNL A   1      33.678  25.924  23.618  1.00  0.00     0.242 C 
ATOM     66  H   UNL A   1      34.841  24.739  22.555  1.00  0.00     0.163 HD
ATOM     67  O   UNL A   1      33.564  26.653  22.622  1.00  0.00    -0.273 OA
BRANCH  65  68
ATOM     68  C   UNL A   1      32.879  26.246  24.901  1.00  0.00     0.175 C 
ATOM     69  C   UNL A   1      33.822  26.695  26.031  1.00  0.00     0.041 C 
ATOM     70  N   UNL A   1      31.823  27.270  24.841  1.00  0.00    -0.326 N 
ATOM     71  C   UNL A   1      33.609  28.196  26.041  1.00  0.00     0.014 C 
ATOM     72  C   UNL A   1      32.094  28.329  25.814  1.00  0.00     0.089 C 
ATOM     73  C   UNL A   1      34.052  28.963  27.274  1.00  0.00     0.006 C 
ATOM     74  C   UNL A   1      31.817  29.794  25.481  1.00  0.00     0.025 C 
ATOM     75  C   UNL A   1      33.713  30.446  27.085  1.00  0.00     0.000 C 
ATOM     76  C   UNL A   1      32.254  30.674  26.667  1.00  0.00     0.002 C 
BRANCH  70  77
ATOM     77  C   UNL A   1      30.675  26.913  24.160  1.00  0.00     0.243 C 
ATOM     78  O   UNL A   1      30.045  25.905  24.513  1.00  0.00    -0.273 OA
BRANCH  77  79
ATOM     79  C   UNL A   1      30.279  27.549  22.825  1.00  0.00     0.220 C 
BRANCH  79  80
ATOM     80  N   UNL A   1      29.519  28.783  22.768  1.00  0.00    -0.323 N 
ATOM     81  C   UNL A   1      30.031  29.847  21.946  1.00  0.00     0.190 C 
ATOM     82  C   UNL A   1      28.154  28.834  22.996  1.00  0.00     0.233 C 
ATOM     83  S   UNL A   1      28.951  31.254  22.191  1.00  0.00    -0.130 SA
ATOM     84  C   UNL A   1      27.622  30.245  22.883  1.00  0.00     0.171 C 
ATOM     85  O   UNL A   1      27.462  27.883  23.336  1.00  0.00    -0.274 OA
ENDBRANCH  79  80
ENDBRANCH  77  79
ENDBRANCH  70  77
ENDBRANCH  65  68
ENDBRANCH  63  64
ENDBRANCH   1  63
TORSDOF 13
ENDMDL
