MODEL 1
REMARK VINA RESULT:     -11.9      0.000      0.000
REMARK SMILES Cc1ccc([C@H](C)[N@H+](CC(=O)NCCCNC(=O)c2ccc(-c3c4nc(c(-c5c(F)cccc5F)c5ccc([nH]5)c(-c5c(F)cccc5F)c5nc(c(-c6c(F)cccc6F)c6ccc3[nH]6)C=C5)C=C4)cc2)CC(F)(F)F)cc1
REMARK SMILES IDX 13 1 12 2 10 3 11 4 9 6 8 7 6 9 7 10 5 11 1 12 2 13 3 14
REMARK SMILES IDX 79 15 4 16 78 17 73 18 74 19 75 20 76 21 77 22 14 23 15 24
REMARK SMILES IDX 16 25 17 26 18 28 19 29 20 30 72 31 21 32 71 33 22 34 23 35
REMARK SMILES IDX 24 36 65 37 25 38 70 39 64 40 66 41 26 42 69 43 63 44 62 45
REMARK SMILES IDX 27 47 53 48 36 49 52 50 37 51 40 52 51 53 67 54 38 55 39 56
REMARK SMILES IDX 50 58 68 59 41 60 28 61 29 62 34 63 30 64 31 65 33 66 35 67
REMARK SMILES IDX 32 68 54 69 55 70 60 71 56 72 57 73 59 74 61 75 58 76 42 77
REMARK SMILES IDX 43 78 48 79 44 80 45 81 47 82 49 83 46 84
REMARK H PARENT 12 5 8 8 16 27 66 46 40 57
REMARK Flexibility Score: inf
ROOT
ATOM      1  C   UNL A   1      31.980  30.093  25.672  1.00  0.00     0.118 C 
ENDROOT
BRANCH   1   2
ATOM      2  N   UNL A   1      32.984  29.558  24.771  1.00  0.00    -0.351 N 
ATOM      3  C   UNL A   1      32.877  29.040  23.509  1.00  0.00     0.275 C 
ATOM      4  O   UNL A   1      33.895  29.061  22.811  1.00  0.00    -0.269 OA
ATOM      5  H   UNL A   1      33.900  29.570  25.129  1.00  0.00     0.163 HD
BRANCH   3   6
ATOM      6  C   UNL A   1      31.587  28.361  23.015  1.00  0.00     0.364 C 
BRANCH   6   7
ATOM      7  N   UNL A   1      31.678  26.916  23.301  1.00  0.00    -0.314 N 
ATOM      8  H   UNL A   1      32.658  26.737  23.521  1.00  0.00     0.349 HD
BRANCH   7   9
ATOM      9  C   UNL A   1      31.042  26.514  24.562  1.00  0.00     0.212 C 
ATOM     10  C   UNL A   1      29.513  26.395  24.501  1.00  0.00     0.081 C 
BRANCH   9  11
ATOM     11  C   UNL A   1      31.806  25.368  25.202  1.00  0.00     0.009 A 
ATOM     12  C   UNL A   1      33.701  22.381  27.652  1.00  0.00     0.044 C 
ATOM     13  C   UNL A   1      33.047  23.361  26.735  1.00  0.00    -0.051 A 
ATOM     14  C   UNL A   1      31.678  23.300  26.496  1.00  0.00     0.004 A 
ATOM     15  C   UNL A   1      33.807  24.357  26.115  1.00  0.00     0.004 A 
ATOM     16  C   UNL A   1      31.070  24.293  25.738  1.00  0.00     0.010 A 
ATOM     17  C   UNL A   1      33.193  25.351  25.351  1.00  0.00     0.010 A 
ENDBRANCH   9  11
ENDBRANCH   7   9
BRANCH   7  18
ATOM     18  C   UNL A   1      31.548  26.030  22.126  1.00  0.00     0.380 C 
BRANCH  18  19
ATOM     19  C   UNL A   1      32.810  25.449  21.437  1.00  0.00     0.438 C 
ATOM     20  F   UNL A   1      33.952  25.966  21.941  1.00  0.00    -0.165 F 
ATOM     21  F   UNL A   1      32.872  24.109  21.657  1.00  0.00    -0.165 F 
ATOM     22  F   UNL A   1      32.809  25.630  20.103  1.00  0.00    -0.165 F 
ENDBRANCH  18  19
ENDBRANCH   7  18
ENDBRANCH   6   7
ENDBRANCH   3   6
ENDBRANCH   1   2
BRANCH   1  23
ATOM     23  C   UNL A   1      32.464  30.874  26.895  1.00  0.00     0.042 C 
BRANCH  23  24
ATOM     24  C   UNL A   1      33.703  30.341  27.625  1.00  0.00     0.118 C 
BRANCH  24  25
ATOM     25  N   UNL A   1      34.391  31.336  28.435  1.00  0.00    -0.352 N 
ATOM     26  C   UNL A   1      35.636  31.327  29.042  1.00  0.00     0.251 C 
ATOM     27  H   UNL A   1      33.879  32.166  28.577  1.00  0.00     0.163 HD
ATOM     28  O   UNL A   1      35.967  32.310  29.688  1.00  0.00    -0.269 OA
BRANCH  26  29
ATOM     29  C   UNL A   1      36.620  30.222  28.841  1.00  0.00     0.039 A 
ATOM     30  C   UNL A   1      36.757  29.285  29.882  1.00  0.00     0.014 A 
ATOM     31  C   UNL A   1      37.456  30.115  27.733  1.00  0.00     0.014 A 
ATOM     32  C   UNL A   1      37.850  28.416  29.917  1.00  0.00     0.010 A 
ATOM     33  C   UNL A   1      38.558  29.273  27.775  1.00  0.00     0.010 A 
ATOM     34  C   UNL A   1      38.804  28.488  28.905  1.00  0.00    -0.014 A 
BRANCH  34  35
ATOM     35  C   UNL A   1      40.167  27.983  29.063  1.00  0.00     0.031 A 
ATOM     36  C   UNL A   1      40.634  26.713  28.474  1.00  0.00     0.074 A 
ATOM     37  C   UNL A   1      41.063  28.801  29.658  1.00  0.00     0.049 A 
ATOM     38  N   UNL A   1      41.747  26.138  28.794  1.00  0.00    -0.248 NA
ATOM     39  C   UNL A   1      39.869  25.963  27.494  1.00  0.00     0.031 C 
ATOM     40  C   UNL A   1      42.519  28.708  29.632  1.00  0.00     0.029 A 
ATOM     41  N   UNL A   1      40.808  29.863  30.529  1.00  0.00    -0.354 N 
ATOM     42  C   UNL A   1      41.993  25.131  27.891  1.00  0.00     0.074 A 
ATOM     43  C   UNL A   1      40.746  25.004  27.165  1.00  0.00     0.031 C 
ATOM     44  C   UNL A   1      43.036  29.533  30.553  1.00  0.00     0.029 A 
ATOM     45  C   UNL A   1      41.931  29.976  31.375  1.00  0.00     0.049 A 
ATOM     46  H   UNL A   1      39.999  30.424  30.547  1.00  0.00     0.167 HD
ATOM     47  C   UNL A   1      43.259  24.618  27.801  1.00  0.00     0.037 A 
ATOM     48  C   UNL A   1      41.804  29.672  32.702  1.00  0.00     0.037 A 
ATOM     49  C   UNL A   1      44.150  25.195  28.823  1.00  0.00     0.049 A 
ATOM     50  C   UNL A   1      42.585  28.445  33.146  1.00  0.00     0.074 A 
ATOM     51  C   UNL A   1      45.185  26.118  28.811  1.00  0.00     0.029 A 
ATOM     52  N   UNL A   1      43.862  24.976  30.161  1.00  0.00    -0.354 N 
ATOM     53  N   UNL A   1      43.285  27.688  32.347  1.00  0.00    -0.248 NA
ATOM     54  C   UNL A   1      42.579  27.934  34.517  1.00  0.00     0.031 C 
ATOM     55  C   UNL A   1      45.517  26.441  30.161  1.00  0.00     0.029 A 
ATOM     56  C   UNL A   1      44.680  25.719  30.992  1.00  0.00     0.049 A 
ATOM     57  H   UNL A   1      43.159  24.365  30.482  1.00  0.00     0.167 HD
ATOM     58  C   UNL A   1      43.773  26.613  33.034  1.00  0.00     0.074 A 
ATOM     59  C   UNL A   1      43.309  26.811  34.394  1.00  0.00     0.031 C 
ATOM     60  C   UNL A   1      44.492  25.621  32.432  1.00  0.00     0.037 A 
BRANCH  47  61
ATOM     61  C   UNL A   1      43.783  23.740  26.669  1.00  0.00     0.057 A 
ATOM     62  C   UNL A   1      44.553  24.291  25.619  1.00  0.00     0.134 A 
ATOM     63  C   UNL A   1      43.554  22.361  26.527  1.00  0.00     0.134 A 
ATOM     64  F   UNL A   1      44.969  25.564  25.636  1.00  0.00    -0.206 F 
ATOM     65  C   UNL A   1      44.953  23.563  24.487  1.00  0.00     0.040 A 
ATOM     66  C   UNL A   1      43.911  21.628  25.382  1.00  0.00     0.040 A 
ATOM     67  F   UNL A   1      43.037  21.620  27.510  1.00  0.00    -0.206 F 
ATOM     68  C   UNL A   1      44.604  22.231  24.347  1.00  0.00     0.006 A 
ENDBRANCH  47  61
BRANCH  48  69
ATOM     69  C   UNL A   1      40.487  30.109  33.240  1.00  0.00     0.057 A 
ATOM     70  C   UNL A   1      40.279  31.488  33.434  1.00  0.00     0.134 A 
ATOM     71  C   UNL A   1      39.353  29.299  33.145  1.00  0.00     0.134 A 
ATOM     72  F   UNL A   1      41.328  32.322  33.522  1.00  0.00    -0.206 F 
ATOM     73  C   UNL A   1      39.004  32.054  33.397  1.00  0.00     0.040 A 
ATOM     74  C   UNL A   1      38.068  29.854  33.129  1.00  0.00     0.040 A 
ATOM     75  F   UNL A   1      39.470  27.979  32.937  1.00  0.00    -0.206 F 
ATOM     76  C   UNL A   1      37.894  31.236  33.209  1.00  0.00     0.006 A 
ENDBRANCH  48  69
BRANCH  60  77
ATOM     77  C   UNL A   1      45.068  24.455  33.178  1.00  0.00     0.057 A 
ATOM     78  C   UNL A   1      44.388  23.237  33.313  1.00  0.00     0.134 A 
ATOM     79  C   UNL A   1      46.279  24.565  33.888  1.00  0.00     0.134 A 
ATOM     80  F   UNL A   1      43.192  23.047  32.739  1.00  0.00    -0.206 F 
ATOM     81  C   UNL A   1      44.907  22.175  34.064  1.00  0.00     0.040 A 
ATOM     82  C   UNL A   1      46.784  23.529  34.677  1.00  0.00     0.040 A 
ATOM     83  F   UNL A   1      47.030  25.675  33.828  1.00  0.00    -0.206 F 
ATOM     84  C   UNL A   1      46.104  22.322  34.756  1.00  0.00     0.006 A 
ENDBRANCH  60  77
ENDBRANCH  34  35
ENDBRANCH  26  29
ENDBRANCH  24  25
ENDBRANCH  23  24
ENDBRANCH   1  23
TORSDOF 15
ENDMDL
MODEL 2
REMARK VINA RESULT:     -11.8      1.545      2.279
REMARK SMILES Cc1ccc([C@H](C)[N@H+](CC(=O)NCCCNC(=O)c2ccc(-c3c4nc(c(-c5c(F)cccc5F)c5ccc([nH]5)c(-c5c(F)cccc5F)c5nc(c(-c6c(F)cccc6F)c6ccc3[nH]6)C=C5)C=C4)cc2)CC(F)(F)F)cc1
REMARK SMILES IDX 13 1 12 2 10 3 11 4 9 6 8 7 6 9 7 10 5 11 1 12 2 13 3 14
REMARK SMILES IDX 79 15 4 16 78 17 73 18 74 19 75 20 76 21 77 22 14 23 15 24
REMARK SMILES IDX 16 25 17 26 18 28 19 29 20 30 72 31 21 32 71 33 22 34 23 35
REMARK SMILES IDX 24 36 65 37 25 38 70 39 64 40 66 41 26 42 69 43 63 44 62 45
REMARK SMILES IDX 27 47 53 48 36 49 52 50 37 51 40 52 51 53 67 54 38 55 39 56
REMARK SMILES IDX 50 58 68 59 41 60 28 61 29 62 34 63 30 64 31 65 33 66 35 67
REMARK SMILES IDX 32 68 54 69 55 70 60 71 56 72 57 73 59 74 61 75 58 76 42 77
REMARK SMILES IDX 43 78 48 79 44 80 45 81 47 82 49 83 46 84
REMARK H PARENT 12 5 8 8 16 27 66 46 40 57
REMARK Flexibility Score: inf
ROOT
ATOM      1  C   UNL A   1      33.237  29.115  26.180  1.00  0.00     0.118 C 
ENDROOT
BRANCH   1   2
ATOM      2  N   UNL A   1      33.820  28.413  25.052  1.00  0.00    -0.351 N 
ATOM      3  C   UNL A   1      33.331  27.402  24.271  1.00  0.00     0.275 C 
ATOM      4  O   UNL A   1      33.821  27.284  23.143  1.00  0.00    -0.269 OA
ATOM      5  H   UNL A   1      34.723  28.716  24.807  1.00  0.00     0.163 HD
BRANCH   3   6
ATOM      6  C   UNL A   1      32.303  26.388  24.801  1.00  0.00     0.364 C 
BRANCH   6   7
ATOM      7  N   UNL A   1      32.893  25.037  24.724  1.00  0.00    -0.314 N 
ATOM      8  H   UNL A   1      33.858  25.172  24.422  1.00  0.00     0.349 HD
BRANCH   7   9
ATOM      9  C   UNL A   1      33.107  24.401  26.030  1.00  0.00     0.212 C 
ATOM     10  C   UNL A   1      31.883  23.669  26.596  1.00  0.00     0.081 C 
BRANCH   9  11
ATOM     11  C   UNL A   1      34.433  23.661  26.051  1.00  0.00     0.009 A 
ATOM     12  C   UNL A   1      38.140  21.584  25.370  1.00  0.00     0.044 C 
ATOM     13  C   UNL A   1      36.885  22.329  25.684  1.00  0.00    -0.051 A 
ATOM     14  C   UNL A   1      36.802  23.700  25.456  1.00  0.00     0.004 A 
ATOM     15  C   UNL A   1      35.777  21.653  26.203  1.00  0.00     0.004 A 
ATOM     16  C   UNL A   1      35.589  24.352  25.639  1.00  0.00     0.010 A 
ATOM     17  C   UNL A   1      34.562  22.313  26.388  1.00  0.00     0.010 A 
ENDBRANCH   9  11
ENDBRANCH   7   9
BRANCH   7  18
ATOM     18  C   UNL A   1      32.422  24.205  23.597  1.00  0.00     0.380 C 
BRANCH  18  19
ATOM     19  C   UNL A   1      33.434  23.411  22.730  1.00  0.00     0.438 C 
ATOM     20  F   UNL A   1      33.013  23.269  21.454  1.00  0.00    -0.165 F 
ATOM     21  F   UNL A   1      34.609  24.089  22.667  1.00  0.00    -0.165 F 
ATOM     22  F   UNL A   1      33.709  22.191  23.230  1.00  0.00    -0.165 F 
ENDBRANCH  18  19
ENDBRANCH   7  18
ENDBRANCH   6   7
ENDBRANCH   3   6
ENDBRANCH   1   2
BRANCH   1  23
ATOM     23  C   UNL A   1      33.920  30.400  26.650  1.00  0.00     0.042 C 
BRANCH  23  24
ATOM     24  C   UNL A   1      34.170  30.555  28.155  1.00  0.00     0.118 C 
BRANCH  24  25
ATOM     25  N   UNL A   1      35.160  31.567  28.495  1.00  0.00    -0.352 N 
ATOM     26  C   UNL A   1      36.521  31.477  28.734  1.00  0.00     0.251 C 
ATOM     27  H   UNL A   1      34.796  32.480  28.566  1.00  0.00     0.163 HD
ATOM     28  O   UNL A   1      37.122  32.503  29.017  1.00  0.00    -0.269 OA
BRANCH  26  29
ATOM     29  C   UNL A   1      37.289  30.211  28.549  1.00  0.00     0.039 A 
ATOM     30  C   UNL A   1      37.275  29.288  29.611  1.00  0.00     0.014 A 
ATOM     31  C   UNL A   1      38.073  29.932  27.433  1.00  0.00     0.014 A 
ATOM     32  C   UNL A   1      38.196  28.239  29.653  1.00  0.00     0.010 A 
ATOM     33  C   UNL A   1      39.008  28.907  27.480  1.00  0.00     0.010 A 
ATOM     34  C   UNL A   1      39.130  28.117  28.627  1.00  0.00    -0.014 A 
BRANCH  34  35
ATOM     35  C   UNL A   1      40.384  27.380  28.779  1.00  0.00     0.031 A 
ATOM     36  C   UNL A   1      40.523  25.944  28.473  1.00  0.00     0.074 A 
ATOM     37  C   UNL A   1      41.489  28.098  29.078  1.00  0.00     0.049 A 
ATOM     38  N   UNL A   1      41.542  25.228  28.821  1.00  0.00    -0.248 NA
ATOM     39  C   UNL A   1      39.506  25.179  27.774  1.00  0.00     0.031 C 
ATOM     40  C   UNL A   1      42.885  27.695  28.945  1.00  0.00     0.029 A 
ATOM     41  N   UNL A   1      41.557  29.353  29.688  1.00  0.00    -0.354 N 
ATOM     42  C   UNL A   1      41.471  24.021  28.168  1.00  0.00     0.074 A 
ATOM     43  C   UNL A   1      40.135  24.008  27.607  1.00  0.00     0.031 C 
ATOM     44  C   UNL A   1      43.666  28.571  29.591  1.00  0.00     0.029 A 
ATOM     45  C   UNL A   1      42.786  29.406  30.378  1.00  0.00     0.049 A 
ATOM     46  H   UNL A   1      40.876  30.063  29.643  1.00  0.00     0.167 HD
ATOM     47  C   UNL A   1      42.596  23.244  28.091  1.00  0.00     0.037 A 
ATOM     48  C   UNL A   1      42.786  29.432  31.746  1.00  0.00     0.037 A 
ATOM     49  C   UNL A   1      43.709  23.826  28.861  1.00  0.00     0.049 A 
ATOM     50  C   UNL A   1      43.378  28.193  32.400  1.00  0.00     0.074 A 
ATOM     51  C   UNL A   1      44.886  24.484  28.536  1.00  0.00     0.029 A 
ATOM     52  N   UNL A   1      43.570  23.969  30.233  1.00  0.00    -0.354 N 
ATOM     53  N   UNL A   1      43.810  27.150  31.747  1.00  0.00    -0.248 NA
ATOM     54  C   UNL A   1      43.463  28.004  33.849  1.00  0.00     0.031 C 
ATOM     55  C   UNL A   1      45.452  25.013  29.734  1.00  0.00     0.029 A 
ATOM     56  C   UNL A   1      44.617  24.683  30.785  1.00  0.00     0.049 A 
ATOM     57  H   UNL A   1      42.816  23.606  30.752  1.00  0.00     0.167 HD
ATOM     58  C   UNL A   1      44.178  26.170  32.625  1.00  0.00     0.074 A 
ATOM     59  C   UNL A   1      43.948  26.753  33.934  1.00  0.00     0.031 C 
ATOM     60  C   UNL A   1      44.611  24.943  32.217  1.00  0.00     0.037 A 
BRANCH  47  61
ATOM     61  C   UNL A   1      42.789  22.051  27.161  1.00  0.00     0.057 A 
ATOM     62  C   UNL A   1      42.012  20.880  27.311  1.00  0.00     0.134 A 
ATOM     63  C   UNL A   1      43.730  21.965  26.120  1.00  0.00     0.134 A 
ATOM     64  F   UNL A   1      40.990  20.812  28.174  1.00  0.00    -0.206 F 
ATOM     65  C   UNL A   1      42.230  19.705  26.573  1.00  0.00     0.040 A 
ATOM     66  C   UNL A   1      43.988  20.785  25.401  1.00  0.00     0.040 A 
ATOM     67  F   UNL A   1      44.406  23.030  25.682  1.00  0.00    -0.206 F 
ATOM     68  C   UNL A   1      43.245  19.641  25.635  1.00  0.00     0.006 A 
ENDBRANCH  47  61
BRANCH  48  69
ATOM     69  C   UNL A   1      41.659  30.244  32.278  1.00  0.00     0.057 A 
ATOM     70  C   UNL A   1      41.769  31.646  32.213  1.00  0.00     0.134 A 
ATOM     71  C   UNL A   1      40.376  29.710  32.422  1.00  0.00     0.134 A 
ATOM     72  F   UNL A   1      42.973  32.222  32.064  1.00  0.00    -0.206 F 
ATOM     73  C   UNL A   1      40.645  32.472  32.155  1.00  0.00     0.040 A 
ATOM     74  C   UNL A   1      39.243  30.531  32.388  1.00  0.00     0.040 A 
ATOM     75  F   UNL A   1      40.188  28.383  32.469  1.00  0.00    -0.206 F 
ATOM     76  C   UNL A   1      39.374  31.908  32.208  1.00  0.00     0.006 A 
ENDBRANCH  48  69
BRANCH  60  77
ATOM     77  C   UNL A   1      45.057  23.871  33.166  1.00  0.00     0.057 A 
ATOM     78  C   UNL A   1      44.212  22.832  33.580  1.00  0.00     0.134 A 
ATOM     79  C   UNL A   1      46.318  23.922  33.789  1.00  0.00     0.134 A 
ATOM     80  F   UNL A   1      42.962  22.729  33.106  1.00  0.00    -0.206 F 
ATOM     81  C   UNL A   1      44.616  21.871  34.514  1.00  0.00     0.040 A 
ATOM     82  C   UNL A   1      46.716  22.996  34.757  1.00  0.00     0.040 A 
ATOM     83  F   UNL A   1      47.223  24.859  33.469  1.00  0.00    -0.206 F 
ATOM     84  C   UNL A   1      45.869  21.956  35.112  1.00  0.00     0.006 A 
ENDBRANCH  60  77
ENDBRANCH  34  35
ENDBRANCH  26  29
ENDBRANCH  24  25
ENDBRANCH  23  24
ENDBRANCH   1  23
TORSDOF 15
ENDMDL
MODEL 3
REMARK VINA RESULT:     -11.6      4.168      9.186
REMARK SMILES Cc1ccc([C@H](C)[N@H+](CC(=O)NCCCNC(=O)c2ccc(-c3c4nc(c(-c5c(F)cccc5F)c5ccc([nH]5)c(-c5c(F)cccc5F)c5nc(c(-c6c(F)cccc6F)c6ccc3[nH]6)C=C5)C=C4)cc2)CC(F)(F)F)cc1
REMARK SMILES IDX 13 1 12 2 10 3 11 4 9 6 8 7 6 9 7 10 5 11 1 12 2 13 3 14
REMARK SMILES IDX 79 15 4 16 78 17 73 18 74 19 75 20 76 21 77 22 14 23 15 24
REMARK SMILES IDX 16 25 17 26 18 28 19 29 20 30 72 31 21 32 71 33 22 34 23 35
REMARK SMILES IDX 24 36 65 37 25 38 70 39 64 40 66 41 26 42 69 43 63 44 62 45
REMARK SMILES IDX 27 47 53 48 36 49 52 50 37 51 40 52 51 53 67 54 38 55 39 56
REMARK SMILES IDX 50 58 68 59 41 60 28 61 29 62 34 63 30 64 31 65 33 66 35 67
REMARK SMILES IDX 32 68 54 69 55 70 60 71 56 72 57 73 59 74 61 75 58 76 42 77
REMARK SMILES IDX 43 78 48 79 44 80 45 81 47 82 49 83 46 84
REMARK H PARENT 12 5 8 8 16 27 66 46 40 57
REMARK Flexibility Score: inf
ROOT
ATOM      1  C   UNL A   1      36.728  23.216  25.338  1.00  0.00     0.118 C 
ENDROOT
BRANCH   1   2
ATOM      2  N   UNL A   1      35.766  22.897  26.377  1.00  0.00    -0.351 N 
ATOM      3  C   UNL A   1      34.848  21.888  26.474  1.00  0.00     0.275 C 
ATOM      4  O   UNL A   1      34.469  21.588  27.611  1.00  0.00    -0.269 OA
ATOM      5  H   UNL A   1      35.777  23.513  27.144  1.00  0.00     0.163 HD
BRANCH   3   6
ATOM      6  C   UNL A   1      34.226  21.230  25.230  1.00  0.00     0.364 C 
BRANCH   6   7
ATOM      7  N   UNL A   1      33.093  22.060  24.776  1.00  0.00    -0.314 N 
ATOM      8  H   UNL A   1      33.220  22.970  25.221  1.00  0.00     0.349 HD
BRANCH   7   9
ATOM      9  C   UNL A   1      33.161  22.442  23.359  1.00  0.00     0.212 C 
ATOM     10  C   UNL A   1      32.215  21.660  22.438  1.00  0.00     0.081 C 
BRANCH   9  11
ATOM     11  C   UNL A   1      33.182  23.954  23.216  1.00  0.00     0.009 A 
ATOM     12  C   UNL A   1      33.842  28.126  22.392  1.00  0.00     0.044 C 
ATOM     13  C   UNL A   1      33.528  26.697  22.692  1.00  0.00    -0.051 A 
ATOM     14  C   UNL A   1      33.017  25.864  21.702  1.00  0.00     0.004 A 
ATOM     15  C   UNL A   1      33.756  26.182  23.971  1.00  0.00     0.004 A 
ATOM     16  C   UNL A   1      32.848  24.510  21.966  1.00  0.00     0.010 A 
ATOM     17  C   UNL A   1      33.581  24.822  24.234  1.00  0.00     0.010 A 
ENDBRANCH   9  11
ENDBRANCH   7   9
BRANCH   7  18
ATOM     18  C   UNL A   1      31.780  21.710  25.355  1.00  0.00     0.380 C 
BRANCH  18  19
ATOM     19  C   UNL A   1      30.918  22.790  26.058  1.00  0.00     0.438 C 
ATOM     20  F   UNL A   1      30.520  23.761  25.207  1.00  0.00    -0.165 F 
ATOM     21  F   UNL A   1      29.783  22.222  26.541  1.00  0.00    -0.165 F 
ATOM     22  F   UNL A   1      31.546  23.365  27.102  1.00  0.00    -0.165 F 
ENDBRANCH  18  19
ENDBRANCH   7  18
ENDBRANCH   6   7
ENDBRANCH   3   6
ENDBRANCH   1   2
BRANCH   1  23
ATOM     23  C   UNL A   1      38.157  23.550  25.768  1.00  0.00     0.042 C 
BRANCH  23  24
ATOM     24  C   UNL A   1      38.932  22.471  26.534  1.00  0.00     0.118 C 
BRANCH  24  25
ATOM     25  N   UNL A   1      40.359  22.734  26.655  1.00  0.00    -0.352 N 
ATOM     26  C   UNL A   1      41.059  23.896  26.934  1.00  0.00     0.251 C 
ATOM     27  H   UNL A   1      40.929  21.943  26.513  1.00  0.00     0.163 HD
ATOM     28  O   UNL A   1      42.279  23.837  26.963  1.00  0.00    -0.269 OA
BRANCH  26  29
ATOM     29  C   UNL A   1      40.382  25.173  27.309  1.00  0.00     0.039 A 
ATOM     30  C   UNL A   1      40.554  26.270  26.446  1.00  0.00     0.014 A 
ATOM     31  C   UNL A   1      39.669  25.358  28.490  1.00  0.00     0.014 A 
ATOM     32  C   UNL A   1      40.224  27.562  26.863  1.00  0.00     0.010 A 
ATOM     33  C   UNL A   1      39.363  26.641  28.921  1.00  0.00     0.010 A 
ATOM     34  C   UNL A   1      39.721  27.749  28.148  1.00  0.00    -0.014 A 
BRANCH  34  35
ATOM     35  C   UNL A   1      39.773  29.037  28.840  1.00  0.00     0.031 A 
ATOM     36  C   UNL A   1      38.727  30.069  28.711  1.00  0.00     0.074 A 
ATOM     37  C   UNL A   1      40.760  29.211  29.746  1.00  0.00     0.049 A 
ATOM     38  N   UNL A   1      38.865  31.289  29.116  1.00  0.00    -0.248 NA
ATOM     39  C   UNL A   1      37.442  29.823  28.081  1.00  0.00     0.031 C 
ATOM     40  C   UNL A   1      40.843  30.216  30.801  1.00  0.00     0.029 A 
ATOM     41  N   UNL A   1      41.984  28.543  29.819  1.00  0.00    -0.354 N 
ATOM     42  C   UNL A   1      37.636  31.903  29.078  1.00  0.00     0.074 A 
ATOM     43  C   UNL A   1      36.807  30.976  28.335  1.00  0.00     0.031 C 
ATOM     44  C   UNL A   1      42.084  30.231  31.306  1.00  0.00     0.029 A 
ATOM     45  C   UNL A   1      42.900  29.432  30.418  1.00  0.00     0.049 A 
ATOM     46  H   UNL A   1      42.171  27.627  29.510  1.00  0.00     0.167 HD
ATOM     47  C   UNL A   1      37.454  33.062  29.784  1.00  0.00     0.037 A 
ATOM     48  C   UNL A   1      43.929  29.940  29.672  1.00  0.00     0.037 A 
ATOM     49  C   UNL A   1      38.711  33.524  30.398  1.00  0.00     0.049 A 
ATOM     50  C   UNL A   1      43.850  31.438  29.426  1.00  0.00     0.074 A 
ATOM     51  C   UNL A   1      39.222  33.543  31.687  1.00  0.00     0.029 A 
ATOM     52  N   UNL A   1      39.770  33.870  29.573  1.00  0.00    -0.354 N 
ATOM     53  N   UNL A   1      42.872  32.201  29.829  1.00  0.00    -0.248 NA
ATOM     54  C   UNL A   1      44.835  32.183  28.640  1.00  0.00     0.031 C 
ATOM     55  C   UNL A   1      40.599  33.913  31.622  1.00  0.00     0.029 A 
ATOM     56  C   UNL A   1      40.925  34.113  30.293  1.00  0.00     0.049 A 
ATOM     57  H   UNL A   1      39.708  33.934  28.593  1.00  0.00     0.167 HD
ATOM     58  C   UNL A   1      43.046  33.471  29.357  1.00  0.00     0.074 A 
ATOM     59  C   UNL A   1      44.295  33.414  28.620  1.00  0.00     0.031 C 
ATOM     60  C   UNL A   1      42.140  34.467  29.574  1.00  0.00     0.037 A 
BRANCH  47  61
ATOM     61  C   UNL A   1      36.109  33.702  30.110  1.00  0.00     0.057 A 
ATOM     62  C   UNL A   1      35.282  34.217  29.086  1.00  0.00     0.134 A 
ATOM     63  C   UNL A   1      35.572  33.874  31.398  1.00  0.00     0.134 A 
ATOM     64  F   UNL A   1      35.570  34.047  27.789  1.00  0.00    -0.206 F 
ATOM     65  C   UNL A   1      34.097  34.930  29.331  1.00  0.00     0.040 A 
ATOM     66  C   UNL A   1      34.410  34.621  31.661  1.00  0.00     0.040 A 
ATOM     67  F   UNL A   1      36.091  33.274  32.471  1.00  0.00    -0.206 F 
ATOM     68  C   UNL A   1      33.672  35.165  30.626  1.00  0.00     0.006 A 
ENDBRANCH  47  61
BRANCH  48  69
ATOM     69  C   UNL A   1      44.468  28.927  28.724  1.00  0.00     0.057 A 
ATOM     70  C   UNL A   1      44.052  28.996  27.380  1.00  0.00     0.134 A 
ATOM     71  C   UNL A   1      45.646  28.227  28.993  1.00  0.00     0.134 A 
ATOM     72  F   UNL A   1      42.934  29.664  27.053  1.00  0.00    -0.206 F 
ATOM     73  C   UNL A   1      44.843  28.509  26.338  1.00  0.00     0.040 A 
ATOM     74  C   UNL A   1      46.435  27.715  27.957  1.00  0.00     0.040 A 
ATOM     75  F   UNL A   1      46.118  28.137  30.245  1.00  0.00    -0.206 F 
ATOM     76  C   UNL A   1      46.058  27.895  26.626  1.00  0.00     0.006 A 
ENDBRANCH  48  69
BRANCH  60  77
ATOM     77  C   UNL A   1      42.336  35.875  29.096  1.00  0.00     0.057 A 
ATOM     78  C   UNL A   1      41.778  36.349  27.902  1.00  0.00     0.134 A 
ATOM     79  C   UNL A   1      43.196  36.764  29.769  1.00  0.00     0.134 A 
ATOM     80  F   UNL A   1      41.001  35.564  27.142  1.00  0.00    -0.206 F 
ATOM     81  C   UNL A   1      42.017  37.647  27.433  1.00  0.00     0.040 A 
ATOM     82  C   UNL A   1      43.479  38.044  29.288  1.00  0.00     0.040 A 
ATOM     83  F   UNL A   1      43.780  36.433  30.930  1.00  0.00    -0.206 F 
ATOM     84  C   UNL A   1      42.877  38.496  28.122  1.00  0.00     0.006 A 
ENDBRANCH  60  77
ENDBRANCH  34  35
ENDBRANCH  26  29
ENDBRANCH  24  25
ENDBRANCH  23  24
ENDBRANCH   1  23
TORSDOF 15
ENDMDL
