MODEL 1
REMARK VINA RESULT:     -12.9      0.000      0.000
REMARK SMILES C=C(C)COc1cc2oc(=O)c(CC(=O)N3CCC[C@H](C(=O)NCCCNC(=O)c4ccc(-c5c6nc(c(-c7c(F)cccc7F)c7ccc([nH]7)c(-c7c(F)cccc7F)c7nc(c(-c8c(F)cccc8F)c8ccc5[nH]8)C=C7)C=C6)cc4)C3)c(C)c2cc1Cl
REMARK SMILES IDX 21 1 22 2 23 3 20 5 16 6 17 7 84 8 18 9 19 10 14 11 15 12
REMARK SMILES IDX 13 13 12 14 6 15 7 16 89 17 8 18 88 19 90 20 9 21 87 22
REMARK SMILES IDX 10 23 85 24 11 25 86 26 5 27 4 28 2 29 1 30 3 31 24 32 25 33
REMARK SMILES IDX 26 34 27 35 28 36 29 38 30 39 31 40 83 41 32 42 82 43 33 44
REMARK SMILES IDX 34 45 35 46 76 47 36 48 81 49 75 50 77 51 37 52 80 53 74 54
REMARK SMILES IDX 73 55 38 57 64 58 47 59 63 60 48 61 51 62 62 63 78 64 49 65
REMARK SMILES IDX 50 66 61 68 79 69 52 70 39 71 40 72 45 73 41 74 42 75 44 76
REMARK SMILES IDX 46 77 43 78 65 79 66 80 71 81 67 82 68 83 70 84 72 85 69 86
REMARK SMILES IDX 53 87 54 88 59 89 55 90 56 91 58 92 60 93 57 94
REMARK H PARENT 23 4 27 37 77 56 51 67
REMARK Flexibility Score: inf
ROOT
ATOM      1  C   UNL A   1      31.674  24.390  26.874  1.00  0.00     0.224 C 
ATOM      2  O   UNL A   1      30.634  23.789  27.173  1.00  0.00    -0.275 OA
ATOM      3  N   UNL A   1      31.522  25.693  26.533  1.00  0.00    -0.356 N 
ATOM      4  H   UNL A   1      30.583  25.988  26.485  1.00  0.00     0.163 HD
ENDROOT
BRANCH   1   5
ATOM      5  C   UNL A   1      33.004  23.624  26.875  1.00  0.00     0.098 C 
ATOM      6  N   UNL A   1      34.141  23.181  24.653  1.00  0.00    -0.342 N 
ATOM      7  C   UNL A   1      34.087  21.742  24.892  1.00  0.00     0.119 C 
ATOM      8  C   UNL A   1      34.036  24.051  25.825  1.00  0.00     0.133 C 
ATOM      9  C   UNL A   1      32.907  21.326  25.755  1.00  0.00     0.022 C 
ATOM     10  C   UNL A   1      32.843  22.115  27.052  1.00  0.00     0.017 C 
BRANCH   6  11
ATOM     11  C   UNL A   1      34.278  23.611  23.342  1.00  0.00     0.227 C 
ATOM     12  O   UNL A   1      35.385  23.959  22.915  1.00  0.00    -0.275 OA
BRANCH  11  13
ATOM     13  C   UNL A   1      33.053  23.846  22.448  1.00  0.00     0.143 C 
BRANCH  13  14
ATOM     14  C   UNL A   1      32.233  25.097  22.588  1.00  0.00     0.051 A 
ATOM     15  C   UNL A   1      29.041  28.970  23.212  1.00  0.00     0.142 A 
ATOM     16  C   UNL A   1      30.367  28.854  22.803  1.00  0.00     0.096 A 
ATOM     17  C   UNL A   1      28.307  27.819  23.512  1.00  0.00     0.083 A 
ATOM     18  C   UNL A   1      30.955  27.589  22.757  1.00  0.00     0.142 A 
ATOM     19  C   UNL A   1      28.931  26.566  23.503  1.00  0.00     0.036 A 
ATOM     20  Cl  UNL A   1      26.617  27.862  23.857  1.00  0.00    -0.080 Cl
ATOM     21  O   UNL A   1      32.271  27.532  22.278  1.00  0.00    -0.422 OA
ATOM     22  C   UNL A   1      30.274  26.433  23.131  1.00  0.00     0.023 A 
ATOM     23  C   UNL A   1      32.913  26.323  22.080  1.00  0.00     0.340 A 
ATOM     24  C   UNL A   1      30.983  25.141  23.101  1.00  0.00    -0.029 A 
ATOM     25  O   UNL A   1      34.029  26.281  21.574  1.00  0.00    -0.246 OA
ATOM     26  C   UNL A   1      30.277  23.945  23.692  1.00  0.00     0.046 C 
BRANCH  15  27
ATOM     27  O   UNL A   1      28.467  30.214  23.211  1.00  0.00    -0.488 OA
BRANCH  27  28
ATOM     28  C   UNL A   1      27.989  30.580  21.905  1.00  0.00     0.260 C 
BRANCH  28  29
ATOM     29  C   UNL A   1      28.269  32.040  21.634  1.00  0.00    -0.043 C 
ATOM     30  C   UNL A   1      28.026  32.599  20.436  1.00  0.00     0.011 C 
ATOM     31  C   UNL A   1      28.778  32.849  22.792  1.00  0.00     0.042 C 
ENDBRANCH  28  29
ENDBRANCH  27  28
ENDBRANCH  15  27
ENDBRANCH  13  14
ENDBRANCH  11  13
ENDBRANCH   6  11
ENDBRANCH   1   5
BRANCH   3  32
ATOM     32  C   UNL A   1      32.481  26.732  26.224  1.00  0.00     0.117 C 
BRANCH  32  33
ATOM     33  C   UNL A   1      31.868  28.122  26.197  1.00  0.00     0.042 C 
BRANCH  33  34
ATOM     34  C   UNL A   1      32.821  29.187  25.683  1.00  0.00     0.118 C 
BRANCH  34  35
ATOM     35  N   UNL A   1      32.500  30.524  26.177  1.00  0.00    -0.352 N 
ATOM     36  C   UNL A   1      33.149  31.338  27.080  1.00  0.00     0.251 C 
ATOM     37  H   UNL A   1      31.677  30.910  25.799  1.00  0.00     0.163 HD
ATOM     38  O   UNL A   1      32.612  32.372  27.456  1.00  0.00    -0.269 OA
BRANCH  36  39
ATOM     39  C   UNL A   1      34.472  30.955  27.625  1.00  0.00     0.039 A 
ATOM     40  C   UNL A   1      34.754  29.633  27.960  1.00  0.00     0.014 A 
ATOM     41  C   UNL A   1      35.448  31.939  27.811  1.00  0.00     0.014 A 
ATOM     42  C   UNL A   1      35.899  29.335  28.686  1.00  0.00     0.010 A 
ATOM     43  C   UNL A   1      36.660  31.612  28.430  1.00  0.00     0.010 A 
ATOM     44  C   UNL A   1      36.871  30.318  28.930  1.00  0.00    -0.014 A 
BRANCH  44  45
ATOM     45  C   UNL A   1      38.083  29.963  29.716  1.00  0.00     0.031 A 
ATOM     46  C   UNL A   1      38.259  30.457  31.129  1.00  0.00     0.074 A 
ATOM     47  C   UNL A   1      38.998  29.131  29.179  1.00  0.00     0.049 A 
ATOM     48  N   UNL A   1      39.257  30.259  31.955  1.00  0.00    -0.248 NA
ATOM     49  C   UNL A   1      37.180  31.285  31.689  1.00  0.00     0.031 C 
ATOM     50  C   UNL A   1      38.935  28.565  27.828  1.00  0.00     0.029 A 
ATOM     51  N   UNL A   1      40.140  28.588  29.709  1.00  0.00    -0.354 N 
ATOM     52  C   UNL A   1      38.940  30.958  33.114  1.00  0.00     0.074 A 
ATOM     53  C   UNL A   1      37.668  31.606  32.879  1.00  0.00     0.031 C 
ATOM     54  C   UNL A   1      39.951  27.707  27.661  1.00  0.00     0.029 A 
ATOM     55  C   UNL A   1      40.783  27.724  28.856  1.00  0.00     0.049 A 
ATOM     56  H   UNL A   1      40.468  28.798  30.613  1.00  0.00     0.167 HD
ATOM     57  C   UNL A   1      39.640  31.044  34.271  1.00  0.00     0.037 A 
ATOM     58  C   UNL A   1      41.932  27.040  29.007  1.00  0.00     0.037 A 
ATOM     59  C   UNL A   1      40.892  30.376  34.515  1.00  0.00     0.049 A 
ATOM     60  C   UNL A   1      42.709  27.194  30.280  1.00  0.00     0.074 A 
ATOM     61  C   UNL A   1      41.675  30.397  35.657  1.00  0.00     0.029 A 
ATOM     62  N   UNL A   1      41.540  29.559  33.602  1.00  0.00    -0.354 N 
ATOM     63  N   UNL A   1      42.405  27.877  31.357  1.00  0.00    -0.248 NA
ATOM     64  C   UNL A   1      44.000  26.498  30.352  1.00  0.00     0.031 C 
ATOM     65  C   UNL A   1      42.815  29.618  35.422  1.00  0.00     0.029 A 
ATOM     66  C   UNL A   1      42.720  29.081  34.149  1.00  0.00     0.049 A 
ATOM     67  H   UNL A   1      41.210  29.348  32.698  1.00  0.00     0.167 HD
ATOM     68  C   UNL A   1      43.460  27.684  32.237  1.00  0.00     0.074 A 
ATOM     69  C   UNL A   1      44.400  26.801  31.579  1.00  0.00     0.031 C 
ATOM     70  C   UNL A   1      43.641  28.201  33.477  1.00  0.00     0.037 A 
BRANCH  57  71
ATOM     71  C   UNL A   1      39.074  31.909  35.361  1.00  0.00     0.057 A 
ATOM     72  C   UNL A   1      39.351  33.282  35.399  1.00  0.00     0.134 A 
ATOM     73  C   UNL A   1      38.285  31.382  36.392  1.00  0.00     0.134 A 
ATOM     74  F   UNL A   1      40.106  33.851  34.447  1.00  0.00    -0.206 F 
ATOM     75  C   UNL A   1      38.867  34.098  36.423  1.00  0.00     0.040 A 
ATOM     76  C   UNL A   1      37.776  32.193  37.409  1.00  0.00     0.040 A 
ATOM     77  F   UNL A   1      37.971  30.078  36.409  1.00  0.00    -0.206 F 
ATOM     78  C   UNL A   1      38.071  33.554  37.429  1.00  0.00     0.006 A 
ENDBRANCH  57  71
BRANCH  58  79
ATOM     79  C   UNL A   1      42.434  26.173  27.912  1.00  0.00     0.057 A 
ATOM     80  C   UNL A   1      43.310  26.665  26.936  1.00  0.00     0.134 A 
ATOM     81  C   UNL A   1      42.061  24.827  27.825  1.00  0.00     0.134 A 
ATOM     82  F   UNL A   1      43.702  27.948  26.961  1.00  0.00    -0.206 F 
ATOM     83  C   UNL A   1      43.789  25.854  25.908  1.00  0.00     0.040 A 
ATOM     84  C   UNL A   1      42.556  23.997  26.818  1.00  0.00     0.040 A 
ATOM     85  F   UNL A   1      41.241  24.293  28.741  1.00  0.00    -0.206 F 
ATOM     86  C   UNL A   1      43.419  24.512  25.851  1.00  0.00     0.006 A 
ENDBRANCH  58  79
BRANCH  70  87
ATOM     87  C   UNL A   1      44.888  27.794  34.201  1.00  0.00     0.057 A 
ATOM     88  C   UNL A   1      44.917  26.627  34.973  1.00  0.00     0.134 A 
ATOM     89  C   UNL A   1      46.060  28.559  34.134  1.00  0.00     0.134 A 
ATOM     90  F   UNL A   1      43.827  25.854  35.080  1.00  0.00    -0.206 F 
ATOM     91  C   UNL A   1      46.069  26.234  35.654  1.00  0.00     0.040 A 
ATOM     92  C   UNL A   1      47.225  28.163  34.791  1.00  0.00     0.040 A 
ATOM     93  F   UNL A   1      46.101  29.678  33.394  1.00  0.00    -0.206 F 
ATOM     94  C   UNL A   1      47.230  26.999  35.558  1.00  0.00     0.006 A 
ENDBRANCH  70  87
ENDBRANCH  44  45
ENDBRANCH  36  39
ENDBRANCH  34  35
ENDBRANCH  33  34
ENDBRANCH  32  33
ENDBRANCH   3  32
TORSDOF 16
ENDMDL
MODEL 2
REMARK VINA RESULT:     -12.9      0.359      5.923
REMARK SMILES C=C(C)COc1cc2oc(=O)c(CC(=O)N3CCC[C@H](C(=O)NCCCNC(=O)c4ccc(-c5c6nc(c(-c7c(F)cccc7F)c7ccc([nH]7)c(-c7c(F)cccc7F)c7nc(c(-c8c(F)cccc8F)c8ccc5[nH]8)C=C7)C=C6)cc4)C3)c(C)c2cc1Cl
REMARK SMILES IDX 21 1 22 2 23 3 20 5 16 6 17 7 84 8 18 9 19 10 14 11 15 12
REMARK SMILES IDX 13 13 12 14 6 15 7 16 89 17 8 18 88 19 90 20 9 21 87 22
REMARK SMILES IDX 10 23 85 24 11 25 86 26 5 27 4 28 2 29 1 30 3 31 24 32 25 33
REMARK SMILES IDX 26 34 27 35 28 36 29 38 30 39 31 40 83 41 32 42 82 43 33 44
REMARK SMILES IDX 34 45 35 46 76 47 36 48 81 49 75 50 77 51 37 52 80 53 74 54
REMARK SMILES IDX 73 55 38 57 64 58 47 59 63 60 48 61 51 62 62 63 78 64 49 65
REMARK SMILES IDX 50 66 61 68 79 69 52 70 39 71 40 72 45 73 41 74 42 75 44 76
REMARK SMILES IDX 46 77 43 78 65 79 66 80 71 81 67 82 68 83 70 84 72 85 69 86
REMARK SMILES IDX 53 87 54 88 59 89 55 90 56 91 58 92 60 93 57 94
REMARK H PARENT 23 4 27 37 77 56 51 67
REMARK Flexibility Score: inf
ROOT
ATOM      1  C   UNL A   1      31.754  24.422  26.875  1.00  0.00     0.224 C 
ATOM      2  O   UNL A   1      30.752  23.718  27.057  1.00  0.00    -0.275 OA
ATOM      3  N   UNL A   1      31.514  25.734  26.632  1.00  0.00    -0.356 N 
ATOM      4  H   UNL A   1      30.558  25.958  26.548  1.00  0.00     0.163 HD
ENDROOT
BRANCH   1   5
ATOM      5  C   UNL A   1      33.141  23.764  26.898  1.00  0.00     0.098 C 
ATOM      6  N   UNL A   1      34.222  23.152  24.689  1.00  0.00    -0.342 N 
ATOM      7  C   UNL A   1      34.293  21.751  25.092  1.00  0.00     0.119 C 
ATOM      8  C   UNL A   1      34.092  24.143  25.757  1.00  0.00     0.133 C 
ATOM      9  C   UNL A   1      33.186  21.350  26.052  1.00  0.00     0.022 C 
ATOM     10  C   UNL A   1      33.110  22.279  27.253  1.00  0.00     0.017 C 
BRANCH   6  11
ATOM     11  C   UNL A   1      34.271  23.435  23.332  1.00  0.00     0.227 C 
ATOM     12  O   UNL A   1      35.352  23.696  22.791  1.00  0.00    -0.275 OA
BRANCH  11  13
ATOM     13  C   UNL A   1      32.989  23.617  22.508  1.00  0.00     0.143 C 
BRANCH  13  14
ATOM     14  C   UNL A   1      32.208  24.898  22.582  1.00  0.00     0.051 A 
ATOM     15  C   UNL A   1      29.146  28.898  23.031  1.00  0.00     0.142 A 
ATOM     16  C   UNL A   1      30.449  28.712  22.574  1.00  0.00     0.096 A 
ATOM     17  C   UNL A   1      28.398  27.797  23.456  1.00  0.00     0.083 A 
ATOM     18  C   UNL A   1      31.002  27.431  22.605  1.00  0.00     0.142 A 
ATOM     19  C   UNL A   1      28.990  26.530  23.521  1.00  0.00     0.036 A 
ATOM     20  Cl  UNL A   1      26.729  27.915  23.872  1.00  0.00    -0.080 Cl
ATOM     21  O   UNL A   1      32.292  27.298  22.074  1.00  0.00    -0.422 OA
ATOM     22  C   UNL A   1      30.310  26.328  23.102  1.00  0.00     0.023 A 
ATOM     23  C   UNL A   1      32.894  26.059  21.946  1.00  0.00     0.340 A 
ATOM     24  C   UNL A   1      30.985  25.019  23.145  1.00  0.00    -0.029 A 
ATOM     25  O   UNL A   1      33.984  25.945  21.396  1.00  0.00    -0.246 OA
ATOM     26  C   UNL A   1      30.278  23.895  23.863  1.00  0.00     0.046 C 
BRANCH  15  27
ATOM     27  O   UNL A   1      28.604  30.154  22.954  1.00  0.00    -0.488 OA
BRANCH  27  28
ATOM     28  C   UNL A   1      28.682  30.689  21.622  1.00  0.00     0.260 C 
BRANCH  28  29
ATOM     29  C   UNL A   1      28.350  32.162  21.628  1.00  0.00    -0.043 C 
ATOM     30  C   UNL A   1      27.662  32.739  20.627  1.00  0.00     0.011 C 
ATOM     31  C   UNL A   1      28.778  32.939  22.839  1.00  0.00     0.042 C 
ENDBRANCH  28  29
ENDBRANCH  27  28
ENDBRANCH  15  27
ENDBRANCH  13  14
ENDBRANCH  11  13
ENDBRANCH   6  11
ENDBRANCH   1   5
BRANCH   3  32
ATOM     32  C   UNL A   1      32.399  26.867  26.470  1.00  0.00     0.117 C 
BRANCH  32  33
ATOM     33  C   UNL A   1      31.680  28.129  26.022  1.00  0.00     0.042 C 
BRANCH  33  34
ATOM     34  C   UNL A   1      32.619  29.197  25.490  1.00  0.00     0.118 C 
BRANCH  34  35
ATOM     35  N   UNL A   1      32.290  30.535  25.972  1.00  0.00    -0.352 N 
ATOM     36  C   UNL A   1      32.914  31.348  26.894  1.00  0.00     0.251 C 
ATOM     37  H   UNL A   1      31.480  30.925  25.568  1.00  0.00     0.163 HD
ATOM     38  O   UNL A   1      32.372  32.385  27.251  1.00  0.00    -0.269 OA
BRANCH  36  39
ATOM     39  C   UNL A   1      34.218  30.959  27.479  1.00  0.00     0.039 A 
ATOM     40  C   UNL A   1      34.489  29.634  27.810  1.00  0.00     0.014 A 
ATOM     41  C   UNL A   1      35.187  31.941  27.709  1.00  0.00     0.014 A 
ATOM     42  C   UNL A   1      35.608  29.329  28.572  1.00  0.00     0.010 A 
ATOM     43  C   UNL A   1      36.377  31.609  28.366  1.00  0.00     0.010 A 
ATOM     44  C   UNL A   1      36.571  30.309  28.859  1.00  0.00    -0.014 A 
BRANCH  44  45
ATOM     45  C   UNL A   1      37.756  29.946  29.682  1.00  0.00     0.031 A 
ATOM     46  C   UNL A   1      38.865  29.100  29.109  1.00  0.00     0.074 A 
ATOM     47  C   UNL A   1      37.868  30.440  30.931  1.00  0.00     0.049 A 
ATOM     48  N   UNL A   1      39.962  28.675  29.686  1.00  0.00    -0.248 NA
ATOM     49  C   UNL A   1      38.724  28.671  27.709  1.00  0.00     0.031 C 
ATOM     50  C   UNL A   1      36.875  31.288  31.597  1.00  0.00     0.029 A 
ATOM     51  N   UNL A   1      38.877  30.332  31.853  1.00  0.00    -0.354 N 
ATOM     52  C   UNL A   1      40.624  27.909  28.733  1.00  0.00     0.074 A 
ATOM     53  C   UNL A   1      39.795  27.906  27.547  1.00  0.00     0.031 C 
ATOM     54  C   UNL A   1      37.352  31.676  32.788  1.00  0.00     0.029 A 
ATOM     55  C   UNL A   1      38.644  31.039  33.008  1.00  0.00     0.049 A 
ATOM     56  H   UNL A   1      39.690  29.798  31.703  1.00  0.00     0.167 HD
ATOM     57  C   UNL A   1      41.816  27.273  28.835  1.00  0.00     0.037 A 
ATOM     58  C   UNL A   1      39.375  31.144  34.132  1.00  0.00     0.037 A 
ATOM     59  C   UNL A   1      42.654  27.300  30.006  1.00  0.00     0.049 A 
ATOM     60  C   UNL A   1      40.667  30.390  34.233  1.00  0.00     0.074 A 
ATOM     61  C   UNL A   1      43.882  26.693  30.205  1.00  0.00     0.029 A 
ATOM     62  N   UNL A   1      42.351  27.979  31.177  1.00  0.00    -0.354 N 
ATOM     63  N   UNL A   1      41.266  29.652  33.330  1.00  0.00    -0.248 NA
ATOM     64  C   UNL A   1      41.375  30.467  35.517  1.00  0.00     0.031 C 
ATOM     65  C   UNL A   1      44.307  26.977  31.508  1.00  0.00     0.029 A 
ATOM     66  C   UNL A   1      43.362  27.794  32.106  1.00  0.00     0.049 A 
ATOM     67  H   UNL A   1      41.537  28.514  31.325  1.00  0.00     0.167 HD
ATOM     68  C   UNL A   1      42.426  29.186  33.933  1.00  0.00     0.074 A 
ATOM     69  C   UNL A   1      42.459  29.745  35.269  1.00  0.00     0.031 C 
ATOM     70  C   UNL A   1      43.376  28.360  33.430  1.00  0.00     0.037 A 
BRANCH  57  71
ATOM     71  C   UNL A   1      42.281  26.478  27.649  1.00  0.00     0.057 A 
ATOM     72  C   UNL A   1      43.042  27.081  26.638  1.00  0.00     0.134 A 
ATOM     73  C   UNL A   1      41.948  25.127  27.485  1.00  0.00     0.134 A 
ATOM     74  F   UNL A   1      43.389  28.374  26.728  1.00  0.00    -0.206 F 
ATOM     75  C   UNL A   1      43.452  26.370  25.509  1.00  0.00     0.040 A 
ATOM     76  C   UNL A   1      42.372  24.399  26.371  1.00  0.00     0.040 A 
ATOM     77  F   UNL A   1      41.233  24.485  28.422  1.00  0.00    -0.206 F 
ATOM     78  C   UNL A   1      43.122  25.023  25.377  1.00  0.00     0.006 A 
ENDBRANCH  57  71
BRANCH  58  79
ATOM     79  C   UNL A   1      38.887  31.969  35.266  1.00  0.00     0.057 A 
ATOM     80  C   UNL A   1      38.196  31.395  36.340  1.00  0.00     0.134 A 
ATOM     81  C   UNL A   1      39.115  33.349  35.307  1.00  0.00     0.134 A 
ATOM     82  F   UNL A   1      37.943  30.079  36.358  1.00  0.00    -0.206 F 
ATOM     83  C   UNL A   1      37.740  32.165  37.411  1.00  0.00     0.040 A 
ATOM     84  C   UNL A   1      38.690  34.126  36.386  1.00  0.00     0.040 A 
ATOM     85  F   UNL A   1      39.788  33.952  34.318  1.00  0.00    -0.206 F 
ATOM     86  C   UNL A   1      37.994  33.534  37.439  1.00  0.00     0.006 A 
ENDBRANCH  58  79
BRANCH  70  87
ATOM     87  C   UNL A   1      44.536  28.043  34.324  1.00  0.00     0.057 A 
ATOM     88  C   UNL A   1      45.669  28.865  34.342  1.00  0.00     0.134 A 
ATOM     89  C   UNL A   1      44.531  26.924  35.166  1.00  0.00     0.134 A 
ATOM     90  F   UNL A   1      45.736  29.950  33.556  1.00  0.00    -0.206 F 
ATOM     91  C   UNL A   1      46.758  28.585  35.167  1.00  0.00     0.040 A 
ATOM     92  C   UNL A   1      45.603  26.647  36.013  1.00  0.00     0.040 A 
ATOM     93  F   UNL A   1      43.465  26.109  35.208  1.00  0.00    -0.206 F 
ATOM     94  C   UNL A   1      46.724  27.476  36.012  1.00  0.00     0.006 A 
ENDBRANCH  70  87
ENDBRANCH  44  45
ENDBRANCH  36  39
ENDBRANCH  34  35
ENDBRANCH  33  34
ENDBRANCH  32  33
ENDBRANCH   3  32
TORSDOF 16
ENDMDL
MODEL 3
REMARK VINA RESULT:     -12.5      2.918      3.854
REMARK SMILES C=C(C)COc1cc2oc(=O)c(CC(=O)N3CCC[C@H](C(=O)NCCCNC(=O)c4ccc(-c5c6nc(c(-c7c(F)cccc7F)c7ccc([nH]7)c(-c7c(F)cccc7F)c7nc(c(-c8c(F)cccc8F)c8ccc5[nH]8)C=C7)C=C6)cc4)C3)c(C)c2cc1Cl
REMARK SMILES IDX 21 1 22 2 23 3 20 5 16 6 17 7 84 8 18 9 19 10 14 11 15 12
REMARK SMILES IDX 13 13 12 14 6 15 7 16 89 17 8 18 88 19 90 20 9 21 87 22
REMARK SMILES IDX 10 23 85 24 11 25 86 26 5 27 4 28 2 29 1 30 3 31 24 32 25 33
REMARK SMILES IDX 26 34 27 35 28 36 29 38 30 39 31 40 83 41 32 42 82 43 33 44
REMARK SMILES IDX 34 45 35 46 76 47 36 48 81 49 75 50 77 51 37 52 80 53 74 54
REMARK SMILES IDX 73 55 38 57 64 58 47 59 63 60 48 61 51 62 62 63 78 64 49 65
REMARK SMILES IDX 50 66 61 68 79 69 52 70 39 71 40 72 45 73 41 74 42 75 44 76
REMARK SMILES IDX 46 77 43 78 65 79 66 80 71 81 67 82 68 83 70 84 72 85 69 86
REMARK SMILES IDX 53 87 54 88 59 89 55 90 56 91 58 92 60 93 57 94
REMARK H PARENT 23 4 27 37 77 56 51 67
REMARK Flexibility Score: inf
ROOT
ATOM      1  C   UNL A   1      31.503  25.333  26.506  1.00  0.00     0.224 C 
ATOM      2  O   UNL A   1      30.276  25.168  26.522  1.00  0.00    -0.275 OA
ATOM      3  N   UNL A   1      31.924  26.589  26.212  1.00  0.00    -0.356 N 
ATOM      4  H   UNL A   1      31.198  27.206  25.965  1.00  0.00     0.163 HD
ENDROOT
BRANCH   1   5
ATOM      5  C   UNL A   1      32.420  24.131  26.772  1.00  0.00     0.098 C 
ATOM      6  N   UNL A   1      33.590  23.049  24.801  1.00  0.00    -0.342 N 
ATOM      7  C   UNL A   1      32.952  21.771  25.101  1.00  0.00     0.119 C 
ATOM      8  C   UNL A   1      33.670  24.021  25.891  1.00  0.00     0.133 C 
ATOM      9  C   UNL A   1      31.597  21.925  25.772  1.00  0.00     0.022 C 
ATOM     10  C   UNL A   1      31.666  22.822  26.997  1.00  0.00     0.017 C 
BRANCH   6  11
ATOM     11  C   UNL A   1      34.060  23.246  23.511  1.00  0.00     0.227 C 
ATOM     12  O   UNL A   1      35.269  23.149  23.270  1.00  0.00    -0.275 OA
BRANCH  11  13
ATOM     13  C   UNL A   1      33.141  23.767  22.398  1.00  0.00     0.143 C 
BRANCH  13  14
ATOM     14  C   UNL A   1      32.431  25.083  22.546  1.00  0.00     0.051 A 
ATOM     15  C   UNL A   1      29.570  29.212  23.128  1.00  0.00     0.142 A 
ATOM     16  C   UNL A   1      30.915  28.989  22.842  1.00  0.00     0.096 A 
ATOM     17  C   UNL A   1      28.704  28.125  23.274  1.00  0.00     0.083 A 
ATOM     18  C   UNL A   1      31.383  27.676  22.765  1.00  0.00     0.142 A 
ATOM     19  C   UNL A   1      29.206  26.819  23.238  1.00  0.00     0.036 A 
ATOM     20  Cl  UNL A   1      27.000  28.317  23.457  1.00  0.00    -0.080 Cl
ATOM     21  O   UNL A   1      32.730  27.516  22.412  1.00  0.00    -0.422 OA
ATOM     22  C   UNL A   1      30.561  26.574  22.989  1.00  0.00     0.023 A 
ATOM     23  C   UNL A   1      33.273  26.262  22.192  1.00  0.00     0.340 A 
ATOM     24  C   UNL A   1      31.145  25.221  22.937  1.00  0.00    -0.029 A 
ATOM     25  O   UNL A   1      34.426  26.140  21.795  1.00  0.00    -0.246 OA
ATOM     26  C   UNL A   1      30.273  24.069  23.373  1.00  0.00     0.046 C 
BRANCH  15  27
ATOM     27  O   UNL A   1      29.119  30.506  23.158  1.00  0.00    -0.488 OA
BRANCH  27  28
ATOM     28  C   UNL A   1      28.989  31.057  21.836  1.00  0.00     0.260 C 
BRANCH  28  29
ATOM     29  C   UNL A   1      28.472  32.475  21.908  1.00  0.00    -0.043 C 
ATOM     30  C   UNL A   1      28.726  33.270  22.962  1.00  0.00     0.011 C 
ATOM     31  C   UNL A   1      27.710  32.970  20.713  1.00  0.00     0.042 C 
ENDBRANCH  28  29
ENDBRANCH  27  28
ENDBRANCH  15  27
ENDBRANCH  13  14
ENDBRANCH  11  13
ENDBRANCH   6  11
ENDBRANCH   1   5
BRANCH   3  32
ATOM     32  C   UNL A   1      33.239  27.189  26.192  1.00  0.00     0.117 C 
BRANCH  32  33
ATOM     33  C   UNL A   1      33.427  28.254  27.261  1.00  0.00     0.042 C 
BRANCH  33  34
ATOM     34  C   UNL A   1      33.895  29.586  26.703  1.00  0.00     0.118 C 
BRANCH  34  35
ATOM     35  N   UNL A   1      33.878  30.656  27.698  1.00  0.00    -0.352 N 
ATOM     36  C   UNL A   1      34.804  31.027  28.649  1.00  0.00     0.251 C 
ATOM     37  H   UNL A   1      33.063  31.209  27.686  1.00  0.00     0.163 HD
ATOM     38  O   UNL A   1      34.510  31.876  29.480  1.00  0.00    -0.269 OA
BRANCH  36  39
ATOM     39  C   UNL A   1      36.137  30.382  28.694  1.00  0.00     0.039 A 
ATOM     40  C   UNL A   1      36.568  29.705  29.832  1.00  0.00     0.014 A 
ATOM     41  C   UNL A   1      36.975  30.463  27.578  1.00  0.00     0.014 A 
ATOM     42  C   UNL A   1      37.897  29.320  29.943  1.00  0.00     0.010 A 
ATOM     43  C   UNL A   1      38.279  29.958  27.646  1.00  0.00     0.010 A 
ATOM     44  C   UNL A   1      38.772  29.437  28.852  1.00  0.00    -0.014 A 
BRANCH  44  45
ATOM     45  C   UNL A   1      40.191  29.019  29.010  1.00  0.00     0.031 A 
ATOM     46  C   UNL A   1      41.188  29.915  29.700  1.00  0.00     0.074 A 
ATOM     47  C   UNL A   1      40.568  27.794  28.593  1.00  0.00     0.049 A 
ATOM     48  N   UNL A   1      42.466  29.719  29.912  1.00  0.00    -0.248 NA
ATOM     49  C   UNL A   1      40.691  31.200  30.214  1.00  0.00     0.031 C 
ATOM     50  C   UNL A   1      39.695  26.821  27.929  1.00  0.00     0.029 A 
ATOM     51  N   UNL A   1      41.769  27.141  28.693  1.00  0.00    -0.354 N 
ATOM     52  C   UNL A   1      42.928  30.862  30.555  1.00  0.00     0.074 A 
ATOM     53  C   UNL A   1      41.800  31.759  30.678  1.00  0.00     0.031 C 
ATOM     54  C   UNL A   1      40.369  25.677  27.743  1.00  0.00     0.029 A 
ATOM     55  C   UNL A   1      41.741  25.860  28.196  1.00  0.00     0.049 A 
ATOM     56  H   UNL A   1      42.575  27.550  29.083  1.00  0.00     0.167 HD
ATOM     57  C   UNL A   1      44.175  31.135  31.009  1.00  0.00     0.037 A 
ATOM     58  C   UNL A   1      42.718  24.942  28.089  1.00  0.00     0.037 A 
ATOM     59  C   UNL A   1      45.291  30.230  30.912  1.00  0.00     0.049 A 
ATOM     60  C   UNL A   1      44.100  25.291  28.556  1.00  0.00     0.074 A 
ATOM     61  C   UNL A   1      46.593  30.412  31.347  1.00  0.00     0.029 A 
ATOM     62  N   UNL A   1      45.234  28.965  30.345  1.00  0.00    -0.354 N 
ATOM     63  N   UNL A   1      44.523  26.385  29.141  1.00  0.00    -0.248 NA
ATOM     64  C   UNL A   1      45.145  24.284  28.329  1.00  0.00     0.031 C 
ATOM     65  C   UNL A   1      47.332  29.270  31.013  1.00  0.00     0.029 A 
ATOM     66  C   UNL A   1      46.480  28.362  30.407  1.00  0.00     0.049 A 
ATOM     67  H   UNL A   1      44.426  28.556  29.957  1.00  0.00     0.167 HD
ATOM     68  C   UNL A   1      45.880  26.194  29.362  1.00  0.00     0.074 A 
ATOM     69  C   UNL A   1      46.203  24.870  28.872  1.00  0.00     0.031 C 
ATOM     70  C   UNL A   1      46.781  27.043  29.913  1.00  0.00     0.037 A 
BRANCH  57  71
ATOM     71  C   UNL A   1      44.405  32.478  31.640  1.00  0.00     0.057 A 
ATOM     72  C   UNL A   1      44.233  32.657  33.019  1.00  0.00     0.134 A 
ATOM     73  C   UNL A   1      44.759  33.602  30.883  1.00  0.00     0.134 A 
ATOM     74  F   UNL A   1      43.886  31.624  33.802  1.00  0.00    -0.206 F 
ATOM     75  C   UNL A   1      44.404  33.905  33.621  1.00  0.00     0.040 A 
ATOM     76  C   UNL A   1      44.956  34.851  31.478  1.00  0.00     0.040 A 
ATOM     77  F   UNL A   1      44.953  33.497  29.560  1.00  0.00    -0.206 F 
ATOM     78  C   UNL A   1      44.773  35.005  32.850  1.00  0.00     0.006 A 
ENDBRANCH  57  71
BRANCH  58  79
ATOM     79  C   UNL A   1      42.434  23.615  27.486  1.00  0.00     0.057 A 
ATOM     80  C   UNL A   1      42.459  23.425  26.099  1.00  0.00     0.134 A 
ATOM     81  C   UNL A   1      42.144  22.504  28.285  1.00  0.00     0.134 A 
ATOM     82  F   UNL A   1      42.725  24.451  25.278  1.00  0.00    -0.206 F 
ATOM     83  C   UNL A   1      42.197  22.180  25.527  1.00  0.00     0.040 A 
ATOM     84  C   UNL A   1      41.909  21.246  27.728  1.00  0.00     0.040 A 
ATOM     85  F   UNL A   1      42.125  22.619  29.621  1.00  0.00    -0.206 F 
ATOM     86  C   UNL A   1      41.929  21.083  26.343  1.00  0.00     0.006 A 
ENDBRANCH  58  79
BRANCH  70  87
ATOM     87  C   UNL A   1      48.189  26.545  30.035  1.00  0.00     0.057 A 
ATOM     88  C   UNL A   1      48.605  25.852  31.178  1.00  0.00     0.134 A 
ATOM     89  C   UNL A   1      49.133  26.754  29.021  1.00  0.00     0.134 A 
ATOM     90  F   UNL A   1      47.749  25.623  32.185  1.00  0.00    -0.206 F 
ATOM     91  C   UNL A   1      49.911  25.381  31.308  1.00  0.00     0.040 A 
ATOM     92  C   UNL A   1      50.435  26.267  29.130  1.00  0.00     0.040 A 
ATOM     93  F   UNL A   1      48.789  27.395  27.893  1.00  0.00    -0.206 F 
ATOM     94  C   UNL A   1      50.829  25.583  30.279  1.00  0.00     0.006 A 
ENDBRANCH  70  87
ENDBRANCH  44  45
ENDBRANCH  36  39
ENDBRANCH  34  35
ENDBRANCH  33  34
ENDBRANCH  32  33
ENDBRANCH   3  32
TORSDOF 16
ENDMDL
