MODEL 1
REMARK VINA RESULT:     -10.2      0.000      0.000
REMARK SMILES COCc1cc(C)nc2sc3c(c12)N[C@H](c1ccccc1C(=O)NCCCNC(=O)c1ccc(-c2c4nc(c(-c5c(F)cccc5F)c5ccc([nH]5)c(-c5c(F)cccc5F)c5nc(c(-c6c(F)cccc6F)c6ccc2[nH]6)C=C5)C=C4)cc1)n1c-3nc2ccccc21
REMARK SMILES IDX 25 1 24 2 22 3 23 4 21 6 16 7 17 8 18 9 20 10 19 11 15 12
REMARK SMILES IDX 4 13 5 14 13 15 6 16 9 17 12 18 7 19 8 20 10 21 11 22 14 23
REMARK SMILES IDX 86 24 85 26 87 27 93 28 88 29 92 30 89 31 91 32 90 33 3 34
REMARK SMILES IDX 2 35 1 36 26 37 27 38 28 39 29 40 30 42 31 43 32 44 84 45
REMARK SMILES IDX 33 46 83 47 34 48 35 49 36 50 77 51 37 52 82 53 76 54 78 55
REMARK SMILES IDX 38 56 81 57 75 58 74 59 39 61 65 62 48 63 64 64 49 65 52 66
REMARK SMILES IDX 63 67 79 68 50 69 51 70 62 72 80 73 53 74 40 75 41 76 46 77
REMARK SMILES IDX 42 78 43 79 45 80 47 81 44 82 66 83 67 84 72 85 68 86 69 87
REMARK SMILES IDX 71 88 73 89 70 90 54 91 55 92 60 93 56 94 57 95 59 96 61 97
REMARK SMILES IDX 58 98
REMARK H PARENT 24 5 14 25 28 41 78 60 52 71
REMARK Flexibility Score: inf
ROOT
ATOM      1  C   UNL A   1      42.099  26.703  34.726  1.00  0.00     0.118 C 
ENDROOT
BRANCH   1   2
ATOM      2  N   UNL A   1      41.285  27.741  35.293  1.00  0.00    -0.352 N 
ATOM      3  C   UNL A   1      41.642  28.932  35.871  1.00  0.00     0.251 C 
ATOM      4  O   UNL A   1      40.721  29.660  36.251  1.00  0.00    -0.269 OA
ATOM      5  H   UNL A   1      40.316  27.570  35.261  1.00  0.00     0.163 HD
BRANCH   3   6
ATOM      6  C   UNL A   1      43.054  29.321  36.205  1.00  0.00     0.046 A 
ATOM      7  C   UNL A   1      43.773  30.513  35.937  1.00  0.00     0.008 A 
ATOM      8  C   UNL A   1      45.180  30.467  36.206  1.00  0.00     0.008 A 
ATOM      9  C   UNL A   1      45.811  29.382  36.835  1.00  0.00     0.000 A 
ATOM     10  C   UNL A   1      43.705  28.272  36.924  1.00  0.00     0.014 A 
ATOM     11  C   UNL A   1      45.058  28.302  37.250  1.00  0.00     0.001 A 
BRANCH   7  12
ATOM     12  C   UNL A   1      43.239  31.915  35.545  1.00  0.00     0.215 C 
ATOM     13  C   UNL A   1      40.024  32.653  31.570  1.00  0.00    -0.008 A 
ATOM     14  C   UNL A   1      38.635  32.231  31.763  1.00  0.00     0.030 A 
ATOM     15  C   UNL A   1      40.627  33.206  32.716  1.00  0.00     0.041 A 
ATOM     16  C   UNL A   1      37.638  32.626  32.754  1.00  0.00     0.039 A 
ATOM     17  C   UNL A   1      39.628  33.905  33.372  1.00  0.00     0.126 A 
ATOM     18  C   UNL A   1      41.638  32.961  33.804  1.00  0.00     0.068 A 
ATOM     19  C   UNL A   1      35.527  32.329  32.862  1.00  0.00     0.067 C 
ATOM     20  N   UNL A   1      38.316  33.665  33.370  1.00  0.00    -0.242 NA
ATOM     21  S   UNL A   1      40.326  35.131  34.303  1.00  0.00    -0.110 S 
ATOM     22  C   UNL A   1      41.432  33.928  34.775  1.00  0.00     0.096 A 
ATOM     23  N   UNL A   1      42.522  31.928  34.137  1.00  0.00    -0.359 N 
ATOM     24  C   UNL A   1      41.694  33.715  36.147  1.00  0.00     0.155 A 
ATOM     25  H   UNL A   1      42.697  31.205  33.491  1.00  0.00     0.163 HD
ATOM     26  N   UNL A   1      42.572  32.746  36.608  1.00  0.00    -0.298 N 
ATOM     27  N   UNL A   1      40.758  33.981  37.020  1.00  0.00    -0.227 NA
ATOM     28  C   UNL A   1      42.350  32.706  37.981  1.00  0.00     0.071 A 
ATOM     29  C   UNL A   1      41.043  33.189  38.063  1.00  0.00     0.089 A 
ATOM     30  C   UNL A   1      42.966  32.364  39.198  1.00  0.00     0.029 A 
ATOM     31  C   UNL A   1      40.231  32.918  39.160  1.00  0.00     0.030 A 
ATOM     32  C   UNL A   1      42.206  32.577  40.392  1.00  0.00     0.002 A 
ATOM     33  C   UNL A   1      40.846  32.850  40.379  1.00  0.00     0.002 A 
BRANCH  13  34
ATOM     34  C   UNL A   1      39.988  33.330  30.128  1.00  0.00     0.196 C 
BRANCH  34  35
ATOM     35  O   UNL A   1      39.115  34.453  30.012  1.00  0.00    -0.380 OA
ATOM     36  C   UNL A   1      38.014  34.203  29.123  1.00  0.00     0.195 C 
ENDBRANCH  34  35
ENDBRANCH  13  34
ENDBRANCH   7  12
ENDBRANCH   3   6
ENDBRANCH   1   2
BRANCH   1  37
ATOM     37  C   UNL A   1      42.041  25.329  35.392  1.00  0.00     0.042 C 
BRANCH  37  38
ATOM     38  C   UNL A   1      42.725  25.078  36.779  1.00  0.00     0.118 C 
BRANCH  38  39
ATOM     39  N   UNL A   1      43.789  24.044  37.023  1.00  0.00    -0.352 N 
ATOM     40  C   UNL A   1      45.028  23.651  36.455  1.00  0.00     0.251 C 
ATOM     41  H   UNL A   1      43.560  23.480  37.796  1.00  0.00     0.163 HD
ATOM     42  O   UNL A   1      45.832  22.994  37.111  1.00  0.00    -0.269 OA
BRANCH  40  43
ATOM     43  C   UNL A   1      45.318  23.904  34.994  1.00  0.00     0.039 A 
ATOM     44  C   UNL A   1      46.026  25.550  34.853  1.00  0.00     0.014 A 
ATOM     45  C   UNL A   1      44.396  23.226  33.525  1.00  0.00     0.014 A 
ATOM     46  C   UNL A   1      45.811  26.597  33.460  1.00  0.00     0.010 A 
ATOM     47  C   UNL A   1      44.185  24.312  32.021  1.00  0.00     0.010 A 
ATOM     48  C   UNL A   1      44.967  25.994  32.006  1.00  0.00    -0.014 A 
BRANCH  48  49
ATOM     49  C   UNL A   1      45.006  27.050  30.953  1.00  0.00     0.031 A 
ATOM     50  C   UNL A   1      45.031  26.387  29.642  1.00  0.00     0.074 A 
ATOM     51  C   UNL A   1      44.522  28.330  31.081  1.00  0.00     0.049 A 
ATOM     52  N   UNL A   1      43.896  26.072  29.107  1.00  0.00    -0.248 NA
ATOM     53  C   UNL A   1      46.162  25.609  29.144  1.00  0.00     0.031 C 
ATOM     54  C   UNL A   1      43.418  28.795  31.950  1.00  0.00     0.029 A 
ATOM     55  N   UNL A   1      44.792  29.474  30.321  1.00  0.00    -0.354 N 
ATOM     56  C   UNL A   1      44.121  25.019  28.250  1.00  0.00     0.074 A 
ATOM     57  C   UNL A   1      45.548  24.775  28.287  1.00  0.00     0.031 C 
ATOM     58  C   UNL A   1      42.927  29.961  31.511  1.00  0.00     0.029 A 
ATOM     59  C   UNL A   1      43.817  30.484  30.508  1.00  0.00     0.049 A 
ATOM     60  H   UNL A   1      45.570  29.566  29.725  1.00  0.00     0.167 HD
ATOM     61  C   UNL A   1      43.090  24.406  27.612  1.00  0.00     0.037 A 
ATOM     62  C   UNL A   1      43.377  31.347  29.556  1.00  0.00     0.037 A 
ATOM     63  C   UNL A   1      41.736  24.857  27.891  1.00  0.00     0.049 A 
ATOM     64  C   UNL A   1      42.541  30.458  28.678  1.00  0.00     0.074 A 
ATOM     65  C   UNL A   1      40.448  24.361  27.851  1.00  0.00     0.029 A 
ATOM     66  N   UNL A   1      41.586  26.140  28.339  1.00  0.00    -0.354 N 
ATOM     67  N   UNL A   1      41.287  30.138  28.874  1.00  0.00    -0.248 NA
ATOM     68  C   UNL A   1      43.243  29.626  27.695  1.00  0.00     0.031 C 
ATOM     69  C   UNL A   1      39.554  25.459  28.119  1.00  0.00     0.029 A 
ATOM     70  C   UNL A   1      40.312  26.612  28.242  1.00  0.00     0.049 A 
ATOM     71  H   UNL A   1      42.331  26.674  28.698  1.00  0.00     0.167 HD
ATOM     72  C   UNL A   1      41.116  28.919  28.215  1.00  0.00     0.074 A 
ATOM     73  C   UNL A   1      42.322  28.708  27.432  1.00  0.00     0.031 C 
ATOM     74  C   UNL A   1      40.112  28.025  28.481  1.00  0.00     0.037 A 
BRANCH  61  75
ATOM     75  C   UNL A   1      43.327  23.526  26.452  1.00  0.00     0.057 A 
ATOM     76  C   UNL A   1      43.797  23.941  25.209  1.00  0.00     0.134 A 
ATOM     77  C   UNL A   1      43.209  22.147  26.687  1.00  0.00     0.134 A 
ATOM     78  F   UNL A   1      43.898  25.245  24.915  1.00  0.00    -0.206 F 
ATOM     79  C   UNL A   1      44.204  23.004  24.253  1.00  0.00     0.040 A 
ATOM     80  C   UNL A   1      43.624  21.208  25.751  1.00  0.00     0.040 A 
ATOM     81  F   UNL A   1      42.713  21.703  27.852  1.00  0.00    -0.206 F 
ATOM     82  C   UNL A   1      44.142  21.637  24.534  1.00  0.00     0.006 A 
ENDBRANCH  61  75
BRANCH  62  83
ATOM     83  C   UNL A   1      44.384  32.336  29.091  1.00  0.00     0.057 A 
ATOM     84  C   UNL A   1      45.505  32.059  28.307  1.00  0.00     0.134 A 
ATOM     85  C   UNL A   1      44.217  33.685  29.471  1.00  0.00     0.134 A 
ATOM     86  F   UNL A   1      45.693  30.854  27.759  1.00  0.00    -0.206 F 
ATOM     87  C   UNL A   1      46.488  33.023  28.057  1.00  0.00     0.040 A 
ATOM     88  C   UNL A   1      45.174  34.666  29.203  1.00  0.00     0.040 A 
ATOM     89  F   UNL A   1      43.110  34.073  30.126  1.00  0.00    -0.206 F 
ATOM     90  C   UNL A   1      46.337  34.325  28.526  1.00  0.00     0.006 A 
ENDBRANCH  62  83
BRANCH  74  91
ATOM     91  C   UNL A   1      38.880  28.570  29.121  1.00  0.00     0.057 A 
ATOM     92  C   UNL A   1      37.905  29.299  28.434  1.00  0.00     0.134 A 
ATOM     93  C   UNL A   1      38.675  28.415  30.497  1.00  0.00     0.134 A 
ATOM     94  F   UNL A   1      38.109  29.703  27.179  1.00  0.00    -0.206 F 
ATOM     95  C   UNL A   1      36.713  29.709  29.035  1.00  0.00     0.040 A 
ATOM     96  C   UNL A   1      37.514  28.865  31.128  1.00  0.00     0.040 A 
ATOM     97  F   UNL A   1      39.628  27.866  31.267  1.00  0.00    -0.206 F 
ATOM     98  C   UNL A   1      36.511  29.484  30.391  1.00  0.00     0.006 A 
ENDBRANCH  74  91
ENDBRANCH  48  49
ENDBRANCH  40  43
ENDBRANCH  38  39
ENDBRANCH  37  38
ENDBRANCH   1  37
TORSDOF 13
ENDMDL
MODEL 2
REMARK VINA RESULT:     -10.0      4.143     11.124
REMARK SMILES COCc1cc(C)nc2sc3c(c12)N[C@H](c1ccccc1C(=O)NCCCNC(=O)c1ccc(-c2c4nc(c(-c5c(F)cccc5F)c5ccc([nH]5)c(-c5c(F)cccc5F)c5nc(c(-c6c(F)cccc6F)c6ccc2[nH]6)C=C5)C=C4)cc1)n1c-3nc2ccccc21
REMARK SMILES IDX 25 1 24 2 22 3 23 4 21 6 16 7 17 8 18 9 20 10 19 11 15 12
REMARK SMILES IDX 4 13 5 14 13 15 6 16 9 17 12 18 7 19 8 20 10 21 11 22 14 23
REMARK SMILES IDX 86 24 85 26 87 27 93 28 88 29 92 30 89 31 91 32 90 33 3 34
REMARK SMILES IDX 2 35 1 36 26 37 27 38 28 39 29 40 30 42 31 43 32 44 84 45
REMARK SMILES IDX 33 46 83 47 34 48 35 49 36 50 77 51 37 52 82 53 76 54 78 55
REMARK SMILES IDX 38 56 81 57 75 58 74 59 39 61 65 62 48 63 64 64 49 65 52 66
REMARK SMILES IDX 63 67 79 68 50 69 51 70 62 72 80 73 53 74 40 75 41 76 46 77
REMARK SMILES IDX 42 78 43 79 45 80 47 81 44 82 66 83 67 84 72 85 68 86 69 87
REMARK SMILES IDX 71 88 73 89 70 90 54 91 55 92 60 93 56 94 57 95 59 96 61 97
REMARK SMILES IDX 58 98
REMARK H PARENT 24 5 14 25 28 41 78 60 52 71
REMARK Flexibility Score: inf
ROOT
ATOM      1  C   UNL A   1      44.840  33.606  25.158  1.00  0.00     0.118 C 
ENDROOT
BRANCH   1   2
ATOM      2  N   UNL A   1      44.145  32.379  25.423  1.00  0.00    -0.352 N 
ATOM      3  C   UNL A   1      44.213  31.536  26.502  1.00  0.00     0.251 C 
ATOM      4  O   UNL A   1      43.468  30.551  26.482  1.00  0.00    -0.269 OA
ATOM      5  H   UNL A   1      43.519  32.097  24.717  1.00  0.00     0.163 HD
BRANCH   3   6
ATOM      6  C   UNL A   1      45.227  31.651  27.604  1.00  0.00     0.046 A 
ATOM      7  C   UNL A   1      46.271  30.776  27.995  1.00  0.00     0.008 A 
ATOM      8  C   UNL A   1      46.918  31.093  29.234  1.00  0.00     0.008 A 
ATOM      9  C   UNL A   1      46.666  32.268  29.960  1.00  0.00     0.000 A 
ATOM     10  C   UNL A   1      45.056  32.879  28.314  1.00  0.00     0.014 A 
ATOM     11  C   UNL A   1      45.770  33.194  29.466  1.00  0.00     0.001 A 
BRANCH   7  12
ATOM     12  C   UNL A   1      46.927  29.614  27.205  1.00  0.00     0.215 C 
ATOM     13  C   UNL A   1      52.025  28.780  27.214  1.00  0.00    -0.008 A 
ATOM     14  C   UNL A   1      52.594  28.207  28.436  1.00  0.00     0.030 A 
ATOM     15  C   UNL A   1      50.750  28.284  26.879  1.00  0.00     0.041 A 
ATOM     16  C   UNL A   1      52.302  26.962  29.142  1.00  0.00     0.039 A 
ATOM     17  C   UNL A   1      50.751  26.951  27.251  1.00  0.00     0.126 A 
ATOM     18  C   UNL A   1      49.284  28.619  26.825  1.00  0.00     0.068 A 
ATOM     19  C   UNL A   1      53.332  25.917  30.691  1.00  0.00     0.067 C 
ATOM     20  N   UNL A   1      51.448  26.366  28.227  1.00  0.00    -0.242 NA
ATOM     21  S   UNL A   1      49.626  26.110  26.310  1.00  0.00    -0.110 S 
ATOM     22  C   UNL A   1      48.601  27.427  26.638  1.00  0.00     0.096 A 
ATOM     23  N   UNL A   1      48.500  29.741  27.121  1.00  0.00    -0.359 N 
ATOM     24  C   UNL A   1      47.297  27.197  27.129  1.00  0.00     0.155 A 
ATOM     25  H   UNL A   1      48.931  30.612  27.278  1.00  0.00     0.163 HD
ATOM     26  N   UNL A   1      46.411  28.218  27.431  1.00  0.00    -0.298 N 
ATOM     27  N   UNL A   1      47.068  26.126  27.843  1.00  0.00    -0.227 NA
ATOM     28  C   UNL A   1      45.369  27.585  28.101  1.00  0.00     0.071 A 
ATOM     29  C   UNL A   1      46.013  26.453  28.601  1.00  0.00     0.089 A 
ATOM     30  C   UNL A   1      44.002  27.712  28.406  1.00  0.00     0.029 A 
ATOM     31  C   UNL A   1      45.514  25.751  29.696  1.00  0.00     0.030 A 
ATOM     32  C   UNL A   1      43.407  26.655  29.166  1.00  0.00     0.002 A 
ATOM     33  C   UNL A   1      44.154  25.680  29.811  1.00  0.00     0.002 A 
BRANCH  13  34
ATOM     34  C   UNL A   1      53.281  28.835  26.235  1.00  0.00     0.196 C 
BRANCH  34  35
ATOM     35  O   UNL A   1      53.812  27.563  25.866  1.00  0.00    -0.380 OA
ATOM     36  C   UNL A   1      53.433  27.173  24.537  1.00  0.00     0.195 C 
ENDBRANCH  34  35
ENDBRANCH  13  34
ENDBRANCH   7  12
ENDBRANCH   3   6
ENDBRANCH   1   2
BRANCH   1  37
ATOM     37  C   UNL A   1      44.251  34.885  25.751  1.00  0.00     0.042 C 
BRANCH  37  38
ATOM     38  C   UNL A   1      45.153  35.898  26.534  1.00  0.00     0.118 C 
BRANCH  38  39
ATOM     39  N   UNL A   1      44.738  37.299  26.892  1.00  0.00    -0.352 N 
ATOM     40  C   UNL A   1      44.040  37.957  27.936  1.00  0.00     0.251 C 
ATOM     41  H   UNL A   1      45.036  37.940  26.207  1.00  0.00     0.163 HD
ATOM     42  O   UNL A   1      44.181  39.164  28.115  1.00  0.00    -0.269 OA
BRANCH  40  43
ATOM     43  C   UNL A   1      43.002  37.221  28.750  1.00  0.00     0.039 A 
ATOM     44  C   UNL A   1      43.757  36.760  30.315  1.00  0.00     0.014 A 
ATOM     45  C   UNL A   1      41.609  36.160  28.113  1.00  0.00     0.014 A 
ATOM     46  C   UNL A   1      43.338  35.317  31.222  1.00  0.00     0.010 A 
ATOM     47  C   UNL A   1      41.126  34.639  29.081  1.00  0.00     0.010 A 
ATOM     48  C   UNL A   1      41.989  34.278  30.683  1.00  0.00    -0.014 A 
BRANCH  48  49
ATOM     49  C   UNL A   1      41.796  33.183  31.678  1.00  0.00     0.031 A 
ATOM     50  C   UNL A   1      40.411  33.249  32.166  1.00  0.00     0.074 A 
ATOM     51  C   UNL A   1      42.498  32.002  31.718  1.00  0.00     0.049 A 
ATOM     52  N   UNL A   1      39.506  32.622  31.489  1.00  0.00    -0.248 NA
ATOM     53  C   UNL A   1      39.892  34.329  33.000  1.00  0.00     0.031 C 
ATOM     54  C   UNL A   1      43.130  31.289  30.587  1.00  0.00     0.029 A 
ATOM     55  N   UNL A   1      42.645  31.078  32.760  1.00  0.00    -0.354 N 
ATOM     56  C   UNL A   1      38.302  33.241  31.735  1.00  0.00     0.074 A 
ATOM     57  C   UNL A   1      38.583  34.286  32.697  1.00  0.00     0.031 C 
ATOM     58  C   UNL A   1      43.328  29.999  30.889  1.00  0.00     0.029 A 
ATOM     59  C   UNL A   1      43.101  29.820  32.299  1.00  0.00     0.049 A 
ATOM     60  H   UNL A   1      42.453  31.281  33.704  1.00  0.00     0.167 HD
ATOM     61  C   UNL A   1      37.174  32.860  31.082  1.00  0.00     0.037 A 
ATOM     62  C   UNL A   1      42.743  28.613  32.808  1.00  0.00     0.037 A 
ATOM     63  C   UNL A   1      37.275  31.811  30.078  1.00  0.00     0.049 A 
ATOM     64  C   UNL A   1      41.325  28.469  32.329  1.00  0.00     0.074 A 
ATOM     65  C   UNL A   1      36.604  31.389  28.948  1.00  0.00     0.029 A 
ATOM     66  N   UNL A   1      38.317  30.934  30.196  1.00  0.00    -0.354 N 
ATOM     67  N   UNL A   1      40.946  28.016  31.160  1.00  0.00    -0.248 NA
ATOM     68  C   UNL A   1      40.283  29.172  33.084  1.00  0.00     0.031 C 
ATOM     69  C   UNL A   1      37.196  30.141  28.537  1.00  0.00     0.029 A 
ATOM     70  C   UNL A   1      38.163  29.795  29.466  1.00  0.00     0.049 A 
ATOM     71  H   UNL A   1      39.106  31.110  30.758  1.00  0.00     0.167 HD
ATOM     72  C   UNL A   1      39.690  28.585  30.940  1.00  0.00     0.074 A 
ATOM     73  C   UNL A   1      39.299  29.203  32.196  1.00  0.00     0.031 C 
ATOM     74  C   UNL A   1      39.105  28.723  29.709  1.00  0.00     0.037 A 
BRANCH  61  75
ATOM     75  C   UNL A   1      35.840  33.261  31.567  1.00  0.00     0.057 A 
ATOM     76  C   UNL A   1      35.280  32.886  32.785  1.00  0.00     0.134 A 
ATOM     77  C   UNL A   1      35.161  34.216  30.794  1.00  0.00     0.134 A 
ATOM     78  F   UNL A   1      35.865  31.953  33.550  1.00  0.00    -0.206 F 
ATOM     79  C   UNL A   1      34.112  33.500  33.250  1.00  0.00     0.040 A 
ATOM     80  C   UNL A   1      34.009  34.843  31.252  1.00  0.00     0.040 A 
ATOM     81  F   UNL A   1      35.638  34.570  29.590  1.00  0.00    -0.206 F 
ATOM     82  C   UNL A   1      33.491  34.499  32.495  1.00  0.00     0.006 A 
ENDBRANCH  61  75
BRANCH  62  83
ATOM     83  C   UNL A   1      43.231  28.340  34.185  1.00  0.00     0.057 A 
ATOM     84  C   UNL A   1      42.796  28.973  35.350  1.00  0.00     0.134 A 
ATOM     85  C   UNL A   1      44.233  27.361  34.354  1.00  0.00     0.134 A 
ATOM     86  F   UNL A   1      41.750  29.807  35.341  1.00  0.00    -0.206 F 
ATOM     87  C   UNL A   1      43.430  28.772  36.580  1.00  0.00     0.040 A 
ATOM     88  C   UNL A   1      44.855  27.126  35.583  1.00  0.00     0.040 A 
ATOM     89  F   UNL A   1      44.635  26.614  33.313  1.00  0.00    -0.206 F 
ATOM     90  C   UNL A   1      44.479  27.866  36.696  1.00  0.00     0.006 A 
ENDBRANCH  62  83
BRANCH  74  91
ATOM     91  C   UNL A   1      39.572  27.799  28.635  1.00  0.00     0.057 A 
ATOM     92  C   UNL A   1      39.315  26.425  28.628  1.00  0.00     0.134 A 
ATOM     93  C   UNL A   1      40.362  28.283  27.587  1.00  0.00     0.134 A 
ATOM     94  F   UNL A   1      38.774  25.823  29.689  1.00  0.00    -0.206 F 
ATOM     95  C   UNL A   1      39.676  25.601  27.559  1.00  0.00     0.040 A 
ATOM     96  C   UNL A   1      40.779  27.464  26.536  1.00  0.00     0.040 A 
ATOM     97  F   UNL A   1      40.790  29.555  27.591  1.00  0.00    -0.206 F 
ATOM     98  C   UNL A   1      40.407  26.125  26.501  1.00  0.00     0.006 A 
ENDBRANCH  74  91
ENDBRANCH  48  49
ENDBRANCH  40  43
ENDBRANCH  38  39
ENDBRANCH  37  38
ENDBRANCH   1  37
TORSDOF 13
ENDMDL
MODEL 3
REMARK VINA RESULT:      -9.8      4.010     11.048
REMARK SMILES COCc1cc(C)nc2sc3c(c12)N[C@H](c1ccccc1C(=O)NCCCNC(=O)c1ccc(-c2c4nc(c(-c5c(F)cccc5F)c5ccc([nH]5)c(-c5c(F)cccc5F)c5nc(c(-c6c(F)cccc6F)c6ccc2[nH]6)C=C5)C=C4)cc1)n1c-3nc2ccccc21
REMARK SMILES IDX 25 1 24 2 22 3 23 4 21 6 16 7 17 8 18 9 20 10 19 11 15 12
REMARK SMILES IDX 4 13 5 14 13 15 6 16 9 17 12 18 7 19 8 20 10 21 11 22 14 23
REMARK SMILES IDX 86 24 85 26 87 27 93 28 88 29 92 30 89 31 91 32 90 33 3 34
REMARK SMILES IDX 2 35 1 36 26 37 27 38 28 39 29 40 30 42 31 43 32 44 84 45
REMARK SMILES IDX 33 46 83 47 34 48 35 49 36 50 77 51 37 52 82 53 76 54 78 55
REMARK SMILES IDX 38 56 81 57 75 58 74 59 39 61 65 62 48 63 64 64 49 65 52 66
REMARK SMILES IDX 63 67 79 68 50 69 51 70 62 72 80 73 53 74 40 75 41 76 46 77
REMARK SMILES IDX 42 78 43 79 45 80 47 81 44 82 66 83 67 84 72 85 68 86 69 87
REMARK SMILES IDX 71 88 73 89 70 90 54 91 55 92 60 93 56 94 57 95 59 96 61 97
REMARK SMILES IDX 58 98
REMARK H PARENT 24 5 14 25 28 41 78 60 52 71
REMARK Flexibility Score: inf
ROOT
ATOM      1  C   UNL A   1      45.010  32.639  26.427  1.00  0.00     0.118 C 
ENDROOT
BRANCH   1   2
ATOM      2  N   UNL A   1      46.420  32.555  26.170  1.00  0.00    -0.352 N 
ATOM      3  C   UNL A   1      47.430  32.029  26.933  1.00  0.00     0.251 C 
ATOM      4  O   UNL A   1      48.564  32.062  26.446  1.00  0.00    -0.269 OA
ATOM      5  H   UNL A   1      46.706  32.936  25.309  1.00  0.00     0.163 HD
BRANCH   3   6
ATOM      6  C   UNL A   1      47.268  31.572  28.354  1.00  0.00     0.046 A 
ATOM      7  C   UNL A   1      47.317  30.273  28.919  1.00  0.00     0.008 A 
ATOM      8  C   UNL A   1      46.901  30.172  30.287  1.00  0.00     0.008 A 
ATOM      9  C   UNL A   1      46.607  31.286  31.089  1.00  0.00     0.000 A 
ATOM     10  C   UNL A   1      47.052  32.690  29.217  1.00  0.00     0.014 A 
ATOM     11  C   UNL A   1      46.740  32.556  30.567  1.00  0.00     0.001 A 
BRANCH   7  12
ATOM     12  C   UNL A   1      47.902  28.965  28.327  1.00  0.00     0.215 C 
ATOM     13  C   UNL A   1      52.142  26.710  30.228  1.00  0.00    -0.008 A 
ATOM     14  C   UNL A   1      51.996  26.009  31.506  1.00  0.00     0.030 A 
ATOM     15  C   UNL A   1      51.030  26.596  29.372  1.00  0.00     0.041 A 
ATOM     16  C   UNL A   1      51.126  24.905  31.904  1.00  0.00     0.039 A 
ATOM     17  C   UNL A   1      50.527  25.321  29.570  1.00  0.00     0.126 A 
ATOM     18  C   UNL A   1      49.856  27.335  28.789  1.00  0.00     0.068 A 
ATOM     19  C   UNL A   1      51.126  23.624  33.610  1.00  0.00     0.067 C 
ATOM     20  N   UNL A   1      50.590  24.571  30.672  1.00  0.00    -0.242 NA
ATOM     21  S   UNL A   1      49.700  24.828  28.181  1.00  0.00    -0.110 S 
ATOM     22  C   UNL A   1      49.018  26.386  28.224  1.00  0.00     0.096 A 
ATOM     23  N   UNL A   1      49.347  28.636  28.875  1.00  0.00    -0.359 N 
ATOM     24  C   UNL A   1      47.617  26.542  28.141  1.00  0.00     0.155 A 
ATOM     25  H   UNL A   1      49.892  29.350  29.280  1.00  0.00     0.163 HD
ATOM     26  N   UNL A   1      46.990  27.777  28.182  1.00  0.00    -0.298 N 
ATOM     27  N   UNL A   1      46.845  25.587  28.590  1.00  0.00    -0.227 NA
ATOM     28  C   UNL A   1      45.639  27.473  28.322  1.00  0.00     0.071 A 
ATOM     29  C   UNL A   1      45.701  26.209  28.908  1.00  0.00     0.089 A 
ATOM     30  C   UNL A   1      44.353  27.988  28.083  1.00  0.00     0.029 A 
ATOM     31  C   UNL A   1      44.637  25.689  29.640  1.00  0.00     0.030 A 
ATOM     32  C   UNL A   1      43.245  27.152  28.433  1.00  0.00     0.002 A 
ATOM     33  C   UNL A   1      43.380  26.010  29.209  1.00  0.00     0.002 A 
BRANCH  13  34
ATOM     34  C   UNL A   1      53.652  26.395  29.827  1.00  0.00     0.196 C 
BRANCH  34  35
ATOM     35  O   UNL A   1      53.850  26.042  28.458  1.00  0.00    -0.380 OA
ATOM     36  C   UNL A   1      55.191  26.298  28.012  1.00  0.00     0.195 C 
ENDBRANCH  34  35
ENDBRANCH  13  34
ENDBRANCH   7  12
ENDBRANCH   3   6
ENDBRANCH   1   2
BRANCH   1  37
ATOM     37  C   UNL A   1      44.414  34.036  26.596  1.00  0.00     0.042 C 
BRANCH  37  38
ATOM     38  C   UNL A   1      45.314  35.313  26.490  1.00  0.00     0.118 C 
BRANCH  38  39
ATOM     39  N   UNL A   1      44.789  36.722  26.501  1.00  0.00    -0.352 N 
ATOM     40  C   UNL A   1      44.036  37.560  27.363  1.00  0.00     0.251 C 
ATOM     41  H   UNL A   1      45.037  37.197  25.676  1.00  0.00     0.163 HD
ATOM     42  O   UNL A   1      44.081  38.781  27.239  1.00  0.00    -0.269 OA
BRANCH  40  43
ATOM     43  C   UNL A   1      43.056  36.968  28.349  1.00  0.00     0.039 A 
ATOM     44  C   UNL A   1      43.990  36.390  29.771  1.00  0.00     0.014 A 
ATOM     45  C   UNL A   1      41.443  36.118  27.966  1.00  0.00     0.014 A 
ATOM     46  C   UNL A   1      43.532  35.011  30.755  1.00  0.00     0.010 A 
ATOM     47  C   UNL A   1      40.921  34.670  29.022  1.00  0.00     0.010 A 
ATOM     48  C   UNL A   1      41.980  34.176  30.463  1.00  0.00    -0.014 A 
BRANCH  48  49
ATOM     49  C   UNL A   1      41.805  33.109  31.490  1.00  0.00     0.031 A 
ATOM     50  C   UNL A   1      40.434  33.198  32.013  1.00  0.00     0.074 A 
ATOM     51  C   UNL A   1      42.499  31.924  31.543  1.00  0.00     0.049 A 
ATOM     52  N   UNL A   1      39.507  32.561  31.376  1.00  0.00    -0.248 NA
ATOM     53  C   UNL A   1      39.946  34.304  32.832  1.00  0.00     0.031 C 
ATOM     54  C   UNL A   1      43.095  31.176  30.414  1.00  0.00     0.029 A 
ATOM     55  N   UNL A   1      42.666  31.025  32.604  1.00  0.00    -0.354 N 
ATOM     56  C   UNL A   1      38.314  33.197  31.638  1.00  0.00     0.074 A 
ATOM     57  C   UNL A   1      38.628  34.264  32.564  1.00  0.00     0.031 C 
ATOM     58  C   UNL A   1      43.291  29.892  30.745  1.00  0.00     0.029 A 
ATOM     59  C   UNL A   1      43.101  29.752  32.165  1.00  0.00     0.049 A 
ATOM     60  H   UNL A   1      42.501  31.254  33.548  1.00  0.00     0.167 HD
ATOM     61  C   UNL A   1      37.167  32.808  31.024  1.00  0.00     0.037 A 
ATOM     62  C   UNL A   1      42.747  28.561  32.714  1.00  0.00     0.037 A 
ATOM     63  C   UNL A   1      37.234  31.733  30.046  1.00  0.00     0.049 A 
ATOM     64  C   UNL A   1      41.316  28.417  32.276  1.00  0.00     0.074 A 
ATOM     65  C   UNL A   1      36.529  31.287  28.945  1.00  0.00     0.029 A 
ATOM     66  N   UNL A   1      38.271  30.851  30.159  1.00  0.00    -0.354 N 
ATOM     67  N   UNL A   1      40.903  27.937  31.130  1.00  0.00    -0.248 NA
ATOM     68  C   UNL A   1      40.299  29.147  33.040  1.00  0.00     0.031 C 
ATOM     69  C   UNL A   1      37.101  30.025  28.551  1.00  0.00     0.029 A 
ATOM     70  C   UNL A   1      38.090  29.694  29.464  1.00  0.00     0.049 A 
ATOM     71  H   UNL A   1      39.076  31.034  30.696  1.00  0.00     0.167 HD
ATOM     72  C   UNL A   1      39.646  28.510  30.928  1.00  0.00     0.074 A 
ATOM     73  C   UNL A   1      39.292  29.164  32.177  1.00  0.00     0.031 C 
ATOM     74  C   UNL A   1      39.029  28.622  29.709  1.00  0.00     0.037 A 
BRANCH  61  75
ATOM     75  C   UNL A   1      35.849  33.233  31.533  1.00  0.00     0.057 A 
ATOM     76  C   UNL A   1      35.313  32.882  32.768  1.00  0.00     0.134 A 
ATOM     77  C   UNL A   1      35.165  34.185  30.762  1.00  0.00     0.134 A 
ATOM     78  F   UNL A   1      35.903  31.953  33.534  1.00  0.00    -0.206 F 
ATOM     79  C   UNL A   1      34.163  33.517  33.251  1.00  0.00     0.040 A 
ATOM     80  C   UNL A   1      34.031  34.833  31.236  1.00  0.00     0.040 A 
ATOM     81  F   UNL A   1      35.618  34.516  29.542  1.00  0.00    -0.206 F 
ATOM     82  C   UNL A   1      33.537  34.513  32.496  1.00  0.00     0.006 A 
ENDBRANCH  61  75
BRANCH  62  83
ATOM     83  C   UNL A   1      43.269  28.320  34.084  1.00  0.00     0.057 A 
ATOM     84  C   UNL A   1      42.960  29.066  35.222  1.00  0.00     0.134 A 
ATOM     85  C   UNL A   1      44.168  27.249  34.275  1.00  0.00     0.134 A 
ATOM     86  F   UNL A   1      42.010  30.007  35.203  1.00  0.00    -0.206 F 
ATOM     87  C   UNL A   1      43.628  28.871  36.436  1.00  0.00     0.040 A 
ATOM     88  C   UNL A   1      44.820  27.022  35.490  1.00  0.00     0.040 A 
ATOM     89  F   UNL A   1      44.438  26.401  33.269  1.00  0.00    -0.206 F 
ATOM     90  C   UNL A   1      44.578  27.864  36.567  1.00  0.00     0.006 A 
ENDBRANCH  62  83
BRANCH  74  91
ATOM     91  C   UNL A   1      39.461  27.666  28.648  1.00  0.00     0.057 A 
ATOM     92  C   UNL A   1      40.028  28.060  27.433  1.00  0.00     0.134 A 
ATOM     93  C   UNL A   1      39.254  26.292  28.814  1.00  0.00     0.134 A 
ATOM     94  F   UNL A   1      40.058  29.345  27.075  1.00  0.00    -0.206 F 
ATOM     95  C   UNL A   1      40.517  27.141  26.501  1.00  0.00     0.040 A 
ATOM     96  C   UNL A   1      39.687  25.359  27.870  1.00  0.00     0.040 A 
ATOM     97  F   UNL A   1      38.577  25.831  29.878  1.00  0.00    -0.206 F 
ATOM     98  C   UNL A   1      40.352  25.780  26.723  1.00  0.00     0.006 A 
ENDBRANCH  74  91
ENDBRANCH  48  49
ENDBRANCH  40  43
ENDBRANCH  38  39
ENDBRANCH  37  38
ENDBRANCH   1  37
TORSDOF 13
ENDMDL
