MODEL 1
REMARK VINA RESULT:     -12.5      0.000      0.000
REMARK SMILES C[C@H]1CCCC[C@@H]1n1c(SCC(=O)NCCCNC(=O)c2ccc(-c3c4nc(c(-c5c(F)cccc5F)c5ccc([nH]5)c(-c5c(F)cccc5F)c5nc(c(-c6c(F)cccc6F)c6ccc3[nH]6)C=C5)C=C4)cc2)nc2ccccc2c1=O
REMARK SMILES IDX 15 1 14 2 12 3 13 4 11 6 10 7 9 8 8 9 82 10 75 11 81 12
REMARK SMILES IDX 83 13 76 14 80 15 77 16 79 17 78 18 7 19 1 20 2 21 3 22 4 23
REMARK SMILES IDX 6 24 5 25 16 26 17 27 18 28 19 29 20 31 21 32 22 33 74 34
REMARK SMILES IDX 23 35 73 36 24 37 25 38 26 39 67 40 27 41 72 42 66 43 68 44
REMARK SMILES IDX 28 45 71 46 65 47 64 48 29 50 55 51 38 52 54 53 39 54 42 55
REMARK SMILES IDX 53 56 69 57 40 58 41 59 52 61 70 62 43 63 30 64 31 65 36 66
REMARK SMILES IDX 32 67 33 68 35 69 37 70 34 71 56 72 57 73 62 74 58 75 59 76
REMARK SMILES IDX 61 77 63 78 60 79 44 80 45 81 50 82 46 83 47 84 49 85 51 86
REMARK SMILES IDX 48 87
REMARK H PARENT 14 5 18 30 68 49 42 60
REMARK Flexibility Score: inf
ROOT
ATOM      1  C   UNL A   1      31.832  30.356  26.843  1.00  0.00     0.117 C 
ENDROOT
BRANCH   1   2
ATOM      2  N   UNL A   1      33.032  29.973  27.555  1.00  0.00    -0.355 N 
ATOM      3  C   UNL A   1      34.035  29.123  27.249  1.00  0.00     0.230 C 
ATOM      4  O   UNL A   1      35.108  29.359  27.822  1.00  0.00    -0.274 OA
ATOM      5  H   UNL A   1      33.138  30.418  28.426  1.00  0.00     0.163 HD
BRANCH   3   6
ATOM      6  C   UNL A   1      33.983  28.002  26.235  1.00  0.00     0.178 C 
BRANCH   6   7
ATOM      7  S   UNL A   1      32.797  26.703  26.346  1.00  0.00    -0.078 SA
BRANCH   7   8
ATOM      8  C   UNL A   1      32.665  25.509  25.084  1.00  0.00     0.172 A 
ATOM      9  N   UNL A   1      32.142  25.615  23.796  1.00  0.00    -0.284 N 
ATOM     10  C   UNL A   1      32.466  24.590  22.899  1.00  0.00     0.262 A 
ATOM     11  N   UNL A   1      33.083  24.376  25.566  1.00  0.00    -0.224 NA
ATOM     12  C   UNL A   1      32.612  23.251  23.483  1.00  0.00     0.066 A 
ATOM     13  O   UNL A   1      32.604  24.720  21.686  1.00  0.00    -0.269 OA
ATOM     14  C   UNL A   1      32.903  23.207  24.833  1.00  0.00     0.079 A 
ATOM     15  C   UNL A   1      32.360  22.084  22.756  1.00  0.00     0.016 A 
ATOM     16  C   UNL A   1      32.957  21.971  25.478  1.00  0.00     0.029 A 
ATOM     17  C   UNL A   1      32.392  20.851  23.410  1.00  0.00     0.001 A 
ATOM     18  C   UNL A   1      32.692  20.794  24.771  1.00  0.00     0.002 A 
BRANCH   9  19
ATOM     19  C   UNL A   1      31.339  26.735  23.257  1.00  0.00     0.096 C 
ATOM     20  C   UNL A   1      33.391  28.195  22.509  1.00  0.00     0.010 C 
ATOM     21  C   UNL A   1      32.021  28.155  23.186  1.00  0.00     0.009 C 
ATOM     22  C   UNL A   1      31.088  29.177  22.494  1.00  0.00     0.005 C 
ATOM     23  C   UNL A   1      29.674  29.208  23.076  1.00  0.00     0.000 C 
ATOM     24  C   UNL A   1      30.058  26.947  24.066  1.00  0.00     0.026 C 
ATOM     25  C   UNL A   1      29.094  27.814  23.260  1.00  0.00     0.002 C 
ENDBRANCH   9  19
ENDBRANCH   7   8
ENDBRANCH   6   7
ENDBRANCH   3   6
ENDBRANCH   1   2
BRANCH   1  26
ATOM     26  C   UNL A   1      31.655  31.865  26.724  1.00  0.00     0.042 C 
BRANCH  26  27
ATOM     27  C   UNL A   1      32.799  32.708  27.293  1.00  0.00     0.118 C 
BRANCH  27  28
ATOM     28  N   UNL A   1      32.429  34.080  27.629  1.00  0.00    -0.352 N 
ATOM     29  C   UNL A   1      32.978  34.972  28.522  1.00  0.00     0.251 C 
ATOM     30  H   UNL A   1      31.653  34.427  27.131  1.00  0.00     0.163 HD
ATOM     31  O   UNL A   1      32.436  36.060  28.715  1.00  0.00    -0.269 OA
BRANCH  29  32
ATOM     32  C   UNL A   1      34.183  34.610  29.293  1.00  0.00     0.039 A 
ATOM     33  C   UNL A   1      35.456  34.790  28.755  1.00  0.00     0.014 A 
ATOM     34  C   UNL A   1      34.032  34.048  30.565  1.00  0.00     0.014 A 
ATOM     35  C   UNL A   1      36.550  34.201  29.377  1.00  0.00     0.010 A 
ATOM     36  C   UNL A   1      35.150  33.544  31.235  1.00  0.00     0.010 A 
ATOM     37  C   UNL A   1      36.407  33.547  30.612  1.00  0.00    -0.014 A 
BRANCH  37  38
ATOM     38  C   UNL A   1      37.567  32.826  31.198  1.00  0.00     0.031 A 
ATOM     39  C   UNL A   1      38.091  33.203  32.562  1.00  0.00     0.074 A 
ATOM     40  C   UNL A   1      38.105  31.780  30.541  1.00  0.00     0.049 A 
ATOM     41  N   UNL A   1      39.087  32.687  33.238  1.00  0.00    -0.248 NA
ATOM     42  C   UNL A   1      37.410  34.309  33.255  1.00  0.00     0.031 C 
ATOM     43  C   UNL A   1      37.675  31.298  29.227  1.00  0.00     0.029 A 
ATOM     44  N   UNL A   1      39.107  30.917  30.900  1.00  0.00    -0.354 N 
ATOM     45  C   UNL A   1      39.168  33.418  34.418  1.00  0.00     0.074 A 
ATOM     46  C   UNL A   1      38.138  34.432  34.356  1.00  0.00     0.031 C 
ATOM     47  C   UNL A   1      38.370  30.195  28.915  1.00  0.00     0.029 A 
ATOM     48  C   UNL A   1      39.338  29.930  29.974  1.00  0.00     0.049 A 
ATOM     49  H   UNL A   1      39.613  30.996  31.741  1.00  0.00     0.167 HD
ATOM     50  C   UNL A   1      40.013  33.253  35.464  1.00  0.00     0.037 A 
ATOM     51  C   UNL A   1      40.241  28.932  29.967  1.00  0.00     0.037 A 
ATOM     52  C   UNL A   1      41.016  32.222  35.542  1.00  0.00     0.049 A 
ATOM     53  C   UNL A   1      41.196  28.801  31.118  1.00  0.00     0.074 A 
ATOM     54  C   UNL A   1      41.904  31.958  36.571  1.00  0.00     0.029 A 
ATOM     55  N   UNL A   1      41.260  31.283  34.552  1.00  0.00    -0.354 N 
ATOM     56  N   UNL A   1      41.263  29.504  32.223  1.00  0.00    -0.248 NA
ATOM     57  C   UNL A   1      42.213  27.745  31.012  1.00  0.00     0.031 C 
ATOM     58  C   UNL A   1      42.711  30.880  36.187  1.00  0.00     0.029 A 
ATOM     59  C   UNL A   1      42.300  30.451  34.936  1.00  0.00     0.049 A 
ATOM     60  H   UNL A   1      40.768  31.217  33.703  1.00  0.00     0.167 HD
ATOM     61  C   UNL A   1      42.322  28.973  32.946  1.00  0.00     0.074 A 
ATOM     62  C   UNL A   1      42.851  27.872  32.166  1.00  0.00     0.031 C 
ATOM     63  C   UNL A   1      42.818  29.366  34.144  1.00  0.00     0.037 A 
BRANCH  50  64
ATOM     64  C   UNL A   1      39.900  34.222  36.605  1.00  0.00     0.057 A 
ATOM     65  C   UNL A   1      40.610  35.430  36.586  1.00  0.00     0.134 A 
ATOM     66  C   UNL A   1      39.116  33.953  37.734  1.00  0.00     0.134 A 
ATOM     67  F   UNL A   1      41.385  35.747  35.537  1.00  0.00    -0.206 F 
ATOM     68  C   UNL A   1      40.543  36.334  37.647  1.00  0.00     0.040 A 
ATOM     69  C   UNL A   1      39.023  34.861  38.792  1.00  0.00     0.040 A 
ATOM     70  F   UNL A   1      38.401  32.820  37.810  1.00  0.00    -0.206 F 
ATOM     71  C   UNL A   1      39.742  36.053  38.751  1.00  0.00     0.006 A 
ENDBRANCH  50  64
BRANCH  51  72
ATOM     72  C   UNL A   1      40.299  27.993  28.821  1.00  0.00     0.057 A 
ATOM     73  C   UNL A   1      41.045  28.290  27.674  1.00  0.00     0.134 A 
ATOM     74  C   UNL A   1      39.617  26.772  28.850  1.00  0.00     0.134 A 
ATOM     75  F   UNL A   1      41.720  29.446  27.586  1.00  0.00    -0.206 F 
ATOM     76  C   UNL A   1      41.098  27.414  26.590  1.00  0.00     0.040 A 
ATOM     77  C   UNL A   1      39.681  25.875  27.783  1.00  0.00     0.040 A 
ATOM     78  F   UNL A   1      38.903  26.423  29.931  1.00  0.00    -0.206 F 
ATOM     79  C   UNL A   1      40.419  26.199  26.645  1.00  0.00     0.006 A 
ENDBRANCH  51  72
BRANCH  63  80
ATOM     80  C   UNL A   1      43.982  28.589  34.681  1.00  0.00     0.057 A 
ATOM     81  C   UNL A   1      43.779  27.442  35.458  1.00  0.00     0.134 A 
ATOM     82  C   UNL A   1      45.303  28.982  34.434  1.00  0.00     0.134 A 
ATOM     83  F   UNL A   1      42.538  27.015  35.733  1.00  0.00    -0.206 F 
ATOM     84  C   UNL A   1      44.852  26.711  35.969  1.00  0.00     0.040 A 
ATOM     85  C   UNL A   1      46.384  28.248  34.922  1.00  0.00     0.040 A 
ATOM     86  F   UNL A   1      45.561  30.063  33.683  1.00  0.00    -0.206 F 
ATOM     87  C   UNL A   1      46.159  27.109  35.695  1.00  0.00     0.006 A 
ENDBRANCH  63  80
ENDBRANCH  37  38
ENDBRANCH  29  32
ENDBRANCH  27  28
ENDBRANCH  26  27
ENDBRANCH   1  26
TORSDOF 13
ENDMDL
MODEL 2
REMARK VINA RESULT:     -12.5      5.479     10.103
REMARK SMILES C[C@H]1CCCC[C@@H]1n1c(SCC(=O)NCCCNC(=O)c2ccc(-c3c4nc(c(-c5c(F)cccc5F)c5ccc([nH]5)c(-c5c(F)cccc5F)c5nc(c(-c6c(F)cccc6F)c6ccc3[nH]6)C=C5)C=C4)cc2)nc2ccccc2c1=O
REMARK SMILES IDX 15 1 14 2 12 3 13 4 11 6 10 7 9 8 8 9 82 10 75 11 81 12
REMARK SMILES IDX 83 13 76 14 80 15 77 16 79 17 78 18 7 19 1 20 2 21 3 22 4 23
REMARK SMILES IDX 6 24 5 25 16 26 17 27 18 28 19 29 20 31 21 32 22 33 74 34
REMARK SMILES IDX 23 35 73 36 24 37 25 38 26 39 67 40 27 41 72 42 66 43 68 44
REMARK SMILES IDX 28 45 71 46 65 47 64 48 29 50 55 51 38 52 54 53 39 54 42 55
REMARK SMILES IDX 53 56 69 57 40 58 41 59 52 61 70 62 43 63 30 64 31 65 36 66
REMARK SMILES IDX 32 67 33 68 35 69 37 70 34 71 56 72 57 73 62 74 58 75 59 76
REMARK SMILES IDX 61 77 63 78 60 79 44 80 45 81 50 82 46 83 47 84 49 85 51 86
REMARK SMILES IDX 48 87
REMARK H PARENT 14 5 18 30 68 49 42 60
REMARK Flexibility Score: inf
ROOT
ATOM      1  C   UNL A   1      37.438  21.458  24.401  1.00  0.00     0.117 C 
ENDROOT
BRANCH   1   2
ATOM      2  N   UNL A   1      37.922  22.656  25.053  1.00  0.00    -0.355 N 
ATOM      3  C   UNL A   1      37.300  23.601  25.789  1.00  0.00     0.230 C 
ATOM      4  O   UNL A   1      38.038  24.219  26.569  1.00  0.00    -0.274 OA
ATOM      5  H   UNL A   1      38.887  22.811  24.938  1.00  0.00     0.163 HD
BRANCH   3   6
ATOM      6  C   UNL A   1      35.817  23.896  25.803  1.00  0.00     0.178 C 
BRANCH   6   7
ATOM      7  S   UNL A   1      34.641  22.711  26.369  1.00  0.00    -0.078 SA
BRANCH   7   8
ATOM      8  C   UNL A   1      33.823  21.661  25.245  1.00  0.00     0.172 A 
ATOM      9  N   UNL A   1      32.602  21.820  24.590  1.00  0.00    -0.284 N 
ATOM     10  C   UNL A   1      32.357  20.973  23.503  1.00  0.00     0.262 A 
ATOM     11  N   UNL A   1      34.523  20.571  25.140  1.00  0.00    -0.224 NA
ATOM     12  C   UNL A   1      32.923  19.622  23.603  1.00  0.00     0.066 A 
ATOM     13  O   UNL A   1      31.694  21.260  22.510  1.00  0.00    -0.269 OA
ATOM     14  C   UNL A   1      33.999  19.478  24.457  1.00  0.00     0.079 A 
ATOM     15  C   UNL A   1      32.346  18.518  22.967  1.00  0.00     0.016 A 
ATOM     16  C   UNL A   1      34.526  18.205  24.680  1.00  0.00     0.029 A 
ATOM     17  C   UNL A   1      32.862  17.244  23.211  1.00  0.00     0.001 A 
ATOM     18  C   UNL A   1      33.953  17.087  24.066  1.00  0.00     0.002 A 
BRANCH   9  19
ATOM     19  C   UNL A   1      31.568  22.838  24.881  1.00  0.00     0.096 C 
ATOM     20  C   UNL A   1      32.426  24.594  23.126  1.00  0.00     0.010 C 
ATOM     21  C   UNL A   1      31.906  24.340  24.541  1.00  0.00     0.009 C 
ATOM     22  C   UNL A   1      30.680  25.249  24.798  1.00  0.00     0.005 C 
ATOM     23  C   UNL A   1      30.059  25.063  26.182  1.00  0.00     0.000 C 
ATOM     24  C   UNL A   1      31.185  22.841  26.363  1.00  0.00     0.026 C 
ATOM     25  C   UNL A   1      29.870  23.596  26.538  1.00  0.00     0.002 C 
ENDBRANCH   9  19
ENDBRANCH   7   8
ENDBRANCH   6   7
ENDBRANCH   3   6
ENDBRANCH   1   2
BRANCH   1  26
ATOM     26  C   UNL A   1      38.039  20.177  24.970  1.00  0.00     0.042 C 
BRANCH  26  27
ATOM     27  C   UNL A   1      39.255  20.368  25.880  1.00  0.00     0.118 C 
BRANCH  27  28
ATOM     28  N   UNL A   1      40.213  19.267  25.847  1.00  0.00    -0.352 N 
ATOM     29  C   UNL A   1      41.568  19.239  26.086  1.00  0.00     0.251 C 
ATOM     30  H   UNL A   1      39.822  18.393  25.614  1.00  0.00     0.163 HD
ATOM     31  O   UNL A   1      42.203  18.201  25.904  1.00  0.00    -0.269 OA
BRANCH  29  32
ATOM     32  C   UNL A   1      42.276  20.464  26.505  1.00  0.00     0.039 A 
ATOM     33  C   UNL A   1      42.271  20.872  27.838  1.00  0.00     0.014 A 
ATOM     34  C   UNL A   1      42.930  21.235  25.538  1.00  0.00     0.014 A 
ATOM     35  C   UNL A   1      42.707  22.151  28.163  1.00  0.00     0.010 A 
ATOM     36  C   UNL A   1      43.458  22.481  25.888  1.00  0.00     0.010 A 
ATOM     37  C   UNL A   1      43.281  22.982  27.187  1.00  0.00    -0.014 A 
BRANCH  37  38
ATOM     38  C   UNL A   1      43.632  24.384  27.534  1.00  0.00     0.031 A 
ATOM     39  C   UNL A   1      45.047  24.881  27.366  1.00  0.00     0.074 A 
ATOM     40  C   UNL A   1      42.666  25.237  27.926  1.00  0.00     0.049 A 
ATOM     41  N   UNL A   1      45.541  26.070  27.611  1.00  0.00    -0.248 NA
ATOM     42  C   UNL A   1      46.038  23.915  26.865  1.00  0.00     0.031 C 
ATOM     43  C   UNL A   1      41.255  24.889  28.103  1.00  0.00     0.029 A 
ATOM     44  N   UNL A   1      42.717  26.575  28.217  1.00  0.00    -0.354 N 
ATOM     45  C   UNL A   1      46.898  25.986  27.318  1.00  0.00     0.074 A 
ATOM     46  C   UNL A   1      47.157  24.625  26.905  1.00  0.00     0.031 C 
ATOM     47  C   UNL A   1      40.566  25.995  28.419  1.00  0.00     0.029 A 
ATOM     48  C   UNL A   1      41.494  27.115  28.531  1.00  0.00     0.049 A 
ATOM     49  H   UNL A   1      43.550  27.100  28.203  1.00  0.00     0.167 HD
ATOM     50  C   UNL A   1      47.841  26.958  27.376  1.00  0.00     0.037 A 
ATOM     51  C   UNL A   1      41.158  28.368  28.887  1.00  0.00     0.037 A 
ATOM     52  C   UNL A   1      47.579  28.322  27.755  1.00  0.00     0.049 A 
ATOM     53  C   UNL A   1      42.231  29.414  28.989  1.00  0.00     0.074 A 
ATOM     54  C   UNL A   1      48.463  29.385  27.820  1.00  0.00     0.029 A 
ATOM     55  N   UNL A   1      46.337  28.811  28.129  1.00  0.00    -0.354 N 
ATOM     56  N   UNL A   1      43.509  29.318  28.715  1.00  0.00    -0.248 NA
ATOM     57  C   UNL A   1      41.814  30.740  29.465  1.00  0.00     0.031 C 
ATOM     58  C   UNL A   1      47.761  30.511  28.270  1.00  0.00     0.029 A 
ATOM     59  C   UNL A   1      46.435  30.156  28.448  1.00  0.00     0.049 A 
ATOM     60  H   UNL A   1      45.508  28.282  28.163  1.00  0.00     0.167 HD
ATOM     61  C   UNL A   1      44.048  30.569  28.978  1.00  0.00     0.074 A 
ATOM     62  C   UNL A   1      42.953  31.414  29.408  1.00  0.00     0.031 C 
ATOM     63  C   UNL A   1      45.336  30.980  28.881  1.00  0.00     0.037 A 
BRANCH  50  64
ATOM     64  C   UNL A   1      49.252  26.574  27.037  1.00  0.00     0.057 A 
ATOM     65  C   UNL A   1      49.727  26.693  25.723  1.00  0.00     0.134 A 
ATOM     66  C   UNL A   1      50.133  26.061  27.997  1.00  0.00     0.134 A 
ATOM     67  F   UNL A   1      48.932  27.170  24.753  1.00  0.00    -0.206 F 
ATOM     68  C   UNL A   1      51.025  26.316  25.378  1.00  0.00     0.040 A 
ATOM     69  C   UNL A   1      51.443  25.703  27.668  1.00  0.00     0.040 A 
ATOM     70  F   UNL A   1      49.747  25.934  29.275  1.00  0.00    -0.206 F 
ATOM     71  C   UNL A   1      51.890  25.825  26.354  1.00  0.00     0.006 A 
ENDBRANCH  50  64
BRANCH  51  72
ATOM     72  C   UNL A   1      39.746  28.697  29.197  1.00  0.00     0.057 A 
ATOM     73  C   UNL A   1      39.214  28.490  30.476  1.00  0.00     0.134 A 
ATOM     74  C   UNL A   1      38.897  29.233  28.224  1.00  0.00     0.134 A 
ATOM     75  F   UNL A   1      39.978  27.978  31.452  1.00  0.00    -0.206 F 
ATOM     76  C   UNL A   1      37.885  28.790  30.772  1.00  0.00     0.040 A 
ATOM     77  C   UNL A   1      37.571  29.561  28.512  1.00  0.00     0.040 A 
ATOM     78  F   UNL A   1      39.355  29.473  26.986  1.00  0.00    -0.206 F 
ATOM     79  C   UNL A   1      37.061  29.334  29.790  1.00  0.00     0.006 A 
ENDBRANCH  51  72
BRANCH  63  80
ATOM     80  C   UNL A   1      45.617  32.409  29.236  1.00  0.00     0.057 A 
ATOM     81  C   UNL A   1      45.525  33.418  28.270  1.00  0.00     0.134 A 
ATOM     82  C   UNL A   1      45.987  32.783  30.534  1.00  0.00     0.134 A 
ATOM     83  F   UNL A   1      45.180  33.124  27.007  1.00  0.00    -0.206 F 
ATOM     84  C   UNL A   1      45.789  34.751  28.584  1.00  0.00     0.040 A 
ATOM     85  C   UNL A   1      46.232  34.115  30.865  1.00  0.00     0.040 A 
ATOM     86  F   UNL A   1      46.076  31.863  31.507  1.00  0.00    -0.206 F 
ATOM     87  C   UNL A   1      46.137  35.104  29.887  1.00  0.00     0.006 A 
ENDBRANCH  63  80
ENDBRANCH  37  38
ENDBRANCH  29  32
ENDBRANCH  27  28
ENDBRANCH  26  27
ENDBRANCH   1  26
TORSDOF 13
ENDMDL
MODEL 3
REMARK VINA RESULT:     -12.4      0.458      6.105
REMARK SMILES C[C@H]1CCCC[C@@H]1n1c(SCC(=O)NCCCNC(=O)c2ccc(-c3c4nc(c(-c5c(F)cccc5F)c5ccc([nH]5)c(-c5c(F)cccc5F)c5nc(c(-c6c(F)cccc6F)c6ccc3[nH]6)C=C5)C=C4)cc2)nc2ccccc2c1=O
REMARK SMILES IDX 15 1 14 2 12 3 13 4 11 6 10 7 9 8 8 9 82 10 75 11 81 12
REMARK SMILES IDX 83 13 76 14 80 15 77 16 79 17 78 18 7 19 1 20 2 21 3 22 4 23
REMARK SMILES IDX 6 24 5 25 16 26 17 27 18 28 19 29 20 31 21 32 22 33 74 34
REMARK SMILES IDX 23 35 73 36 24 37 25 38 26 39 67 40 27 41 72 42 66 43 68 44
REMARK SMILES IDX 28 45 71 46 65 47 64 48 29 50 55 51 38 52 54 53 39 54 42 55
REMARK SMILES IDX 53 56 69 57 40 58 41 59 52 61 70 62 43 63 30 64 31 65 36 66
REMARK SMILES IDX 32 67 33 68 35 69 37 70 34 71 56 72 57 73 62 74 58 75 59 76
REMARK SMILES IDX 61 77 63 78 60 79 44 80 45 81 50 82 46 83 47 84 49 85 51 86
REMARK SMILES IDX 48 87
REMARK H PARENT 14 5 18 30 68 49 42 60
REMARK Flexibility Score: inf
ROOT
ATOM      1  C   UNL A   1      31.868  30.317  26.874  1.00  0.00     0.117 C 
ENDROOT
BRANCH   1   2
ATOM      2  N   UNL A   1      33.060  29.908  27.585  1.00  0.00    -0.355 N 
ATOM      3  C   UNL A   1      34.054  29.051  27.269  1.00  0.00     0.230 C 
ATOM      4  O   UNL A   1      35.127  29.265  27.851  1.00  0.00    -0.274 OA
ATOM      5  H   UNL A   1      33.167  30.338  28.464  1.00  0.00     0.163 HD
BRANCH   3   6
ATOM      6  C   UNL A   1      33.993  27.947  26.238  1.00  0.00     0.178 C 
BRANCH   6   7
ATOM      7  S   UNL A   1      32.805  26.649  26.335  1.00  0.00    -0.078 SA
BRANCH   7   8
ATOM      8  C   UNL A   1      32.674  25.465  25.063  1.00  0.00     0.172 A 
ATOM      9  N   UNL A   1      32.158  25.586  23.772  1.00  0.00    -0.284 N 
ATOM     10  C   UNL A   1      32.482  24.567  22.869  1.00  0.00     0.262 A 
ATOM     11  N   UNL A   1      33.084  24.327  25.536  1.00  0.00    -0.224 NA
ATOM     12  C   UNL A   1      32.618  23.221  23.442  1.00  0.00     0.066 A 
ATOM     13  O   UNL A   1      32.626  24.706  21.658  1.00  0.00    -0.269 OA
ATOM     14  C   UNL A   1      32.902  23.165  24.793  1.00  0.00     0.079 A 
ATOM     15  C   UNL A   1      32.364  22.062  22.703  1.00  0.00     0.016 A 
ATOM     16  C   UNL A   1      32.946  21.923  25.428  1.00  0.00     0.029 A 
ATOM     17  C   UNL A   1      32.387  20.824  23.347  1.00  0.00     0.001 A 
ATOM     18  C   UNL A   1      32.679  20.754  24.709  1.00  0.00     0.002 A 
BRANCH   9  19
ATOM     19  C   UNL A   1      31.363  26.715  23.239  1.00  0.00     0.096 C 
ATOM     20  C   UNL A   1      33.426  28.166  22.506  1.00  0.00     0.010 C 
ATOM     21  C   UNL A   1      32.055  28.130  23.179  1.00  0.00     0.009 C 
ATOM     22  C   UNL A   1      31.130  29.163  22.492  1.00  0.00     0.005 C 
ATOM     23  C   UNL A   1      29.715  29.199  23.071  1.00  0.00     0.000 C 
ATOM     24  C   UNL A   1      30.082  26.929  24.047  1.00  0.00     0.026 C 
ATOM     25  C   UNL A   1      29.125  27.807  23.244  1.00  0.00     0.002 C 
ENDBRANCH   9  19
ENDBRANCH   7   8
ENDBRANCH   6   7
ENDBRANCH   3   6
ENDBRANCH   1   2
BRANCH   1  26
ATOM     26  C   UNL A   1      31.744  31.829  26.720  1.00  0.00     0.042 C 
BRANCH  26  27
ATOM     27  C   UNL A   1      32.845  32.650  27.394  1.00  0.00     0.118 C 
BRANCH  27  28
ATOM     28  N   UNL A   1      32.480  34.037  27.670  1.00  0.00    -0.352 N 
ATOM     29  C   UNL A   1      32.999  34.949  28.560  1.00  0.00     0.251 C 
ATOM     30  H   UNL A   1      31.735  34.379  27.124  1.00  0.00     0.163 HD
ATOM     31  O   UNL A   1      32.466  36.049  28.694  1.00  0.00    -0.269 OA
BRANCH  29  32
ATOM     32  C   UNL A   1      34.160  34.594  29.400  1.00  0.00     0.039 A 
ATOM     33  C   UNL A   1      35.448  34.576  28.868  1.00  0.00     0.014 A 
ATOM     34  C   UNL A   1      33.949  34.240  30.736  1.00  0.00     0.014 A 
ATOM     35  C   UNL A   1      36.478  33.987  29.590  1.00  0.00     0.010 A 
ATOM     36  C   UNL A   1      35.010  33.739  31.495  1.00  0.00     0.010 A 
ATOM     37  C   UNL A   1      36.266  33.536  30.903  1.00  0.00    -0.014 A 
BRANCH  37  38
ATOM     38  C   UNL A   1      37.350  32.805  31.611  1.00  0.00     0.031 A 
ATOM     39  C   UNL A   1      38.047  31.643  30.947  1.00  0.00     0.074 A 
ATOM     40  C   UNL A   1      37.764  33.231  32.819  1.00  0.00     0.049 A 
ATOM     41  N   UNL A   1      39.017  30.889  31.403  1.00  0.00    -0.248 NA
ATOM     42  C   UNL A   1      37.593  31.276  29.596  1.00  0.00     0.031 C 
ATOM     43  C   UNL A   1      37.190  34.357  33.559  1.00  0.00     0.029 A 
ATOM     44  N   UNL A   1      38.781  32.788  33.625  1.00  0.00    -0.354 N 
ATOM     45  C   UNL A   1      39.268  29.948  30.411  1.00  0.00     0.074 A 
ATOM     46  C   UNL A   1      38.333  30.207  29.339  1.00  0.00     0.031 C 
ATOM     47  C   UNL A   1      37.897  34.551  34.682  1.00  0.00     0.029 A 
ATOM     48  C   UNL A   1      38.930  33.524  34.775  1.00  0.00     0.049 A 
ATOM     49  H   UNL A   1      39.350  32.016  33.402  1.00  0.00     0.167 HD
ATOM     50  C   UNL A   1      40.202  28.966  30.388  1.00  0.00     0.037 A 
ATOM     51  C   UNL A   1      39.790  33.380  35.800  1.00  0.00     0.037 A 
ATOM     52  C   UNL A   1      41.156  28.728  31.440  1.00  0.00     0.049 A 
ATOM     53  C   UNL A   1      40.782  32.254  35.769  1.00  0.00     0.074 A 
ATOM     54  C   UNL A   1      42.156  27.773  31.498  1.00  0.00     0.029 A 
ATOM     55  N   UNL A   1      41.229  29.457  32.617  1.00  0.00    -0.354 N 
ATOM     56  N   UNL A   1      41.003  31.370  34.827  1.00  0.00    -0.248 NA
ATOM     57  C   UNL A   1      41.636  32.097  36.956  1.00  0.00     0.031 C 
ATOM     58  C   UNL A   1      42.813  27.901  32.729  1.00  0.00     0.029 A 
ATOM     59  C   UNL A   1      42.244  28.959  33.419  1.00  0.00     0.049 A 
ATOM     60  H   UNL A   1      40.647  30.215  32.849  1.00  0.00     0.167 HD
ATOM     61  C   UNL A   1      42.023  30.557  35.302  1.00  0.00     0.074 A 
ATOM     62  C   UNL A   1      42.395  31.070  36.604  1.00  0.00     0.031 C 
ATOM     63  C   UNL A   1      42.595  29.477  34.715  1.00  0.00     0.037 A 
BRANCH  50  64
ATOM     64  C   UNL A   1      40.224  28.060  29.191  1.00  0.00     0.057 A 
ATOM     65  C   UNL A   1      40.972  28.400  28.055  1.00  0.00     0.134 A 
ATOM     66  C   UNL A   1      39.488  26.870  29.146  1.00  0.00     0.134 A 
ATOM     67  F   UNL A   1      41.694  29.530  28.028  1.00  0.00    -0.206 F 
ATOM     68  C   UNL A   1      40.986  27.588  26.919  1.00  0.00     0.040 A 
ATOM     69  C   UNL A   1      39.513  26.038  28.024  1.00  0.00     0.040 A 
ATOM     70  F   UNL A   1      38.762  26.480  30.204  1.00  0.00    -0.206 F 
ATOM     71  C   UNL A   1      40.260  26.399  26.905  1.00  0.00     0.006 A 
ENDBRANCH  50  64
BRANCH  51  72
ATOM     72  C   UNL A   1      39.733  34.312  36.951  1.00  0.00     0.057 A 
ATOM     73  C   UNL A   1      39.008  33.998  38.107  1.00  0.00     0.134 A 
ATOM     74  C   UNL A   1      40.411  35.535  36.926  1.00  0.00     0.134 A 
ATOM     75  F   UNL A   1      38.336  32.840  38.191  1.00  0.00    -0.206 F 
ATOM     76  C   UNL A   1      38.945  34.874  39.191  1.00  0.00     0.040 A 
ATOM     77  C   UNL A   1      40.378  36.410  38.012  1.00  0.00     0.040 A 
ATOM     78  F   UNL A   1      41.140  35.882  35.854  1.00  0.00    -0.206 F 
ATOM     79  C   UNL A   1      39.637  36.082  39.148  1.00  0.00     0.006 A 
ENDBRANCH  51  72
BRANCH  63  80
ATOM     80  C   UNL A   1      43.688  28.794  35.480  1.00  0.00     0.057 A 
ATOM     81  C   UNL A   1      43.391  27.795  36.415  1.00  0.00     0.134 A 
ATOM     82  C   UNL A   1      45.035  29.132  35.296  1.00  0.00     0.134 A 
ATOM     83  F   UNL A   1      42.120  27.429  36.641  1.00  0.00    -0.206 F 
ATOM     84  C   UNL A   1      44.397  27.153  37.138  1.00  0.00     0.040 A 
ATOM     85  C   UNL A   1      46.051  28.482  35.997  1.00  0.00     0.040 A 
ATOM     86  F   UNL A   1      45.384  30.070  34.402  1.00  0.00    -0.206 F 
ATOM     87  C   UNL A   1      45.731  27.492  36.925  1.00  0.00     0.006 A 
ENDBRANCH  63  80
ENDBRANCH  37  38
ENDBRANCH  29  32
ENDBRANCH  27  28
ENDBRANCH  26  27
ENDBRANCH   1  26
TORSDOF 13
ENDMDL
