MODEL 1
REMARK VINA RESULT:     -11.4      0.000      0.000
REMARK SMILES C[C@H](CC(=O)NCCCNC(=O)c1ccc(-c2c3nc(c(-c4c(F)cccc4F)c4ccc([nH]4)c(-c4c(F)cccc4F)c4nc(c(-c5c(F)cccc5F)c5ccc2[nH]5)C=C4)C=C3)cc1)NC(=O)[C@H]1Cc2ccccc2O1
REMARK SMILES IDX 7 1 6 2 4 3 5 4 3 6 2 7 1 8 67 9 68 10 69 12 70 13 71 14
REMARK SMILES IDX 78 15 72 16 77 17 73 18 76 19 74 20 75 21 8 22 9 23 10 24
REMARK SMILES IDX 11 25 12 27 13 28 14 29 66 30 15 31 65 32 16 33 17 34 18 35
REMARK SMILES IDX 59 36 19 37 64 38 58 39 60 40 20 41 63 42 57 43 56 44 21 46
REMARK SMILES IDX 47 47 30 48 46 49 31 50 34 51 45 52 61 53 32 54 33 55 44 57
REMARK SMILES IDX 62 58 35 59 22 60 23 61 28 62 24 63 25 64 27 65 29 66 26 67
REMARK SMILES IDX 48 68 49 69 54 70 50 71 51 72 53 73 55 74 52 75 36 76 37 77
REMARK SMILES IDX 42 78 38 79 39 80 41 81 43 82 40 83
REMARK H PARENT 6 5 67 11 10 26 60 45 34 56
REMARK Flexibility Score: inf
ROOT
ATOM      1  C   UNL A   1      31.588  30.771  26.154  1.00  0.00     0.117 C 
ENDROOT
BRANCH   1   2
ATOM      2  N   UNL A   1      31.687  29.775  27.207  1.00  0.00    -0.356 N 
ATOM      3  C   UNL A   1      31.492  28.430  27.168  1.00  0.00     0.222 C 
ATOM      4  O   UNL A   1      31.588  27.803  28.225  1.00  0.00    -0.275 OA
ATOM      5  H   UNL A   1      31.935  30.130  28.091  1.00  0.00     0.163 HD
BRANCH   3   6
ATOM      6  C   UNL A   1      31.173  27.711  25.871  1.00  0.00     0.124 C 
BRANCH   6   7
ATOM      7  C   UNL A   1      32.020  26.460  25.570  1.00  0.00     0.088 C 
ATOM      8  C   UNL A   1      33.475  26.779  25.227  1.00  0.00     0.031 C 
BRANCH   7   9
ATOM      9  N   UNL A   1      31.978  25.483  26.659  1.00  0.00    -0.350 N 
ATOM     10  C   UNL A   1      31.765  24.138  26.599  1.00  0.00     0.261 C 
ATOM     11  H   UNL A   1      32.125  25.849  27.561  1.00  0.00     0.163 HD
ATOM     12  O   UNL A   1      30.807  23.703  27.252  1.00  0.00    -0.271 OA
BRANCH  10  13
ATOM     13  C   UNL A   1      32.777  23.157  26.015  1.00  0.00     0.266 C 
ATOM     14  C   UNL A   1      32.965  22.956  24.515  1.00  0.00     0.095 C 
ATOM     15  O   UNL A   1      34.031  23.598  26.617  1.00  0.00    -0.480 OA
ATOM     16  C   UNL A   1      34.444  23.019  24.428  1.00  0.00    -0.002 A 
ATOM     17  C   UNL A   1      34.967  23.410  25.645  1.00  0.00     0.123 A 
ATOM     18  C   UNL A   1      35.278  22.780  23.351  1.00  0.00     0.008 A 
ATOM     19  C   UNL A   1      36.318  23.599  25.846  1.00  0.00     0.047 A 
ATOM     20  C   UNL A   1      36.654  22.952  23.531  1.00  0.00     0.001 A 
ATOM     21  C   UNL A   1      37.172  23.365  24.771  1.00  0.00     0.004 A 
ENDBRANCH  10  13
ENDBRANCH   7   9
ENDBRANCH   6   7
ENDBRANCH   3   6
ENDBRANCH   1   2
BRANCH   1  22
ATOM     22  C   UNL A   1      31.410  32.174  26.729  1.00  0.00     0.042 C 
BRANCH  22  23
ATOM     23  C   UNL A   1      32.712  32.912  26.992  1.00  0.00     0.118 C 
BRANCH  23  24
ATOM     24  N   UNL A   1      32.503  34.203  27.626  1.00  0.00    -0.352 N 
ATOM     25  C   UNL A   1      33.081  34.752  28.741  1.00  0.00     0.251 C 
ATOM     26  H   UNL A   1      31.836  34.777  27.183  1.00  0.00     0.163 HD
ATOM     27  O   UNL A   1      32.604  35.786  29.213  1.00  0.00    -0.269 OA
BRANCH  25  28
ATOM     28  C   UNL A   1      34.254  34.127  29.398  1.00  0.00     0.039 A 
ATOM     29  C   UNL A   1      34.030  33.205  30.426  1.00  0.00     0.014 A 
ATOM     30  C   UNL A   1      35.564  34.475  29.060  1.00  0.00     0.014 A 
ATOM     31  C   UNL A   1      35.111  32.601  31.073  1.00  0.00     0.010 A 
ATOM     32  C   UNL A   1      36.639  33.804  29.641  1.00  0.00     0.010 A 
ATOM     33  C   UNL A   1      36.427  32.872  30.665  1.00  0.00    -0.014 A 
BRANCH  33  34
ATOM     34  C   UNL A   1      37.584  32.194  31.308  1.00  0.00     0.031 A 
ATOM     35  C   UNL A   1      38.278  31.049  30.622  1.00  0.00     0.074 A 
ATOM     36  C   UNL A   1      37.975  32.570  32.541  1.00  0.00     0.049 A 
ATOM     37  N   UNL A   1      39.278  30.315  31.043  1.00  0.00    -0.248 NA
ATOM     38  C   UNL A   1      37.760  30.656  29.302  1.00  0.00     0.031 C 
ATOM     39  C   UNL A   1      37.345  33.620  33.343  1.00  0.00     0.029 A 
ATOM     40  N   UNL A   1      38.989  32.104  33.339  1.00  0.00    -0.354 N 
ATOM     41  C   UNL A   1      39.492  29.364  30.053  1.00  0.00     0.074 A 
ATOM     42  C   UNL A   1      38.485  29.580  29.037  1.00  0.00     0.031 C 
ATOM     43  C   UNL A   1      38.000  33.733  34.509  1.00  0.00     0.029 A 
ATOM     44  C   UNL A   1      39.073  32.745  34.550  1.00  0.00     0.049 A 
ATOM     45  H   UNL A   1      39.598  31.379  33.069  1.00  0.00     0.167 HD
ATOM     46  C   UNL A   1      40.453  28.411  29.984  1.00  0.00     0.037 A 
ATOM     47  C   UNL A   1      39.916  32.557  35.582  1.00  0.00     0.037 A 
ATOM     48  C   UNL A   1      41.473  28.216  30.983  1.00  0.00     0.049 A 
ATOM     49  C   UNL A   1      40.992  31.514  35.477  1.00  0.00     0.074 A 
ATOM     50  C   UNL A   1      42.545  27.341  30.963  1.00  0.00     0.029 A 
ATOM     51  N   UNL A   1      41.542  28.904  32.185  1.00  0.00    -0.354 N 
ATOM     52  N   UNL A   1      41.239  30.682  34.495  1.00  0.00    -0.248 NA
ATOM     53  C   UNL A   1      41.910  31.391  36.617  1.00  0.00     0.031 C 
ATOM     54  C   UNL A   1      43.233  27.464  32.175  1.00  0.00     0.029 A 
ATOM     55  C   UNL A   1      42.619  28.451  32.929  1.00  0.00     0.049 A 
ATOM     56  H   UNL A   1      40.917  29.610  32.469  1.00  0.00     0.167 HD
ATOM     57  C   UNL A   1      42.348  29.945  34.891  1.00  0.00     0.074 A 
ATOM     58  C   UNL A   1      42.737  30.445  36.195  1.00  0.00     0.031 C 
ATOM     59  C   UNL A   1      42.987  28.947  34.233  1.00  0.00     0.037 A 
BRANCH  46  60
ATOM     60  C   UNL A   1      40.437  27.502  28.788  1.00  0.00     0.057 A 
ATOM     61  C   UNL A   1      39.656  26.338  28.749  1.00  0.00     0.134 A 
ATOM     62  C   UNL A   1      41.206  27.798  27.655  1.00  0.00     0.134 A 
ATOM     63  F   UNL A   1      38.903  25.989  29.803  1.00  0.00    -0.206 F 
ATOM     64  C   UNL A   1      39.674  25.482  27.646  1.00  0.00     0.040 A 
ATOM     65  C   UNL A   1      41.209  26.965  26.535  1.00  0.00     0.040 A 
ATOM     66  F   UNL A   1      41.971  28.901  27.620  1.00  0.00    -0.206 F 
ATOM     67  C   UNL A   1      40.449  25.797  26.533  1.00  0.00     0.006 A 
ENDBRANCH  46  60
BRANCH  47  68
ATOM     68  C   UNL A   1      39.785  33.403  36.794  1.00  0.00     0.057 A 
ATOM     69  C   UNL A   1      38.924  33.044  37.836  1.00  0.00     0.134 A 
ATOM     70  C   UNL A   1      40.548  34.567  36.955  1.00  0.00     0.134 A 
ATOM     71  F   UNL A   1      38.156  31.951  37.731  1.00  0.00    -0.206 F 
ATOM     72  C   UNL A   1      38.820  33.815  38.995  1.00  0.00     0.040 A 
ATOM     73  C   UNL A   1      40.470  35.334  38.119  1.00  0.00     0.040 A 
ATOM     74  F   UNL A   1      41.397  34.958  35.995  1.00  0.00    -0.206 F 
ATOM     75  C   UNL A   1      39.602  34.960  39.143  1.00  0.00     0.006 A 
ENDBRANCH  47  68
BRANCH  59  76
ATOM     76  C   UNL A   1      44.176  28.331  34.911  1.00  0.00     0.057 A 
ATOM     77  C   UNL A   1      44.056  27.198  35.727  1.00  0.00     0.134 A 
ATOM     78  C   UNL A   1      45.459  28.860  34.723  1.00  0.00     0.134 A 
ATOM     79  F   UNL A   1      42.853  26.653  35.959  1.00  0.00    -0.206 F 
ATOM     80  C   UNL A   1      45.167  26.627  36.348  1.00  0.00     0.040 A 
ATOM     81  C   UNL A   1      46.582  28.281  35.318  1.00  0.00     0.040 A 
ATOM     82  F   UNL A   1      45.646  29.939  33.947  1.00  0.00    -0.206 F 
ATOM     83  C   UNL A   1      46.436  27.164  36.139  1.00  0.00     0.006 A 
ENDBRANCH  59  76
ENDBRANCH  33  34
ENDBRANCH  25  28
ENDBRANCH  23  24
ENDBRANCH  22  23
ENDBRANCH   1  22
TORSDOF 13
ENDMDL
MODEL 2
REMARK VINA RESULT:     -11.4      1.986      6.477
REMARK SMILES C[C@H](CC(=O)NCCCNC(=O)c1ccc(-c2c3nc(c(-c4c(F)cccc4F)c4ccc([nH]4)c(-c4c(F)cccc4F)c4nc(c(-c5c(F)cccc5F)c5ccc2[nH]5)C=C4)C=C3)cc1)NC(=O)[C@H]1Cc2ccccc2O1
REMARK SMILES IDX 7 1 6 2 4 3 5 4 3 6 2 7 1 8 67 9 68 10 69 12 70 13 71 14
REMARK SMILES IDX 78 15 72 16 77 17 73 18 76 19 74 20 75 21 8 22 9 23 10 24
REMARK SMILES IDX 11 25 12 27 13 28 14 29 66 30 15 31 65 32 16 33 17 34 18 35
REMARK SMILES IDX 59 36 19 37 64 38 58 39 60 40 20 41 63 42 57 43 56 44 21 46
REMARK SMILES IDX 47 47 30 48 46 49 31 50 34 51 45 52 61 53 32 54 33 55 44 57
REMARK SMILES IDX 62 58 35 59 22 60 23 61 28 62 24 63 25 64 27 65 29 66 26 67
REMARK SMILES IDX 48 68 49 69 54 70 50 71 51 72 53 73 55 74 52 75 36 76 37 77
REMARK SMILES IDX 42 78 38 79 39 80 41 81 43 82 40 83
REMARK H PARENT 6 5 67 11 10 26 60 45 34 56
REMARK Flexibility Score: inf
ROOT
ATOM      1  C   UNL A   1      31.167  30.717  25.411  1.00  0.00     0.117 C 
ENDROOT
BRANCH   1   2
ATOM      2  N   UNL A   1      32.342  29.940  25.766  1.00  0.00    -0.356 N 
ATOM      3  C   UNL A   1      32.605  28.616  25.602  1.00  0.00     0.222 C 
ATOM      4  O   UNL A   1      33.672  28.182  26.042  1.00  0.00    -0.275 OA
ATOM      5  H   UNL A   1      33.064  30.453  26.195  1.00  0.00     0.163 HD
BRANCH   3   6
ATOM      6  C   UNL A   1      31.629  27.694  24.896  1.00  0.00     0.124 C 
BRANCH   6   7
ATOM      7  C   UNL A   1      30.769  26.798  25.808  1.00  0.00     0.088 C 
ATOM      8  C   UNL A   1      29.777  25.924  25.041  1.00  0.00     0.031 C 
BRANCH   7   9
ATOM      9  N   UNL A   1      31.581  25.958  26.689  1.00  0.00    -0.350 N 
ATOM     10  C   UNL A   1      31.983  24.667  26.515  1.00  0.00     0.261 C 
ATOM     11  H   UNL A   1      31.879  26.385  27.524  1.00  0.00     0.163 HD
ATOM     12  O   UNL A   1      31.645  23.863  27.393  1.00  0.00    -0.271 OA
BRANCH  10  13
ATOM     13  C   UNL A   1      33.021  24.249  25.478  1.00  0.00     0.266 C 
ATOM     14  C   UNL A   1      34.382  24.924  25.350  1.00  0.00     0.095 C 
ATOM     15  O   UNL A   1      33.197  22.828  25.760  1.00  0.00    -0.480 OA
ATOM     16  C   UNL A   1      35.258  23.731  25.274  1.00  0.00    -0.002 A 
ATOM     17  C   UNL A   1      34.521  22.593  25.540  1.00  0.00     0.123 A 
ATOM     18  C   UNL A   1      36.615  23.643  25.021  1.00  0.00     0.008 A 
ATOM     19  C   UNL A   1      35.086  21.336  25.586  1.00  0.00     0.047 A 
ATOM     20  C   UNL A   1      37.211  22.379  25.048  1.00  0.00     0.001 A 
ATOM     21  C   UNL A   1      36.453  21.231  25.334  1.00  0.00     0.004 A 
ENDBRANCH  10  13
ENDBRANCH   7   9
ENDBRANCH   6   7
ENDBRANCH   3   6
ENDBRANCH   1   2
BRANCH   1  22
ATOM     22  C   UNL A   1      31.038  31.962  26.284  1.00  0.00     0.042 C 
BRANCH  22  23
ATOM     23  C   UNL A   1      32.335  32.400  26.945  1.00  0.00     0.118 C 
BRANCH  23  24
ATOM     24  N   UNL A   1      32.254  33.742  27.496  1.00  0.00    -0.352 N 
ATOM     25  C   UNL A   1      33.064  34.386  28.395  1.00  0.00     0.251 C 
ATOM     26  H   UNL A   1      31.493  34.276  27.171  1.00  0.00     0.163 HD
ATOM     27  O   UNL A   1      32.690  35.459  28.874  1.00  0.00    -0.269 OA
BRANCH  25  28
ATOM     28  C   UNL A   1      34.367  33.819  28.815  1.00  0.00     0.039 A 
ATOM     29  C   UNL A   1      34.426  33.092  30.008  1.00  0.00     0.014 A 
ATOM     30  C   UNL A   1      35.539  34.038  28.086  1.00  0.00     0.014 A 
ATOM     31  C   UNL A   1      35.638  32.548  30.440  1.00  0.00     0.010 A 
ATOM     32  C   UNL A   1      36.728  33.418  28.467  1.00  0.00     0.010 A 
ATOM     33  C   UNL A   1      36.796  32.680  29.657  1.00  0.00    -0.014 A 
BRANCH  33  34
ATOM     34  C   UNL A   1      38.081  32.059  30.076  1.00  0.00     0.031 A 
ATOM     35  C   UNL A   1      39.002  32.773  31.027  1.00  0.00     0.074 A 
ATOM     36  C   UNL A   1      38.449  30.874  29.552  1.00  0.00     0.049 A 
ATOM     37  N   UNL A   1      40.176  32.405  31.475  1.00  0.00    -0.248 NA
ATOM     38  C   UNL A   1      38.560  34.089  31.514  1.00  0.00     0.031 C 
ATOM     39  C   UNL A   1      37.679  30.109  28.569  1.00  0.00     0.029 A 
ATOM     40  N   UNL A   1      39.570  30.111  29.764  1.00  0.00    -0.354 N 
ATOM     41  C   UNL A   1      40.620  33.450  32.275  1.00  0.00     0.074 A 
ATOM     42  C   UNL A   1      39.615  34.488  32.208  1.00  0.00     0.031 C 
ATOM     43  C   UNL A   1      38.340  28.977  28.280  1.00  0.00     0.029 A 
ATOM     44  C   UNL A   1      39.590  28.951  29.031  1.00  0.00     0.049 A 
ATOM     45  H   UNL A   1      40.289  30.372  30.383  1.00  0.00     0.167 HD
ATOM     46  C   UNL A   1      41.752  33.531  33.017  1.00  0.00     0.037 A 
ATOM     47  C   UNL A   1      40.514  27.974  28.966  1.00  0.00     0.037 A 
ATOM     48  C   UNL A   1      42.738  32.484  33.106  1.00  0.00     0.049 A 
ATOM     49  C   UNL A   1      41.750  28.068  29.816  1.00  0.00     0.074 A 
ATOM     50  C   UNL A   1      43.870  32.431  33.899  1.00  0.00     0.029 A 
ATOM     51  N   UNL A   1      42.711  31.310  32.369  1.00  0.00    -0.354 N 
ATOM     52  N   UNL A   1      42.114  29.022  30.638  1.00  0.00    -0.248 NA
ATOM     53  C   UNL A   1      42.696  26.948  29.736  1.00  0.00     0.031 C 
ATOM     54  C   UNL A   1      44.555  31.246  33.605  1.00  0.00     0.029 A 
ATOM     55  C   UNL A   1      43.823  30.539  32.665  1.00  0.00     0.049 A 
ATOM     56  H   UNL A   1      42.005  31.061  31.729  1.00  0.00     0.167 HD
ATOM     57  C   UNL A   1      43.323  28.612  31.185  1.00  0.00     0.074 A 
ATOM     58  C   UNL A   1      43.619  27.313  30.614  1.00  0.00     0.031 C 
ATOM     59  C   UNL A   1      44.115  29.254  32.078  1.00  0.00     0.037 A 
BRANCH  46  60
ATOM     60  C   UNL A   1      41.982  34.801  33.785  1.00  0.00     0.057 A 
ATOM     61  C   UNL A   1      41.449  35.003  35.066  1.00  0.00     0.134 A 
ATOM     62  C   UNL A   1      42.754  35.835  33.241  1.00  0.00     0.134 A 
ATOM     63  F   UNL A   1      40.691  34.057  35.644  1.00  0.00    -0.206 F 
ATOM     64  C   UNL A   1      41.640  36.201  35.759  1.00  0.00     0.040 A 
ATOM     65  C   UNL A   1      42.977  37.026  33.935  1.00  0.00     0.040 A 
ATOM     66  F   UNL A   1      43.303  35.707  32.023  1.00  0.00    -0.206 F 
ATOM     67  C   UNL A   1      42.410  37.215  35.194  1.00  0.00     0.006 A 
ENDBRANCH  46  60
BRANCH  47  68
ATOM     68  C   UNL A   1      40.282  26.809  28.077  1.00  0.00     0.057 A 
ATOM     69  C   UNL A   1      40.872  26.738  26.811  1.00  0.00     0.134 A 
ATOM     70  C   UNL A   1      39.500  25.723  28.490  1.00  0.00     0.134 A 
ATOM     71  F   UNL A   1      41.617  27.755  26.355  1.00  0.00    -0.206 F 
ATOM     72  C   UNL A   1      40.689  25.630  25.982  1.00  0.00     0.040 A 
ATOM     73  C   UNL A   1      39.327  24.599  27.680  1.00  0.00     0.040 A 
ATOM     74  F   UNL A   1      38.917  25.729  29.697  1.00  0.00    -0.206 F 
ATOM     75  C   UNL A   1      39.921  24.552  26.420  1.00  0.00     0.006 A 
ENDBRANCH  47  68
BRANCH  59  76
ATOM     76  C   UNL A   1      45.377  28.558  32.499  1.00  0.00     0.057 A 
ATOM     77  C   UNL A   1      45.399  27.656  33.570  1.00  0.00     0.134 A 
ATOM     78  C   UNL A   1      46.575  28.770  31.806  1.00  0.00     0.134 A 
ATOM     79  F   UNL A   1      44.288  27.419  34.284  1.00  0.00    -0.206 F 
ATOM     80  C   UNL A   1      46.574  27.006  33.951  1.00  0.00     0.040 A 
ATOM     81  C   UNL A   1      47.751  28.106  32.161  1.00  0.00     0.040 A 
ATOM     82  F   UNL A   1      46.621  29.614  30.765  1.00  0.00    -0.206 F 
ATOM     83  C   UNL A   1      47.753  27.225  33.242  1.00  0.00     0.006 A 
ENDBRANCH  59  76
ENDBRANCH  33  34
ENDBRANCH  25  28
ENDBRANCH  23  24
ENDBRANCH  22  23
ENDBRANCH   1  22
TORSDOF 13
ENDMDL
MODEL 3
REMARK VINA RESULT:     -11.4      5.211     10.368
REMARK SMILES C[C@H](CC(=O)NCCCNC(=O)c1ccc(-c2c3nc(c(-c4c(F)cccc4F)c4ccc([nH]4)c(-c4c(F)cccc4F)c4nc(c(-c5c(F)cccc5F)c5ccc2[nH]5)C=C4)C=C3)cc1)NC(=O)[C@H]1Cc2ccccc2O1
REMARK SMILES IDX 7 1 6 2 4 3 5 4 3 6 2 7 1 8 67 9 68 10 69 12 70 13 71 14
REMARK SMILES IDX 78 15 72 16 77 17 73 18 76 19 74 20 75 21 8 22 9 23 10 24
REMARK SMILES IDX 11 25 12 27 13 28 14 29 66 30 15 31 65 32 16 33 17 34 18 35
REMARK SMILES IDX 59 36 19 37 64 38 58 39 60 40 20 41 63 42 57 43 56 44 21 46
REMARK SMILES IDX 47 47 30 48 46 49 31 50 34 51 45 52 61 53 32 54 33 55 44 57
REMARK SMILES IDX 62 58 35 59 22 60 23 61 28 62 24 63 25 64 27 65 29 66 26 67
REMARK SMILES IDX 48 68 49 69 54 70 50 71 51 72 53 73 55 74 52 75 36 76 37 77
REMARK SMILES IDX 42 78 38 79 39 80 41 81 43 82 40 83
REMARK H PARENT 6 5 67 11 10 26 60 45 34 56
REMARK Flexibility Score: inf
ROOT
ATOM      1  C   UNL A   1      36.931  20.605  24.979  1.00  0.00     0.117 C 
ENDROOT
BRANCH   1   2
ATOM      2  N   UNL A   1      37.131  21.740  24.094  1.00  0.00    -0.356 N 
ATOM      3  C   UNL A   1      36.227  22.574  23.514  1.00  0.00     0.222 C 
ATOM      4  O   UNL A   1      36.654  23.444  22.750  1.00  0.00    -0.275 OA
ATOM      5  H   UNL A   1      38.071  21.938  23.880  1.00  0.00     0.163 HD
BRANCH   3   6
ATOM      6  C   UNL A   1      34.741  22.454  23.792  1.00  0.00     0.124 C 
BRANCH   6   7
ATOM      7  C   UNL A   1      34.012  23.768  24.132  1.00  0.00     0.088 C 
ATOM      8  C   UNL A   1      34.350  24.309  25.522  1.00  0.00     0.031 C 
BRANCH   7   9
ATOM      9  N   UNL A   1      34.246  24.810  23.132  1.00  0.00    -0.350 N 
ATOM     10  C   UNL A   1      33.352  25.660  22.552  1.00  0.00     0.261 C 
ATOM     11  H   UNL A   1      35.180  24.911  22.838  1.00  0.00     0.163 HD
ATOM     12  O   UNL A   1      33.277  25.620  21.317  1.00  0.00    -0.271 OA
BRANCH  10  13
ATOM     13  C   UNL A   1      32.677  26.803  23.304  1.00  0.00     0.266 C 
ATOM     14  C   UNL A   1      31.550  26.581  24.308  1.00  0.00     0.095 C 
ATOM     15  O   UNL A   1      33.802  27.461  23.960  1.00  0.00    -0.480 OA
ATOM     16  C   UNL A   1      32.029  27.428  25.427  1.00  0.00    -0.002 A 
ATOM     17  C   UNL A   1      33.313  27.865  25.165  1.00  0.00     0.123 A 
ATOM     18  C   UNL A   1      31.399  27.771  26.609  1.00  0.00     0.008 A 
ATOM     19  C   UNL A   1      34.031  28.635  26.056  1.00  0.00     0.047 A 
ATOM     20  C   UNL A   1      32.100  28.563  27.525  1.00  0.00     0.001 A 
ATOM     21  C   UNL A   1      33.412  28.988  27.253  1.00  0.00     0.004 A 
ENDBRANCH  10  13
ENDBRANCH   7   9
ENDBRANCH   6   7
ENDBRANCH   3   6
ENDBRANCH   1   2
BRANCH   1  22
ATOM     22  C   UNL A   1      38.128  19.659  24.950  1.00  0.00     0.042 C 
BRANCH  22  23
ATOM     23  C   UNL A   1      39.079  19.819  26.126  1.00  0.00     0.118 C 
BRANCH  23  24
ATOM     24  N   UNL A   1      40.241  18.953  26.023  1.00  0.00    -0.352 N 
ATOM     25  C   UNL A   1      41.579  19.252  26.044  1.00  0.00     0.251 C 
ATOM     26  H   UNL A   1      40.034  17.995  25.922  1.00  0.00     0.163 HD
ATOM     27  O   UNL A   1      42.391  18.375  25.740  1.00  0.00    -0.269 OA
BRANCH  25  28
ATOM     28  C   UNL A   1      42.070  20.602  26.409  1.00  0.00     0.039 A 
ATOM     29  C   UNL A   1      42.384  21.498  25.383  1.00  0.00     0.014 A 
ATOM     30  C   UNL A   1      42.279  20.978  27.739  1.00  0.00     0.014 A 
ATOM     31  C   UNL A   1      42.857  22.777  25.688  1.00  0.00     0.010 A 
ATOM     32  C   UNL A   1      42.661  22.284  28.045  1.00  0.00     0.010 A 
ATOM     33  C   UNL A   1      42.970  23.193  27.024  1.00  0.00    -0.014 A 
BRANCH  33  34
ATOM     34  C   UNL A   1      43.418  24.570  27.364  1.00  0.00     0.031 A 
ATOM     35  C   UNL A   1      42.422  25.618  27.780  1.00  0.00     0.074 A 
ATOM     36  C   UNL A   1      44.719  24.896  27.240  1.00  0.00     0.049 A 
ATOM     37  N   UNL A   1      42.622  26.878  28.077  1.00  0.00    -0.248 NA
ATOM     38  C   UNL A   1      41.012  25.205  27.838  1.00  0.00     0.031 C 
ATOM     39  C   UNL A   1      45.776  23.993  26.782  1.00  0.00     0.029 A 
ATOM     40  N   UNL A   1      45.371  26.080  27.477  1.00  0.00    -0.354 N 
ATOM     41  C   UNL A   1      41.364  27.410  28.334  1.00  0.00     0.074 A 
ATOM     42  C   UNL A   1      40.405  26.352  28.106  1.00  0.00     0.031 C 
ATOM     43  C   UNL A   1      46.947  24.648  26.792  1.00  0.00     0.029 A 
ATOM     44  C   UNL A   1      46.720  26.023  27.226  1.00  0.00     0.049 A 
ATOM     45  H   UNL A   1      44.915  26.891  27.796  1.00  0.00     0.167 HD
ATOM     46  C   UNL A   1      41.039  28.659  28.746  1.00  0.00     0.037 A 
ATOM     47  C   UNL A   1      47.669  26.972  27.328  1.00  0.00     0.037 A 
ATOM     48  C   UNL A   1      41.998  29.704  29.001  1.00  0.00     0.049 A 
ATOM     49  C   UNL A   1      47.293  28.344  27.811  1.00  0.00     0.074 A 
ATOM     50  C   UNL A   1      41.778  30.973  29.507  1.00  0.00     0.029 A 
ATOM     51  N   UNL A   1      43.360  29.600  28.761  1.00  0.00    -0.354 N 
ATOM     52  N   UNL A   1      46.112  28.807  28.139  1.00  0.00    -0.248 NA
ATOM     53  C   UNL A   1      48.382  29.320  27.948  1.00  0.00     0.031 C 
ATOM     54  C   UNL A   1      43.000  31.654  29.526  1.00  0.00     0.029 A 
ATOM     55  C   UNL A   1      43.989  30.793  29.079  1.00  0.00     0.049 A 
ATOM     56  H   UNL A   1      43.813  28.797  28.415  1.00  0.00     0.167 HD
ATOM     57  C   UNL A   1      46.315  30.123  28.533  1.00  0.00     0.074 A 
ATOM     58  C   UNL A   1      47.737  30.376  28.423  1.00  0.00     0.031 C 
ATOM     59  C   UNL A   1      45.405  31.037  28.950  1.00  0.00     0.037 A 
BRANCH  46  60
ATOM     60  C   UNL A   1      39.580  28.963  28.937  1.00  0.00     0.057 A 
ATOM     61  C   UNL A   1      38.953  28.844  30.185  1.00  0.00     0.134 A 
ATOM     62  C   UNL A   1      38.791  29.387  27.860  1.00  0.00     0.134 A 
ATOM     63  F   UNL A   1      39.647  28.432  31.258  1.00  0.00    -0.206 F 
ATOM     64  C   UNL A   1      37.589  29.094  30.346  1.00  0.00     0.040 A 
ATOM     65  C   UNL A   1      37.433  29.670  28.014  1.00  0.00     0.040 A 
ATOM     66  F   UNL A   1      39.327  29.532  26.638  1.00  0.00    -0.206 F 
ATOM     67  C   UNL A   1      36.826  29.513  29.258  1.00  0.00     0.006 A 
ENDBRANCH  46  60
BRANCH  47  68
ATOM     68  C   UNL A   1      49.074  26.637  26.990  1.00  0.00     0.057 A 
ATOM     69  C   UNL A   1      49.575  26.845  25.701  1.00  0.00     0.134 A 
ATOM     70  C   UNL A   1      49.958  26.139  27.957  1.00  0.00     0.134 A 
ATOM     71  F   UNL A   1      48.773  27.303  24.730  1.00  0.00    -0.206 F 
ATOM     72  C   UNL A   1      50.906  26.567  25.382  1.00  0.00     0.040 A 
ATOM     73  C   UNL A   1      51.295  25.878  27.657  1.00  0.00     0.040 A 
ATOM     74  F   UNL A   1      49.538  25.927  29.212  1.00  0.00    -0.206 F 
ATOM     75  C   UNL A   1      51.772  26.090  26.364  1.00  0.00     0.006 A 
ENDBRANCH  47  68
BRANCH  59  76
ATOM     76  C   UNL A   1      45.922  32.397  29.322  1.00  0.00     0.057 A 
ATOM     77  C   UNL A   1      45.983  33.443  28.393  1.00  0.00     0.134 A 
ATOM     78  C   UNL A   1      46.335  32.670  30.632  1.00  0.00     0.134 A 
ATOM     79  F   UNL A   1      45.615  33.242  27.119  1.00  0.00    -0.206 F 
ATOM     80  C   UNL A   1      46.458  34.706  28.748  1.00  0.00     0.040 A 
ATOM     81  C   UNL A   1      46.788  33.937  31.006  1.00  0.00     0.040 A 
ATOM     82  F   UNL A   1      46.295  31.715  31.574  1.00  0.00    -0.206 F 
ATOM     83  C   UNL A   1      46.855  34.958  30.059  1.00  0.00     0.006 A 
ENDBRANCH  59  76
ENDBRANCH  33  34
ENDBRANCH  25  28
ENDBRANCH  23  24
ENDBRANCH  22  23
ENDBRANCH   1  22
TORSDOF 13
ENDMDL
