MODEL 1
REMARK VINA RESULT:     -10.3      0.000      0.000
REMARK SMILES CS(=O)(=O)NCC[NH2+]Cc1ccc(C(=O)NCCCNC(=O)c2ccc(-c3c4nc(c(-c5c(F)cccc5F)c5ccc([nH]5)c(-c5c(F)cccc5F)c5nc(c(-c6c(F)cccc6F)c6ccc3[nH]6)C=C5)C=C4)cc2)cn1
REMARK SMILES IDX 14 1 15 2 16 3 13 5 10 6 11 7 78 8 12 9 77 10 9 11 8 12 7 15
REMARK SMILES IDX 6 16 5 17 2 19 1 20 3 21 4 22 17 23 18 24 19 25 20 26 21 27
REMARK SMILES IDX 22 29 23 30 24 31 76 32 25 33 75 34 26 35 27 36 28 37 69 38
REMARK SMILES IDX 29 39 74 40 68 41 70 42 30 43 73 44 67 45 66 46 31 48 57 49
REMARK SMILES IDX 40 50 56 51 41 52 44 53 55 54 71 55 42 56 43 57 54 59 72 60
REMARK SMILES IDX 45 61 32 62 33 63 38 64 34 65 35 66 37 67 39 68 36 69 58 70
REMARK SMILES IDX 59 71 64 72 60 73 61 74 63 75 65 76 62 77 46 78 47 79 52 80
REMARK SMILES IDX 48 81 49 82 51 83 53 84 50 85
REMARK H PARENT 16 4 8 13 8 14 5 18 20 28 70 47 44 58
REMARK Flexibility Score: inf
ROOT
ATOM      1  C   UNL A   1      33.538  19.965  25.243  1.00  0.00     0.252 C 
ATOM      2  O   UNL A   1      32.836  18.985  25.495  1.00  0.00    -0.269 OA
ATOM      3  N   UNL A   1      34.901  19.817  25.304  1.00  0.00    -0.352 N 
ATOM      4  H   UNL A   1      35.199  18.937  25.631  1.00  0.00     0.163 HD
ENDROOT
BRANCH   1   5
ATOM      5  C   UNL A   1      32.888  21.227  24.836  1.00  0.00     0.058 A 
ATOM      6  C   UNL A   1      31.502  23.563  24.346  1.00  0.00     0.094 A 
ATOM      7  C   UNL A   1      31.932  22.786  23.271  1.00  0.00     0.030 A 
ATOM      8  N   UNL A   1      31.819  23.262  25.629  1.00  0.00    -0.255 NA
ATOM      9  C   UNL A   1      32.636  21.609  23.522  1.00  0.00     0.017 A 
ATOM     10  C   UNL A   1      32.511  22.112  25.840  1.00  0.00     0.125 A 
BRANCH   6  11
ATOM     11  C   UNL A   1      30.558  24.731  24.107  1.00  0.00     0.317 C 
BRANCH  11  12
ATOM     12  N   UNL A   1      30.841  25.915  24.948  1.00  0.00    -0.340 N 
ATOM     13  H   UNL A   1      30.397  25.793  25.858  1.00  0.00     0.346 HD
ATOM     14  H   UNL A   1      31.851  26.005  25.054  1.00  0.00     0.346 HD
BRANCH  12  15
ATOM     15  C   UNL A   1      30.323  27.142  24.320  1.00  0.00     0.277 C 
BRANCH  15  16
ATOM     16  C   UNL A   1      30.560  27.148  22.801  1.00  0.00     0.159 C 
BRANCH  16  17
ATOM     17  N   UNL A   1      31.820  27.790  22.390  1.00  0.00    -0.210 NA
ATOM     18  H   UNL A   1      31.636  28.216  21.482  1.00  0.00     0.141 HD
BRANCH  17  19
ATOM     19  S   UNL A   1      33.250  26.953  22.222  1.00  0.00     0.208 S 
ATOM     20  C   UNL A   1      32.844  25.666  21.062  1.00  0.00     0.176 C 
ATOM     21  O   UNL A   1      33.585  26.345  23.485  1.00  0.00    -0.213 OA
ATOM     22  O   UNL A   1      34.169  27.873  21.586  1.00  0.00    -0.213 OA
ENDBRANCH  17  19
ENDBRANCH  16  17
ENDBRANCH  15  16
ENDBRANCH  12  15
ENDBRANCH  11  12
ENDBRANCH   6  11
ENDBRANCH   1   5
BRANCH   3  23
ATOM     23  C   UNL A   1      35.983  20.728  24.971  1.00  0.00     0.118 C 
BRANCH  23  24
ATOM     24  C   UNL A   1      37.287  19.971  24.724  1.00  0.00     0.042 C 
BRANCH  24  25
ATOM     25  C   UNL A   1      38.457  20.483  25.559  1.00  0.00     0.118 C 
BRANCH  25  26
ATOM     26  N   UNL A   1      39.531  19.505  25.664  1.00  0.00    -0.352 N 
ATOM     27  C   UNL A   1      40.848  19.670  26.010  1.00  0.00     0.251 C 
ATOM     28  H   UNL A   1      39.270  18.579  25.454  1.00  0.00     0.163 HD
ATOM     29  O   UNL A   1      41.642  18.751  25.827  1.00  0.00    -0.269 OA
BRANCH  27  30
ATOM     30  C   UNL A   1      41.323  20.945  26.591  1.00  0.00     0.039 A 
ATOM     31  C   UNL A   1      41.863  21.913  25.739  1.00  0.00     0.014 A 
ATOM     32  C   UNL A   1      41.278  21.176  27.968  1.00  0.00     0.014 A 
ATOM     33  C   UNL A   1      42.304  23.131  26.261  1.00  0.00     0.010 A 
ATOM     34  C   UNL A   1      41.643  22.420  28.477  1.00  0.00     0.010 A 
ATOM     35  C   UNL A   1      42.165  23.408  27.631  1.00  0.00    -0.014 A 
BRANCH  35  36
ATOM     36  C   UNL A   1      42.559  24.726  28.192  1.00  0.00     0.031 A 
ATOM     37  C   UNL A   1      41.533  25.812  28.377  1.00  0.00     0.074 A 
ATOM     38  C   UNL A   1      43.853  24.966  28.480  1.00  0.00     0.049 A 
ATOM     39  N   UNL A   1      41.696  27.042  28.792  1.00  0.00    -0.248 NA
ATOM     40  C   UNL A   1      40.143  25.477  28.025  1.00  0.00     0.031 C 
ATOM     41  C   UNL A   1      44.948  24.010  28.305  1.00  0.00     0.029 A 
ATOM     42  N   UNL A   1      44.468  26.088  28.973  1.00  0.00    -0.354 N 
ATOM     43  C   UNL A   1      40.438  27.629  28.740  1.00  0.00     0.074 A 
ATOM     44  C   UNL A   1      39.532  26.640  28.199  1.00  0.00     0.031 C 
ATOM     45  C   UNL A   1      46.096  24.578  28.706  1.00  0.00     0.029 A 
ATOM     46  C   UNL A   1      45.827  25.950  29.124  1.00  0.00     0.049 A 
ATOM     47  H   UNL A   1      43.983  26.915  29.197  1.00  0.00     0.167 HD
ATOM     48  C   UNL A   1      40.066  28.873  29.131  1.00  0.00     0.037 A 
ATOM     49  C   UNL A   1      46.754  26.833  29.542  1.00  0.00     0.037 A 
ATOM     50  C   UNL A   1      40.970  29.849  29.682  1.00  0.00     0.049 A 
ATOM     51  C   UNL A   1      46.320  28.215  29.944  1.00  0.00     0.074 A 
ATOM     52  C   UNL A   1      40.683  31.118  30.154  1.00  0.00     0.029 A 
ATOM     53  N   UNL A   1      42.338  29.669  29.823  1.00  0.00    -0.354 N 
ATOM     54  N   UNL A   1      45.116  28.734  29.955  1.00  0.00    -0.248 NA
ATOM     55  C   UNL A   1      47.374  29.134  30.397  1.00  0.00     0.031 C 
ATOM     56  C   UNL A   1      41.885  31.726  30.528  1.00  0.00     0.029 A 
ATOM     57  C   UNL A   1      42.913  30.814  30.351  1.00  0.00     0.049 A 
ATOM     58  H   UNL A   1      42.828  28.849  29.585  1.00  0.00     0.167 HD
ATOM     59  C   UNL A   1      45.262  30.025  30.446  1.00  0.00     0.074 A 
ATOM     60  C   UNL A   1      46.670  30.205  30.736  1.00  0.00     0.031 C 
ATOM     61  C   UNL A   1      44.316  30.977  30.640  1.00  0.00     0.037 A 
BRANCH  48  62
ATOM     62  C   UNL A   1      38.619  29.247  28.974  1.00  0.00     0.057 A 
ATOM     63  C   UNL A   1      38.087  29.649  27.742  1.00  0.00     0.134 A 
ATOM     64  C   UNL A   1      37.738  29.170  30.061  1.00  0.00     0.134 A 
ATOM     65  F   UNL A   1      38.875  29.754  26.661  1.00  0.00    -0.206 F 
ATOM     66  C   UNL A   1      36.740  29.991  27.603  1.00  0.00     0.040 A 
ATOM     67  C   UNL A   1      36.383  29.477  29.927  1.00  0.00     0.040 A 
ATOM     68  F   UNL A   1      38.177  28.784  31.269  1.00  0.00    -0.206 F 
ATOM     69  C   UNL A   1      35.882  29.898  28.697  1.00  0.00     0.006 A 
ENDBRANCH  48  62
BRANCH  49  70
ATOM     70  C   UNL A   1      48.184  26.434  29.614  1.00  0.00     0.057 A 
ATOM     71  C   UNL A   1      49.043  26.621  28.525  1.00  0.00     0.134 A 
ATOM     72  C   UNL A   1      48.722  25.847  30.766  1.00  0.00     0.134 A 
ATOM     73  F   UNL A   1      48.583  27.162  27.388  1.00  0.00    -0.206 F 
ATOM     74  C   UNL A   1      50.378  26.215  28.568  1.00  0.00     0.040 A 
ATOM     75  C   UNL A   1      50.063  25.465  30.834  1.00  0.00     0.040 A 
ATOM     76  F   UNL A   1      47.956  25.649  31.848  1.00  0.00    -0.206 F 
ATOM     77  C   UNL A   1      50.893  25.641  29.727  1.00  0.00     0.006 A 
ENDBRANCH  49  70
BRANCH  61  78
ATOM     78  C   UNL A   1      44.764  32.283  31.232  1.00  0.00     0.057 A 
ATOM     79  C   UNL A   1      44.819  32.493  32.615  1.00  0.00     0.134 A 
ATOM     80  C   UNL A   1      45.181  33.333  30.403  1.00  0.00     0.134 A 
ATOM     81  F   UNL A   1      44.422  31.533  33.465  1.00  0.00    -0.206 F 
ATOM     82  C   UNL A   1      45.247  33.708  33.153  1.00  0.00     0.040 A 
ATOM     83  C   UNL A   1      45.642  34.540  30.929  1.00  0.00     0.040 A 
ATOM     84  F   UNL A   1      45.165  33.197  29.069  1.00  0.00    -0.206 F 
ATOM     85  C   UNL A   1      45.668  34.734  32.308  1.00  0.00     0.006 A 
ENDBRANCH  61  78
ENDBRANCH  35  36
ENDBRANCH  27  30
ENDBRANCH  25  26
ENDBRANCH  24  25
ENDBRANCH  23  24
ENDBRANCH   3  23
TORSDOF 16
ENDMDL
MODEL 2
REMARK VINA RESULT:     -10.2      3.875      8.756
REMARK SMILES CS(=O)(=O)NCC[NH2+]Cc1ccc(C(=O)NCCCNC(=O)c2ccc(-c3c4nc(c(-c5c(F)cccc5F)c5ccc([nH]5)c(-c5c(F)cccc5F)c5nc(c(-c6c(F)cccc6F)c6ccc3[nH]6)C=C5)C=C4)cc2)cn1
REMARK SMILES IDX 14 1 15 2 16 3 13 5 10 6 11 7 78 8 12 9 77 10 9 11 8 12 7 15
REMARK SMILES IDX 6 16 5 17 2 19 1 20 3 21 4 22 17 23 18 24 19 25 20 26 21 27
REMARK SMILES IDX 22 29 23 30 24 31 76 32 25 33 75 34 26 35 27 36 28 37 69 38
REMARK SMILES IDX 29 39 74 40 68 41 70 42 30 43 73 44 67 45 66 46 31 48 57 49
REMARK SMILES IDX 40 50 56 51 41 52 44 53 55 54 71 55 42 56 43 57 54 59 72 60
REMARK SMILES IDX 45 61 32 62 33 63 38 64 34 65 35 66 37 67 39 68 36 69 58 70
REMARK SMILES IDX 59 71 64 72 60 73 61 74 63 75 65 76 62 77 46 78 47 79 52 80
REMARK SMILES IDX 48 81 49 82 51 83 53 84 50 85
REMARK H PARENT 16 4 8 13 8 14 5 18 20 28 70 47 44 58
REMARK Flexibility Score: inf
ROOT
ATOM      1  C   UNL A   1      31.509  26.692  26.244  1.00  0.00     0.252 C 
ATOM      2  O   UNL A   1      31.020  27.028  27.322  1.00  0.00    -0.269 OA
ATOM      3  N   UNL A   1      31.358  27.537  25.173  1.00  0.00    -0.352 N 
ATOM      4  H   UNL A   1      30.785  28.318  25.352  1.00  0.00     0.163 HD
ENDROOT
BRANCH   1   5
ATOM      5  C   UNL A   1      32.280  25.433  26.167  1.00  0.00     0.058 A 
ATOM      6  C   UNL A   1      33.554  22.989  26.283  1.00  0.00     0.094 A 
ATOM      7  C   UNL A   1      34.241  24.093  25.782  1.00  0.00     0.030 A 
ATOM      8  N   UNL A   1      32.246  23.048  26.633  1.00  0.00    -0.255 NA
ATOM      9  C   UNL A   1      33.593  25.326  25.720  1.00  0.00     0.017 A 
ATOM     10  C   UNL A   1      31.641  24.262  26.555  1.00  0.00     0.125 A 
BRANCH   6  11
ATOM     11  C   UNL A   1      34.300  21.692  26.555  1.00  0.00     0.317 C 
BRANCH  11  12
ATOM     12  N   UNL A   1      33.425  20.502  26.646  1.00  0.00    -0.340 N 
ATOM     13  H   UNL A   1      33.756  19.900  27.399  1.00  0.00     0.346 HD
ATOM     14  H   UNL A   1      32.471  20.813  26.830  1.00  0.00     0.346 HD
BRANCH  12  15
ATOM     15  C   UNL A   1      33.436  19.743  25.384  1.00  0.00     0.277 C 
BRANCH  15  16
ATOM     16  C   UNL A   1      32.694  18.403  25.517  1.00  0.00     0.159 C 
BRANCH  16  17
ATOM     17  N   UNL A   1      33.544  17.286  25.963  1.00  0.00    -0.210 NA
ATOM     18  H   UNL A   1      34.437  17.701  26.230  1.00  0.00     0.141 HD
BRANCH  17  19
ATOM     19  S   UNL A   1      33.915  15.986  24.991  1.00  0.00     0.208 S 
ATOM     20  C   UNL A   1      32.704  14.764  25.452  1.00  0.00     0.176 C 
ATOM     21  O   UNL A   1      35.222  15.495  25.348  1.00  0.00    -0.213 OA
ATOM     22  O   UNL A   1      33.640  16.418  23.637  1.00  0.00    -0.213 OA
ENDBRANCH  17  19
ENDBRANCH  16  17
ENDBRANCH  15  16
ENDBRANCH  12  15
ENDBRANCH  11  12
ENDBRANCH   6  11
ENDBRANCH   1   5
BRANCH   3  23
ATOM     23  C   UNL A   1      31.891  27.484  23.822  1.00  0.00     0.118 C 
BRANCH  23  24
ATOM     24  C   UNL A   1      32.799  28.679  23.538  1.00  0.00     0.042 C 
BRANCH  24  25
ATOM     25  C   UNL A   1      33.524  29.202  24.774  1.00  0.00     0.118 C 
BRANCH  25  26
ATOM     26  N   UNL A   1      32.765  30.235  25.465  1.00  0.00    -0.352 N 
ATOM     27  C   UNL A   1      32.991  30.837  26.677  1.00  0.00     0.251 C 
ATOM     28  H   UNL A   1      31.965  30.551  24.987  1.00  0.00     0.163 HD
ATOM     29  O   UNL A   1      32.112  31.531  27.181  1.00  0.00    -0.269 OA
BRANCH  27  30
ATOM     30  C   UNL A   1      34.276  30.652  27.386  1.00  0.00     0.039 A 
ATOM     31  C   UNL A   1      35.048  31.779  27.685  1.00  0.00     0.014 A 
ATOM     32  C   UNL A   1      34.743  29.379  27.721  1.00  0.00     0.014 A 
ATOM     33  C   UNL A   1      36.257  31.632  28.367  1.00  0.00     0.010 A 
ATOM     34  C   UNL A   1      35.908  29.240  28.472  1.00  0.00     0.010 A 
ATOM     35  C   UNL A   1      36.680  30.364  28.798  1.00  0.00    -0.014 A 
BRANCH  35  36
ATOM     36  C   UNL A   1      37.926  30.198  29.591  1.00  0.00     0.031 A 
ATOM     37  C   UNL A   1      39.074  29.392  29.045  1.00  0.00     0.074 A 
ATOM     38  C   UNL A   1      38.000  30.723  30.829  1.00  0.00     0.049 A 
ATOM     39  N   UNL A   1      40.212  29.085  29.612  1.00  0.00    -0.248 NA
ATOM     40  C   UNL A   1      38.910  28.838  27.691  1.00  0.00     0.031 C 
ATOM     41  C   UNL A   1      36.939  31.488  31.487  1.00  0.00     0.029 A 
ATOM     42  N   UNL A   1      39.008  30.688  31.759  1.00  0.00    -0.354 N 
ATOM     43  C   UNL A   1      40.892  28.295  28.694  1.00  0.00     0.074 A 
ATOM     44  C   UNL A   1      40.016  28.122  27.556  1.00  0.00     0.031 C 
ATOM     45  C   UNL A   1      37.360  31.870  32.703  1.00  0.00     0.029 A 
ATOM     46  C   UNL A   1      38.701  31.340  32.929  1.00  0.00     0.049 A 
ATOM     47  H   UNL A   1      39.869  30.238  31.603  1.00  0.00     0.167 HD
ATOM     48  C   UNL A   1      42.143  27.781  28.781  1.00  0.00     0.037 A 
ATOM     49  C   UNL A   1      39.415  31.485  34.062  1.00  0.00     0.037 A 
ATOM     50  C   UNL A   1      43.016  27.968  29.911  1.00  0.00     0.049 A 
ATOM     51  C   UNL A   1      40.789  30.881  34.143  1.00  0.00     0.074 A 
ATOM     52  C   UNL A   1      44.319  27.530  30.074  1.00  0.00     0.029 A 
ATOM     53  N   UNL A   1      42.670  28.638  31.075  1.00  0.00    -0.354 N 
ATOM     54  N   UNL A   1      41.447  30.196  33.239  1.00  0.00    -0.248 NA
ATOM     55  C   UNL A   1      41.524  31.077  35.401  1.00  0.00     0.031 C 
ATOM     56  C   UNL A   1      44.741  27.886  31.359  1.00  0.00     0.029 A 
ATOM     57  C   UNL A   1      43.725  28.603  31.971  1.00  0.00     0.049 A 
ATOM     58  H   UNL A   1      41.803  29.075  31.239  1.00  0.00     0.167 HD
ATOM     59  C   UNL A   1      42.682  29.907  33.805  1.00  0.00     0.074 A 
ATOM     60  C   UNL A   1      42.688  30.505  35.124  1.00  0.00     0.031 C 
ATOM     61  C   UNL A   1      43.719  29.209  33.280  1.00  0.00     0.037 A 
BRANCH  48  62
ATOM     62  C   UNL A   1      42.641  26.965  27.621  1.00  0.00     0.057 A 
ATOM     63  C   UNL A   1      43.322  27.547  26.543  1.00  0.00     0.134 A 
ATOM     64  C   UNL A   1      42.469  25.575  27.597  1.00  0.00     0.134 A 
ATOM     65  F   UNL A   1      43.514  28.874  26.495  1.00  0.00    -0.206 F 
ATOM     66  C   UNL A   1      43.786  26.781  25.471  1.00  0.00     0.040 A 
ATOM     67  C   UNL A   1      42.956  24.795  26.547  1.00  0.00     0.040 A 
ATOM     68  F   UNL A   1      41.833  24.949  28.600  1.00  0.00    -0.206 F 
ATOM     69  C   UNL A   1      43.609  25.399  25.475  1.00  0.00     0.006 A 
ENDBRANCH  48  62
BRANCH  49  70
ATOM     70  C   UNL A   1      38.849  32.244  35.207  1.00  0.00     0.057 A 
ATOM     71  C   UNL A   1      38.908  33.642  35.247  1.00  0.00     0.134 A 
ATOM     72  C   UNL A   1      38.249  31.593  36.292  1.00  0.00     0.134 A 
ATOM     73  F   UNL A   1      39.485  34.322  34.247  1.00  0.00    -0.206 F 
ATOM     74  C   UNL A   1      38.414  34.364  36.335  1.00  0.00     0.040 A 
ATOM     75  C   UNL A   1      37.723  32.304  37.372  1.00  0.00     0.040 A 
ATOM     76  F   UNL A   1      38.151  30.256  36.312  1.00  0.00    -0.206 F 
ATOM     77  C   UNL A   1      37.814  33.695  37.399  1.00  0.00     0.006 A 
ENDBRANCH  49  70
BRANCH  61  78
ATOM     78  C   UNL A   1      44.963  29.091  34.114  1.00  0.00     0.057 A 
ATOM     79  C   UNL A   1      45.985  30.047  34.065  1.00  0.00     0.134 A 
ATOM     80  C   UNL A   1      45.121  28.023  35.007  1.00  0.00     0.134 A 
ATOM     81  F   UNL A   1      45.903  31.088  33.223  1.00  0.00    -0.206 F 
ATOM     82  C   UNL A   1      47.132  29.930  34.853  1.00  0.00     0.040 A 
ATOM     83  C   UNL A   1      46.247  27.913  35.824  1.00  0.00     0.040 A 
ATOM     84  F   UNL A   1      44.176  27.076  35.113  1.00  0.00    -0.206 F 
ATOM     85  C   UNL A   1      47.261  28.865  35.742  1.00  0.00     0.006 A 
ENDBRANCH  61  78
ENDBRANCH  35  36
ENDBRANCH  27  30
ENDBRANCH  25  26
ENDBRANCH  24  25
ENDBRANCH  23  24
ENDBRANCH   3  23
TORSDOF 16
ENDMDL
MODEL 3
REMARK VINA RESULT:     -10.1      1.547      2.191
REMARK SMILES CS(=O)(=O)NCC[NH2+]Cc1ccc(C(=O)NCCCNC(=O)c2ccc(-c3c4nc(c(-c5c(F)cccc5F)c5ccc([nH]5)c(-c5c(F)cccc5F)c5nc(c(-c6c(F)cccc6F)c6ccc3[nH]6)C=C5)C=C4)cc2)cn1
REMARK SMILES IDX 14 1 15 2 16 3 13 5 10 6 11 7 78 8 12 9 77 10 9 11 8 12 7 15
REMARK SMILES IDX 6 16 5 17 2 19 1 20 3 21 4 22 17 23 18 24 19 25 20 26 21 27
REMARK SMILES IDX 22 29 23 30 24 31 76 32 25 33 75 34 26 35 27 36 28 37 69 38
REMARK SMILES IDX 29 39 74 40 68 41 70 42 30 43 73 44 67 45 66 46 31 48 57 49
REMARK SMILES IDX 40 50 56 51 41 52 44 53 55 54 71 55 42 56 43 57 54 59 72 60
REMARK SMILES IDX 45 61 32 62 33 63 38 64 34 65 35 66 37 67 39 68 36 69 58 70
REMARK SMILES IDX 59 71 64 72 60 73 61 74 63 75 65 76 62 77 46 78 47 79 52 80
REMARK SMILES IDX 48 81 49 82 51 83 53 84 50 85
REMARK H PARENT 16 4 8 13 8 14 5 18 20 28 70 47 44 58
REMARK Flexibility Score: inf
ROOT
ATOM      1  C   UNL A   1      33.625  20.158  24.937  1.00  0.00     0.252 C 
ATOM      2  O   UNL A   1      32.809  19.251  25.103  1.00  0.00    -0.269 OA
ATOM      3  N   UNL A   1      34.947  19.895  25.194  1.00  0.00    -0.352 N 
ATOM      4  H   UNL A   1      35.115  19.003  25.575  1.00  0.00     0.163 HD
ENDROOT
BRANCH   1   5
ATOM      5  C   UNL A   1      33.153  21.459  24.419  1.00  0.00     0.058 A 
ATOM      6  C   UNL A   1      32.364  23.786  23.163  1.00  0.00     0.094 A 
ATOM      7  C   UNL A   1      32.813  23.841  24.481  1.00  0.00     0.030 A 
ATOM      8  N   UNL A   1      32.213  22.614  22.499  1.00  0.00    -0.255 NA
ATOM      9  C   UNL A   1      33.206  22.663  25.115  1.00  0.00     0.017 A 
ATOM     10  C   UNL A   1      32.598  21.484  23.145  1.00  0.00     0.125 A 
BRANCH   6  11
ATOM     11  C   UNL A   1      32.132  25.073  22.387  1.00  0.00     0.317 C 
BRANCH  11  12
ATOM     12  N   UNL A   1      31.141  25.980  23.009  1.00  0.00    -0.340 N 
ATOM     13  H   UNL A   1      30.202  25.656  22.782  1.00  0.00     0.346 HD
ATOM     14  H   UNL A   1      31.285  25.975  24.019  1.00  0.00     0.346 HD
BRANCH  12  15
ATOM     15  C   UNL A   1      31.309  27.358  22.518  1.00  0.00     0.277 C 
BRANCH  15  16
ATOM     16  C   UNL A   1      30.352  28.334  23.222  1.00  0.00     0.159 C 
BRANCH  16  17
ATOM     17  N   UNL A   1      29.163  28.689  22.429  1.00  0.00    -0.210 NA
ATOM     18  H   UNL A   1      29.484  28.780  21.465  1.00  0.00     0.141 HD
BRANCH  17  19
ATOM     19  S   UNL A   1      28.242  30.042  22.734  1.00  0.00     0.208 S 
ATOM     20  C   UNL A   1      28.068  30.797  21.131  1.00  0.00     0.176 C 
ATOM     21  O   UNL A   1      28.990  30.934  23.583  1.00  0.00    -0.213 OA
ATOM     22  O   UNL A   1      26.947  29.548  23.152  1.00  0.00    -0.213 OA
ENDBRANCH  17  19
ENDBRANCH  16  17
ENDBRANCH  15  16
ENDBRANCH  12  15
ENDBRANCH  11  12
ENDBRANCH   6  11
ENDBRANCH   1   5
BRANCH   3  23
ATOM     23  C   UNL A   1      36.142  20.699  25.003  1.00  0.00     0.118 C 
BRANCH  23  24
ATOM     24  C   UNL A   1      37.385  19.821  24.870  1.00  0.00     0.042 C 
BRANCH  24  25
ATOM     25  C   UNL A   1      38.626  20.418  25.524  1.00  0.00     0.118 C 
BRANCH  25  26
ATOM     26  N   UNL A   1      39.690  19.438  25.689  1.00  0.00    -0.352 N 
ATOM     27  C   UNL A   1      40.998  19.606  26.067  1.00  0.00     0.251 C 
ATOM     28  H   UNL A   1      39.430  18.508  25.501  1.00  0.00     0.163 HD
ATOM     29  O   UNL A   1      41.791  18.678  25.936  1.00  0.00    -0.269 OA
BRANCH  27  30
ATOM     30  C   UNL A   1      41.465  20.895  26.623  1.00  0.00     0.039 A 
ATOM     31  C   UNL A   1      42.013  21.844  25.753  1.00  0.00     0.014 A 
ATOM     32  C   UNL A   1      41.405  21.159  27.993  1.00  0.00     0.014 A 
ATOM     33  C   UNL A   1      42.447  23.074  26.251  1.00  0.00     0.010 A 
ATOM     34  C   UNL A   1      41.762  22.415  28.476  1.00  0.00     0.010 A 
ATOM     35  C   UNL A   1      42.293  23.384  27.612  1.00  0.00    -0.014 A 
BRANCH  35  36
ATOM     36  C   UNL A   1      42.678  24.716  28.146  1.00  0.00     0.031 A 
ATOM     37  C   UNL A   1      41.637  25.783  28.354  1.00  0.00     0.074 A 
ATOM     38  C   UNL A   1      43.976  24.985  28.387  1.00  0.00     0.049 A 
ATOM     39  N   UNL A   1      41.789  27.020  28.751  1.00  0.00    -0.248 NA
ATOM     40  C   UNL A   1      40.243  25.417  28.054  1.00  0.00     0.031 C 
ATOM     41  C   UNL A   1      45.084  24.049  28.183  1.00  0.00     0.029 A 
ATOM     42  N   UNL A   1      44.585  26.125  28.846  1.00  0.00    -0.354 N 
ATOM     43  C   UNL A   1      40.519  27.582  28.736  1.00  0.00     0.074 A 
ATOM     44  C   UNL A   1      39.615  26.568  28.237  1.00  0.00     0.031 C 
ATOM     45  C   UNL A   1      46.234  24.644  28.539  1.00  0.00     0.029 A 
ATOM     46  C   UNL A   1      45.951  26.015  28.952  1.00  0.00     0.049 A 
ATOM     47  H   UNL A   1      44.091  26.944  29.078  1.00  0.00     0.167 HD
ATOM     48  C   UNL A   1      40.135  28.822  29.127  1.00  0.00     0.037 A 
ATOM     49  C   UNL A   1      46.874  26.921  29.328  1.00  0.00     0.037 A 
ATOM     50  C   UNL A   1      41.037  29.822  29.636  1.00  0.00     0.049 A 
ATOM     51  C   UNL A   1      46.425  28.299  29.730  1.00  0.00     0.074 A 
ATOM     52  C   UNL A   1      40.741  31.091  30.104  1.00  0.00     0.029 A 
ATOM     53  N   UNL A   1      42.413  29.671  29.732  1.00  0.00    -0.354 N 
ATOM     54  N   UNL A   1      45.212  28.794  29.778  1.00  0.00    -0.248 NA
ATOM     55  C   UNL A   1      47.475  29.243  30.138  1.00  0.00     0.031 C 
ATOM     56  C   UNL A   1      41.943  31.727  30.430  1.00  0.00     0.029 A 
ATOM     57  C   UNL A   1      42.982  30.833  30.227  1.00  0.00     0.049 A 
ATOM     58  H   UNL A   1      42.911  28.858  29.486  1.00  0.00     0.167 HD
ATOM     59  C   UNL A   1      45.348  30.093  30.250  1.00  0.00     0.074 A 
ATOM     60  C   UNL A   1      46.761  30.304  30.489  1.00  0.00     0.031 C 
ATOM     61  C   UNL A   1      44.391  31.028  30.466  1.00  0.00     0.037 A 
BRANCH  48  62
ATOM     62  C   UNL A   1      38.676  29.165  29.016  1.00  0.00     0.057 A 
ATOM     63  C   UNL A   1      37.808  29.076  30.113  1.00  0.00     0.134 A 
ATOM     64  C   UNL A   1      38.139  29.625  27.807  1.00  0.00     0.134 A 
ATOM     65  F   UNL A   1      38.253  28.633  31.299  1.00  0.00    -0.206 F 
ATOM     66  C   UNL A   1      36.455  29.401  30.004  1.00  0.00     0.040 A 
ATOM     67  C   UNL A   1      36.794  29.984  27.694  1.00  0.00     0.040 A 
ATOM     68  F   UNL A   1      38.913  29.744  26.718  1.00  0.00    -0.206 F 
ATOM     69  C   UNL A   1      35.946  29.864  28.792  1.00  0.00     0.006 A 
ENDBRANCH  48  62
BRANCH  49  70
ATOM     70  C   UNL A   1      48.313  26.552  29.355  1.00  0.00     0.057 A 
ATOM     71  C   UNL A   1      49.150  26.825  28.268  1.00  0.00     0.134 A 
ATOM     72  C   UNL A   1      48.882  25.908  30.461  1.00  0.00     0.134 A 
ATOM     73  F   UNL A   1      48.661  27.424  27.173  1.00  0.00    -0.206 F 
ATOM     74  C   UNL A   1      50.495  26.449  28.267  1.00  0.00     0.040 A 
ATOM     75  C   UNL A   1      50.232  25.553  30.486  1.00  0.00     0.040 A 
ATOM     76  F   UNL A   1      48.137  25.626  31.540  1.00  0.00    -0.206 F 
ATOM     77  C   UNL A   1      51.040  25.816  29.381  1.00  0.00     0.006 A 
ENDBRANCH  49  70
BRANCH  61  78
ATOM     78  C   UNL A   1      44.832  32.348  31.029  1.00  0.00     0.057 A 
ATOM     79  C   UNL A   1      45.167  33.433  30.209  1.00  0.00     0.134 A 
ATOM     80  C   UNL A   1      44.885  32.547  32.415  1.00  0.00     0.134 A 
ATOM     81  F   UNL A   1      45.150  33.306  28.874  1.00  0.00    -0.206 F 
ATOM     82  C   UNL A   1      45.566  34.658  30.746  1.00  0.00     0.040 A 
ATOM     83  C   UNL A   1      45.250  33.777  32.964  1.00  0.00     0.040 A 
ATOM     84  F   UNL A   1      44.566  31.555  33.260  1.00  0.00    -0.206 F 
ATOM     85  C   UNL A   1      45.601  34.835  32.128  1.00  0.00     0.006 A 
ENDBRANCH  61  78
ENDBRANCH  35  36
ENDBRANCH  27  30
ENDBRANCH  25  26
ENDBRANCH  24  25
ENDBRANCH  23  24
ENDBRANCH   3  23
TORSDOF 16
ENDMDL
