MODEL 1
REMARK VINA RESULT:     -12.7      0.000      0.000
REMARK SMILES Cc1cccc(-c2cccc(O)c2)c1C(=O)NCCCNC(=O)c1ccc(-c2c3nc(c(-c4c(F)cccc4F)c4ccc([nH]4)c(-c4c(F)cccc4F)c4nc(c(-c5c(F)cccc5F)c5ccc2[nH]5)C=C4)C=C3)cc1
REMARK SMILES IDX 19 1 18 2 17 3 15 4 16 5 14 7 1 8 2 9 3 10 4 11 6 12 5 13
REMARK SMILES IDX 7 14 8 15 13 16 9 17 11 18 10 19 12 20 20 22 21 23 22 24
REMARK SMILES IDX 23 26 24 27 25 28 77 29 26 30 76 31 27 32 28 33 29 34 70 35
REMARK SMILES IDX 30 36 75 37 69 38 71 39 31 40 74 41 68 42 67 43 32 45 58 46
REMARK SMILES IDX 41 47 57 48 42 49 45 50 56 51 72 52 43 53 44 54 55 56 73 57
REMARK SMILES IDX 46 58 33 59 34 60 39 61 35 62 36 63 38 64 40 65 37 66 59 67
REMARK SMILES IDX 60 68 65 69 61 70 62 71 64 72 66 73 63 74 47 75 48 76 53 77
REMARK SMILES IDX 49 78 50 79 52 80 54 81 51 82
REMARK H PARENT 17 6 12 21 21 25 71 44 45 55
REMARK Flexibility Score: inf
ROOT
ATOM      1  C   UNL A   1      31.802  29.369  26.995  1.00  0.00     0.042 C 
ENDROOT
BRANCH   1   2
ATOM      2  C   UNL A   1      32.028  27.954  27.547  1.00  0.00     0.118 C 
BRANCH   2   3
ATOM      3  N   UNL A   1      31.027  27.037  27.029  1.00  0.00    -0.352 N 
ATOM      4  C   UNL A   1      30.689  26.450  25.833  1.00  0.00     0.252 C 
ATOM      5  O   UNL A   1      29.608  25.862  25.921  1.00  0.00    -0.269 OA
ATOM      6  H   UNL A   1      30.411  26.753  27.742  1.00  0.00     0.163 HD
BRANCH   4   7
ATOM      7  C   UNL A   1      31.470  26.424  24.523  1.00  0.00     0.050 A 
ATOM      8  C   UNL A   1      33.458  24.952  25.325  1.00  0.00     0.045 C 
ATOM      9  C   UNL A   1      32.649  25.662  24.289  1.00  0.00    -0.038 A 
ATOM     10  C   UNL A   1      33.246  25.616  23.006  1.00  0.00     0.004 A 
ATOM     11  C   UNL A   1      32.798  26.408  21.973  1.00  0.00     0.001 A 
ATOM     12  C   UNL A   1      31.050  27.298  23.457  1.00  0.00    -0.005 A 
ATOM     13  C   UNL A   1      31.739  27.263  22.212  1.00  0.00     0.009 A 
BRANCH  12  14
ATOM     14  C   UNL A   1      29.982  28.334  23.503  1.00  0.00    -0.014 A 
ATOM     15  C   UNL A   1      30.285  29.703  23.624  1.00  0.00     0.009 A 
ATOM     16  C   UNL A   1      28.645  27.993  23.225  1.00  0.00     0.055 A 
ATOM     17  C   UNL A   1      29.289  30.682  23.540  1.00  0.00     0.004 A 
ATOM     18  C   UNL A   1      27.667  28.977  23.090  1.00  0.00     0.116 A 
ATOM     19  C   UNL A   1      27.975  30.321  23.262  1.00  0.00     0.046 A 
BRANCH  18  20
ATOM     20  O   UNL A   1      26.407  28.578  22.751  1.00  0.00    -0.508 OA
ATOM     21  H   UNL A   1      26.265  27.724  22.392  1.00  0.00     0.293 HD
ENDBRANCH  18  20
ENDBRANCH  12  14
ENDBRANCH   4   7
ENDBRANCH   2   3
ENDBRANCH   1   2
BRANCH   1  22
ATOM     22  C   UNL A   1      33.047  30.162  26.633  1.00  0.00     0.118 C 
BRANCH  22  23
ATOM     23  N   UNL A   1      33.318  31.271  27.549  1.00  0.00    -0.352 N 
ATOM     24  C   UNL A   1      34.420  31.449  28.378  1.00  0.00     0.251 C 
ATOM     25  H   UNL A   1      32.637  31.980  27.581  1.00  0.00     0.163 HD
ATOM     26  O   UNL A   1      34.574  32.470  29.019  1.00  0.00    -0.269 OA
BRANCH  24  27
ATOM     27  C   UNL A   1      35.469  30.404  28.342  1.00  0.00     0.039 A 
ATOM     28  C   UNL A   1      35.725  29.733  29.537  1.00  0.00     0.014 A 
ATOM     29  C   UNL A   1      36.393  30.404  27.301  1.00  0.00     0.014 A 
ATOM     30  C   UNL A   1      37.026  29.329  29.808  1.00  0.00     0.010 A 
ATOM     31  C   UNL A   1      37.703  30.081  27.600  1.00  0.00     0.010 A 
ATOM     32  C   UNL A   1      38.029  29.627  28.884  1.00  0.00    -0.014 A 
BRANCH  32  33
ATOM     33  C   UNL A   1      39.444  29.573  29.235  1.00  0.00     0.031 A 
ATOM     34  C   UNL A   1      40.205  28.333  29.010  1.00  0.00     0.074 A 
ATOM     35  C   UNL A   1      40.067  30.624  29.812  1.00  0.00     0.049 A 
ATOM     36  N   UNL A   1      41.173  27.935  29.765  1.00  0.00    -0.248 NA
ATOM     37  C   UNL A   1      39.894  27.417  27.923  1.00  0.00     0.031 C 
ATOM     38  C   UNL A   1      41.494  30.751  30.102  1.00  0.00     0.029 A 
ATOM     39  N   UNL A   1      39.482  31.709  30.476  1.00  0.00    -0.354 N 
ATOM     40  C   UNL A   1      41.782  26.879  29.132  1.00  0.00     0.074 A 
ATOM     41  C   UNL A   1      40.908  26.553  28.025  1.00  0.00     0.031 C 
ATOM     42  C   UNL A   1      41.654  31.621  31.110  1.00  0.00     0.029 A 
ATOM     43  C   UNL A   1      40.334  32.016  31.564  1.00  0.00     0.049 A 
ATOM     44  H   UNL A   1      38.645  32.167  30.234  1.00  0.00     0.167 HD
ATOM     45  C   UNL A   1      43.021  26.476  29.533  1.00  0.00     0.037 A 
ATOM     46  C   UNL A   1      39.878  31.960  32.848  1.00  0.00     0.037 A 
ATOM     47  C   UNL A   1      43.513  27.260  30.667  1.00  0.00     0.049 A 
ATOM     48  C   UNL A   1      40.548  30.908  33.704  1.00  0.00     0.074 A 
ATOM     49  C   UNL A   1      44.387  28.327  30.796  1.00  0.00     0.029 A 
ATOM     50  N   UNL A   1      42.864  27.159  31.885  1.00  0.00    -0.354 N 
ATOM     51  N   UNL A   1      41.533  30.148  33.312  1.00  0.00    -0.248 NA
ATOM     52  C   UNL A   1      40.076  30.556  35.045  1.00  0.00     0.031 C 
ATOM     53  C   UNL A   1      44.261  28.857  32.112  1.00  0.00     0.029 A 
ATOM     54  C   UNL A   1      43.310  28.113  32.782  1.00  0.00     0.049 A 
ATOM     55  H   UNL A   1      42.170  26.492  32.088  1.00  0.00     0.167 HD
ATOM     56  C   UNL A   1      41.774  29.191  34.263  1.00  0.00     0.074 A 
ATOM     57  C   UNL A   1      40.840  29.490  35.332  1.00  0.00     0.031 C 
ATOM     58  C   UNL A   1      42.684  28.188  34.093  1.00  0.00     0.037 A 
BRANCH  45  59
ATOM     59  C   UNL A   1      43.884  25.551  28.708  1.00  0.00     0.057 A 
ATOM     60  C   UNL A   1      43.977  24.180  29.011  1.00  0.00     0.134 A 
ATOM     61  C   UNL A   1      44.689  25.963  27.631  1.00  0.00     0.134 A 
ATOM     62  F   UNL A   1      43.180  23.601  29.917  1.00  0.00    -0.206 F 
ATOM     63  C   UNL A   1      44.902  23.327  28.395  1.00  0.00     0.040 A 
ATOM     64  C   UNL A   1      45.663  25.140  27.049  1.00  0.00     0.040 A 
ATOM     65  F   UNL A   1      44.532  27.167  27.063  1.00  0.00    -0.206 F 
ATOM     66  C   UNL A   1      45.785  23.817  27.446  1.00  0.00     0.006 A 
ENDBRANCH  45  59
BRANCH  46  67
ATOM     67  C   UNL A   1      38.459  32.389  32.949  1.00  0.00     0.057 A 
ATOM     68  C   UNL A   1      38.174  33.759  32.795  1.00  0.00     0.134 A 
ATOM     69  C   UNL A   1      37.409  31.491  32.752  1.00  0.00     0.134 A 
ATOM     70  F   UNL A   1      39.136  34.675  32.991  1.00  0.00    -0.206 F 
ATOM     71  C   UNL A   1      36.947  34.201  32.299  1.00  0.00     0.040 A 
ATOM     72  C   UNL A   1      36.168  31.927  32.283  1.00  0.00     0.040 A 
ATOM     73  F   UNL A   1      37.604  30.170  32.885  1.00  0.00    -0.206 F 
ATOM     74  C   UNL A   1      35.954  33.276  31.999  1.00  0.00     0.006 A 
ENDBRANCH  46  67
BRANCH  58  75
ATOM     75  C   UNL A   1      43.027  27.180  35.159  1.00  0.00     0.057 A 
ATOM     76  C   UNL A   1      44.256  27.183  35.837  1.00  0.00     0.134 A 
ATOM     77  C   UNL A   1      42.178  26.096  35.461  1.00  0.00     0.134 A 
ATOM     78  F   UNL A   1      45.199  28.097  35.561  1.00  0.00    -0.206 F 
ATOM     79  C   UNL A   1      44.582  26.227  36.807  1.00  0.00     0.040 A 
ATOM     80  C   UNL A   1      42.513  25.107  36.391  1.00  0.00     0.040 A 
ATOM     81  F   UNL A   1      40.979  25.953  34.881  1.00  0.00    -0.206 F 
ATOM     82  C   UNL A   1      43.712  25.180  37.083  1.00  0.00     0.006 A 
ENDBRANCH  58  75
ENDBRANCH  32  33
ENDBRANCH  24  27
ENDBRANCH  22  23
ENDBRANCH   1  22
TORSDOF 12
ENDMDL
MODEL 2
REMARK VINA RESULT:     -12.7      2.104      2.997
REMARK SMILES Cc1cccc(-c2cccc(O)c2)c1C(=O)NCCCNC(=O)c1ccc(-c2c3nc(c(-c4c(F)cccc4F)c4ccc([nH]4)c(-c4c(F)cccc4F)c4nc(c(-c5c(F)cccc5F)c5ccc2[nH]5)C=C4)C=C3)cc1
REMARK SMILES IDX 19 1 18 2 17 3 15 4 16 5 14 7 1 8 2 9 3 10 4 11 6 12 5 13
REMARK SMILES IDX 7 14 8 15 13 16 9 17 11 18 10 19 12 20 20 22 21 23 22 24
REMARK SMILES IDX 23 26 24 27 25 28 77 29 26 30 76 31 27 32 28 33 29 34 70 35
REMARK SMILES IDX 30 36 75 37 69 38 71 39 31 40 74 41 68 42 67 43 32 45 58 46
REMARK SMILES IDX 41 47 57 48 42 49 45 50 56 51 72 52 43 53 44 54 55 56 73 57
REMARK SMILES IDX 46 58 33 59 34 60 39 61 35 62 36 63 38 64 40 65 37 66 59 67
REMARK SMILES IDX 60 68 65 69 61 70 62 71 64 72 66 73 63 74 47 75 48 76 53 77
REMARK SMILES IDX 49 78 50 79 52 80 54 81 51 82
REMARK H PARENT 17 6 12 21 21 25 71 44 45 55
REMARK Flexibility Score: inf
ROOT
ATOM      1  C   UNL A   1      33.141  30.440  27.280  1.00  0.00     0.042 C 
ENDROOT
BRANCH   1   2
ATOM      2  C   UNL A   1      32.536  29.775  26.035  1.00  0.00     0.118 C 
BRANCH   2   3
ATOM      3  N   UNL A   1      31.827  28.559  26.399  1.00  0.00    -0.352 N 
ATOM      4  C   UNL A   1      31.403  27.398  25.799  1.00  0.00     0.252 C 
ATOM      5  O   UNL A   1      30.674  26.752  26.558  1.00  0.00    -0.269 OA
ATOM      6  H   UNL A   1      31.579  28.571  27.351  1.00  0.00     0.163 HD
BRANCH   4   7
ATOM      7  C   UNL A   1      31.741  26.852  24.416  1.00  0.00     0.050 A 
ATOM      8  C   UNL A   1      34.011  25.736  25.023  1.00  0.00     0.045 C 
ATOM      9  C   UNL A   1      32.858  26.023  24.116  1.00  0.00    -0.038 A 
ATOM     10  C   UNL A   1      33.034  25.475  22.822  1.00  0.00     0.004 A 
ATOM     11  C   UNL A   1      32.216  25.828  21.772  1.00  0.00     0.001 A 
ATOM     12  C   UNL A   1      30.933  27.268  23.298  1.00  0.00    -0.005 A 
ATOM     13  C   UNL A   1      31.206  26.741  22.004  1.00  0.00     0.009 A 
BRANCH  12  14
ATOM     14  C   UNL A   1      29.837  28.276  23.297  1.00  0.00    -0.014 A 
ATOM     15  C   UNL A   1      30.089  29.641  23.071  1.00  0.00     0.009 A 
ATOM     16  C   UNL A   1      28.491  27.865  23.324  1.00  0.00     0.055 A 
ATOM     17  C   UNL A   1      29.047  30.566  22.946  1.00  0.00     0.004 A 
ATOM     18  C   UNL A   1      27.458  28.784  23.146  1.00  0.00     0.116 A 
ATOM     19  C   UNL A   1      27.724  30.136  22.974  1.00  0.00     0.046 A 
BRANCH  18  20
ATOM     20  O   UNL A   1      26.180  28.305  23.114  1.00  0.00    -0.508 OA
ATOM     21  H   UNL A   1      25.819  27.984  22.311  1.00  0.00     0.293 HD
ENDBRANCH  18  20
ENDBRANCH  12  14
ENDBRANCH   4   7
ENDBRANCH   2   3
ENDBRANCH   1   2
BRANCH   1  22
ATOM     22  C   UNL A   1      34.556  30.026  27.649  1.00  0.00     0.118 C 
BRANCH  22  23
ATOM     23  N   UNL A   1      35.148  30.850  28.705  1.00  0.00    -0.352 N 
ATOM     24  C   UNL A   1      36.390  30.703  29.313  1.00  0.00     0.251 C 
ATOM     25  H   UNL A   1      34.600  31.601  29.024  1.00  0.00     0.163 HD
ATOM     26  O   UNL A   1      36.807  31.519  30.111  1.00  0.00    -0.269 OA
BRANCH  24  27
ATOM     27  C   UNL A   1      37.243  29.586  28.846  1.00  0.00     0.039 A 
ATOM     28  C   UNL A   1      37.573  28.614  29.790  1.00  0.00     0.014 A 
ATOM     29  C   UNL A   1      37.983  29.738  27.677  1.00  0.00     0.014 A 
ATOM     30  C   UNL A   1      38.821  28.008  29.713  1.00  0.00     0.010 A 
ATOM     31  C   UNL A   1      39.257  29.203  27.644  1.00  0.00     0.010 A 
ATOM     32  C   UNL A   1      39.703  28.409  28.707  1.00  0.00    -0.014 A 
BRANCH  32  33
ATOM     33  C   UNL A   1      41.129  28.107  28.764  1.00  0.00     0.031 A 
ATOM     34  C   UNL A   1      41.633  26.855  28.178  1.00  0.00     0.074 A 
ATOM     35  C   UNL A   1      41.999  28.930  29.391  1.00  0.00     0.049 A 
ATOM     36  N   UNL A   1      42.636  26.192  28.648  1.00  0.00    -0.248 NA
ATOM     37  C   UNL A   1      41.006  26.230  27.024  1.00  0.00     0.031 C 
ATOM     38  C   UNL A   1      43.456  28.815  29.419  1.00  0.00     0.029 A 
ATOM     39  N   UNL A   1      41.712  29.919  30.340  1.00  0.00    -0.354 N 
ATOM     40  C   UNL A   1      42.955  25.222  27.730  1.00  0.00     0.074 A 
ATOM     41  C   UNL A   1      41.871  25.244  26.771  1.00  0.00     0.031 C 
ATOM     42  C   UNL A   1      43.915  29.431  30.518  1.00  0.00     0.029 A 
ATOM     43  C   UNL A   1      42.769  29.885  31.281  1.00  0.00     0.049 A 
ATOM     44  H   UNL A   1      40.931  30.519  30.350  1.00  0.00     0.167 HD
ATOM     45  C   UNL A   1      44.163  24.593  27.805  1.00  0.00     0.037 A 
ATOM     46  C   UNL A   1      42.526  29.623  32.598  1.00  0.00     0.037 A 
ATOM     47  C   UNL A   1      44.953  25.058  28.946  1.00  0.00     0.049 A 
ATOM     48  C   UNL A   1      43.150  28.342  33.105  1.00  0.00     0.074 A 
ATOM     49  C   UNL A   1      45.997  25.958  29.095  1.00  0.00     0.029 A 
ATOM     50  N   UNL A   1      44.505  24.790  30.227  1.00  0.00    -0.354 N 
ATOM     51  N   UNL A   1      43.923  27.562  32.399  1.00  0.00    -0.248 NA
ATOM     52  C   UNL A   1      42.854  27.782  34.425  1.00  0.00     0.031 C 
ATOM     53  C   UNL A   1      46.175  26.216  30.485  1.00  0.00     0.029 A 
ATOM     54  C   UNL A   1      45.239  25.475  31.179  1.00  0.00     0.049 A 
ATOM     55  H   UNL A   1      43.755  24.187  30.436  1.00  0.00     0.167 HD
ATOM     56  C   UNL A   1      44.160  26.407  33.098  1.00  0.00     0.074 A 
ATOM     57  C   UNL A   1      43.473  26.593  34.363  1.00  0.00     0.031 C 
ATOM     58  C   UNL A   1      44.857  25.355  32.577  1.00  0.00     0.037 A 
BRANCH  45  59
ATOM     59  C   UNL A   1      44.718  23.758  26.676  1.00  0.00     0.057 A 
ATOM     60  C   UNL A   1      44.248  22.454  26.437  1.00  0.00     0.134 A 
ATOM     61  C   UNL A   1      45.757  24.165  25.822  1.00  0.00     0.134 A 
ATOM     62  F   UNL A   1      43.177  21.961  27.071  1.00  0.00    -0.206 F 
ATOM     63  C   UNL A   1      44.860  21.581  25.528  1.00  0.00     0.040 A 
ATOM     64  C   UNL A   1      46.421  23.286  24.955  1.00  0.00     0.040 A 
ATOM     65  F   UNL A   1      46.142  25.448  25.753  1.00  0.00    -0.206 F 
ATOM     66  C   UNL A   1      45.983  21.978  24.819  1.00  0.00     0.006 A 
ENDBRANCH  45  59
BRANCH  46  67
ATOM     67  C   UNL A   1      41.231  30.196  33.045  1.00  0.00     0.057 A 
ATOM     68  C   UNL A   1      41.154  31.591  33.221  1.00  0.00     0.134 A 
ATOM     69  C   UNL A   1      40.029  29.506  32.874  1.00  0.00     0.134 A 
ATOM     70  F   UNL A   1      42.273  32.309  33.412  1.00  0.00    -0.206 F 
ATOM     71  C   UNL A   1      39.955  32.286  33.061  1.00  0.00     0.040 A 
ATOM     72  C   UNL A   1      38.819  30.192  32.741  1.00  0.00     0.040 A 
ATOM     73  F   UNL A   1      40.022  28.176  32.704  1.00  0.00    -0.206 F 
ATOM     74  C   UNL A   1      38.789  31.586  32.775  1.00  0.00     0.006 A 
ENDBRANCH  46  67
BRANCH  58  75
ATOM     75  C   UNL A   1      45.203  24.113  33.358  1.00  0.00     0.057 A 
ATOM     76  C   UNL A   1      44.298  23.055  33.538  1.00  0.00     0.134 A 
ATOM     77  C   UNL A   1      46.420  23.987  34.058  1.00  0.00     0.134 A 
ATOM     78  F   UNL A   1      43.063  23.102  33.016  1.00  0.00    -0.206 F 
ATOM     79  C   UNL A   1      44.613  21.916  34.289  1.00  0.00     0.040 A 
ATOM     80  C   UNL A   1      46.727  22.877  34.852  1.00  0.00     0.040 A 
ATOM     81  F   UNL A   1      47.374  24.926  33.994  1.00  0.00    -0.206 F 
ATOM     82  C   UNL A   1      45.830  21.826  34.954  1.00  0.00     0.006 A 
ENDBRANCH  58  75
ENDBRANCH  32  33
ENDBRANCH  24  27
ENDBRANCH  22  23
ENDBRANCH   1  22
TORSDOF 12
ENDMDL
MODEL 3
REMARK VINA RESULT:     -12.5      4.219      9.224
REMARK SMILES Cc1cccc(-c2cccc(O)c2)c1C(=O)NCCCNC(=O)c1ccc(-c2c3nc(c(-c4c(F)cccc4F)c4ccc([nH]4)c(-c4c(F)cccc4F)c4nc(c(-c5c(F)cccc5F)c5ccc2[nH]5)C=C4)C=C3)cc1
REMARK SMILES IDX 19 1 18 2 17 3 15 4 16 5 14 7 1 8 2 9 3 10 4 11 6 12 5 13
REMARK SMILES IDX 7 14 8 15 13 16 9 17 11 18 10 19 12 20 20 22 21 23 22 24
REMARK SMILES IDX 23 26 24 27 25 28 77 29 26 30 76 31 27 32 28 33 29 34 70 35
REMARK SMILES IDX 30 36 75 37 69 38 71 39 31 40 74 41 68 42 67 43 32 45 58 46
REMARK SMILES IDX 41 47 57 48 42 49 45 50 56 51 72 52 43 53 44 54 55 56 73 57
REMARK SMILES IDX 46 58 33 59 34 60 39 61 35 62 36 63 38 64 40 65 37 66 59 67
REMARK SMILES IDX 60 68 65 69 61 70 62 71 64 72 66 73 63 74 47 75 48 76 53 77
REMARK SMILES IDX 49 78 50 79 52 80 54 81 51 82
REMARK H PARENT 17 6 12 21 21 25 71 44 45 55
REMARK Flexibility Score: inf
ROOT
ATOM      1  C   UNL A   1      38.470  22.254  25.636  1.00  0.00     0.042 C 
ENDROOT
BRANCH   1   2
ATOM      2  C   UNL A   1      36.941  22.147  25.714  1.00  0.00     0.118 C 
BRANCH   2   3
ATOM      3  N   UNL A   1      36.334  22.553  24.457  1.00  0.00    -0.352 N 
ATOM      4  C   UNL A   1      35.078  22.770  23.943  1.00  0.00     0.252 C 
ATOM      5  O   UNL A   1      35.127  22.948  22.723  1.00  0.00    -0.269 OA
ATOM      6  H   UNL A   1      37.024  22.720  23.775  1.00  0.00     0.163 HD
BRANCH   4   7
ATOM      7  C   UNL A   1      33.742  22.844  24.674  1.00  0.00     0.050 A 
ATOM      8  C   UNL A   1      34.059  25.191  25.752  1.00  0.00     0.045 C 
ATOM      9  C   UNL A   1      33.263  23.979  25.389  1.00  0.00    -0.038 A 
ATOM     10  C   UNL A   1      31.962  23.994  25.947  1.00  0.00     0.004 A 
ATOM     11  C   UNL A   1      31.163  22.873  25.943  1.00  0.00     0.001 A 
ATOM     12  C   UNL A   1      32.926  21.658  24.734  1.00  0.00    -0.005 A 
ATOM     13  C   UNL A   1      31.658  21.715  25.377  1.00  0.00     0.009 A 
BRANCH  12  14
ATOM     14  C   UNL A   1      33.274  20.294  24.249  1.00  0.00    -0.014 A 
ATOM     15  C   UNL A   1      34.307  19.542  24.837  1.00  0.00     0.009 A 
ATOM     16  C   UNL A   1      32.448  19.636  23.318  1.00  0.00     0.055 A 
ATOM     17  C   UNL A   1      34.549  18.215  24.465  1.00  0.00     0.004 A 
ATOM     18  C   UNL A   1      32.662  18.299  22.990  1.00  0.00     0.116 A 
ATOM     19  C   UNL A   1      33.718  17.586  23.544  1.00  0.00     0.046 A 
BRANCH  18  20
ATOM     20  O   UNL A   1      31.780  17.706  22.134  1.00  0.00    -0.508 OA
ATOM     21  H   UNL A   1      30.926  18.071  22.013  1.00  0.00     0.293 HD
ENDBRANCH  18  20
ENDBRANCH  12  14
ENDBRANCH   4   7
ENDBRANCH   2   3
ENDBRANCH   1   2
BRANCH   1  22
ATOM     22  C   UNL A   1      39.168  22.885  26.831  1.00  0.00     0.118 C 
BRANCH  22  23
ATOM     23  N   UNL A   1      40.577  23.197  26.586  1.00  0.00    -0.352 N 
ATOM     24  C   UNL A   1      41.176  24.448  26.500  1.00  0.00     0.251 C 
ATOM     25  H   UNL A   1      41.175  22.425  26.467  1.00  0.00     0.163 HD
ATOM     26  O   UNL A   1      42.380  24.570  26.392  1.00  0.00    -0.269 OA
BRANCH  24  27
ATOM     27  C   UNL A   1      40.302  25.630  26.685  1.00  0.00     0.039 A 
ATOM     28  C   UNL A   1      40.772  26.842  26.178  1.00  0.00     0.014 A 
ATOM     29  C   UNL A   1      39.301  25.591  27.652  1.00  0.00     0.014 A 
ATOM     30  C   UNL A   1      40.465  28.012  26.861  1.00  0.00     0.010 A 
ATOM     31  C   UNL A   1      39.063  26.740  28.383  1.00  0.00     0.010 A 
ATOM     32  C   UNL A   1      39.716  27.929  28.036  1.00  0.00    -0.014 A 
BRANCH  32  33
ATOM     33  C   UNL A   1      39.656  29.028  28.994  1.00  0.00     0.031 A 
ATOM     34  C   UNL A   1      38.617  30.061  28.854  1.00  0.00     0.074 A 
ATOM     35  C   UNL A   1      40.569  29.150  29.984  1.00  0.00     0.049 A 
ATOM     36  N   UNL A   1      38.787  31.301  29.172  1.00  0.00    -0.248 NA
ATOM     37  C   UNL A   1      37.304  29.773  28.298  1.00  0.00     0.031 C 
ATOM     38  C   UNL A   1      40.558  30.122  31.075  1.00  0.00     0.029 A 
ATOM     39  N   UNL A   1      41.834  28.556  30.062  1.00  0.00    -0.354 N 
ATOM     40  C   UNL A   1      37.557  31.910  29.124  1.00  0.00     0.074 A 
ATOM     41  C   UNL A   1      36.681  30.935  28.509  1.00  0.00     0.031 C 
ATOM     42  C   UNL A   1      41.815  30.299  31.507  1.00  0.00     0.029 A 
ATOM     43  C   UNL A   1      42.689  29.518  30.652  1.00  0.00     0.049 A 
ATOM     44  H   UNL A   1      42.080  27.650  29.766  1.00  0.00     0.167 HD
ATOM     45  C   UNL A   1      37.381  33.122  29.722  1.00  0.00     0.037 A 
ATOM     46  C   UNL A   1      43.785  29.982  29.987  1.00  0.00     0.037 A 
ATOM     47  C   UNL A   1      38.617  33.623  30.324  1.00  0.00     0.049 A 
ATOM     48  C   UNL A   1      43.735  31.457  29.654  1.00  0.00     0.074 A 
ATOM     49  C   UNL A   1      39.125  33.641  31.613  1.00  0.00     0.029 A 
ATOM     50  N   UNL A   1      39.678  33.956  29.500  1.00  0.00    -0.354 N 
ATOM     51  N   UNL A   1      42.781  32.269  30.017  1.00  0.00    -0.248 NA
ATOM     52  C   UNL A   1      44.714  32.108  28.781  1.00  0.00     0.031 C 
ATOM     53  C   UNL A   1      40.502  34.002  31.551  1.00  0.00     0.029 A 
ATOM     54  C   UNL A   1      40.831  34.201  30.225  1.00  0.00     0.049 A 
ATOM     55  H   UNL A   1      39.620  34.011  28.519  1.00  0.00     0.167 HD
ATOM     56  C   UNL A   1      42.954  33.480  29.398  1.00  0.00     0.074 A 
ATOM     57  C   UNL A   1      44.182  33.332  28.638  1.00  0.00     0.031 C 
ATOM     58  C   UNL A   1      42.058  34.503  29.506  1.00  0.00     0.037 A 
BRANCH  45  59
ATOM     59  C   UNL A   1      36.014  33.709  29.988  1.00  0.00     0.057 A 
ATOM     60  C   UNL A   1      35.217  34.200  28.938  1.00  0.00     0.134 A 
ATOM     61  C   UNL A   1      35.450  33.865  31.266  1.00  0.00     0.134 A 
ATOM     62  F   UNL A   1      35.545  34.012  27.654  1.00  0.00    -0.206 F 
ATOM     63  C   UNL A   1      34.034  34.918  29.154  1.00  0.00     0.040 A 
ATOM     64  C   UNL A   1      34.303  34.634  31.504  1.00  0.00     0.040 A 
ATOM     65  F   UNL A   1      35.959  33.236  32.335  1.00  0.00    -0.206 F 
ATOM     66  C   UNL A   1      33.598  35.183  30.443  1.00  0.00     0.006 A 
ENDBRANCH  45  59
BRANCH  46  67
ATOM     67  C   UNL A   1      44.416  28.925  29.157  1.00  0.00     0.057 A 
ATOM     68  C   UNL A   1      45.138  27.913  29.818  1.00  0.00     0.134 A 
ATOM     69  C   UNL A   1      43.975  28.653  27.860  1.00  0.00     0.134 A 
ATOM     70  F   UNL A   1      45.608  28.121  31.058  1.00  0.00    -0.206 F 
ATOM     71  C   UNL A   1      45.263  26.631  29.282  1.00  0.00     0.040 A 
ATOM     72  C   UNL A   1      44.121  27.380  27.304  1.00  0.00     0.040 A 
ATOM     73  F   UNL A   1      43.284  29.569  27.166  1.00  0.00    -0.206 F 
ATOM     74  C   UNL A   1      44.711  26.351  28.037  1.00  0.00     0.006 A 
ENDBRANCH  46  67
BRANCH  58  75
ATOM     75  C   UNL A   1      42.273  35.869  28.906  1.00  0.00     0.057 A 
ATOM     76  C   UNL A   1      41.807  36.216  27.628  1.00  0.00     0.134 A 
ATOM     77  C   UNL A   1      43.060  36.849  29.544  1.00  0.00     0.134 A 
ATOM     78  F   UNL A   1      41.140  35.333  26.869  1.00  0.00    -0.206 F 
ATOM     79  C   UNL A   1      42.034  37.477  27.061  1.00  0.00     0.040 A 
ATOM     80  C   UNL A   1      43.336  38.093  28.967  1.00  0.00     0.040 A 
ATOM     81  F   UNL A   1      43.585  36.653  30.761  1.00  0.00    -0.206 F 
ATOM     82  C   UNL A   1      42.805  38.419  27.729  1.00  0.00     0.006 A 
ENDBRANCH  58  75
ENDBRANCH  32  33
ENDBRANCH  24  27
ENDBRANCH  22  23
ENDBRANCH   1  22
TORSDOF 12
ENDMDL
