MODEL 1
REMARK VINA RESULT:     -11.9      0.000      0.000
REMARK SMILES Cc1nn(-c2ccccc2)c(C)c1CNC(=O)CCCC(=O)NCCCNC(=O)c1ccc(-c2c3nc(c(-c4c(F)cccc4F)c4ccc([nH]4)c(-c4c(F)cccc4F)c4nc(c(-c5c(F)cccc5F)c5ccc2[nH]5)C=C4)C=C3)cc1
REMARK SMILES IDX 21 1 22 2 23 3 20 5 19 6 18 7 16 8 15 9 17 11 14 12 13 13
REMARK SMILES IDX 1 14 2 15 3 16 4 17 11 18 12 19 5 20 6 21 10 22 7 23 9 24
REMARK SMILES IDX 8 25 24 26 25 27 26 28 27 29 28 30 29 32 30 33 31 34 83 35
REMARK SMILES IDX 32 36 82 37 33 38 34 39 35 40 76 41 36 42 81 43 75 44 77 45
REMARK SMILES IDX 37 46 80 47 74 48 73 49 38 51 64 52 47 53 63 54 48 55 51 56
REMARK SMILES IDX 62 57 78 58 49 59 50 60 61 62 79 63 52 64 39 65 40 66 45 67
REMARK SMILES IDX 41 68 42 69 44 70 46 71 43 72 65 73 66 74 71 75 67 76 68 77
REMARK SMILES IDX 70 78 72 79 69 80 53 81 54 82 59 83 55 84 56 85 58 86 60 87
REMARK SMILES IDX 57 88
REMARK H PARENT 23 4 15 10 27 31 77 50 51 61
REMARK Flexibility Score: inf
ROOT
ATOM      1  C   UNL A   1      36.312  22.855  23.749  1.00  0.00     0.220 C 
ATOM      2  O   UNL A   1      36.272  22.994  22.524  1.00  0.00    -0.275 OA
ATOM      3  N   UNL A   1      37.530  22.613  24.307  1.00  0.00    -0.356 N 
ATOM      4  H   UNL A   1      38.259  22.468  23.662  1.00  0.00     0.163 HD
ENDROOT
BRANCH   1   5
ATOM      5  C   UNL A   1      35.053  23.049  24.579  1.00  0.00     0.100 C 
BRANCH   5   6
ATOM      6  C   UNL A   1      34.600  24.451  24.939  1.00  0.00     0.020 C 
BRANCH   6   7
ATOM      7  C   UNL A   1      34.044  25.448  23.922  1.00  0.00     0.100 C 
BRANCH   7   8
ATOM      8  C   UNL A   1      33.180  25.280  22.658  1.00  0.00     0.220 C 
ATOM      9  N   UNL A   1      31.965  24.730  22.481  1.00  0.00    -0.352 N 
ATOM     10  H   UNL A   1      31.671  24.855  21.550  1.00  0.00     0.163 HD
ATOM     11  O   UNL A   1      33.693  25.670  21.593  1.00  0.00    -0.275 OA
BRANCH   9  12
ATOM     12  C   UNL A   1      30.949  24.009  23.228  1.00  0.00     0.155 C 
BRANCH  12  13
ATOM     13  C   UNL A   1      31.435  22.747  23.841  1.00  0.00     0.016 A 
ATOM     14  C   UNL A   1      30.782  23.266  26.334  1.00  0.00     0.069 C 
ATOM     15  C   UNL A   1      31.337  22.431  25.232  1.00  0.00     0.065 A 
ATOM     16  N   UNL A   1      31.748  21.185  25.493  1.00  0.00    -0.173 NA
ATOM     17  N   UNL A   1      32.231  20.735  24.316  1.00  0.00    -0.237 N 
ATOM     18  C   UNL A   1      31.899  21.575  23.266  1.00  0.00     0.046 A 
ATOM     19  C   UNL A   1      31.952  21.103  21.856  1.00  0.00     0.067 C 
BRANCH  17  20
ATOM     20  C   UNL A   1      32.853  19.471  24.185  1.00  0.00     0.065 A 
ATOM     21  C   UNL A   1      32.278  18.494  23.374  1.00  0.00     0.028 A 
ATOM     22  C   UNL A   1      34.119  19.269  24.758  1.00  0.00     0.028 A 
ATOM     23  C   UNL A   1      33.031  17.366  23.049  1.00  0.00     0.002 A 
ATOM     24  C   UNL A   1      34.862  18.144  24.428  1.00  0.00     0.002 A 
ATOM     25  C   UNL A   1      34.327  17.204  23.555  1.00  0.00     0.000 A 
ENDBRANCH  17  20
ENDBRANCH  12  13
ENDBRANCH   9  12
ENDBRANCH   7   8
ENDBRANCH   6   7
ENDBRANCH   5   6
ENDBRANCH   1   5
BRANCH   3  26
ATOM     26  C   UNL A   1      37.925  22.534  25.696  1.00  0.00     0.117 C 
BRANCH  26  27
ATOM     27  C   UNL A   1      38.299  23.864  26.338  1.00  0.00     0.042 C 
BRANCH  27  28
ATOM     28  C   UNL A   1      39.379  23.737  27.373  1.00  0.00     0.118 C 
BRANCH  28  29
ATOM     29  N   UNL A   1      40.530  22.950  26.914  1.00  0.00    -0.352 N 
ATOM     30  C   UNL A   1      41.683  23.450  26.314  1.00  0.00     0.251 C 
ATOM     31  H   UNL A   1      40.482  21.976  27.044  1.00  0.00     0.163 HD
ATOM     32  O   UNL A   1      42.415  22.772  25.635  1.00  0.00    -0.269 OA
BRANCH  30  33
ATOM     33  C   UNL A   1      41.973  24.869  26.585  1.00  0.00     0.039 A 
ATOM     34  C   UNL A   1      41.442  25.898  25.807  1.00  0.00     0.014 A 
ATOM     35  C   UNL A   1      42.567  25.107  27.816  1.00  0.00     0.014 A 
ATOM     36  C   UNL A   1      41.427  27.182  26.348  1.00  0.00     0.010 A 
ATOM     37  C   UNL A   1      42.276  26.288  28.433  1.00  0.00     0.010 A 
ATOM     38  C   UNL A   1      41.810  27.360  27.689  1.00  0.00    -0.014 A 
BRANCH  38  39
ATOM     39  C   UNL A   1      41.643  28.626  28.393  1.00  0.00     0.031 A 
ATOM     40  C   UNL A   1      42.749  29.593  28.181  1.00  0.00     0.074 A 
ATOM     41  C   UNL A   1      40.489  28.965  29.015  1.00  0.00     0.049 A 
ATOM     42  N   UNL A   1      43.721  29.856  28.990  1.00  0.00    -0.248 NA
ATOM     43  C   UNL A   1      42.912  30.201  26.849  1.00  0.00     0.031 C 
ATOM     44  C   UNL A   1      39.198  28.258  29.016  1.00  0.00     0.029 A 
ATOM     45  N   UNL A   1      40.202  30.083  29.734  1.00  0.00    -0.354 N 
ATOM     46  C   UNL A   1      44.459  30.865  28.378  1.00  0.00     0.074 A 
ATOM     47  C   UNL A   1      44.066  30.858  26.995  1.00  0.00     0.031 C 
ATOM     48  C   UNL A   1      38.223  29.067  29.481  1.00  0.00     0.029 A 
ATOM     49  C   UNL A   1      38.850  30.253  30.020  1.00  0.00     0.049 A 
ATOM     50  H   UNL A   1      40.893  30.722  30.027  1.00  0.00     0.167 HD
ATOM     51  C   UNL A   1      45.083  31.812  29.133  1.00  0.00     0.037 A 
ATOM     52  C   UNL A   1      38.281  31.284  30.685  1.00  0.00     0.037 A 
ATOM     53  C   UNL A   1      45.117  31.402  30.520  1.00  0.00     0.049 A 
ATOM     54  C   UNL A   1      39.357  31.935  31.462  1.00  0.00     0.074 A 
ATOM     55  C   UNL A   1      45.682  30.369  31.237  1.00  0.00     0.029 A 
ATOM     56  N   UNL A   1      44.121  31.924  31.306  1.00  0.00    -0.354 N 
ATOM     57  N   UNL A   1      39.985  31.361  32.452  1.00  0.00    -0.248 NA
ATOM     58  C   UNL A   1      40.045  33.062  30.856  1.00  0.00     0.031 C 
ATOM     59  C   UNL A   1      44.737  30.063  32.262  1.00  0.00     0.029 A 
ATOM     60  C   UNL A   1      43.677  30.969  32.177  1.00  0.00     0.049 A 
ATOM     61  H   UNL A   1      43.778  32.845  31.250  1.00  0.00     0.167 HD
ATOM     62  C   UNL A   1      41.306  31.760  32.310  1.00  0.00     0.074 A 
ATOM     63  C   UNL A   1      41.254  32.903  31.401  1.00  0.00     0.031 C 
ATOM     64  C   UNL A   1      42.326  30.942  32.706  1.00  0.00     0.037 A 
BRANCH  51  65
ATOM     65  C   UNL A   1      45.213  33.277  28.757  1.00  0.00     0.057 A 
ATOM     66  C   UNL A   1      46.483  33.883  28.837  1.00  0.00     0.134 A 
ATOM     67  C   UNL A   1      44.136  34.180  28.638  1.00  0.00     0.134 A 
ATOM     68  F   UNL A   1      47.594  33.141  28.956  1.00  0.00    -0.206 F 
ATOM     69  C   UNL A   1      46.656  35.273  28.896  1.00  0.00     0.040 A 
ATOM     70  C   UNL A   1      44.303  35.569  28.647  1.00  0.00     0.040 A 
ATOM     71  F   UNL A   1      42.859  33.787  28.609  1.00  0.00    -0.206 F 
ATOM     72  C   UNL A   1      45.560  36.121  28.812  1.00  0.00     0.006 A 
ENDBRANCH  51  65
BRANCH  52  73
ATOM     73  C   UNL A   1      36.966  31.916  30.441  1.00  0.00     0.057 A 
ATOM     74  C   UNL A   1      35.924  31.823  31.371  1.00  0.00     0.134 A 
ATOM     75  C   UNL A   1      36.801  32.866  29.416  1.00  0.00     0.134 A 
ATOM     76  F   UNL A   1      36.014  30.976  32.408  1.00  0.00    -0.206 F 
ATOM     77  C   UNL A   1      34.789  32.643  31.302  1.00  0.00     0.040 A 
ATOM     78  C   UNL A   1      35.674  33.689  29.334  1.00  0.00     0.040 A 
ATOM     79  F   UNL A   1      37.772  33.087  28.518  1.00  0.00    -0.206 F 
ATOM     80  C   UNL A   1      34.668  33.589  30.287  1.00  0.00     0.006 A 
ENDBRANCH  52  73
BRANCH  64  81
ATOM     81  C   UNL A   1      41.994  29.796  33.625  1.00  0.00     0.057 A 
ATOM     82  C   UNL A   1      41.727  28.483  33.208  1.00  0.00     0.134 A 
ATOM     83  C   UNL A   1      42.103  30.009  35.003  1.00  0.00     0.134 A 
ATOM     84  F   UNL A   1      41.678  28.162  31.910  1.00  0.00    -0.206 F 
ATOM     85  C   UNL A   1      41.558  27.438  34.125  1.00  0.00     0.040 A 
ATOM     86  C   UNL A   1      41.968  28.972  35.927  1.00  0.00     0.040 A 
ATOM     87  F   UNL A   1      42.400  31.231  35.474  1.00  0.00    -0.206 F 
ATOM     88  C   UNL A   1      41.689  27.680  35.490  1.00  0.00     0.006 A 
ENDBRANCH  64  81
ENDBRANCH  38  39
ENDBRANCH  30  33
ENDBRANCH  28  29
ENDBRANCH  27  28
ENDBRANCH  26  27
ENDBRANCH   3  26
TORSDOF 16
ENDMDL
MODEL 2
REMARK VINA RESULT:     -11.9      3.068      4.964
REMARK SMILES Cc1nn(-c2ccccc2)c(C)c1CNC(=O)CCCC(=O)NCCCNC(=O)c1ccc(-c2c3nc(c(-c4c(F)cccc4F)c4ccc([nH]4)c(-c4c(F)cccc4F)c4nc(c(-c5c(F)cccc5F)c5ccc2[nH]5)C=C4)C=C3)cc1
REMARK SMILES IDX 21 1 22 2 23 3 20 5 19 6 18 7 16 8 15 9 17 11 14 12 13 13
REMARK SMILES IDX 1 14 2 15 3 16 4 17 11 18 12 19 5 20 6 21 10 22 7 23 9 24
REMARK SMILES IDX 8 25 24 26 25 27 26 28 27 29 28 30 29 32 30 33 31 34 83 35
REMARK SMILES IDX 32 36 82 37 33 38 34 39 35 40 76 41 36 42 81 43 75 44 77 45
REMARK SMILES IDX 37 46 80 47 74 48 73 49 38 51 64 52 47 53 63 54 48 55 51 56
REMARK SMILES IDX 62 57 78 58 49 59 50 60 61 62 79 63 52 64 39 65 40 66 45 67
REMARK SMILES IDX 41 68 42 69 44 70 46 71 43 72 65 73 66 74 71 75 67 76 68 77
REMARK SMILES IDX 70 78 72 79 69 80 53 81 54 82 59 83 55 84 56 85 58 86 60 87
REMARK SMILES IDX 57 88
REMARK H PARENT 23 4 15 10 27 31 77 50 51 61
REMARK Flexibility Score: inf
ROOT
ATOM      1  C   UNL A   1      38.841  22.026  25.931  1.00  0.00     0.220 C 
ATOM      2  O   UNL A   1      38.706  23.107  26.511  1.00  0.00    -0.275 OA
ATOM      3  N   UNL A   1      39.899  21.252  26.299  1.00  0.00    -0.356 N 
ATOM      4  H   UNL A   1      40.524  21.677  26.929  1.00  0.00     0.163 HD
ENDROOT
BRANCH   1   5
ATOM      5  C   UNL A   1      37.798  21.567  24.926  1.00  0.00     0.100 C 
BRANCH   5   6
ATOM      6  C   UNL A   1      36.794  22.562  24.377  1.00  0.00     0.020 C 
BRANCH   6   7
ATOM      7  C   UNL A   1      35.359  22.194  23.997  1.00  0.00     0.100 C 
BRANCH   7   8
ATOM      8  C   UNL A   1      34.219  21.500  24.768  1.00  0.00     0.220 C 
ATOM      9  N   UNL A   1      32.893  21.724  24.779  1.00  0.00    -0.352 N 
ATOM     10  H   UNL A   1      32.443  21.044  25.331  1.00  0.00     0.163 HD
ATOM     11  O   UNL A   1      34.566  20.605  25.559  1.00  0.00    -0.275 OA
BRANCH   9  12
ATOM     12  C   UNL A   1      31.914  22.649  24.236  1.00  0.00     0.155 C 
BRANCH  12  13
ATOM     13  C   UNL A   1      31.779  23.906  25.014  1.00  0.00     0.016 A 
ATOM     14  C   UNL A   1      30.192  23.007  26.908  1.00  0.00     0.069 C 
ATOM     15  C   UNL A   1      31.014  24.039  26.215  1.00  0.00     0.065 A 
ATOM     16  N   UNL A   1      31.158  25.247  26.770  1.00  0.00    -0.173 NA
ATOM     17  N   UNL A   1      31.901  25.942  25.882  1.00  0.00    -0.237 N 
ATOM     18  C   UNL A   1      32.439  25.120  24.905  1.00  0.00     0.046 A 
ATOM     19  C   UNL A   1      33.596  25.561  24.081  1.00  0.00     0.067 C 
BRANCH  17  20
ATOM     20  C   UNL A   1      32.204  27.312  26.055  1.00  0.00     0.065 A 
ATOM     21  C   UNL A   1      33.339  27.687  26.772  1.00  0.00     0.028 A 
ATOM     22  C   UNL A   1      31.438  28.273  25.377  1.00  0.00     0.028 A 
ATOM     23  C   UNL A   1      33.764  29.015  26.706  1.00  0.00     0.002 A 
ATOM     24  C   UNL A   1      31.869  29.592  25.315  1.00  0.00     0.002 A 
ATOM     25  C   UNL A   1      33.045  29.957  25.962  1.00  0.00     0.000 A 
ENDBRANCH  17  20
ENDBRANCH  12  13
ENDBRANCH   9  12
ENDBRANCH   7   8
ENDBRANCH   6   7
ENDBRANCH   5   6
ENDBRANCH   1   5
BRANCH   3  26
ATOM     26  C   UNL A   1      40.252  19.903  25.911  1.00  0.00     0.117 C 
BRANCH  26  27
ATOM     27  C   UNL A   1      41.488  19.336  26.597  1.00  0.00     0.042 C 
BRANCH  27  28
ATOM     28  C   UNL A   1      42.682  20.243  26.508  1.00  0.00     0.118 C 
BRANCH  28  29
ATOM     29  N   UNL A   1      43.789  19.667  25.736  1.00  0.00    -0.352 N 
ATOM     30  C   UNL A   1      44.601  20.343  24.828  1.00  0.00     0.251 C 
ATOM     31  H   UNL A   1      43.976  18.711  25.873  1.00  0.00     0.163 HD
ATOM     32  O   UNL A   1      45.232  19.781  23.967  1.00  0.00    -0.269 OA
BRANCH  30  33
ATOM     33  C   UNL A   1      44.665  21.805  25.005  1.00  0.00     0.039 A 
ATOM     34  C   UNL A   1      43.791  22.673  24.351  1.00  0.00     0.014 A 
ATOM     35  C   UNL A   1      45.457  22.219  26.067  1.00  0.00     0.014 A 
ATOM     36  C   UNL A   1      43.648  23.961  24.861  1.00  0.00     0.010 A 
ATOM     37  C   UNL A   1      45.087  23.360  26.715  1.00  0.00     0.010 A 
ATOM     38  C   UNL A   1      44.273  24.284  26.079  1.00  0.00    -0.014 A 
BRANCH  38  39
ATOM     39  C   UNL A   1      44.024  25.536  26.782  1.00  0.00     0.031 A 
ATOM     40  C   UNL A   1      45.017  26.603  26.500  1.00  0.00     0.074 A 
ATOM     41  C   UNL A   1      42.880  25.770  27.469  1.00  0.00     0.049 A 
ATOM     42  N   UNL A   1      46.003  26.969  27.249  1.00  0.00    -0.248 NA
ATOM     43  C   UNL A   1      45.043  27.208  25.157  1.00  0.00     0.031 C 
ATOM     44  C   UNL A   1      41.666  24.941  27.549  1.00  0.00     0.029 A 
ATOM     45  N   UNL A   1      42.528  26.864  28.195  1.00  0.00    -0.354 N 
ATOM     46  C   UNL A   1      46.604  28.036  26.589  1.00  0.00     0.074 A 
ATOM     47  C   UNL A   1      46.135  27.975  25.231  1.00  0.00     0.031 C 
ATOM     48  C   UNL A   1      40.646  25.658  28.064  1.00  0.00     0.029 A 
ATOM     49  C   UNL A   1      41.184  26.905  28.558  1.00  0.00     0.049 A 
ATOM     50  H   UNL A   1      43.169  27.569  28.443  1.00  0.00     0.167 HD
ATOM     51  C   UNL A   1      47.175  29.049  27.300  1.00  0.00     0.037 A 
ATOM     52  C   UNL A   1      40.556  27.885  29.248  1.00  0.00     0.037 A 
ATOM     53  C   UNL A   1      47.328  28.662  28.685  1.00  0.00     0.049 A 
ATOM     54  C   UNL A   1      41.607  28.647  29.957  1.00  0.00     0.074 A 
ATOM     55  C   UNL A   1      48.030  27.696  29.375  1.00  0.00     0.029 A 
ATOM     56  N   UNL A   1      46.332  29.094  29.524  1.00  0.00    -0.354 N 
ATOM     57  N   UNL A   1      42.343  28.148  30.912  1.00  0.00    -0.248 NA
ATOM     58  C   UNL A   1      42.145  29.827  29.304  1.00  0.00     0.031 C 
ATOM     59  C   UNL A   1      47.180  27.313  30.456  1.00  0.00     0.029 A 
ATOM     60  C   UNL A   1      46.033  28.112  30.426  1.00  0.00     0.049 A 
ATOM     61  H   UNL A   1      45.899  29.977  29.482  1.00  0.00     0.167 HD
ATOM     62  C   UNL A   1      43.609  28.671  30.692  1.00  0.00     0.074 A 
ATOM     63  C   UNL A   1      43.393  29.793  29.779  1.00  0.00     0.031 C 
ATOM     64  C   UNL A   1      44.725  27.961  31.033  1.00  0.00     0.037 A 
BRANCH  51  65
ATOM     65  C   UNL A   1      47.139  30.515  26.907  1.00  0.00     0.057 A 
ATOM     66  C   UNL A   1      48.319  31.275  27.035  1.00  0.00     0.134 A 
ATOM     67  C   UNL A   1      45.966  31.275  26.725  1.00  0.00     0.134 A 
ATOM     68  F   UNL A   1      49.507  30.678  27.217  1.00  0.00    -0.206 F 
ATOM     69  C   UNL A   1      48.316  32.676  27.080  1.00  0.00     0.040 A 
ATOM     70  C   UNL A   1      45.959  32.674  26.719  1.00  0.00     0.040 A 
ATOM     71  F   UNL A   1      44.750  30.726  26.644  1.00  0.00    -0.206 F 
ATOM     72  C   UNL A   1      47.129  33.381  26.933  1.00  0.00     0.006 A 
ENDBRANCH  51  65
BRANCH  52  73
ATOM     73  C   UNL A   1      39.174  28.384  29.076  1.00  0.00     0.057 A 
ATOM     74  C   UNL A   1      38.264  28.402  30.140  1.00  0.00     0.134 A 
ATOM     75  C   UNL A   1      38.809  29.118  27.934  1.00  0.00     0.134 A 
ATOM     76  F   UNL A   1      38.548  27.765  31.287  1.00  0.00    -0.206 F 
ATOM     77  C   UNL A   1      37.066  29.127  30.082  1.00  0.00     0.040 A 
ATOM     78  C   UNL A   1      37.617  29.846  27.862  1.00  0.00     0.040 A 
ATOM     79  F   UNL A   1      39.642  29.228  26.889  1.00  0.00    -0.206 F 
ATOM     80  C   UNL A   1      36.745  29.863  28.944  1.00  0.00     0.006 A 
ENDBRANCH  52  73
BRANCH  64  81
ATOM     81  C   UNL A   1      44.558  26.799  31.977  1.00  0.00     0.057 A 
ATOM     82  C   UNL A   1      44.434  25.457  31.587  1.00  0.00     0.134 A 
ATOM     83  C   UNL A   1      44.686  27.047  33.348  1.00  0.00     0.134 A 
ATOM     84  F   UNL A   1      44.381  25.111  30.295  1.00  0.00    -0.206 F 
ATOM     85  C   UNL A   1      44.417  24.416  32.522  1.00  0.00     0.040 A 
ATOM     86  C   UNL A   1      44.704  26.017  34.289  1.00  0.00     0.040 A 
ATOM     87  F   UNL A   1      44.854  28.303  33.792  1.00  0.00    -0.206 F 
ATOM     88  C   UNL A   1      44.564  24.694  33.878  1.00  0.00     0.006 A 
ENDBRANCH  64  81
ENDBRANCH  38  39
ENDBRANCH  30  33
ENDBRANCH  28  29
ENDBRANCH  27  28
ENDBRANCH  26  27
ENDBRANCH   3  26
TORSDOF 16
ENDMDL
MODEL 3
REMARK VINA RESULT:     -11.8      3.533      7.820
REMARK SMILES Cc1nn(-c2ccccc2)c(C)c1CNC(=O)CCCC(=O)NCCCNC(=O)c1ccc(-c2c3nc(c(-c4c(F)cccc4F)c4ccc([nH]4)c(-c4c(F)cccc4F)c4nc(c(-c5c(F)cccc5F)c5ccc2[nH]5)C=C4)C=C3)cc1
REMARK SMILES IDX 21 1 22 2 23 3 20 5 19 6 18 7 16 8 15 9 17 11 14 12 13 13
REMARK SMILES IDX 1 14 2 15 3 16 4 17 11 18 12 19 5 20 6 21 10 22 7 23 9 24
REMARK SMILES IDX 8 25 24 26 25 27 26 28 27 29 28 30 29 32 30 33 31 34 83 35
REMARK SMILES IDX 32 36 82 37 33 38 34 39 35 40 76 41 36 42 81 43 75 44 77 45
REMARK SMILES IDX 37 46 80 47 74 48 73 49 38 51 64 52 47 53 63 54 48 55 51 56
REMARK SMILES IDX 62 57 78 58 49 59 50 60 61 62 79 63 52 64 39 65 40 66 45 67
REMARK SMILES IDX 41 68 42 69 44 70 46 71 43 72 65 73 66 74 71 75 67 76 68 77
REMARK SMILES IDX 70 78 72 79 69 80 53 81 54 82 59 83 55 84 56 85 58 86 60 87
REMARK SMILES IDX 57 88
REMARK H PARENT 23 4 15 10 27 31 77 50 51 61
REMARK Flexibility Score: inf
ROOT
ATOM      1  C   UNL A   1      31.418  29.060  25.013  1.00  0.00     0.220 C 
ATOM      2  O   UNL A   1      30.606  29.529  24.210  1.00  0.00    -0.275 OA
ATOM      3  N   UNL A   1      31.932  29.911  25.943  1.00  0.00    -0.356 N 
ATOM      4  H   UNL A   1      31.683  30.855  25.823  1.00  0.00     0.163 HD
ENDROOT
BRANCH   1   5
ATOM      5  C   UNL A   1      31.732  27.573  24.997  1.00  0.00     0.100 C 
BRANCH   5   6
ATOM      6  C   UNL A   1      30.652  26.573  25.363  1.00  0.00     0.020 C 
BRANCH   6   7
ATOM      7  C   UNL A   1      30.755  25.074  25.077  1.00  0.00     0.100 C 
BRANCH   7   8
ATOM      8  C   UNL A   1      30.793  23.836  25.993  1.00  0.00     0.220 C 
ATOM      9  N   UNL A   1      31.332  22.617  25.814  1.00  0.00    -0.352 N 
ATOM     10  H   UNL A   1      31.238  22.084  26.636  1.00  0.00     0.163 HD
ATOM     11  O   UNL A   1      30.185  23.942  27.074  1.00  0.00    -0.275 OA
BRANCH   9  12
ATOM     12  C   UNL A   1      32.010  21.838  24.793  1.00  0.00     0.155 C 
BRANCH  12  13
ATOM     13  C   UNL A   1      33.429  22.219  24.589  1.00  0.00     0.016 A 
ATOM     14  C   UNL A   1      33.179  23.342  22.224  1.00  0.00     0.069 C 
ATOM     15  C   UNL A   1      33.928  22.905  23.437  1.00  0.00     0.065 A 
ATOM     16  N   UNL A   1      35.219  23.226  23.563  1.00  0.00    -0.173 NA
ATOM     17  N   UNL A   1      35.600  22.646  24.722  1.00  0.00    -0.237 N 
ATOM     18  C   UNL A   1      34.514  22.187  25.450  1.00  0.00     0.046 A 
ATOM     19  C   UNL A   1      34.631  21.896  26.904  1.00  0.00     0.067 C 
BRANCH  17  20
ATOM     20  C   UNL A   1      36.938  22.671  25.179  1.00  0.00     0.065 A 
ATOM     21  C   UNL A   1      37.427  23.800  25.834  1.00  0.00     0.028 A 
ATOM     22  C   UNL A   1      37.712  21.503  25.095  1.00  0.00     0.028 A 
ATOM     23  C   UNL A   1      38.647  23.709  26.506  1.00  0.00     0.002 A 
ATOM     24  C   UNL A   1      38.924  21.420  25.767  1.00  0.00     0.002 A 
ATOM     25  C   UNL A   1      39.380  22.517  26.491  1.00  0.00     0.000 A 
ENDBRANCH  17  20
ENDBRANCH  12  13
ENDBRANCH   9  12
ENDBRANCH   7   8
ENDBRANCH   6   7
ENDBRANCH   5   6
ENDBRANCH   1   5
BRANCH   3  26
ATOM     26  C   UNL A   1      32.787  29.648  27.081  1.00  0.00     0.117 C 
BRANCH  26  27
ATOM     27  C   UNL A   1      34.226  30.126  26.932  1.00  0.00     0.042 C 
BRANCH  27  28
ATOM     28  C   UNL A   1      35.199  29.335  27.757  1.00  0.00     0.118 C 
BRANCH  28  29
ATOM     29  N   UNL A   1      35.544  29.987  29.026  1.00  0.00    -0.352 N 
ATOM     30  C   UNL A   1      36.636  29.685  29.837  1.00  0.00     0.251 C 
ATOM     31  H   UNL A   1      34.947  30.706  29.333  1.00  0.00     0.163 HD
ATOM     32  O   UNL A   1      36.679  29.969  31.009  1.00  0.00    -0.269 OA
BRANCH  30  33
ATOM     33  C   UNL A   1      37.760  29.015  29.161  1.00  0.00     0.039 A 
ATOM     34  C   UNL A   1      38.355  29.539  28.013  1.00  0.00     0.014 A 
ATOM     35  C   UNL A   1      38.351  28.000  29.899  1.00  0.00     0.014 A 
ATOM     36  C   UNL A   1      39.628  29.086  27.674  1.00  0.00     0.010 A 
ATOM     37  C   UNL A   1      39.688  27.795  29.723  1.00  0.00     0.010 A 
ATOM     38  C   UNL A   1      40.309  28.239  28.567  1.00  0.00    -0.014 A 
BRANCH  38  39
ATOM     39  C   UNL A   1      41.709  27.874  28.390  1.00  0.00     0.031 A 
ATOM     40  C   UNL A   1      41.922  26.638  27.594  1.00  0.00     0.074 A 
ATOM     41  C   UNL A   1      42.726  28.694  28.745  1.00  0.00     0.049 A 
ATOM     42  N   UNL A   1      42.199  25.459  28.042  1.00  0.00    -0.248 NA
ATOM     43  C   UNL A   1      41.608  26.662  26.155  1.00  0.00     0.031 C 
ATOM     44  C   UNL A   1      42.665  30.085  29.226  1.00  0.00     0.029 A 
ATOM     45  N   UNL A   1      44.066  28.476  28.674  1.00  0.00    -0.354 N 
ATOM     46  C   UNL A   1      42.363  24.656  26.918  1.00  0.00     0.074 A 
ATOM     47  C   UNL A   1      41.760  25.375  25.828  1.00  0.00     0.031 C 
ATOM     48  C   UNL A   1      43.887  30.653  29.167  1.00  0.00     0.029 A 
ATOM     49  C   UNL A   1      44.846  29.613  28.868  1.00  0.00     0.049 A 
ATOM     50  H   UNL A   1      44.453  27.587  28.499  1.00  0.00     0.167 HD
ATOM     51  C   UNL A   1      43.258  23.629  26.934  1.00  0.00     0.037 A 
ATOM     52  C   UNL A   1      46.195  29.694  28.819  1.00  0.00     0.037 A 
ATOM     53  C   UNL A   1      43.680  23.355  28.290  1.00  0.00     0.049 A 
ATOM     54  C   UNL A   1      46.711  28.321  29.007  1.00  0.00     0.074 A 
ATOM     55  C   UNL A   1      43.073  22.929  29.452  1.00  0.00     0.029 A 
ATOM     56  N   UNL A   1      44.865  23.940  28.660  1.00  0.00    -0.354 N 
ATOM     57  N   UNL A   1      46.576  27.641  30.112  1.00  0.00    -0.248 NA
ATOM     58  C   UNL A   1      46.987  27.532  27.819  1.00  0.00     0.031 C 
ATOM     59  C   UNL A   1      43.740  23.628  30.503  1.00  0.00     0.029 A 
ATOM     60  C   UNL A   1      44.772  24.389  29.948  1.00  0.00     0.049 A 
ATOM     61  H   UNL A   1      45.660  24.024  28.086  1.00  0.00     0.167 HD
ATOM     62  C   UNL A   1      46.316  26.343  29.699  1.00  0.00     0.074 A 
ATOM     63  C   UNL A   1      46.714  26.314  28.293  1.00  0.00     0.031 C 
ATOM     64  C   UNL A   1      45.533  25.516  30.454  1.00  0.00     0.037 A 
BRANCH  51  65
ATOM     65  C   UNL A   1      44.120  23.209  25.757  1.00  0.00     0.057 A 
ATOM     66  C   UNL A   1      44.176  21.842  25.417  1.00  0.00     0.134 A 
ATOM     67  C   UNL A   1      45.121  24.004  25.163  1.00  0.00     0.134 A 
ATOM     68  F   UNL A   1      43.284  20.972  25.915  1.00  0.00    -0.206 F 
ATOM     69  C   UNL A   1      45.202  21.298  24.634  1.00  0.00     0.040 A 
ATOM     70  C   UNL A   1      46.122  23.478  24.339  1.00  0.00     0.040 A 
ATOM     71  F   UNL A   1      45.259  25.309  25.417  1.00  0.00    -0.206 F 
ATOM     72  C   UNL A   1      46.189  22.117  24.100  1.00  0.00     0.006 A 
ENDBRANCH  51  65
BRANCH  52  73
ATOM     73  C   UNL A   1      47.027  30.806  28.310  1.00  0.00     0.057 A 
ATOM     74  C   UNL A   1      46.848  31.326  27.023  1.00  0.00     0.134 A 
ATOM     75  C   UNL A   1      47.823  31.570  29.183  1.00  0.00     0.134 A 
ATOM     76  F   UNL A   1      46.069  30.688  26.136  1.00  0.00    -0.206 F 
ATOM     77  C   UNL A   1      47.410  32.548  26.628  1.00  0.00     0.040 A 
ATOM     78  C   UNL A   1      48.390  32.791  28.803  1.00  0.00     0.040 A 
ATOM     79  F   UNL A   1      47.996  31.200  30.460  1.00  0.00    -0.206 F 
ATOM     80  C   UNL A   1      48.174  33.291  27.525  1.00  0.00     0.006 A 
ENDBRANCH  52  73
BRANCH  64  81
ATOM     81  C   UNL A   1      45.279  25.901  31.887  1.00  0.00     0.057 A 
ATOM     82  C   UNL A   1      46.193  25.733  32.939  1.00  0.00     0.134 A 
ATOM     83  C   UNL A   1      44.110  26.613  32.177  1.00  0.00     0.134 A 
ATOM     84  F   UNL A   1      47.373  25.132  32.744  1.00  0.00    -0.206 F 
ATOM     85  C   UNL A   1      45.942  26.236  34.221  1.00  0.00     0.040 A 
ATOM     86  C   UNL A   1      43.862  27.148  33.442  1.00  0.00     0.040 A 
ATOM     87  F   UNL A   1      43.210  26.851  31.209  1.00  0.00    -0.206 F 
ATOM     88  C   UNL A   1      44.778  26.956  34.472  1.00  0.00     0.006 A 
ENDBRANCH  64  81
ENDBRANCH  38  39
ENDBRANCH  30  33
ENDBRANCH  28  29
ENDBRANCH  27  28
ENDBRANCH  26  27
ENDBRANCH   3  26
TORSDOF 16
ENDMDL
