MODEL 1
REMARK VINA RESULT:      -9.6      0.000      0.000
REMARK SMILES CCCCOCc1cc(C(=O)NCCCNC(=O)c2ccc(-c3c4nc(c(-c5c(F)cccc5F)c5ccc([nH]5)c(-c5c(F)cccc5F)c5nc(c(-c6c(F)cccc6F)c6ccc3[nH]6)C=C5)C=C4)cc2)[nH]n1
REMARK SMILES IDX 10 1 11 2 12 3 9 5 7 6 8 7 74 8 73 9 6 11 5 12 4 13 3 14
REMARK SMILES IDX 2 15 1 16 13 17 14 18 15 19 16 20 17 21 18 23 19 24 20 25
REMARK SMILES IDX 72 26 21 27 71 28 22 29 23 30 24 31 65 32 25 33 70 34 64 35
REMARK SMILES IDX 66 36 26 37 69 38 63 39 62 40 27 42 53 43 36 44 52 45 37 46
REMARK SMILES IDX 40 47 51 48 67 49 38 50 39 51 50 53 68 54 41 55 28 56 29 57
REMARK SMILES IDX 34 58 30 59 31 60 33 61 35 62 32 63 54 64 55 65 60 66 56 67
REMARK SMILES IDX 57 68 59 69 61 70 58 71 42 72 43 73 48 74 44 75 45 76 47 77
REMARK SMILES IDX 49 78 46 79
REMARK H PARENT 12 4 73 10 16 22 66 41 40 52
REMARK Flexibility Score: inf
ROOT
ATOM      1  C   UNL A   1      32.981  36.023  30.885  1.00  0.00     0.269 C 
ATOM      2  O   UNL A   1      32.094  36.831  31.152  1.00  0.00    -0.268 OA
ATOM      3  N   UNL A   1      33.147  35.688  29.566  1.00  0.00    -0.351 N 
ATOM      4  H   UNL A   1      32.419  35.978  28.969  1.00  0.00     0.163 HD
ENDROOT
BRANCH   1   5
ATOM      5  C   UNL A   1      33.848  35.494  31.900  1.00  0.00     0.123 A 
ATOM      6  C   UNL A   1      35.114  34.387  33.368  1.00  0.00     0.089 A 
ATOM      7  C   UNL A   1      33.951  34.288  32.565  1.00  0.00     0.061 A 
ATOM      8  N   UNL A   1      35.629  35.622  33.316  1.00  0.00    -0.178 NA
ATOM      9  N   UNL A   1      34.829  36.273  32.458  1.00  0.00    -0.273 N 
ATOM     10  H   UNL A   1      34.937  37.229  32.247  1.00  0.00     0.190 HD
BRANCH   6  11
ATOM     11  C   UNL A   1      35.753  33.295  34.175  1.00  0.00     0.218 C 
BRANCH  11  12
ATOM     12  O   UNL A   1      36.425  32.268  33.434  1.00  0.00    -0.375 OA
BRANCH  12  13
ATOM     13  C   UNL A   1      37.711  32.584  32.908  1.00  0.00     0.160 C 
BRANCH  13  14
ATOM     14  C   UNL A   1      37.801  32.442  31.386  1.00  0.00     0.028 C 
BRANCH  14  15
ATOM     15  C   UNL A   1      37.444  33.689  30.572  1.00  0.00    -0.001 C 
ATOM     16  C   UNL A   1      38.016  33.679  29.163  1.00  0.00     0.004 C 
ENDBRANCH  14  15
ENDBRANCH  13  14
ENDBRANCH  12  13
ENDBRANCH  11  12
ENDBRANCH   6  11
ENDBRANCH   1   5
BRANCH   3  17
ATOM     17  C   UNL A   1      34.225  34.974  28.909  1.00  0.00     0.118 C 
BRANCH  17  18
ATOM     18  C   UNL A   1      33.763  33.655  28.305  1.00  0.00     0.042 C 
BRANCH  18  19
ATOM     19  C   UNL A   1      34.662  32.475  28.662  1.00  0.00     0.118 C 
BRANCH  19  20
ATOM     20  N   UNL A   1      34.060  31.190  28.328  1.00  0.00    -0.352 N 
ATOM     21  C   UNL A   1      34.634  29.970  28.074  1.00  0.00     0.251 C 
ATOM     22  H   UNL A   1      33.078  31.200  28.276  1.00  0.00     0.163 HD
ATOM     23  O   UNL A   1      33.934  29.058  27.642  1.00  0.00    -0.269 OA
BRANCH  21  24
ATOM     24  C   UNL A   1      36.080  29.742  28.288  1.00  0.00     0.039 A 
ATOM     25  C   UNL A   1      36.505  29.286  29.541  1.00  0.00     0.014 A 
ATOM     26  C   UNL A   1      37.023  30.005  27.291  1.00  0.00     0.014 A 
ATOM     27  C   UNL A   1      37.859  29.034  29.769  1.00  0.00     0.010 A 
ATOM     28  C   UNL A   1      38.362  29.675  27.492  1.00  0.00     0.010 A 
ATOM     29  C   UNL A   1      38.795  29.188  28.734  1.00  0.00    -0.014 A 
BRANCH  29  30
ATOM     30  C   UNL A   1      40.221  28.825  28.935  1.00  0.00     0.031 A 
ATOM     31  C   UNL A   1      41.174  29.783  29.594  1.00  0.00     0.074 A 
ATOM     32  C   UNL A   1      40.671  27.642  28.474  1.00  0.00     0.049 A 
ATOM     33  N   UNL A   1      42.451  29.637  29.844  1.00  0.00    -0.248 NA
ATOM     34  C   UNL A   1      40.627  31.085  30.002  1.00  0.00     0.031 C 
ATOM     35  C   UNL A   1      39.862  26.648  27.765  1.00  0.00     0.029 A 
ATOM     36  N   UNL A   1      41.918  27.073  28.535  1.00  0.00    -0.354 N 
ATOM     37  C   UNL A   1      42.862  30.830  30.425  1.00  0.00     0.074 A 
ATOM     38  C   UNL A   1      41.712  31.708  30.438  1.00  0.00     0.031 C 
ATOM     39  C   UNL A   1      40.623  25.576  27.494  1.00  0.00     0.029 A 
ATOM     40  C   UNL A   1      41.977  25.820  27.978  1.00  0.00     0.049 A 
ATOM     41  H   UNL A   1      42.695  27.521  28.940  1.00  0.00     0.167 HD
ATOM     42  C   UNL A   1      44.079  31.156  30.926  1.00  0.00     0.037 A 
ATOM     43  C   UNL A   1      43.006  24.959  27.874  1.00  0.00     0.037 A 
ATOM     44  C   UNL A   1      45.217  30.274  30.927  1.00  0.00     0.049 A 
ATOM     45  C   UNL A   1      44.344  25.340  28.437  1.00  0.00     0.074 A 
ATOM     46  C   UNL A   1      46.473  30.486  31.470  1.00  0.00     0.029 A 
ATOM     47  N   UNL A   1      45.240  29.013  30.352  1.00  0.00    -0.354 N 
ATOM     48  N   UNL A   1      44.700  26.442  29.053  1.00  0.00    -0.248 NA
ATOM     49  C   UNL A   1      45.424  24.353  28.297  1.00  0.00     0.031 C 
ATOM     50  C   UNL A   1      47.268  29.370  31.184  1.00  0.00     0.029 A 
ATOM     51  C   UNL A   1      46.495  28.443  30.503  1.00  0.00     0.049 A 
ATOM     52  H   UNL A   1      44.476  28.584  29.902  1.00  0.00     0.167 HD
ATOM     53  C   UNL A   1      46.036  26.275  29.391  1.00  0.00     0.074 A 
ATOM     54  C   UNL A   1      46.422  24.957  28.927  1.00  0.00     0.031 C 
ATOM     55  C   UNL A   1      46.869  27.136  30.025  1.00  0.00     0.037 A 
BRANCH  42  56
ATOM     56  C   UNL A   1      44.232  32.530  31.512  1.00  0.00     0.057 A 
ATOM     57  C   UNL A   1      44.651  33.622  30.738  1.00  0.00     0.134 A 
ATOM     58  C   UNL A   1      43.952  32.769  32.863  1.00  0.00     0.134 A 
ATOM     59  F   UNL A   1      44.947  33.460  29.440  1.00  0.00    -0.206 F 
ATOM     60  C   UNL A   1      44.822  34.891  31.294  1.00  0.00     0.040 A 
ATOM     61  C   UNL A   1      44.091  34.040  33.424  1.00  0.00     0.040 A 
ATOM     62  F   UNL A   1      43.539  31.773  33.660  1.00  0.00    -0.206 F 
ATOM     63  C   UNL A   1      44.538  35.103  32.642  1.00  0.00     0.006 A 
ENDBRANCH  42  56
BRANCH  43  64
ATOM     64  C   UNL A   1      42.794  23.629  27.251  1.00  0.00     0.057 A 
ATOM     65  C   UNL A   1      43.000  23.439  25.880  1.00  0.00     0.134 A 
ATOM     66  C   UNL A   1      42.403  22.518  28.006  1.00  0.00     0.134 A 
ATOM     67  F   UNL A   1      43.360  24.472  25.103  1.00  0.00    -0.206 F 
ATOM     68  C   UNL A   1      42.813  22.195  25.279  1.00  0.00     0.040 A 
ATOM     69  C   UNL A   1      42.233  21.262  27.422  1.00  0.00     0.040 A 
ATOM     70  F   UNL A   1      42.198  22.635  29.327  1.00  0.00    -0.206 F 
ATOM     71  C   UNL A   1      42.435  21.099  26.052  1.00  0.00     0.006 A 
ENDBRANCH  43  64
BRANCH  55  72
ATOM     72  C   UNL A   1      48.274  26.667  30.267  1.00  0.00     0.057 A 
ATOM     73  C   UNL A   1      48.620  25.929  31.407  1.00  0.00     0.134 A 
ATOM     74  C   UNL A   1      49.290  26.948  29.345  1.00  0.00     0.134 A 
ATOM     75  F   UNL A   1      47.696  25.639  32.335  1.00  0.00    -0.206 F 
ATOM     76  C   UNL A   1      49.933  25.512  31.635  1.00  0.00     0.040 A 
ATOM     77  C   UNL A   1      50.600  26.514  29.549  1.00  0.00     0.040 A 
ATOM     78  F   UNL A   1      49.025  27.644  28.229  1.00  0.00    -0.206 F 
ATOM     79  C   UNL A   1      50.926  25.802  30.702  1.00  0.00     0.006 A 
ENDBRANCH  55  72
ENDBRANCH  29  30
ENDBRANCH  21  24
ENDBRANCH  19  20
ENDBRANCH  18  19
ENDBRANCH  17  18
ENDBRANCH   3  17
TORSDOF 15
ENDMDL
MODEL 2
REMARK VINA RESULT:      -9.2      2.198      3.112
REMARK SMILES CCCCOCc1cc(C(=O)NCCCNC(=O)c2ccc(-c3c4nc(c(-c5c(F)cccc5F)c5ccc([nH]5)c(-c5c(F)cccc5F)c5nc(c(-c6c(F)cccc6F)c6ccc3[nH]6)C=C5)C=C4)cc2)[nH]n1
REMARK SMILES IDX 10 1 11 2 12 3 9 5 7 6 8 7 74 8 73 9 6 11 5 12 4 13 3 14
REMARK SMILES IDX 2 15 1 16 13 17 14 18 15 19 16 20 17 21 18 23 19 24 20 25
REMARK SMILES IDX 72 26 21 27 71 28 22 29 23 30 24 31 65 32 25 33 70 34 64 35
REMARK SMILES IDX 66 36 26 37 69 38 63 39 62 40 27 42 53 43 36 44 52 45 37 46
REMARK SMILES IDX 40 47 51 48 67 49 38 50 39 51 50 53 68 54 41 55 28 56 29 57
REMARK SMILES IDX 34 58 30 59 31 60 33 61 35 62 32 63 54 64 55 65 60 66 56 67
REMARK SMILES IDX 57 68 59 69 61 70 58 71 42 72 43 73 48 74 44 75 45 76 47 77
REMARK SMILES IDX 49 78 46 79
REMARK H PARENT 12 4 73 10 16 22 66 41 40 52
REMARK Flexibility Score: inf
ROOT
ATOM      1  C   UNL A   1      33.085  36.611  31.015  1.00  0.00     0.269 C 
ATOM      2  O   UNL A   1      32.927  37.781  31.357  1.00  0.00    -0.268 OA
ATOM      3  N   UNL A   1      32.727  36.277  29.735  1.00  0.00    -0.351 N 
ATOM      4  H   UNL A   1      32.198  36.959  29.261  1.00  0.00     0.163 HD
ENDROOT
BRANCH   1   5
ATOM      5  C   UNL A   1      33.674  35.643  31.898  1.00  0.00     0.123 A 
ATOM      6  C   UNL A   1      34.809  34.360  33.331  1.00  0.00     0.089 A 
ATOM      7  C   UNL A   1      34.935  35.443  32.424  1.00  0.00     0.061 A 
ATOM      8  N   UNL A   1      33.581  33.828  33.273  1.00  0.00    -0.178 NA
ATOM      9  N   UNL A   1      32.936  34.593  32.380  1.00  0.00    -0.273 N 
ATOM     10  H   UNL A   1      32.009  34.417  32.096  1.00  0.00     0.190 HD
BRANCH   6  11
ATOM     11  C   UNL A   1      35.856  33.841  34.272  1.00  0.00     0.218 C 
BRANCH  11  12
ATOM     12  O   UNL A   1      37.082  34.582  34.328  1.00  0.00    -0.375 OA
BRANCH  12  13
ATOM     13  C   UNL A   1      38.241  33.885  34.775  1.00  0.00     0.160 C 
BRANCH  13  14
ATOM     14  C   UNL A   1      37.965  32.435  35.181  1.00  0.00     0.028 C 
BRANCH  14  15
ATOM     15  C   UNL A   1      37.932  32.153  36.686  1.00  0.00    -0.001 C 
ATOM     16  C   UNL A   1      37.761  33.402  37.535  1.00  0.00     0.004 C 
ENDBRANCH  14  15
ENDBRANCH  13  14
ENDBRANCH  12  13
ENDBRANCH  11  12
ENDBRANCH   6  11
ENDBRANCH   1   5
BRANCH   3  17
ATOM     17  C   UNL A   1      33.003  35.077  28.967  1.00  0.00     0.118 C 
BRANCH  17  18
ATOM     18  C   UNL A   1      34.480  34.936  28.624  1.00  0.00     0.042 C 
BRANCH  18  19
ATOM     19  C   UNL A   1      35.026  33.530  28.859  1.00  0.00     0.118 C 
BRANCH  19  20
ATOM     20  N   UNL A   1      34.204  32.499  28.236  1.00  0.00    -0.352 N 
ATOM     21  C   UNL A   1      34.484  31.189  27.939  1.00  0.00     0.251 C 
ATOM     22  H   UNL A   1      33.299  32.792  27.988  1.00  0.00     0.163 HD
ATOM     23  O   UNL A   1      33.691  30.550  27.252  1.00  0.00    -0.269 OA
BRANCH  21  24
ATOM     24  C   UNL A   1      35.730  30.544  28.408  1.00  0.00     0.039 A 
ATOM     25  C   UNL A   1      36.902  30.740  27.670  1.00  0.00     0.014 A 
ATOM     26  C   UNL A   1      35.753  29.722  29.538  1.00  0.00     0.014 A 
ATOM     27  C   UNL A   1      38.101  30.169  28.100  1.00  0.00     0.010 A 
ATOM     28  C   UNL A   1      36.963  29.221  30.012  1.00  0.00     0.010 A 
ATOM     29  C   UNL A   1      38.151  29.438  29.298  1.00  0.00    -0.014 A 
BRANCH  29  30
ATOM     30  C   UNL A   1      39.439  28.913  29.817  1.00  0.00     0.031 A 
ATOM     31  C   UNL A   1      40.086  29.523  31.030  1.00  0.00     0.074 A 
ATOM     32  C   UNL A   1      40.056  27.912  29.161  1.00  0.00     0.049 A 
ATOM     33  N   UNL A   1      41.212  29.199  31.617  1.00  0.00    -0.248 NA
ATOM     34  C   UNL A   1      39.392  30.661  31.649  1.00  0.00     0.031 C 
ATOM     35  C   UNL A   1      39.563  27.273  27.939  1.00  0.00     0.029 A 
ATOM     36  N   UNL A   1      41.230  27.254  29.429  1.00  0.00    -0.354 N 
ATOM     37  C   UNL A   1      41.365  30.100  32.663  1.00  0.00     0.074 A 
ATOM     38  C   UNL A   1      40.248  31.017  32.595  1.00  0.00     0.031 C 
ATOM     39  C   UNL A   1      40.405  26.289  27.587  1.00  0.00     0.029 A 
ATOM     40  C   UNL A   1      41.513  26.250  28.536  1.00  0.00     0.049 A 
ATOM     41  H   UNL A   1      41.812  27.481  30.189  1.00  0.00     0.167 HD
ATOM     42  C   UNL A   1      42.334  30.144  33.610  1.00  0.00     0.037 A 
ATOM     43  C   UNL A   1      42.545  25.388  28.491  1.00  0.00     0.037 A 
ATOM     44  C   UNL A   1      43.435  29.220  33.686  1.00  0.00     0.049 A 
ATOM     45  C   UNL A   1      43.606  25.454  29.551  1.00  0.00     0.074 A 
ATOM     46  C   UNL A   1      44.431  29.139  34.645  1.00  0.00     0.029 A 
ATOM     47  N   UNL A   1      43.690  28.217  32.763  1.00  0.00    -0.354 N 
ATOM     48  N   UNL A   1      43.699  26.262  30.579  1.00  0.00    -0.248 NA
ATOM     49  C   UNL A   1      44.703  24.482  29.448  1.00  0.00     0.031 C 
ATOM     50  C   UNL A   1      45.313  28.116  34.277  1.00  0.00     0.029 A 
ATOM     51  C   UNL A   1      44.842  27.528  33.114  1.00  0.00     0.049 A 
ATOM     52  H   UNL A   1      43.134  28.022  31.973  1.00  0.00     0.167 HD
ATOM     53  C   UNL A   1      44.852  25.886  31.256  1.00  0.00     0.074 A 
ATOM     54  C   UNL A   1      45.413  24.763  30.531  1.00  0.00     0.031 C 
ATOM     55  C   UNL A   1      45.396  26.421  32.376  1.00  0.00     0.037 A 
BRANCH  42  56
ATOM     56  C   UNL A   1      42.238  31.235  34.637  1.00  0.00     0.057 A 
ATOM     57  C   UNL A   1      42.857  32.480  34.454  1.00  0.00     0.134 A 
ATOM     58  C   UNL A   1      41.513  31.045  35.820  1.00  0.00     0.134 A 
ATOM     59  F   UNL A   1      43.576  32.725  33.349  1.00  0.00    -0.206 F 
ATOM     60  C   UNL A   1      42.791  33.480  35.426  1.00  0.00     0.040 A 
ATOM     61  C   UNL A   1      41.416  32.048  36.787  1.00  0.00     0.040 A 
ATOM     62  F   UNL A   1      40.889  29.881  36.058  1.00  0.00    -0.206 F 
ATOM     63  C   UNL A   1      42.065  33.266  36.597  1.00  0.00     0.006 A 
ENDBRANCH  42  56
BRANCH  43  64
ATOM     64  C   UNL A   1      42.597  24.356  27.426  1.00  0.00     0.057 A 
ATOM     65  C   UNL A   1      42.057  23.083  27.637  1.00  0.00     0.134 A 
ATOM     66  C   UNL A   1      43.164  24.620  26.175  1.00  0.00     0.134 A 
ATOM     67  F   UNL A   1      41.514  22.768  28.822  1.00  0.00    -0.206 F 
ATOM     68  C   UNL A   1      42.089  22.103  26.645  1.00  0.00     0.040 A 
ATOM     69  C   UNL A   1      43.184  23.656  25.165  1.00  0.00     0.040 A 
ATOM     70  F   UNL A   1      43.690  25.824  25.909  1.00  0.00    -0.206 F 
ATOM     71  C   UNL A   1      42.648  22.390  25.401  1.00  0.00     0.006 A 
ENDBRANCH  43  64
BRANCH  55  72
ATOM     72  C   UNL A   1      46.655  25.786  32.889  1.00  0.00     0.057 A 
ATOM     73  C   UNL A   1      47.920  26.174  32.424  1.00  0.00     0.134 A 
ATOM     74  C   UNL A   1      46.605  24.784  33.864  1.00  0.00     0.134 A 
ATOM     75  F   UNL A   1      48.036  27.119  31.479  1.00  0.00    -0.206 F 
ATOM     76  C   UNL A   1      49.086  25.566  32.891  1.00  0.00     0.040 A 
ATOM     77  C   UNL A   1      47.765  24.187  34.358  1.00  0.00     0.040 A 
ATOM     78  F   UNL A   1      45.427  24.370  34.357  1.00  0.00    -0.206 F 
ATOM     79  C   UNL A   1      49.010  24.572  33.865  1.00  0.00     0.006 A 
ENDBRANCH  55  72
ENDBRANCH  29  30
ENDBRANCH  21  24
ENDBRANCH  19  20
ENDBRANCH  18  19
ENDBRANCH  17  18
ENDBRANCH   3  17
TORSDOF 15
ENDMDL
MODEL 3
REMARK VINA RESULT:      -9.2      3.923     11.032
REMARK SMILES CCCCOCc1cc(C(=O)NCCCNC(=O)c2ccc(-c3c4nc(c(-c5c(F)cccc5F)c5ccc([nH]5)c(-c5c(F)cccc5F)c5nc(c(-c6c(F)cccc6F)c6ccc3[nH]6)C=C5)C=C4)cc2)[nH]n1
REMARK SMILES IDX 10 1 11 2 12 3 9 5 7 6 8 7 74 8 73 9 6 11 5 12 4 13 3 14
REMARK SMILES IDX 2 15 1 16 13 17 14 18 15 19 16 20 17 21 18 23 19 24 20 25
REMARK SMILES IDX 72 26 21 27 71 28 22 29 23 30 24 31 65 32 25 33 70 34 64 35
REMARK SMILES IDX 66 36 26 37 69 38 63 39 62 40 27 42 53 43 36 44 52 45 37 46
REMARK SMILES IDX 40 47 51 48 67 49 38 50 39 51 50 53 68 54 41 55 28 56 29 57
REMARK SMILES IDX 34 58 30 59 31 60 33 61 35 62 32 63 54 64 55 65 60 66 56 67
REMARK SMILES IDX 57 68 59 69 61 70 58 71 42 72 43 73 48 74 44 75 45 76 47 77
REMARK SMILES IDX 49 78 46 79
REMARK H PARENT 12 4 73 10 16 22 66 41 40 52
REMARK Flexibility Score: inf
ROOT
ATOM      1  C   UNL A   1      44.091  19.150  25.249  1.00  0.00     0.269 C 
ATOM      2  O   UNL A   1      44.907  18.254  25.041  1.00  0.00    -0.268 OA
ATOM      3  N   UNL A   1      42.793  18.776  25.483  1.00  0.00    -0.351 N 
ATOM      4  H   UNL A   1      42.590  17.834  25.276  1.00  0.00     0.163 HD
ENDROOT
BRANCH   1   5
ATOM      5  C   UNL A   1      44.487  20.530  25.306  1.00  0.00     0.123 A 
ATOM      6  C   UNL A   1      44.794  22.740  25.371  1.00  0.00     0.089 A 
ATOM      7  C   UNL A   1      43.924  21.724  24.902  1.00  0.00     0.061 A 
ATOM      8  N   UNL A   1      45.899  22.212  25.912  1.00  0.00    -0.178 NA
ATOM      9  N   UNL A   1      45.704  20.888  25.826  1.00  0.00    -0.273 N 
ATOM     10  H   UNL A   1      46.377  20.229  26.112  1.00  0.00     0.190 HD
BRANCH   6  11
ATOM     11  C   UNL A   1      44.564  24.222  25.322  1.00  0.00     0.218 C 
BRANCH  11  12
ATOM     12  O   UNL A   1      45.547  24.993  24.618  1.00  0.00    -0.375 OA
BRANCH  12  13
ATOM     13  C   UNL A   1      46.324  25.909  25.385  1.00  0.00     0.160 C 
BRANCH  13  14
ATOM     14  C   UNL A   1      47.802  25.524  25.484  1.00  0.00     0.028 C 
BRANCH  14  15
ATOM     15  C   UNL A   1      48.298  25.109  26.872  1.00  0.00    -0.001 C 
ATOM     16  C   UNL A   1      47.182  24.950  27.893  1.00  0.00     0.004 C 
ENDBRANCH  14  15
ENDBRANCH  13  14
ENDBRANCH  12  13
ENDBRANCH  11  12
ENDBRANCH   6  11
ENDBRANCH   1   5
BRANCH   3  17
ATOM     17  C   UNL A   1      41.671  19.545  25.987  1.00  0.00     0.118 C 
BRANCH  17  18
ATOM     18  C   UNL A   1      41.971  20.195  27.331  1.00  0.00     0.042 C 
BRANCH  18  19
ATOM     19  C   UNL A   1      41.140  21.447  27.599  1.00  0.00     0.118 C 
BRANCH  19  20
ATOM     20  N   UNL A   1      39.991  21.557  26.709  1.00  0.00    -0.352 N 
ATOM     21  C   UNL A   1      39.212  22.639  26.382  1.00  0.00     0.251 C 
ATOM     22  H   UNL A   1      39.732  20.717  26.269  1.00  0.00     0.163 HD
ATOM     23  O   UNL A   1      38.182  22.460  25.737  1.00  0.00    -0.269 OA
BRANCH  21  24
ATOM     24  C   UNL A   1      39.576  24.007  26.813  1.00  0.00     0.039 A 
ATOM     25  C   UNL A   1      39.304  24.385  28.131  1.00  0.00     0.014 A 
ATOM     26  C   UNL A   1      40.146  24.929  25.931  1.00  0.00     0.014 A 
ATOM     27  C   UNL A   1      39.661  25.659  28.579  1.00  0.00     0.010 A 
ATOM     28  C   UNL A   1      40.576  26.169  26.399  1.00  0.00     0.010 A 
ATOM     29  C   UNL A   1      40.336  26.548  27.728  1.00  0.00    -0.014 A 
BRANCH  29  30
ATOM     30  C   UNL A   1      40.811  27.865  28.224  1.00  0.00     0.031 A 
ATOM     31  C   UNL A   1      42.276  28.202  28.234  1.00  0.00     0.074 A 
ATOM     32  C   UNL A   1      39.918  28.745  28.715  1.00  0.00     0.049 A 
ATOM     33  N   UNL A   1      42.869  29.298  28.637  1.00  0.00    -0.248 NA
ATOM     34  C   UNL A   1      43.198  27.163  27.751  1.00  0.00     0.031 C 
ATOM     35  C   UNL A   1      38.474  28.517  28.817  1.00  0.00     0.029 A 
ATOM     36  N   UNL A   1      40.090  30.009  29.221  1.00  0.00    -0.354 N 
ATOM     37  C   UNL A   1      44.230  29.074  28.470  1.00  0.00     0.074 A 
ATOM     38  C   UNL A   1      44.377  27.720  27.982  1.00  0.00     0.031 C 
ATOM     39  C   UNL A   1      37.890  29.618  29.312  1.00  0.00     0.029 A 
ATOM     40  C   UNL A   1      38.917  30.616  29.595  1.00  0.00     0.049 A 
ATOM     41  H   UNL A   1      40.972  30.438  29.308  1.00  0.00     0.167 HD
ATOM     42  C   UNL A   1      45.263  29.928  28.678  1.00  0.00     0.037 A 
ATOM     43  C   UNL A   1      38.691  31.841  30.102  1.00  0.00     0.037 A 
ATOM     44  C   UNL A   1      45.113  31.281  29.147  1.00  0.00     0.049 A 
ATOM     45  C   UNL A   1      39.849  32.771  30.323  1.00  0.00     0.074 A 
ATOM     46  C   UNL A   1      46.090  32.246  29.327  1.00  0.00     0.029 A 
ATOM     47  N   UNL A   1      43.909  31.860  29.517  1.00  0.00    -0.354 N 
ATOM     48  N   UNL A   1      41.124  32.574  30.089  1.00  0.00    -0.248 NA
ATOM     49  C   UNL A   1      39.535  34.096  30.873  1.00  0.00     0.031 C 
ATOM     50  C   UNL A   1      45.481  33.394  29.848  1.00  0.00     0.029 A 
ATOM     51  C   UNL A   1      44.119  33.161  29.949  1.00  0.00     0.049 A 
ATOM     52  H   UNL A   1      43.032  31.413  29.479  1.00  0.00     0.167 HD
ATOM     53  C   UNL A   1      41.763  33.755  30.444  1.00  0.00     0.074 A 
ATOM     54  C   UNL A   1      40.730  34.669  30.892  1.00  0.00     0.031 C 
ATOM     55  C   UNL A   1      43.084  34.055  30.404  1.00  0.00     0.037 A 
BRANCH  42  56
ATOM     56  C   UNL A   1      46.645  29.411  28.399  1.00  0.00     0.057 A 
ATOM     57  C   UNL A   1      47.235  29.524  27.131  1.00  0.00     0.134 A 
ATOM     58  C   UNL A   1      47.400  28.800  29.407  1.00  0.00     0.134 A 
ATOM     59  F   UNL A   1      46.562  30.088  26.117  1.00  0.00    -0.206 F 
ATOM     60  C   UNL A   1      48.507  29.014  26.868  1.00  0.00     0.040 A 
ATOM     61  C   UNL A   1      48.685  28.312  29.164  1.00  0.00     0.040 A 
ATOM     62  F   UNL A   1      46.901  28.665  30.645  1.00  0.00    -0.206 F 
ATOM     63  C   UNL A   1      49.238  28.408  27.889  1.00  0.00     0.006 A 
ENDBRANCH  42  56
BRANCH  43  64
ATOM     64  C   UNL A   1      37.302  32.275  30.389  1.00  0.00     0.057 A 
ATOM     65  C   UNL A   1      36.568  32.999  29.443  1.00  0.00     0.134 A 
ATOM     66  C   UNL A   1      36.670  31.964  31.598  1.00  0.00     0.134 A 
ATOM     67  F   UNL A   1      37.127  33.340  28.273  1.00  0.00    -0.206 F 
ATOM     68  C   UNL A   1      35.258  33.409  29.693  1.00  0.00     0.040 A 
ATOM     69  C   UNL A   1      35.352  32.348  31.853  1.00  0.00     0.040 A 
ATOM     70  F   UNL A   1      37.319  31.265  32.541  1.00  0.00    -0.206 F 
ATOM     71  C   UNL A   1      34.644  33.077  30.898  1.00  0.00     0.006 A 
ENDBRANCH  43  64
BRANCH  55  72
ATOM     72  C   UNL A   1      43.480  35.434  30.844  1.00  0.00     0.057 A 
ATOM     73  C   UNL A   1      43.744  35.733  32.188  1.00  0.00     0.134 A 
ATOM     74  C   UNL A   1      43.610  36.472  29.913  1.00  0.00     0.134 A 
ATOM     75  F   UNL A   1      43.624  34.786  33.131  1.00  0.00    -0.206 F 
ATOM     76  C   UNL A   1      44.093  37.022  32.593  1.00  0.00     0.040 A 
ATOM     77  C   UNL A   1      43.984  37.759  30.303  1.00  0.00     0.040 A 
ATOM     78  F   UNL A   1      43.379  36.252  28.610  1.00  0.00    -0.206 F 
ATOM     79  C   UNL A   1      44.218  38.039  31.648  1.00  0.00     0.006 A 
ENDBRANCH  55  72
ENDBRANCH  29  30
ENDBRANCH  21  24
ENDBRANCH  19  20
ENDBRANCH  18  19
ENDBRANCH  17  18
ENDBRANCH   3  17
TORSDOF 15
ENDMDL
