MODEL 1
REMARK VINA RESULT:     -11.4      0.000      0.000
REMARK SMILES Cc1cccnc1C(=O)NC[C@@H](CC(C)C)C(=O)NCCCNC(=O)c1ccc(-c2c3nc(c(-c4c(F)cccc4F)c4ccc([nH]4)c(-c4c(F)cccc4F)c4nc(c(-c5c(F)cccc5F)c5ccc2[nH]5)C=C4)C=C3)cc1
REMARK SMILES IDX 20 1 19 2 17 3 18 4 12 6 11 7 10 8 8 9 9 10 7 12 1 13 2 14
REMARK SMILES IDX 3 15 4 16 6 17 5 18 13 19 14 20 15 21 16 22 21 23 22 24
REMARK SMILES IDX 23 25 24 26 25 28 26 29 27 30 79 31 28 32 78 33 29 34 30 35
REMARK SMILES IDX 31 36 72 37 32 38 77 39 71 40 73 41 33 42 76 43 70 44 69 45
REMARK SMILES IDX 34 47 60 48 43 49 59 50 44 51 47 52 58 53 74 54 45 55 46 56
REMARK SMILES IDX 57 58 75 59 48 60 35 61 36 62 41 63 37 64 38 65 40 66 42 67
REMARK SMILES IDX 39 68 61 69 62 70 67 71 63 72 64 73 66 74 68 75 65 76 49 77
REMARK SMILES IDX 50 78 55 79 51 80 52 81 54 82 56 83 53 84
REMARK H PARENT 19 5 10 11 23 27 73 46 47 57
REMARK Flexibility Score: inf
ROOT
ATOM      1  C   UNL A   1      31.690  30.526  26.052  1.00  0.00     0.117 C 
ENDROOT
BRANCH   1   2
ATOM      2  N   UNL A   1      31.158  30.321  24.716  1.00  0.00    -0.356 N 
ATOM      3  C   UNL A   1      30.774  29.204  24.054  1.00  0.00     0.224 C 
ATOM      4  O   UNL A   1      30.168  29.378  22.992  1.00  0.00    -0.275 OA
ATOM      5  H   UNL A   1      31.059  31.150  24.193  1.00  0.00     0.163 HD
BRANCH   3   6
ATOM      6  C   UNL A   1      31.044  27.797  24.558  1.00  0.00     0.098 C 
BRANCH   6   7
ATOM      7  C   UNL A   1      30.022  26.745  24.083  1.00  0.00     0.129 C 
BRANCH   7   8
ATOM      8  N   UNL A   1      29.455  25.983  25.182  1.00  0.00    -0.350 N 
ATOM      9  C   UNL A   1      29.830  24.958  26.014  1.00  0.00     0.270 C 
ATOM     10  O   UNL A   1      29.056  24.852  26.981  1.00  0.00    -0.268 OA
ATOM     11  H   UNL A   1      28.542  26.289  25.388  1.00  0.00     0.163 HD
BRANCH   9  12
ATOM     12  C   UNL A   1      30.995  23.971  25.929  1.00  0.00     0.131 A 
ATOM     13  C   UNL A   1      31.088  23.333  23.426  1.00  0.00     0.047 C 
ATOM     14  C   UNL A   1      31.503  23.235  24.850  1.00  0.00    -0.020 A 
ATOM     15  C   UNL A   1      32.508  22.272  25.113  1.00  0.00     0.007 A 
ATOM     16  C   UNL A   1      32.955  22.030  26.401  1.00  0.00     0.020 A 
ATOM     17  N   UNL A   1      31.488  23.744  27.191  1.00  0.00    -0.251 NA
ATOM     18  C   UNL A   1      32.417  22.794  27.405  1.00  0.00     0.112 A 
ENDBRANCH   9  12
ENDBRANCH   7   8
ENDBRANCH   6   7
BRANCH   6  19
ATOM     19  C   UNL A   1      32.533  27.383  24.436  1.00  0.00     0.018 C 
BRANCH  19  20
ATOM     20  C   UNL A   1      33.233  26.818  25.692  1.00  0.00    -0.017 C 
ATOM     21  C   UNL A   1      34.207  25.679  25.358  1.00  0.00     0.007 C 
ATOM     22  C   UNL A   1      34.022  27.912  26.418  1.00  0.00     0.007 C 
ENDBRANCH  19  20
ENDBRANCH   6  19
ENDBRANCH   3   6
ENDBRANCH   1   2
BRANCH   1  23
ATOM     23  C   UNL A   1      31.448  31.938  26.557  1.00  0.00     0.042 C 
BRANCH  23  24
ATOM     24  C   UNL A   1      32.657  32.523  27.275  1.00  0.00     0.118 C 
BRANCH  24  25
ATOM     25  N   UNL A   1      32.502  33.941  27.580  1.00  0.00    -0.352 N 
ATOM     26  C   UNL A   1      33.106  34.726  28.533  1.00  0.00     0.251 C 
ATOM     27  H   UNL A   1      31.856  34.416  27.006  1.00  0.00     0.163 HD
ATOM     28  O   UNL A   1      32.674  35.852  28.764  1.00  0.00    -0.269 OA
BRANCH  26  29
ATOM     29  C   UNL A   1      34.247  34.199  29.309  1.00  0.00     0.039 A 
ATOM     30  C   UNL A   1      34.009  33.541  30.518  1.00  0.00     0.014 A 
ATOM     31  C   UNL A   1      35.549  34.335  28.833  1.00  0.00     0.014 A 
ATOM     32  C   UNL A   1      35.066  32.915  31.182  1.00  0.00     0.010 A 
ATOM     33  C   UNL A   1      36.577  33.617  29.429  1.00  0.00     0.010 A 
ATOM     34  C   UNL A   1      36.346  32.890  30.605  1.00  0.00    -0.014 A 
BRANCH  34  35
ATOM     35  C   UNL A   1      37.458  32.092  31.182  1.00  0.00     0.031 A 
ATOM     36  C   UNL A   1      38.010  32.441  32.536  1.00  0.00     0.074 A 
ATOM     37  C   UNL A   1      38.050  31.138  30.436  1.00  0.00     0.049 A 
ATOM     38  N   UNL A   1      39.084  31.988  33.134  1.00  0.00    -0.248 NA
ATOM     39  C   UNL A   1      37.284  33.466  33.303  1.00  0.00     0.031 C 
ATOM     40  C   UNL A   1      37.649  30.744  29.083  1.00  0.00     0.029 A 
ATOM     41  N   UNL A   1      39.132  30.338  30.703  1.00  0.00    -0.354 N 
ATOM     42  C   UNL A   1      39.179  32.698  34.324  1.00  0.00     0.074 A 
ATOM     43  C   UNL A   1      38.084  33.644  34.343  1.00  0.00     0.031 C 
ATOM     44  C   UNL A   1      38.456  29.762  28.651  1.00  0.00     0.029 A 
ATOM     45  C   UNL A   1      39.460  29.490  29.673  1.00  0.00     0.049 A 
ATOM     46  H   UNL A   1      39.627  30.368  31.554  1.00  0.00     0.167 HD
ATOM     47  C   UNL A   1      40.082  32.557  35.322  1.00  0.00     0.037 A 
ATOM     48  C   UNL A   1      40.468  28.605  29.556  1.00  0.00     0.037 A 
ATOM     49  C   UNL A   1      41.137  31.578  35.325  1.00  0.00     0.049 A 
ATOM     50  C   UNL A   1      41.447  28.455  30.685  1.00  0.00     0.074 A 
ATOM     51  C   UNL A   1      42.051  31.299  36.325  1.00  0.00     0.029 A 
ATOM     52  N   UNL A   1      41.412  30.715  34.276  1.00  0.00    -0.354 N 
ATOM     53  N   UNL A   1      41.490  29.093  31.829  1.00  0.00    -0.248 NA
ATOM     54  C   UNL A   1      42.520  27.466  30.505  1.00  0.00     0.031 C 
ATOM     55  C   UNL A   1      42.902  30.286  35.868  1.00  0.00     0.029 A 
ATOM     56  C   UNL A   1      42.495  29.913  34.598  1.00  0.00     0.049 A 
ATOM     57  H   UNL A   1      40.913  30.678  33.427  1.00  0.00     0.167 HD
ATOM     58  C   UNL A   1      42.579  28.570  32.514  1.00  0.00     0.074 A 
ATOM     59  C   UNL A   1      43.161  27.553  31.662  1.00  0.00     0.031 C 
ATOM     60  C   UNL A   1      43.056  28.903  33.737  1.00  0.00     0.037 A 
BRANCH  47  61
ATOM     61  C   UNL A   1      39.957  33.475  36.503  1.00  0.00     0.057 A 
ATOM     62  C   UNL A   1      40.649  34.691  36.567  1.00  0.00     0.134 A 
ATOM     63  C   UNL A   1      39.119  33.151  37.576  1.00  0.00     0.134 A 
ATOM     64  F   UNL A   1      41.480  35.054  35.577  1.00  0.00    -0.206 F 
ATOM     65  C   UNL A   1      40.532  35.541  37.667  1.00  0.00     0.040 A 
ATOM     66  C   UNL A   1      38.972  34.005  38.671  1.00  0.00     0.040 A 
ATOM     67  F   UNL A   1      38.424  32.003  37.577  1.00  0.00    -0.206 F 
ATOM     68  C   UNL A   1      39.686  35.200  38.722  1.00  0.00     0.006 A 
ENDBRANCH  47  61
BRANCH  48  69
ATOM     69  C   UNL A   1      40.592  27.778  28.330  1.00  0.00     0.057 A 
ATOM     70  C   UNL A   1      41.328  28.234  27.231  1.00  0.00     0.134 A 
ATOM     71  C   UNL A   1      39.985  26.522  28.225  1.00  0.00     0.134 A 
ATOM     72  F   UNL A   1      41.917  29.438  27.267  1.00  0.00    -0.206 F 
ATOM     73  C   UNL A   1      41.444  27.478  26.063  1.00  0.00     0.040 A 
ATOM     74  C   UNL A   1      40.111  25.744  27.073  1.00  0.00     0.040 A 
ATOM     75  F   UNL A   1      39.274  26.025  29.249  1.00  0.00    -0.206 F 
ATOM     76  C   UNL A   1      40.837  26.226  25.985  1.00  0.00     0.006 A 
ENDBRANCH  48  69
BRANCH  60  77
ATOM     77  C   UNL A   1      44.249  28.147  34.237  1.00  0.00     0.057 A 
ATOM     78  C   UNL A   1      45.547  28.659  34.112  1.00  0.00     0.134 A 
ATOM     79  C   UNL A   1      44.093  26.920  34.893  1.00  0.00     0.134 A 
ATOM     80  F   UNL A   1      45.760  29.822  33.480  1.00  0.00    -0.206 F 
ATOM     81  C   UNL A   1      46.651  27.966  34.611  1.00  0.00     0.040 A 
ATOM     82  C   UNL A   1      45.186  26.230  35.415  1.00  0.00     0.040 A 
ATOM     83  F   UNL A   1      42.874  26.382  35.050  1.00  0.00    -0.206 F 
ATOM     84  C   UNL A   1      46.471  26.752  35.271  1.00  0.00     0.006 A 
ENDBRANCH  60  77
ENDBRANCH  34  35
ENDBRANCH  26  29
ENDBRANCH  24  25
ENDBRANCH  23  24
ENDBRANCH   1  23
TORSDOF 15
ENDMDL
MODEL 2
REMARK VINA RESULT:     -11.4      1.472      2.066
REMARK SMILES Cc1cccnc1C(=O)NC[C@@H](CC(C)C)C(=O)NCCCNC(=O)c1ccc(-c2c3nc(c(-c4c(F)cccc4F)c4ccc([nH]4)c(-c4c(F)cccc4F)c4nc(c(-c5c(F)cccc5F)c5ccc2[nH]5)C=C4)C=C3)cc1
REMARK SMILES IDX 20 1 19 2 17 3 18 4 12 6 11 7 10 8 8 9 9 10 7 12 1 13 2 14
REMARK SMILES IDX 3 15 4 16 6 17 5 18 13 19 14 20 15 21 16 22 21 23 22 24
REMARK SMILES IDX 23 25 24 26 25 28 26 29 27 30 79 31 28 32 78 33 29 34 30 35
REMARK SMILES IDX 31 36 72 37 32 38 77 39 71 40 73 41 33 42 76 43 70 44 69 45
REMARK SMILES IDX 34 47 60 48 43 49 59 50 44 51 47 52 58 53 74 54 45 55 46 56
REMARK SMILES IDX 57 58 75 59 48 60 35 61 36 62 41 63 37 64 38 65 40 66 42 67
REMARK SMILES IDX 39 68 61 69 62 70 67 71 63 72 64 73 66 74 68 75 65 76 49 77
REMARK SMILES IDX 50 78 55 79 51 80 52 81 54 82 56 83 53 84
REMARK H PARENT 19 5 10 11 23 27 73 46 47 57
REMARK Flexibility Score: inf
ROOT
ATOM      1  C   UNL A   1      31.771  30.330  26.259  1.00  0.00     0.117 C 
ENDROOT
BRANCH   1   2
ATOM      2  N   UNL A   1      32.606  30.069  25.099  1.00  0.00    -0.356 N 
ATOM      3  C   UNL A   1      32.612  29.062  24.194  1.00  0.00     0.224 C 
ATOM      4  O   UNL A   1      33.319  29.228  23.195  1.00  0.00    -0.275 OA
ATOM      5  H   UNL A   1      33.298  30.753  24.942  1.00  0.00     0.163 HD
BRANCH   3   6
ATOM      6  C   UNL A   1      31.803  27.787  24.353  1.00  0.00     0.098 C 
BRANCH   6   7
ATOM      7  C   UNL A   1      31.123  27.299  23.058  1.00  0.00     0.129 C 
BRANCH   7   8
ATOM      8  N   UNL A   1      32.082  26.910  22.038  1.00  0.00    -0.350 N 
ATOM      9  C   UNL A   1      32.776  25.786  21.665  1.00  0.00     0.270 C 
ATOM     10  O   UNL A   1      33.278  25.917  20.536  1.00  0.00    -0.268 OA
ATOM     11  H   UNL A   1      32.294  27.668  21.447  1.00  0.00     0.163 HD
BRANCH   9  12
ATOM     12  C   UNL A   1      33.018  24.466  22.399  1.00  0.00     0.131 A 
ATOM     13  C   UNL A   1      30.653  23.717  23.126  1.00  0.00     0.047 C 
ATOM     14  C   UNL A   1      32.135  23.609  23.069  1.00  0.00    -0.020 A 
ATOM     15  C   UNL A   1      32.682  22.523  23.794  1.00  0.00     0.007 A 
ATOM     16  C   UNL A   1      34.051  22.327  23.878  1.00  0.00     0.020 A 
ATOM     17  N   UNL A   1      34.369  24.225  22.459  1.00  0.00    -0.251 NA
ATOM     18  C   UNL A   1      34.851  23.203  23.191  1.00  0.00     0.112 A 
ENDBRANCH   9  12
ENDBRANCH   7   8
ENDBRANCH   6   7
BRANCH   6  19
ATOM     19  C   UNL A   1      32.542  26.696  25.171  1.00  0.00     0.018 C 
BRANCH  19  20
ATOM     20  C   UNL A   1      31.791  26.040  26.350  1.00  0.00    -0.017 C 
ATOM     21  C   UNL A   1      30.278  25.953  26.106  1.00  0.00     0.007 C 
ATOM     22  C   UNL A   1      32.307  24.621  26.607  1.00  0.00     0.007 C 
ENDBRANCH  19  20
ENDBRANCH   6  19
ENDBRANCH   3   6
ENDBRANCH   1   2
BRANCH   1  23
ATOM     23  C   UNL A   1      31.569  31.815  26.500  1.00  0.00     0.042 C 
BRANCH  23  24
ATOM     24  C   UNL A   1      32.730  32.455  27.248  1.00  0.00     0.118 C 
BRANCH  24  25
ATOM     25  N   UNL A   1      32.496  33.862  27.559  1.00  0.00    -0.352 N 
ATOM     26  C   UNL A   1      33.057  34.675  28.514  1.00  0.00     0.251 C 
ATOM     27  H   UNL A   1      31.825  34.302  26.988  1.00  0.00     0.163 HD
ATOM     28  O   UNL A   1      32.563  35.774  28.750  1.00  0.00    -0.269 OA
BRANCH  26  29
ATOM     29  C   UNL A   1      34.226  34.210  29.287  1.00  0.00     0.039 A 
ATOM     30  C   UNL A   1      34.028  33.571  30.513  1.00  0.00     0.014 A 
ATOM     31  C   UNL A   1      35.517  34.385  28.792  1.00  0.00     0.014 A 
ATOM     32  C   UNL A   1      35.116  33.001  31.178  1.00  0.00     0.010 A 
ATOM     33  C   UNL A   1      36.578  33.719  29.390  1.00  0.00     0.010 A 
ATOM     34  C   UNL A   1      36.389  33.011  30.585  1.00  0.00    -0.014 A 
BRANCH  34  35
ATOM     35  C   UNL A   1      37.538  32.270  31.165  1.00  0.00     0.031 A 
ATOM     36  C   UNL A   1      38.207  32.775  32.413  1.00  0.00     0.074 A 
ATOM     37  C   UNL A   1      38.054  31.216  30.501  1.00  0.00     0.049 A 
ATOM     38  N   UNL A   1      39.322  32.380  32.973  1.00  0.00    -0.248 NA
ATOM     39  C   UNL A   1      37.560  33.905  33.099  1.00  0.00     0.031 C 
ATOM     40  C   UNL A   1      37.535  30.662  29.248  1.00  0.00     0.029 A 
ATOM     41  N   UNL A   1      39.146  30.433  30.779  1.00  0.00    -0.354 N 
ATOM     42  C   UNL A   1      39.526  33.233  34.050  1.00  0.00     0.074 A 
ATOM     43  C   UNL A   1      38.447  34.197  34.038  1.00  0.00     0.031 C 
ATOM     44  C   UNL A   1      38.292  29.615  28.881  1.00  0.00     0.029 A 
ATOM     45  C   UNL A   1      39.376  29.454  29.842  1.00  0.00     0.049 A 
ATOM     46  H   UNL A   1      39.712  30.561  31.575  1.00  0.00     0.167 HD
ATOM     47  C   UNL A   1      40.509  33.201  34.979  1.00  0.00     0.037 A 
ATOM     48  C   UNL A   1      40.361  28.540  29.758  1.00  0.00     0.037 A 
ATOM     49  C   UNL A   1      41.550  32.208  35.021  1.00  0.00     0.049 A 
ATOM     50  C   UNL A   1      41.431  28.514  30.811  1.00  0.00     0.074 A 
ATOM     51  C   UNL A   1      42.542  32.038  35.969  1.00  0.00     0.029 A 
ATOM     52  N   UNL A   1      41.726  31.213  34.072  1.00  0.00    -0.354 N 
ATOM     53  N   UNL A   1      41.578  29.291  31.856  1.00  0.00    -0.248 NA
ATOM     54  C   UNL A   1      42.474  27.487  30.671  1.00  0.00     0.031 C 
ATOM     55  C   UNL A   1      43.340  30.958  35.577  1.00  0.00     0.029 A 
ATOM     56  C   UNL A   1      42.823  30.435  34.403  1.00  0.00     0.049 A 
ATOM     57  H   UNL A   1      41.156  31.079  33.280  1.00  0.00     0.167 HD
ATOM     58  C   UNL A   1      42.715  28.836  32.510  1.00  0.00     0.074 A 
ATOM     59  C   UNL A   1      43.212  27.707  31.750  1.00  0.00     0.031 C 
ATOM     60  C   UNL A   1      43.298  29.312  33.636  1.00  0.00     0.037 A 
BRANCH  47  61
ATOM     61  C   UNL A   1      40.495  34.263  36.038  1.00  0.00     0.057 A 
ATOM     62  C   UNL A   1      41.192  35.468  35.883  1.00  0.00     0.134 A 
ATOM     63  C   UNL A   1      39.758  34.092  37.216  1.00  0.00     0.134 A 
ATOM     64  F   UNL A   1      41.930  35.690  34.783  1.00  0.00    -0.206 F 
ATOM     65  C   UNL A   1      41.178  36.453  36.871  1.00  0.00     0.040 A 
ATOM     66  C   UNL A   1      39.714  35.080  38.201  1.00  0.00     0.040 A 
ATOM     67  F   UNL A   1      39.064  32.963  37.428  1.00  0.00    -0.206 F 
ATOM     68  C   UNL A   1      40.432  36.263  38.033  1.00  0.00     0.006 A 
ENDBRANCH  47  61
BRANCH  48  69
ATOM     69  C   UNL A   1      40.371  27.561  28.642  1.00  0.00     0.057 A 
ATOM     70  C   UNL A   1      41.113  27.807  27.481  1.00  0.00     0.134 A 
ATOM     71  C   UNL A   1      39.648  26.366  28.705  1.00  0.00     0.134 A 
ATOM     72  F   UNL A   1      41.812  28.944  27.356  1.00  0.00    -0.206 F 
ATOM     73  C   UNL A   1      41.124  26.907  26.415  1.00  0.00     0.040 A 
ATOM     74  C   UNL A   1      39.667  25.444  27.656  1.00  0.00     0.040 A 
ATOM     75  F   UNL A   1      38.925  26.068  29.795  1.00  0.00    -0.206 F 
ATOM     76  C   UNL A   1      40.402  25.718  26.504  1.00  0.00     0.006 A 
ENDBRANCH  48  69
BRANCH  60  77
ATOM     77  C   UNL A   1      44.521  28.600  34.129  1.00  0.00     0.057 A 
ATOM     78  C   UNL A   1      44.432  27.489  34.977  1.00  0.00     0.134 A 
ATOM     79  C   UNL A   1      45.796  29.000  33.711  1.00  0.00     0.134 A 
ATOM     80  F   UNL A   1      43.239  27.068  35.423  1.00  0.00    -0.206 F 
ATOM     81  C   UNL A   1      45.573  26.809  35.404  1.00  0.00     0.040 A 
ATOM     82  C   UNL A   1      46.942  28.315  34.113  1.00  0.00     0.040 A 
ATOM     83  F   UNL A   1      45.946  30.053  32.893  1.00  0.00    -0.206 F 
ATOM     84  C   UNL A   1      46.832  27.217  34.966  1.00  0.00     0.006 A 
ENDBRANCH  60  77
ENDBRANCH  34  35
ENDBRANCH  26  29
ENDBRANCH  24  25
ENDBRANCH  23  24
ENDBRANCH   1  23
TORSDOF 15
ENDMDL
MODEL 3
REMARK VINA RESULT:     -11.3      1.534      6.520
REMARK SMILES Cc1cccnc1C(=O)NC[C@@H](CC(C)C)C(=O)NCCCNC(=O)c1ccc(-c2c3nc(c(-c4c(F)cccc4F)c4ccc([nH]4)c(-c4c(F)cccc4F)c4nc(c(-c5c(F)cccc5F)c5ccc2[nH]5)C=C4)C=C3)cc1
REMARK SMILES IDX 20 1 19 2 17 3 18 4 12 6 11 7 10 8 8 9 9 10 7 12 1 13 2 14
REMARK SMILES IDX 3 15 4 16 6 17 5 18 13 19 14 20 15 21 16 22 21 23 22 24
REMARK SMILES IDX 23 25 24 26 25 28 26 29 27 30 79 31 28 32 78 33 29 34 30 35
REMARK SMILES IDX 31 36 72 37 32 38 77 39 71 40 73 41 33 42 76 43 70 44 69 45
REMARK SMILES IDX 34 47 60 48 43 49 59 50 44 51 47 52 58 53 74 54 45 55 46 56
REMARK SMILES IDX 57 58 75 59 48 60 35 61 36 62 41 63 37 64 38 65 40 66 42 67
REMARK SMILES IDX 39 68 61 69 62 70 67 71 63 72 64 73 66 74 68 75 65 76 49 77
REMARK SMILES IDX 50 78 55 79 51 80 52 81 54 82 56 83 53 84
REMARK H PARENT 19 5 10 11 23 27 73 46 47 57
REMARK Flexibility Score: inf
ROOT
ATOM      1  C   UNL A   1      31.406  30.171  26.166  1.00  0.00     0.117 C 
ENDROOT
BRANCH   1   2
ATOM      2  N   UNL A   1      32.258  30.013  25.000  1.00  0.00    -0.356 N 
ATOM      3  C   UNL A   1      32.331  29.047  24.054  1.00  0.00     0.224 C 
ATOM      4  O   UNL A   1      33.027  29.300  23.065  1.00  0.00    -0.275 OA
ATOM      5  H   UNL A   1      32.903  30.746  24.874  1.00  0.00     0.163 HD
BRANCH   3   6
ATOM      6  C   UNL A   1      31.607  27.716  24.157  1.00  0.00     0.098 C 
BRANCH   6   7
ATOM      7  C   UNL A   1      30.981  27.228  22.835  1.00  0.00     0.129 C 
BRANCH   7   8
ATOM      8  N   UNL A   1      31.980  26.815  21.865  1.00  0.00    -0.350 N 
ATOM      9  C   UNL A   1      32.694  25.685  21.551  1.00  0.00     0.270 C 
ATOM     10  O   UNL A   1      33.238  25.786  20.439  1.00  0.00    -0.268 OA
ATOM     11  H   UNL A   1      32.212  27.558  21.261  1.00  0.00     0.163 HD
BRANCH   9  12
ATOM     12  C   UNL A   1      32.912  24.388  22.332  1.00  0.00     0.131 A 
ATOM     13  C   UNL A   1      30.542  23.733  23.127  1.00  0.00     0.047 C 
ATOM     14  C   UNL A   1      32.019  23.582  23.049  1.00  0.00    -0.020 A 
ATOM     15  C   UNL A   1      32.549  22.510  23.807  1.00  0.00     0.007 A 
ATOM     16  C   UNL A   1      33.913  22.279  23.876  1.00  0.00     0.020 A 
ATOM     17  N   UNL A   1      34.257  24.111  22.379  1.00  0.00    -0.251 NA
ATOM     18  C   UNL A   1      34.725  23.105  23.142  1.00  0.00     0.112 A 
ENDBRANCH   9  12
ENDBRANCH   7   8
ENDBRANCH   6   7
BRANCH   6  19
ATOM     19  C   UNL A   1      32.405  26.650  24.952  1.00  0.00     0.018 C 
BRANCH  19  20
ATOM     20  C   UNL A   1      31.764  26.069  26.231  1.00  0.00    -0.017 C 
ATOM     21  C   UNL A   1      30.241  25.921  26.109  1.00  0.00     0.007 C 
ATOM     22  C   UNL A   1      32.346  24.690  26.558  1.00  0.00     0.007 C 
ENDBRANCH  19  20
ENDBRANCH   6  19
ENDBRANCH   3   6
ENDBRANCH   1   2
BRANCH   1  23
ATOM     23  C   UNL A   1      31.164  31.630  26.509  1.00  0.00     0.042 C 
BRANCH  23  24
ATOM     24  C   UNL A   1      32.443  32.455  26.510  1.00  0.00     0.118 C 
BRANCH  24  25
ATOM     25  N   UNL A   1      32.317  33.691  27.276  1.00  0.00    -0.352 N 
ATOM     26  C   UNL A   1      33.060  34.176  28.326  1.00  0.00     0.251 C 
ATOM     27  H   UNL A   1      31.576  34.276  26.994  1.00  0.00     0.163 HD
ATOM     28  O   UNL A   1      32.654  35.137  28.972  1.00  0.00    -0.269 OA
BRANCH  26  29
ATOM     29  C   UNL A   1      34.324  33.513  28.705  1.00  0.00     0.039 A 
ATOM     30  C   UNL A   1      35.518  34.236  28.665  1.00  0.00     0.014 A 
ATOM     31  C   UNL A   1      34.328  32.183  29.123  1.00  0.00     0.014 A 
ATOM     32  C   UNL A   1      36.691  33.660  29.159  1.00  0.00     0.010 A 
ATOM     33  C   UNL A   1      35.463  31.654  29.721  1.00  0.00     0.010 A 
ATOM     34  C   UNL A   1      36.656  32.390  29.756  1.00  0.00    -0.014 A 
BRANCH  34  35
ATOM     35  C   UNL A   1      37.833  31.809  30.451  1.00  0.00     0.031 A 
ATOM     36  C   UNL A   1      38.660  30.752  29.774  1.00  0.00     0.074 A 
ATOM     37  C   UNL A   1      38.081  32.143  31.733  1.00  0.00     0.049 A 
ATOM     38  N   UNL A   1      39.609  29.999  30.271  1.00  0.00    -0.248 NA
ATOM     39  C   UNL A   1      38.351  30.472  28.362  1.00  0.00     0.031 C 
ATOM     40  C   UNL A   1      37.317  33.112  32.524  1.00  0.00     0.029 A 
ATOM     41  N   UNL A   1      39.037  31.688  32.606  1.00  0.00    -0.354 N 
ATOM     42  C   UNL A   1      39.982  29.138  29.247  1.00  0.00     0.074 A 
ATOM     43  C   UNL A   1      39.125  29.426  28.117  1.00  0.00     0.031 C 
ATOM     44  C   UNL A   1      37.849  33.196  33.753  1.00  0.00     0.029 A 
ATOM     45  C   UNL A   1      38.958  32.255  33.855  1.00  0.00     0.049 A 
ATOM     46  H   UNL A   1      39.716  31.018  32.360  1.00  0.00     0.167 HD
ATOM     47  C   UNL A   1      40.964  28.208  29.240  1.00  0.00     0.037 A 
ATOM     48  C   UNL A   1      39.687  32.030  34.964  1.00  0.00     0.037 A 
ATOM     49  C   UNL A   1      41.850  27.960  30.347  1.00  0.00     0.049 A 
ATOM     50  C   UNL A   1      40.783  31.005  34.927  1.00  0.00     0.074 A 
ATOM     51  C   UNL A   1      42.931  27.100  30.411  1.00  0.00     0.029 A 
ATOM     52  N   UNL A   1      41.759  28.581  31.583  1.00  0.00    -0.354 N 
ATOM     53  N   UNL A   1      41.161  30.238  33.933  1.00  0.00    -0.248 NA
ATOM     54  C   UNL A   1      41.551  30.809  36.165  1.00  0.00     0.031 C 
ATOM     55  C   UNL A   1      43.475  27.176  31.697  1.00  0.00     0.029 A 
ATOM     56  C   UNL A   1      42.753  28.110  32.422  1.00  0.00     0.049 A 
ATOM     57  H   UNL A   1      41.085  29.257  31.828  1.00  0.00     0.167 HD
ATOM     58  C   UNL A   1      42.223  29.485  34.418  1.00  0.00     0.074 A 
ATOM     59  C   UNL A   1      42.437  29.897  35.790  1.00  0.00     0.031 C 
ATOM     60  C   UNL A   1      42.953  28.536  33.784  1.00  0.00     0.037 A 
BRANCH  47  61
ATOM     61  C   UNL A   1      41.142  27.398  27.990  1.00  0.00     0.057 A 
ATOM     62  C   UNL A   1      41.978  27.823  26.949  1.00  0.00     0.134 A 
ATOM     63  C   UNL A   1      40.491  26.169  27.834  1.00  0.00     0.134 A 
ATOM     64  F   UNL A   1      42.620  28.999  27.029  1.00  0.00    -0.206 F 
ATOM     65  C   UNL A   1      42.139  27.068  25.787  1.00  0.00     0.040 A 
ATOM     66  C   UNL A   1      40.665  25.391  26.687  1.00  0.00     0.040 A 
ATOM     67  F   UNL A   1      39.680  25.700  28.794  1.00  0.00    -0.206 F 
ATOM     68  C   UNL A   1      41.485  25.844  25.656  1.00  0.00     0.006 A 
ENDBRANCH  47  61
BRANCH  48  69
ATOM     69  C   UNL A   1      39.415  32.804  36.202  1.00  0.00     0.057 A 
ATOM     70  C   UNL A   1      40.050  34.029  36.433  1.00  0.00     0.134 A 
ATOM     71  C   UNL A   1      38.521  32.345  37.175  1.00  0.00     0.134 A 
ATOM     72  F   UNL A   1      40.930  34.510  35.544  1.00  0.00    -0.206 F 
ATOM     73  C   UNL A   1      39.819  34.764  37.597  1.00  0.00     0.040 A 
ATOM     74  C   UNL A   1      38.262  33.080  38.333  1.00  0.00     0.040 A 
ATOM     75  F   UNL A   1      37.873  31.182  37.006  1.00  0.00    -0.206 F 
ATOM     76  C   UNL A   1      38.919  34.291  38.549  1.00  0.00     0.006 A 
ENDBRANCH  48  69
BRANCH  60  77
ATOM     77  C   UNL A   1      44.065  27.896  34.558  1.00  0.00     0.057 A 
ATOM     78  C   UNL A   1      43.875  26.699  35.260  1.00  0.00     0.134 A 
ATOM     79  C   UNL A   1      45.347  28.457  34.561  1.00  0.00     0.134 A 
ATOM     80  F   UNL A   1      42.666  26.122  35.306  1.00  0.00    -0.206 F 
ATOM     81  C   UNL A   1      44.924  26.089  35.950  1.00  0.00     0.040 A 
ATOM     82  C   UNL A   1      46.408  27.845  35.229  1.00  0.00     0.040 A 
ATOM     83  F   UNL A   1      45.593  29.600  33.901  1.00  0.00    -0.206 F 
ATOM     84  C   UNL A   1      46.196  26.659  35.930  1.00  0.00     0.006 A 
ENDBRANCH  60  77
ENDBRANCH  34  35
ENDBRANCH  26  29
ENDBRANCH  24  25
ENDBRANCH  23  24
ENDBRANCH   1  23
TORSDOF 15
ENDMDL
