MODEL 1
REMARK VINA RESULT:     -11.7      0.000      0.000
REMARK SMILES [NH3+]C1(C(=O)N2[C@@H](C(=O)NCCCNC(=O)c3ccc(-c4c5nc(c(-c6c(F)cccc6F)c6ccc([nH]6)c(-c6c(F)cccc6F)c6nc(c(-c7c(F)cccc7F)c7ccc4[nH]7)C=C6)C=C5)cc3)CC[C@@H]3CCCC[C@@H]32)CC1
REMARK SMILES IDX 10 1 9 2 7 3 8 4 6 6 5 7 77 8 70 9 72 10 76 11 71 12 73 13
REMARK SMILES IDX 75 14 74 15 3 16 4 17 2 18 78 19 79 20 1 21 11 25 12 26
REMARK SMILES IDX 13 27 14 28 15 30 16 31 17 32 69 33 18 34 68 35 19 36 20 37
REMARK SMILES IDX 21 38 62 39 22 40 67 41 61 42 63 43 23 44 66 45 60 46 59 47
REMARK SMILES IDX 24 49 50 50 33 51 49 52 34 53 37 54 48 55 64 56 35 57 36 58
REMARK SMILES IDX 47 60 65 61 38 62 25 63 26 64 31 65 27 66 28 67 30 68 32 69
REMARK SMILES IDX 29 70 51 71 52 72 57 73 53 74 54 75 56 76 58 77 55 78 39 79
REMARK SMILES IDX 40 80 45 81 41 82 42 83 44 84 46 85 43 86
REMARK H PARENT 9 5 1 22 1 23 1 24 13 29 63 48 37 59
REMARK Flexibility Score: inf
ROOT
ATOM      1  C   UNL A   1      32.303  26.756  26.211  1.00  0.00     0.117 C 
ENDROOT
BRANCH   1   2
ATOM      2  N   UNL A   1      31.593  25.672  26.859  1.00  0.00    -0.354 N 
ATOM      3  C   UNL A   1      31.797  24.334  26.773  1.00  0.00     0.242 C 
ATOM      4  O   UNL A   1      30.856  23.599  27.093  1.00  0.00    -0.273 OA
ATOM      5  H   UNL A   1      30.854  25.948  27.448  1.00  0.00     0.163 HD
BRANCH   3   6
ATOM      6  C   UNL A   1      33.078  23.740  26.160  1.00  0.00     0.175 C 
ATOM      7  N   UNL A   1      33.000  23.111  24.813  1.00  0.00    -0.322 N 
ATOM      8  C   UNL A   1      34.180  22.315  24.404  1.00  0.00     0.089 C 
ATOM      9  C   UNL A   1      33.594  22.739  27.230  1.00  0.00     0.036 C 
ATOM     10  C   UNL A   1      34.534  21.258  25.444  1.00  0.00     0.012 C 
ATOM     11  C   UNL A   1      35.366  23.241  24.055  1.00  0.00     0.025 C 
ATOM     12  C   UNL A   1      34.796  21.911  26.801  1.00  0.00     0.008 C 
ATOM     13  C   UNL A   1      35.722  20.445  24.925  1.00  0.00     0.006 C 
ATOM     14  C   UNL A   1      36.765  22.615  24.035  1.00  0.00     0.002 C 
ATOM     15  C   UNL A   1      36.974  21.292  24.770  1.00  0.00     0.000 C 
BRANCH   7  16
ATOM     16  C   UNL A   1      32.179  23.490  23.739  1.00  0.00     0.284 C 
ATOM     17  O   UNL A   1      31.391  22.683  23.239  1.00  0.00    -0.268 OA
BRANCH  16  18
ATOM     18  C   UNL A   1      32.166  24.878  23.124  1.00  0.00     0.174 C 
ATOM     19  C   UNL A   1      32.881  24.934  21.775  1.00  0.00     0.086 C 
ATOM     20  C   UNL A   1      33.327  25.808  22.896  1.00  0.00     0.086 C 
BRANCH  18  21
ATOM     21  N   UNL A   1      30.796  25.474  23.114  1.00  0.00    -0.345 N 
ATOM     22  H   UNL A   1      30.800  26.347  23.643  1.00  0.00     0.345 HD
ATOM     23  H   UNL A   1      30.137  24.822  23.540  1.00  0.00     0.345 HD
ATOM     24  H   UNL A   1      30.514  25.662  22.151  1.00  0.00     0.345 HD
ENDBRANCH  18  21
ENDBRANCH  16  18
ENDBRANCH   7  16
ENDBRANCH   3   6
ENDBRANCH   1   2
BRANCH   1  25
ATOM     25  C   UNL A   1      32.332  27.988  27.103  1.00  0.00     0.042 C 
BRANCH  25  26
ATOM     26  C   UNL A   1      33.726  28.579  27.273  1.00  0.00     0.118 C 
BRANCH  26  27
ATOM     27  N   UNL A   1      33.691  29.970  27.700  1.00  0.00    -0.352 N 
ATOM     28  C   UNL A   1      34.645  30.695  28.365  1.00  0.00     0.251 C 
ATOM     29  H   UNL A   1      32.866  30.461  27.481  1.00  0.00     0.163 HD
ATOM     30  O   UNL A   1      34.363  31.795  28.842  1.00  0.00    -0.269 OA
BRANCH  28  31
ATOM     31  C   UNL A   1      36.004  30.146  28.524  1.00  0.00     0.039 A 
ATOM     32  C   UNL A   1      36.886  30.194  27.444  1.00  0.00     0.014 A 
ATOM     33  C   UNL A   1      36.407  29.589  29.741  1.00  0.00     0.014 A 
ATOM     34  C   UNL A   1      38.195  29.741  27.605  1.00  0.00     0.010 A 
ATOM     35  C   UNL A   1      37.734  29.223  29.927  1.00  0.00     0.010 A 
ATOM     36  C   UNL A   1      38.640  29.287  28.858  1.00  0.00    -0.014 A 
BRANCH  36  37
ATOM     37  C   UNL A   1      40.044  28.856  29.067  1.00  0.00     0.031 A 
ATOM     38  C   UNL A   1      41.038  29.807  29.677  1.00  0.00     0.074 A 
ATOM     39  C   UNL A   1      40.435  27.633  28.659  1.00  0.00     0.049 A 
ATOM     40  N   UNL A   1      42.322  29.650  29.868  1.00  0.00    -0.248 NA
ATOM     41  C   UNL A   1      40.524  31.119  30.107  1.00  0.00     0.031 C 
ATOM     42  C   UNL A   1      39.574  26.639  28.012  1.00  0.00     0.029 A 
ATOM     43  N   UNL A   1      41.661  27.021  28.718  1.00  0.00    -0.354 N 
ATOM     44  C   UNL A   1      42.767  30.835  30.438  1.00  0.00     0.074 A 
ATOM     45  C   UNL A   1      41.633  31.730  30.498  1.00  0.00     0.031 C 
ATOM     46  C   UNL A   1      40.295  25.535  27.754  1.00  0.00     0.029 A 
ATOM     47  C   UNL A   1      41.673  25.758  28.177  1.00  0.00     0.049 A 
ATOM     48  H   UNL A   1      42.457  27.446  29.112  1.00  0.00     0.167 HD
ATOM     49  C   UNL A   1      44.002  31.140  30.903  1.00  0.00     0.037 A 
ATOM     50  C   UNL A   1      42.687  24.884  28.029  1.00  0.00     0.037 A 
ATOM     51  C   UNL A   1      45.126  30.244  30.855  1.00  0.00     0.049 A 
ATOM     52  C   UNL A   1      44.056  25.262  28.526  1.00  0.00     0.074 A 
ATOM     53  C   UNL A   1      46.414  30.452  31.315  1.00  0.00     0.029 A 
ATOM     54  N   UNL A   1      45.093  28.966  30.317  1.00  0.00    -0.354 N 
ATOM     55  N   UNL A   1      44.449  26.368  29.110  1.00  0.00    -0.248 NA
ATOM     56  C   UNL A   1      45.123  24.265  28.350  1.00  0.00     0.031 C 
ATOM     57  C   UNL A   1      47.170  29.312  31.025  1.00  0.00     0.029 A 
ATOM     58  C   UNL A   1      46.341  28.377  30.428  1.00  0.00     0.049 A 
ATOM     59  H   UNL A   1      44.300  28.541  29.917  1.00  0.00     0.167 HD
ATOM     60  C   UNL A   1      45.794  26.187  29.402  1.00  0.00     0.074 A 
ATOM     61  C   UNL A   1      46.146  24.858  28.947  1.00  0.00     0.031 C 
ATOM     62  C   UNL A   1      46.664  27.044  29.989  1.00  0.00     0.037 A 
BRANCH  49  63
ATOM     63  C   UNL A   1      44.194  32.492  31.526  1.00  0.00     0.057 A 
ATOM     64  C   UNL A   1      44.022  32.694  32.902  1.00  0.00     0.134 A 
ATOM     65  C   UNL A   1      44.607  33.588  30.759  1.00  0.00     0.134 A 
ATOM     66  F   UNL A   1      43.614  31.688  33.690  1.00  0.00    -0.206 F 
ATOM     67  C   UNL A   1      44.235  33.941  33.490  1.00  0.00     0.040 A 
ATOM     68  C   UNL A   1      44.851  34.834  31.340  1.00  0.00     0.040 A 
ATOM     69  F   UNL A   1      44.797  33.463  29.437  1.00  0.00    -0.206 F 
ATOM     70  C   UNL A   1      44.661  35.014  32.709  1.00  0.00     0.006 A 
ENDBRANCH  49  63
BRANCH  50  71
ATOM     71  C   UNL A   1      42.458  23.564  27.384  1.00  0.00     0.057 A 
ATOM     72  C   UNL A   1      42.080  22.445  28.136  1.00  0.00     0.134 A 
ATOM     73  C   UNL A   1      42.657  23.378  26.010  1.00  0.00     0.134 A 
ATOM     74  F   UNL A   1      41.890  22.555  29.459  1.00  0.00    -0.206 F 
ATOM     75  C   UNL A   1      41.947  21.183  27.556  1.00  0.00     0.040 A 
ATOM     76  C   UNL A   1      42.498  22.127  25.412  1.00  0.00     0.040 A 
ATOM     77  F   UNL A   1      43.010  24.410  25.230  1.00  0.00    -0.206 F 
ATOM     78  C   UNL A   1      42.156  21.023  26.187  1.00  0.00     0.006 A 
ENDBRANCH  50  71
BRANCH  62  79
ATOM     79  C   UNL A   1      48.063  26.552  30.221  1.00  0.00     0.057 A 
ATOM     80  C   UNL A   1      48.433  25.898  31.402  1.00  0.00     0.134 A 
ATOM     81  C   UNL A   1      49.043  26.707  29.232  1.00  0.00     0.134 A 
ATOM     82  F   UNL A   1      47.544  25.729  32.393  1.00  0.00    -0.206 F 
ATOM     83  C   UNL A   1      49.735  25.438  31.603  1.00  0.00     0.040 A 
ATOM     84  C   UNL A   1      50.341  26.225  29.409  1.00  0.00     0.040 A 
ATOM     85  F   UNL A   1      48.752  27.316  28.072  1.00  0.00    -0.206 F 
ATOM     86  C   UNL A   1      50.692  25.596  30.601  1.00  0.00     0.006 A 
ENDBRANCH  62  79
ENDBRANCH  36  37
ENDBRANCH  28  31
ENDBRANCH  26  27
ENDBRANCH  25  26
ENDBRANCH   1  25
TORSDOF 13
ENDMDL
MODEL 2
REMARK VINA RESULT:     -11.5      1.857      2.442
REMARK SMILES [NH3+]C1(C(=O)N2[C@@H](C(=O)NCCCNC(=O)c3ccc(-c4c5nc(c(-c6c(F)cccc6F)c6ccc([nH]6)c(-c6c(F)cccc6F)c6nc(c(-c7c(F)cccc7F)c7ccc4[nH]7)C=C6)C=C5)cc3)CC[C@@H]3CCCC[C@@H]32)CC1
REMARK SMILES IDX 10 1 9 2 7 3 8 4 6 6 5 7 77 8 70 9 72 10 76 11 71 12 73 13
REMARK SMILES IDX 75 14 74 15 3 16 4 17 2 18 78 19 79 20 1 21 11 25 12 26
REMARK SMILES IDX 13 27 14 28 15 30 16 31 17 32 69 33 18 34 68 35 19 36 20 37
REMARK SMILES IDX 21 38 62 39 22 40 67 41 61 42 63 43 23 44 66 45 60 46 59 47
REMARK SMILES IDX 24 49 50 50 33 51 49 52 34 53 37 54 48 55 64 56 35 57 36 58
REMARK SMILES IDX 47 60 65 61 38 62 25 63 26 64 31 65 27 66 28 67 30 68 32 69
REMARK SMILES IDX 29 70 51 71 52 72 57 73 53 74 54 75 56 76 58 77 55 78 39 79
REMARK SMILES IDX 40 80 45 81 41 82 42 83 44 84 46 85 43 86
REMARK H PARENT 9 5 1 22 1 23 1 24 13 29 63 48 37 59
REMARK Flexibility Score: inf
ROOT
ATOM      1  C   UNL A   1      32.319  26.945  25.929  1.00  0.00     0.117 C 
ENDROOT
BRANCH   1   2
ATOM      2  N   UNL A   1      31.605  25.903  26.639  1.00  0.00    -0.354 N 
ATOM      3  C   UNL A   1      31.797  24.561  26.621  1.00  0.00     0.242 C 
ATOM      4  O   UNL A   1      30.852  23.851  26.987  1.00  0.00    -0.273 OA
ATOM      5  H   UNL A   1      30.873  26.216  27.219  1.00  0.00     0.163 HD
BRANCH   3   6
ATOM      6  C   UNL A   1      33.067  23.924  26.031  1.00  0.00     0.175 C 
ATOM      7  N   UNL A   1      32.979  23.247  24.708  1.00  0.00    -0.322 N 
ATOM      8  C   UNL A   1      34.145  22.417  24.329  1.00  0.00     0.089 C 
ATOM      9  C   UNL A   1      33.570  22.956  27.137  1.00  0.00     0.036 C 
ATOM     10  C   UNL A   1      34.484  21.394  25.407  1.00  0.00     0.012 C 
ATOM     11  C   UNL A   1      35.345  23.311  23.945  1.00  0.00     0.025 C 
ATOM     12  C   UNL A   1      34.758  22.094  26.739  1.00  0.00     0.008 C 
ATOM     13  C   UNL A   1      35.658  20.544  24.919  1.00  0.00     0.006 C 
ATOM     14  C   UNL A   1      36.734  22.663  23.947  1.00  0.00     0.002 C 
ATOM     15  C   UNL A   1      36.924  21.365  24.731  1.00  0.00     0.000 C 
BRANCH   7  16
ATOM     16  C   UNL A   1      32.162  23.597  23.621  1.00  0.00     0.284 C 
ATOM     17  O   UNL A   1      31.363  22.784  23.150  1.00  0.00    -0.268 OA
BRANCH  16  18
ATOM     18  C   UNL A   1      32.167  24.962  22.956  1.00  0.00     0.174 C 
ATOM     19  C   UNL A   1      32.875  24.957  21.602  1.00  0.00     0.086 C 
ATOM     20  C   UNL A   1      33.343  25.864  22.687  1.00  0.00     0.086 C 
BRANCH  18  21
ATOM     21  N   UNL A   1      30.807  25.580  22.932  1.00  0.00    -0.345 N 
ATOM     22  H   UNL A   1      30.185  25.059  23.551  1.00  0.00     0.345 HD
ATOM     23  H   UNL A   1      30.439  25.556  21.981  1.00  0.00     0.345 HD
ATOM     24  H   UNL A   1      30.868  26.549  23.248  1.00  0.00     0.345 HD
ENDBRANCH  18  21
ENDBRANCH  16  18
ENDBRANCH   7  16
ENDBRANCH   3   6
ENDBRANCH   1   2
BRANCH   1  25
ATOM     25  C   UNL A   1      33.223  27.718  26.879  1.00  0.00     0.042 C 
BRANCH  25  26
ATOM     26  C   UNL A   1      34.112  28.734  26.174  1.00  0.00     0.118 C 
BRANCH  26  27
ATOM     27  N   UNL A   1      33.820  30.102  26.578  1.00  0.00    -0.352 N 
ATOM     28  C   UNL A   1      34.431  30.873  27.531  1.00  0.00     0.251 C 
ATOM     29  H   UNL A   1      33.077  30.536  26.098  1.00  0.00     0.163 HD
ATOM     30  O   UNL A   1      33.914  31.930  27.895  1.00  0.00    -0.269 OA
BRANCH  28  31
ATOM     31  C   UNL A   1      35.701  30.424  28.132  1.00  0.00     0.039 A 
ATOM     32  C   UNL A   1      35.670  29.729  29.342  1.00  0.00     0.014 A 
ATOM     33  C   UNL A   1      36.919  30.684  27.497  1.00  0.00     0.014 A 
ATOM     34  C   UNL A   1      36.859  29.239  29.882  1.00  0.00     0.010 A 
ATOM     35  C   UNL A   1      38.088  30.118  27.988  1.00  0.00     0.010 A 
ATOM     36  C   UNL A   1      38.072  29.397  29.192  1.00  0.00    -0.014 A 
BRANCH  36  37
ATOM     37  C   UNL A   1      39.338  28.832  29.719  1.00  0.00     0.031 A 
ATOM     38  C   UNL A   1      39.997  29.459  30.918  1.00  0.00     0.074 A 
ATOM     39  C   UNL A   1      39.919  27.793  29.090  1.00  0.00     0.049 A 
ATOM     40  N   UNL A   1      41.141  29.165  31.480  1.00  0.00    -0.248 NA
ATOM     41  C   UNL A   1      39.288  30.583  31.554  1.00  0.00     0.031 C 
ATOM     42  C   UNL A   1      39.399  27.128  27.891  1.00  0.00     0.029 A 
ATOM     43  N   UNL A   1      41.081  27.118  29.363  1.00  0.00    -0.354 N 
ATOM     44  C   UNL A   1      41.287  30.061  32.530  1.00  0.00     0.074 A 
ATOM     45  C   UNL A   1      40.152  30.956  32.487  1.00  0.00     0.031 C 
ATOM     46  C   UNL A   1      40.229  26.130  27.547  1.00  0.00     0.029 A 
ATOM     47  C   UNL A   1      41.357  26.110  28.472  1.00  0.00     0.049 A 
ATOM     48  H   UNL A   1      41.662  27.335  30.128  1.00  0.00     0.167 HD
ATOM     49  C   UNL A   1      42.261  30.114  33.469  1.00  0.00     0.037 A 
ATOM     50  C   UNL A   1      42.409  25.272  28.403  1.00  0.00     0.037 A 
ATOM     51  C   UNL A   1      43.383  29.214  33.519  1.00  0.00     0.049 A 
ATOM     52  C   UNL A   1      43.493  25.374  29.441  1.00  0.00     0.074 A 
ATOM     53  C   UNL A   1      44.414  29.173  34.440  1.00  0.00     0.029 A 
ATOM     54  N   UNL A   1      43.616  28.194  32.610  1.00  0.00    -0.354 N 
ATOM     55  N   UNL A   1      43.590  26.194  30.459  1.00  0.00    -0.248 NA
ATOM     56  C   UNL A   1      44.611  24.426  29.326  1.00  0.00     0.031 C 
ATOM     57  C   UNL A   1      45.290  28.150  34.069  1.00  0.00     0.029 A 
ATOM     58  C   UNL A   1      44.779  27.522  32.945  1.00  0.00     0.049 A 
ATOM     59  H   UNL A   1      43.039  27.978  31.841  1.00  0.00     0.167 HD
ATOM     60  C   UNL A   1      44.757  25.840  31.124  1.00  0.00     0.074 A 
ATOM     61  C   UNL A   1      45.325  24.719  30.404  1.00  0.00     0.031 C 
ATOM     62  C   UNL A   1      45.315  26.394  32.227  1.00  0.00     0.037 A 
BRANCH  49  63
ATOM     63  C   UNL A   1      42.143  31.165  34.534  1.00  0.00     0.057 A 
ATOM     64  C   UNL A   1      41.434  30.929  35.719  1.00  0.00     0.134 A 
ATOM     65  C   UNL A   1      42.785  32.402  34.401  1.00  0.00     0.134 A 
ATOM     66  F   UNL A   1      40.784  29.769  35.903  1.00  0.00    -0.206 F 
ATOM     67  C   UNL A   1      41.353  31.890  36.727  1.00  0.00     0.040 A 
ATOM     68  C   UNL A   1      42.734  33.362  35.413  1.00  0.00     0.040 A 
ATOM     69  F   UNL A   1      43.485  32.692  33.295  1.00  0.00    -0.206 F 
ATOM     70  C   UNL A   1      42.013  33.109  36.578  1.00  0.00     0.006 A 
ENDBRANCH  49  63
BRANCH  50  71
ATOM     71  C   UNL A   1      42.498  24.260  27.318  1.00  0.00     0.057 A 
ATOM     72  C   UNL A   1      42.046  22.949  27.509  1.00  0.00     0.134 A 
ATOM     73  C   UNL A   1      43.081  24.566  26.081  1.00  0.00     0.134 A 
ATOM     74  F   UNL A   1      41.494  22.590  28.677  1.00  0.00    -0.206 F 
ATOM     75  C   UNL A   1      42.205  21.968  26.528  1.00  0.00     0.040 A 
ATOM     76  C   UNL A   1      43.218  23.603  25.080  1.00  0.00     0.040 A 
ATOM     77  F   UNL A   1      43.526  25.805  25.829  1.00  0.00    -0.206 F 
ATOM     78  C   UNL A   1      42.792  22.296  25.308  1.00  0.00     0.006 A 
ENDBRANCH  50  71
BRANCH  62  79
ATOM     79  C   UNL A   1      46.572  25.764  32.753  1.00  0.00     0.057 A 
ATOM     80  C   UNL A   1      47.839  26.137  32.289  1.00  0.00     0.134 A 
ATOM     81  C   UNL A   1      46.511  24.794  33.763  1.00  0.00     0.134 A 
ATOM     82  F   UNL A   1      47.964  27.051  31.314  1.00  0.00    -0.206 F 
ATOM     83  C   UNL A   1      49.000  25.549  32.791  1.00  0.00     0.040 A 
ATOM     84  C   UNL A   1      47.667  24.221  34.293  1.00  0.00     0.040 A 
ATOM     85  F   UNL A   1      45.328  24.399  34.258  1.00  0.00    -0.206 F 
ATOM     86  C   UNL A   1      48.916  24.592  33.801  1.00  0.00     0.006 A 
ENDBRANCH  62  79
ENDBRANCH  36  37
ENDBRANCH  28  31
ENDBRANCH  26  27
ENDBRANCH  25  26
ENDBRANCH   1  25
TORSDOF 13
ENDMDL
MODEL 3
REMARK VINA RESULT:     -11.2      2.842      7.988
REMARK SMILES [NH3+]C1(C(=O)N2[C@@H](C(=O)NCCCNC(=O)c3ccc(-c4c5nc(c(-c6c(F)cccc6F)c6ccc([nH]6)c(-c6c(F)cccc6F)c6nc(c(-c7c(F)cccc7F)c7ccc4[nH]7)C=C6)C=C5)cc3)CC[C@@H]3CCCC[C@@H]32)CC1
REMARK SMILES IDX 10 1 9 2 7 3 8 4 6 6 5 7 77 8 70 9 72 10 76 11 71 12 73 13
REMARK SMILES IDX 75 14 74 15 3 16 4 17 2 18 78 19 79 20 1 21 11 25 12 26
REMARK SMILES IDX 13 27 14 28 15 30 16 31 17 32 69 33 18 34 68 35 19 36 20 37
REMARK SMILES IDX 21 38 62 39 22 40 67 41 61 42 63 43 23 44 66 45 60 46 59 47
REMARK SMILES IDX 24 49 50 50 33 51 49 52 34 53 37 54 48 55 64 56 35 57 36 58
REMARK SMILES IDX 47 60 65 61 38 62 25 63 26 64 31 65 27 66 28 67 30 68 32 69
REMARK SMILES IDX 29 70 51 71 52 72 57 73 53 74 54 75 56 76 58 77 55 78 39 79
REMARK SMILES IDX 40 80 45 81 41 82 42 83 44 84 46 85 43 86
REMARK H PARENT 9 5 1 22 1 23 1 24 13 29 63 48 37 59
REMARK Flexibility Score: inf
ROOT
ATOM      1  C   UNL A   1      34.797  23.738  24.147  1.00  0.00     0.117 C 
ENDROOT
BRANCH   1   2
ATOM      2  N   UNL A   1      34.406  24.346  22.892  1.00  0.00    -0.354 N 
ATOM      3  C   UNL A   1      33.634  25.438  22.666  1.00  0.00     0.242 C 
ATOM      4  O   UNL A   1      33.125  25.545  21.545  1.00  0.00    -0.273 OA
ATOM      5  H   UNL A   1      34.752  23.900  22.085  1.00  0.00     0.163 HD
BRANCH   3   6
ATOM      6  C   UNL A   1      33.270  26.428  23.786  1.00  0.00     0.175 C 
ATOM      7  N   UNL A   1      31.869  26.455  24.288  1.00  0.00    -0.322 N 
ATOM      8  C   UNL A   1      31.515  27.606  25.150  1.00  0.00     0.089 C 
ATOM      9  C   UNL A   1      33.710  27.814  23.242  1.00  0.00     0.036 C 
ATOM     10  C   UNL A   1      31.846  28.935  24.481  1.00  0.00     0.012 C 
ATOM     11  C   UNL A   1      32.157  27.455  26.547  1.00  0.00     0.025 C 
ATOM     12  C   UNL A   1      33.331  28.995  24.121  1.00  0.00     0.008 C 
ATOM     13  C   UNL A   1      31.402  30.069  25.406  1.00  0.00     0.006 C 
ATOM     14  C   UNL A   1      32.268  28.718  27.410  1.00  0.00     0.002 C 
ATOM     15  C   UNL A   1      32.171  30.076  26.717  1.00  0.00     0.000 C 
BRANCH   7  16
ATOM     16  C   UNL A   1      30.980  25.374  24.402  1.00  0.00     0.284 C 
ATOM     17  O   UNL A   1      29.879  25.408  23.846  1.00  0.00    -0.268 OA
BRANCH  16  18
ATOM     18  C   UNL A   1      31.281  24.102  25.173  1.00  0.00     0.174 C 
ATOM     19  C   UNL A   1      30.481  23.993  26.470  1.00  0.00     0.086 C 
ATOM     20  C   UNL A   1      31.969  23.958  26.504  1.00  0.00     0.086 C 
BRANCH  18  21
ATOM     21  N   UNL A   1      31.203  22.888  24.305  1.00  0.00    -0.345 N 
ATOM     22  H   UNL A   1      30.463  23.010  23.613  1.00  0.00     0.345 HD
ATOM     23  H   UNL A   1      30.999  22.071  24.881  1.00  0.00     0.345 HD
ATOM     24  H   UNL A   1      32.095  22.753  23.828  1.00  0.00     0.345 HD
ENDBRANCH  18  21
ENDBRANCH  16  18
ENDBRANCH   7  16
ENDBRANCH   3   6
ENDBRANCH   1   2
BRANCH   1  25
ATOM     25  C   UNL A   1      36.226  23.218  24.070  1.00  0.00     0.042 C 
BRANCH  25  26
ATOM     26  C   UNL A   1      37.107  23.700  25.214  1.00  0.00     0.118 C 
BRANCH  26  27
ATOM     27  N   UNL A   1      38.204  22.785  25.495  1.00  0.00    -0.352 N 
ATOM     28  C   UNL A   1      39.396  23.030  26.123  1.00  0.00     0.251 C 
ATOM     29  H   UNL A   1      38.071  21.858  25.190  1.00  0.00     0.163 HD
ATOM     30  O   UNL A   1      40.300  22.194  26.080  1.00  0.00    -0.269 OA
BRANCH  28  31
ATOM     31  C   UNL A   1      39.600  24.305  26.836  1.00  0.00     0.039 A 
ATOM     32  C   UNL A   1      39.076  24.456  28.120  1.00  0.00     0.014 A 
ATOM     33  C   UNL A   1      40.315  25.347  26.237  1.00  0.00     0.014 A 
ATOM     34  C   UNL A   1      39.323  25.632  28.828  1.00  0.00     0.010 A 
ATOM     35  C   UNL A   1      40.637  26.477  26.977  1.00  0.00     0.010 A 
ATOM     36  C   UNL A   1      40.137  26.636  28.277  1.00  0.00    -0.014 A 
BRANCH  36  37
ATOM     37  C   UNL A   1      40.461  27.867  29.037  1.00  0.00     0.031 A 
ATOM     38  C   UNL A   1      41.780  27.983  29.752  1.00  0.00     0.074 A 
ATOM     39  C   UNL A   1      39.550  28.856  29.128  1.00  0.00     0.049 A 
ATOM     40  N   UNL A   1      42.217  28.938  30.531  1.00  0.00    -0.248 NA
ATOM     41  C   UNL A   1      42.724  26.863  29.590  1.00  0.00     0.031 C 
ATOM     42  C   UNL A   1      38.218  28.841  28.517  1.00  0.00     0.029 A 
ATOM     43  N   UNL A   1      39.601  30.062  29.779  1.00  0.00    -0.354 N 
ATOM     44  C   UNL A   1      43.480  28.538  30.948  1.00  0.00     0.074 A 
ATOM     45  C   UNL A   1      43.712  27.222  30.396  1.00  0.00     0.031 C 
ATOM     46  C   UNL A   1      37.589  29.991  28.806  1.00  0.00     0.029 A 
ATOM     47  C   UNL A   1      38.453  30.806  29.654  1.00  0.00     0.049 A 
ATOM     48  H   UNL A   1      40.387  30.367  30.287  1.00  0.00     0.167 HD
ATOM     49  C   UNL A   1      44.380  29.218  31.696  1.00  0.00     0.037 A 
ATOM     50  C   UNL A   1      38.130  32.004  30.177  1.00  0.00     0.037 A 
ATOM     51  C   UNL A   1      44.152  30.533  32.234  1.00  0.00     0.049 A 
ATOM     52  C   UNL A   1      39.138  32.724  31.030  1.00  0.00     0.074 A 
ATOM     53  C   UNL A   1      45.008  31.316  32.989  1.00  0.00     0.029 A 
ATOM     54  N   UNL A   1      42.984  31.261  32.068  1.00  0.00    -0.354 N 
ATOM     55  N   UNL A   1      40.348  32.353  31.373  1.00  0.00    -0.248 NA
ATOM     56  C   UNL A   1      38.739  34.035  31.564  1.00  0.00     0.031 C 
ATOM     57  C   UNL A   1      44.344  32.503  33.310  1.00  0.00     0.029 A 
ATOM     58  C   UNL A   1      43.094  32.481  32.714  1.00  0.00     0.049 A 
ATOM     59  H   UNL A   1      42.194  30.957  31.565  1.00  0.00     0.167 HD
ATOM     60  C   UNL A   1      40.865  33.397  32.130  1.00  0.00     0.074 A 
ATOM     61  C   UNL A   1      39.845  34.423  32.182  1.00  0.00     0.031 C 
ATOM     62  C   UNL A   1      42.074  33.498  32.734  1.00  0.00     0.037 A 
BRANCH  49  63
ATOM     63  C   UNL A   1      45.704  28.562  31.956  1.00  0.00     0.057 A 
ATOM     64  C   UNL A   1      45.902  27.726  33.064  1.00  0.00     0.134 A 
ATOM     65  C   UNL A   1      46.775  28.720  31.068  1.00  0.00     0.134 A 
ATOM     66  F   UNL A   1      44.920  27.544  33.961  1.00  0.00    -0.206 F 
ATOM     67  C   UNL A   1      47.120  27.086  33.288  1.00  0.00     0.040 A 
ATOM     68  C   UNL A   1      47.990  28.063  31.266  1.00  0.00     0.040 A 
ATOM     69  F   UNL A   1      46.652  29.501  29.984  1.00  0.00    -0.206 F 
ATOM     70  C   UNL A   1      48.167  27.246  32.382  1.00  0.00     0.006 A 
ENDBRANCH  49  63
BRANCH  50  71
ATOM     71  C   UNL A   1      36.797  32.608  29.913  1.00  0.00     0.057 A 
ATOM     72  C   UNL A   1      35.690  32.299  30.711  1.00  0.00     0.134 A 
ATOM     73  C   UNL A   1      36.589  33.472  28.830  1.00  0.00     0.134 A 
ATOM     74  F   UNL A   1      35.821  31.465  31.753  1.00  0.00    -0.206 F 
ATOM     75  C   UNL A   1      34.416  32.792  30.420  1.00  0.00     0.040 A 
ATOM     76  C   UNL A   1      35.327  33.996  28.546  1.00  0.00     0.040 A 
ATOM     77  F   UNL A   1      37.610  33.817  28.032  1.00  0.00    -0.206 F 
ATOM     78  C   UNL A   1      34.234  33.646  29.334  1.00  0.00     0.006 A 
ENDBRANCH  50  71
BRANCH  62  79
ATOM     79  C   UNL A   1      42.378  34.778  33.455  1.00  0.00     0.057 A 
ATOM     80  C   UNL A   1      43.039  35.843  32.830  1.00  0.00     0.134 A 
ATOM     81  C   UNL A   1      41.972  34.958  34.784  1.00  0.00     0.134 A 
ATOM     82  F   UNL A   1      43.465  35.728  31.562  1.00  0.00    -0.206 F 
ATOM     83  C   UNL A   1      43.309  37.032  33.509  1.00  0.00     0.040 A 
ATOM     84  C   UNL A   1      42.211  36.153  35.463  1.00  0.00     0.040 A 
ATOM     85  F   UNL A   1      41.325  33.981  35.438  1.00  0.00    -0.206 F 
ATOM     86  C   UNL A   1      42.888  37.191  34.828  1.00  0.00     0.006 A 
ENDBRANCH  62  79
ENDBRANCH  36  37
ENDBRANCH  28  31
ENDBRANCH  26  27
ENDBRANCH  25  26
ENDBRANCH   1  25
TORSDOF 13
ENDMDL
