MODEL 1
REMARK VINA RESULT:     -13.4      0.000      0.000
REMARK SMILES C[C@@H](C(=O)NCCCNC(=O)c1ccc(-c2c3nc(c(-c4c(F)cccc4F)c4ccc([nH]4)c(-c4c(F)cccc4F)c4nc(c(-c5c(F)cccc5F)c5ccc2[nH]5)C=C4)C=C3)cc1)c1ccc2c3cc(Cl)ccc3n(C(=O)c3ccc(Cl)cc3)c2c1
REMARK SMILES IDX 6 1 5 2 3 3 4 4 2 6 1 7 66 8 67 9 88 10 68 11 87 12 69 13
REMARK SMILES IDX 77 14 70 15 76 16 71 17 75 18 72 19 74 20 73 21 78 22 79 23
REMARK SMILES IDX 80 24 81 25 86 26 82 27 85 28 83 29 84 30 7 31 8 32 9 33
REMARK SMILES IDX 10 34 11 36 12 37 13 38 65 39 14 40 64 41 15 42 16 43 17 44
REMARK SMILES IDX 58 45 18 46 63 47 57 48 59 49 19 50 62 51 56 52 55 53 20 55
REMARK SMILES IDX 46 56 29 57 45 58 30 59 33 60 44 61 60 62 31 63 32 64 43 66
REMARK SMILES IDX 61 67 34 68 21 69 22 70 27 71 23 72 24 73 26 74 28 75 25 76
REMARK SMILES IDX 47 77 48 78 53 79 49 80 50 81 52 82 54 83 51 84 35 85 36 86
REMARK SMILES IDX 41 87 37 88 38 89 40 90 42 91 39 92
REMARK H PARENT 5 5 9 35 59 54 33 65
REMARK Flexibility Score: inf
ROOT
ATOM      1  C   UNL A   1      36.377  20.834  24.998  1.00  0.00     0.117 C 
ENDROOT
BRANCH   1   2
ATOM      2  N   UNL A   1      36.627  21.843  23.990  1.00  0.00    -0.356 N 
ATOM      3  C   UNL A   1      35.748  22.678  23.363  1.00  0.00     0.227 C 
ATOM      4  O   UNL A   1      36.165  23.284  22.376  1.00  0.00    -0.274 OA
ATOM      5  H   UNL A   1      37.568  21.941  23.716  1.00  0.00     0.163 HD
BRANCH   3   6
ATOM      6  C   UNL A   1      34.330  22.840  23.928  1.00  0.00     0.105 C 
ATOM      7  C   UNL A   1      33.234  22.593  22.889  1.00  0.00     0.023 C 
BRANCH   6   8
ATOM      8  C   UNL A   1      34.138  24.200  24.585  1.00  0.00    -0.034 A 
ATOM      9  C   UNL A   1      34.970  24.634  25.618  1.00  0.00     0.005 A 
ATOM     10  C   UNL A   1      33.085  25.020  24.153  1.00  0.00     0.032 A 
ATOM     11  C   UNL A   1      34.842  25.919  26.142  1.00  0.00     0.011 A 
ATOM     12  C   UNL A   1      32.897  26.283  24.753  1.00  0.00     0.057 A 
ATOM     13  C   UNL A   1      33.810  26.759  25.684  1.00  0.00     0.008 A 
ATOM     14  N   UNL A   1      31.889  27.248  24.578  1.00  0.00    -0.276 N 
ATOM     15  C   UNL A   1      33.438  28.087  26.000  1.00  0.00     0.009 A 
ATOM     16  C   UNL A   1      32.191  28.340  25.410  1.00  0.00     0.057 A 
ATOM     17  C   UNL A   1      34.052  29.058  26.817  1.00  0.00     0.031 A 
ATOM     18  C   UNL A   1      31.470  29.493  25.781  1.00  0.00     0.029 A 
ATOM     19  C   UNL A   1      33.368  30.229  27.113  1.00  0.00     0.041 A 
ATOM     20  C   UNL A   1      32.081  30.428  26.633  1.00  0.00     0.023 A 
ATOM     21  Cl  UNL A   1      34.113  31.407  28.122  1.00  0.00    -0.084 Cl
BRANCH  14  22
ATOM     22  C   UNL A   1      30.759  27.031  23.739  1.00  0.00     0.262 C 
ATOM     23  O   UNL A   1      30.453  25.849  23.552  1.00  0.00    -0.268 OA
BRANCH  22  24
ATOM     24  C   UNL A   1      29.905  28.005  22.998  1.00  0.00     0.040 A 
ATOM     25  C   UNL A   1      30.584  28.985  22.238  1.00  0.00     0.015 A 
ATOM     26  C   UNL A   1      28.519  28.115  23.133  1.00  0.00     0.015 A 
ATOM     27  C   UNL A   1      29.904  30.039  21.627  1.00  0.00     0.021 A 
ATOM     28  C   UNL A   1      27.830  29.158  22.490  1.00  0.00     0.021 A 
ATOM     29  C   UNL A   1      28.524  30.118  21.751  1.00  0.00     0.041 A 
ATOM     30  Cl  UNL A   1      27.679  31.426  21.020  1.00  0.00    -0.084 Cl
ENDBRANCH  22  24
ENDBRANCH  14  22
ENDBRANCH   6   8
ENDBRANCH   3   6
ENDBRANCH   1   2
BRANCH   1  31
ATOM     31  C   UNL A   1      37.488  19.789  25.002  1.00  0.00     0.042 C 
BRANCH  31  32
ATOM     32  C   UNL A   1      38.783  20.286  25.632  1.00  0.00     0.118 C 
BRANCH  32  33
ATOM     33  N   UNL A   1      39.775  19.229  25.757  1.00  0.00    -0.352 N 
ATOM     34  C   UNL A   1      41.127  19.325  25.981  1.00  0.00     0.251 C 
ATOM     35  H   UNL A   1      39.428  18.313  25.669  1.00  0.00     0.163 HD
ATOM     36  O   UNL A   1      41.844  18.342  25.844  1.00  0.00    -0.269 OA
BRANCH  34  37
ATOM     37  C   UNL A   1      41.712  20.624  26.374  1.00  0.00     0.039 A 
ATOM     38  C   UNL A   1      42.132  21.507  25.376  1.00  0.00     0.014 A 
ATOM     39  C   UNL A   1      41.855  20.962  27.722  1.00  0.00     0.014 A 
ATOM     40  C   UNL A   1      42.646  22.755  25.732  1.00  0.00     0.010 A 
ATOM     41  C   UNL A   1      42.283  22.238  28.070  1.00  0.00     0.010 A 
ATOM     42  C   UNL A   1      42.697  23.142  27.080  1.00  0.00    -0.014 A 
BRANCH  42  43
ATOM     43  C   UNL A   1      43.206  24.473  27.491  1.00  0.00     0.031 A 
ATOM     44  C   UNL A   1      42.239  25.538  27.929  1.00  0.00     0.074 A 
ATOM     45  C   UNL A   1      44.520  24.750  27.393  1.00  0.00     0.049 A 
ATOM     46  N   UNL A   1      42.463  26.795  28.211  1.00  0.00    -0.248 NA
ATOM     47  C   UNL A   1      40.826  25.140  28.031  1.00  0.00     0.031 C 
ATOM     48  C   UNL A   1      45.553  23.813  26.947  1.00  0.00     0.029 A 
ATOM     49  N   UNL A   1      45.208  25.910  27.644  1.00  0.00    -0.354 N 
ATOM     50  C   UNL A   1      41.219  27.342  28.501  1.00  0.00     0.074 A 
ATOM     51  C   UNL A   1      40.240  26.296  28.304  1.00  0.00     0.031 C 
ATOM     52  C   UNL A   1      46.744  24.432  26.971  1.00  0.00     0.029 A 
ATOM     53  C   UNL A   1      46.553  25.818  27.386  1.00  0.00     0.049 A 
ATOM     54  H   UNL A   1      44.778  26.731  27.977  1.00  0.00     0.167 HD
ATOM     55  C   UNL A   1      40.921  28.596  28.916  1.00  0.00     0.037 A 
ATOM     56  C   UNL A   1      47.521  26.751  27.459  1.00  0.00     0.037 A 
ATOM     57  C   UNL A   1      41.903  29.628  29.125  1.00  0.00     0.049 A 
ATOM     58  C   UNL A   1      47.166  28.144  27.901  1.00  0.00     0.074 A 
ATOM     59  C   UNL A   1      41.713  30.916  29.593  1.00  0.00     0.029 A 
ATOM     60  N   UNL A   1      43.260  29.489  28.873  1.00  0.00    -0.354 N 
ATOM     61  N   UNL A   1      45.996  28.635  28.229  1.00  0.00    -0.248 NA
ATOM     62  C   UNL A   1      48.268  29.112  27.989  1.00  0.00     0.031 C 
ATOM     63  C   UNL A   1      42.946  31.574  29.571  1.00  0.00     0.029 A 
ATOM     64  C   UNL A   1      43.916  30.677  29.151  1.00  0.00     0.049 A 
ATOM     65  H   UNL A   1      43.692  28.669  28.544  1.00  0.00     0.167 HD
ATOM     66  C   UNL A   1      46.224  29.955  28.596  1.00  0.00     0.074 A 
ATOM     67  C   UNL A   1      47.647  30.186  28.455  1.00  0.00     0.031 C 
ATOM     68  C   UNL A   1      45.336  30.890  29.016  1.00  0.00     0.037 A 
BRANCH  55  69
ATOM     69  C   UNL A   1      39.473  28.916  29.157  1.00  0.00     0.057 A 
ATOM     70  C   UNL A   1      38.875  28.757  30.414  1.00  0.00     0.134 A 
ATOM     71  C   UNL A   1      38.666  29.398  28.118  1.00  0.00     0.134 A 
ATOM     72  F   UNL A   1      39.587  28.289  31.452  1.00  0.00    -0.206 F 
ATOM     73  C   UNL A   1      37.520  29.024  30.621  1.00  0.00     0.040 A 
ATOM     74  C   UNL A   1      37.317  29.700  28.320  1.00  0.00     0.040 A 
ATOM     75  F   UNL A   1      39.172  29.583  26.890  1.00  0.00    -0.206 F 
ATOM     76  C   UNL A   1      36.739  29.503  29.572  1.00  0.00     0.006 A 
ENDBRANCH  55  69
BRANCH  56  77
ATOM     77  C   UNL A   1      48.921  26.390  27.122  1.00  0.00     0.057 A 
ATOM     78  C   UNL A   1      49.801  25.918  28.103  1.00  0.00     0.134 A 
ATOM     79  C   UNL A   1      49.411  26.497  25.815  1.00  0.00     0.134 A 
ATOM     80  F   UNL A   1      49.395  25.809  29.377  1.00  0.00    -0.206 F 
ATOM     81  C   UNL A   1      51.120  25.578  27.801  1.00  0.00     0.040 A 
ATOM     82  C   UNL A   1      50.721  26.136  25.493  1.00  0.00     0.040 A 
ATOM     83  F   UNL A   1      48.616  26.933  24.827  1.00  0.00    -0.206 F 
ATOM     84  C   UNL A   1      51.582  25.682  26.490  1.00  0.00     0.006 A 
ENDBRANCH  56  77
BRANCH  68  85
ATOM     85  C   UNL A   1      45.879  32.235  29.406  1.00  0.00     0.057 A 
ATOM     86  C   UNL A   1      45.960  33.297  28.498  1.00  0.00     0.134 A 
ATOM     87  C   UNL A   1      46.274  32.482  30.728  1.00  0.00     0.134 A 
ATOM     88  F   UNL A   1      45.609  33.125  27.215  1.00  0.00    -0.206 F 
ATOM     89  C   UNL A   1      46.434  34.553  28.885  1.00  0.00     0.040 A 
ATOM     90  C   UNL A   1      46.721  33.740  31.133  1.00  0.00     0.040 A 
ATOM     91  F   UNL A   1      46.212  31.510  31.650  1.00  0.00    -0.206 F 
ATOM     92  C   UNL A   1      46.808  34.778  30.209  1.00  0.00     0.006 A 
ENDBRANCH  68  85
ENDBRANCH  42  43
ENDBRANCH  34  37
ENDBRANCH  32  33
ENDBRANCH  31  32
ENDBRANCH   1  31
TORSDOF 13
ENDMDL
MODEL 2
REMARK VINA RESULT:     -13.2      4.298      8.283
REMARK SMILES C[C@@H](C(=O)NCCCNC(=O)c1ccc(-c2c3nc(c(-c4c(F)cccc4F)c4ccc([nH]4)c(-c4c(F)cccc4F)c4nc(c(-c5c(F)cccc5F)c5ccc2[nH]5)C=C4)C=C3)cc1)c1ccc2c3cc(Cl)ccc3n(C(=O)c3ccc(Cl)cc3)c2c1
REMARK SMILES IDX 6 1 5 2 3 3 4 4 2 6 1 7 66 8 67 9 88 10 68 11 87 12 69 13
REMARK SMILES IDX 77 14 70 15 76 16 71 17 75 18 72 19 74 20 73 21 78 22 79 23
REMARK SMILES IDX 80 24 81 25 86 26 82 27 85 28 83 29 84 30 7 31 8 32 9 33
REMARK SMILES IDX 10 34 11 36 12 37 13 38 65 39 14 40 64 41 15 42 16 43 17 44
REMARK SMILES IDX 58 45 18 46 63 47 57 48 59 49 19 50 62 51 56 52 55 53 20 55
REMARK SMILES IDX 46 56 29 57 45 58 30 59 33 60 44 61 60 62 31 63 32 64 43 66
REMARK SMILES IDX 61 67 34 68 21 69 22 70 27 71 23 72 24 73 26 74 28 75 25 76
REMARK SMILES IDX 47 77 48 78 53 79 49 80 50 81 52 82 54 83 51 84 35 85 36 86
REMARK SMILES IDX 41 87 37 88 38 89 40 90 42 91 39 92
REMARK H PARENT 5 5 9 35 59 54 33 65
REMARK Flexibility Score: inf
ROOT
ATOM      1  C   UNL A   1      31.599  28.068  26.420  1.00  0.00     0.117 C 
ENDROOT
BRANCH   1   2
ATOM      2  N   UNL A   1      30.896  26.857  26.790  1.00  0.00    -0.356 N 
ATOM      3  C   UNL A   1      30.587  25.767  26.028  1.00  0.00     0.227 C 
ATOM      4  O   UNL A   1      29.781  24.967  26.505  1.00  0.00    -0.274 OA
ATOM      5  H   UNL A   1      30.598  26.813  27.728  1.00  0.00     0.163 HD
BRANCH   3   6
ATOM      6  C   UNL A   1      31.269  25.584  24.665  1.00  0.00     0.105 C 
ATOM      7  C   UNL A   1      30.368  24.915  23.625  1.00  0.00     0.023 C 
BRANCH   6   8
ATOM      8  C   UNL A   1      32.583  24.825  24.792  1.00  0.00    -0.034 A 
ATOM      9  C   UNL A   1      33.785  25.487  25.050  1.00  0.00     0.005 A 
ATOM     10  C   UNL A   1      32.583  23.433  24.621  1.00  0.00     0.032 A 
ATOM     11  C   UNL A   1      34.961  24.771  25.259  1.00  0.00     0.011 A 
ATOM     12  C   UNL A   1      33.794  22.719  24.736  1.00  0.00     0.057 A 
ATOM     13  C   UNL A   1      34.957  23.369  25.125  1.00  0.00     0.008 A 
ATOM     14  N   UNL A   1      34.087  21.358  24.528  1.00  0.00    -0.276 N 
ATOM     15  C   UNL A   1      35.959  22.383  25.285  1.00  0.00     0.009 A 
ATOM     16  C   UNL A   1      35.453  21.168  24.801  1.00  0.00     0.057 A 
ATOM     17  C   UNL A   1      37.291  22.474  25.738  1.00  0.00     0.031 A 
ATOM     18  C   UNL A   1      36.330  20.083  24.600  1.00  0.00     0.029 A 
ATOM     19  C   UNL A   1      38.128  21.373  25.612  1.00  0.00     0.041 A 
ATOM     20  C   UNL A   1      37.666  20.207  25.018  1.00  0.00     0.023 A 
ATOM     21  Cl  UNL A   1      39.758  21.489  26.152  1.00  0.00    -0.084 Cl
BRANCH  14  22
ATOM     22  C   UNL A   1      33.119  20.431  24.049  1.00  0.00     0.262 C 
ATOM     23  O   UNL A   1      32.205  20.915  23.374  1.00  0.00    -0.268 OA
BRANCH  22  24
ATOM     24  C   UNL A   1      32.996  18.961  24.274  1.00  0.00     0.040 A 
ATOM     25  C   UNL A   1      32.632  18.553  25.577  1.00  0.00     0.015 A 
ATOM     26  C   UNL A   1      33.369  17.979  23.353  1.00  0.00     0.015 A 
ATOM     27  C   UNL A   1      32.633  17.208  25.952  1.00  0.00     0.021 A 
ATOM     28  C   UNL A   1      33.338  16.622  23.720  1.00  0.00     0.021 A 
ATOM     29  C   UNL A   1      32.983  16.245  25.016  1.00  0.00     0.041 A 
ATOM     30  Cl  UNL A   1      33.008  14.587  25.474  1.00  0.00    -0.084 Cl
ENDBRANCH  22  24
ENDBRANCH  14  22
ENDBRANCH   6   8
ENDBRANCH   3   6
ENDBRANCH   1   2
BRANCH   1  31
ATOM     31  C   UNL A   1      32.888  28.209  27.223  1.00  0.00     0.042 C 
BRANCH  31  32
ATOM     32  C   UNL A   1      33.951  29.044  26.520  1.00  0.00     0.118 C 
BRANCH  32  33
ATOM     33  N   UNL A   1      33.904  30.443  26.915  1.00  0.00    -0.352 N 
ATOM     34  C   UNL A   1      34.708  31.128  27.792  1.00  0.00     0.251 C 
ATOM     35  H   UNL A   1      33.192  30.976  26.493  1.00  0.00     0.163 HD
ATOM     36  O   UNL A   1      34.392  32.249  28.168  1.00  0.00    -0.269 OA
BRANCH  34  37
ATOM     37  C   UNL A   1      35.949  30.500  28.289  1.00  0.00     0.039 A 
ATOM     38  C   UNL A   1      37.137  30.691  27.578  1.00  0.00     0.014 A 
ATOM     39  C   UNL A   1      35.938  29.716  29.445  1.00  0.00     0.014 A 
ATOM     40  C   UNL A   1      38.326  30.140  28.060  1.00  0.00     0.010 A 
ATOM     41  C   UNL A   1      37.135  29.243  29.969  1.00  0.00     0.010 A 
ATOM     42  C   UNL A   1      38.339  29.437  29.275  1.00  0.00    -0.014 A 
BRANCH  42  43
ATOM     43  C   UNL A   1      39.589  28.867  29.833  1.00  0.00     0.031 A 
ATOM     44  C   UNL A   1      40.191  29.464  31.076  1.00  0.00     0.074 A 
ATOM     45  C   UNL A   1      40.223  27.873  29.183  1.00  0.00     0.049 A 
ATOM     46  N   UNL A   1      41.333  29.196  31.654  1.00  0.00    -0.248 NA
ATOM     47  C   UNL A   1      39.417  30.529  31.734  1.00  0.00     0.031 C 
ATOM     48  C   UNL A   1      39.759  27.235  27.950  1.00  0.00     0.029 A 
ATOM     49  N   UNL A   1      41.408  27.240  29.461  1.00  0.00    -0.354 N 
ATOM     50  C   UNL A   1      41.424  30.071  32.729  1.00  0.00     0.074 A 
ATOM     51  C   UNL A   1      40.251  30.917  32.686  1.00  0.00     0.031 C 
ATOM     52  C   UNL A   1      40.642  26.291  27.587  1.00  0.00     0.029 A 
ATOM     53  C   UNL A   1      41.755  26.291  28.532  1.00  0.00     0.049 A 
ATOM     54  H   UNL A   1      41.957  27.446  30.252  1.00  0.00     0.167 HD
ATOM     55  C   UNL A   1      42.386  30.150  33.679  1.00  0.00     0.037 A 
ATOM     56  C   UNL A   1      42.854  25.519  28.442  1.00  0.00     0.037 A 
ATOM     57  C   UNL A   1      43.542  29.294  33.723  1.00  0.00     0.049 A 
ATOM     58  C   UNL A   1      43.922  25.636  29.494  1.00  0.00     0.074 A 
ATOM     59  C   UNL A   1      44.550  29.255  34.670  1.00  0.00     0.029 A 
ATOM     60  N   UNL A   1      43.848  28.329  32.774  1.00  0.00    -0.354 N 
ATOM     61  N   UNL A   1      43.971  26.427  30.539  1.00  0.00    -0.248 NA
ATOM     62  C   UNL A   1      45.085  24.749  29.360  1.00  0.00     0.031 C 
ATOM     63  C   UNL A   1      45.494  28.306  34.265  1.00  0.00     0.029 A 
ATOM     64  C   UNL A   1      45.042  27.707  33.100  1.00  0.00     0.049 A 
ATOM     65  H   UNL A   1      43.298  28.118  31.986  1.00  0.00     0.167 HD
ATOM     66  C   UNL A   1      45.147  26.110  31.204  1.00  0.00     0.074 A 
ATOM     67  C   UNL A   1      45.781  25.050  30.447  1.00  0.00     0.031 C 
ATOM     68  C   UNL A   1      45.656  26.645  32.342  1.00  0.00     0.037 A 
BRANCH  55  69
ATOM     69  C   UNL A   1      42.227  31.206  34.734  1.00  0.00     0.057 A 
ATOM     70  C   UNL A   1      41.542  30.963  35.933  1.00  0.00     0.134 A 
ATOM     71  C   UNL A   1      42.773  32.484  34.555  1.00  0.00     0.134 A 
ATOM     72  F   UNL A   1      40.984  29.764  36.167  1.00  0.00    -0.206 F 
ATOM     73  C   UNL A   1      41.369  31.961  36.894  1.00  0.00     0.040 A 
ATOM     74  C   UNL A   1      42.635  33.480  35.524  1.00  0.00     0.040 A 
ATOM     75  F   UNL A   1      43.449  32.786  33.436  1.00  0.00    -0.206 F 
ATOM     76  C   UNL A   1      41.922  33.223  36.692  1.00  0.00     0.006 A 
ENDBRANCH  55  69
BRANCH  56  77
ATOM     77  C   UNL A   1      42.989  24.554  27.321  1.00  0.00     0.057 A 
ATOM     78  C   UNL A   1      43.426  24.971  26.059  1.00  0.00     0.134 A 
ATOM     79  C   UNL A   1      42.696  23.195  27.484  1.00  0.00     0.134 A 
ATOM     80  F   UNL A   1      43.707  26.264  25.835  1.00  0.00    -0.206 F 
ATOM     81  C   UNL A   1      43.554  24.077  24.996  1.00  0.00     0.040 A 
ATOM     82  C   UNL A   1      42.844  22.284  26.437  1.00  0.00     0.040 A 
ATOM     83  F   UNL A   1      42.281  22.729  28.672  1.00  0.00    -0.206 F 
ATOM     84  C   UNL A   1      43.268  22.726  25.186  1.00  0.00     0.006 A 
ENDBRANCH  56  77
BRANCH  68  85
ATOM     85  C   UNL A   1      46.934  26.060  32.871  1.00  0.00     0.057 A 
ATOM     86  C   UNL A   1      48.188  26.577  32.528  1.00  0.00     0.134 A 
ATOM     87  C   UNL A   1      46.900  24.997  33.784  1.00  0.00     0.134 A 
ATOM     88  F   UNL A   1      48.292  27.587  31.651  1.00  0.00    -0.206 F 
ATOM     89  C   UNL A   1      49.366  26.045  33.057  1.00  0.00     0.040 A 
ATOM     90  C   UNL A   1      48.068  24.476  34.342  1.00  0.00     0.040 A 
ATOM     91  F   UNL A   1      45.730  24.462  34.163  1.00  0.00    -0.206 F 
ATOM     92  C   UNL A   1      49.306  24.996  33.974  1.00  0.00     0.006 A 
ENDBRANCH  68  85
ENDBRANCH  42  43
ENDBRANCH  34  37
ENDBRANCH  32  33
ENDBRANCH  31  32
ENDBRANCH   1  31
TORSDOF 13
ENDMDL
MODEL 3
REMARK VINA RESULT:     -13.2      4.636     10.000
REMARK SMILES C[C@@H](C(=O)NCCCNC(=O)c1ccc(-c2c3nc(c(-c4c(F)cccc4F)c4ccc([nH]4)c(-c4c(F)cccc4F)c4nc(c(-c5c(F)cccc5F)c5ccc2[nH]5)C=C4)C=C3)cc1)c1ccc2c3cc(Cl)ccc3n(C(=O)c3ccc(Cl)cc3)c2c1
REMARK SMILES IDX 6 1 5 2 3 3 4 4 2 6 1 7 66 8 67 9 88 10 68 11 87 12 69 13
REMARK SMILES IDX 77 14 70 15 76 16 71 17 75 18 72 19 74 20 73 21 78 22 79 23
REMARK SMILES IDX 80 24 81 25 86 26 82 27 85 28 83 29 84 30 7 31 8 32 9 33
REMARK SMILES IDX 10 34 11 36 12 37 13 38 65 39 14 40 64 41 15 42 16 43 17 44
REMARK SMILES IDX 58 45 18 46 63 47 57 48 59 49 19 50 62 51 56 52 55 53 20 55
REMARK SMILES IDX 46 56 29 57 45 58 30 59 33 60 44 61 60 62 31 63 32 64 43 66
REMARK SMILES IDX 61 67 34 68 21 69 22 70 27 71 23 72 24 73 26 74 28 75 25 76
REMARK SMILES IDX 47 77 48 78 53 79 49 80 50 81 52 82 54 83 51 84 35 85 36 86
REMARK SMILES IDX 41 87 37 88 38 89 40 90 42 91 39 92
REMARK H PARENT 5 5 9 35 59 54 33 65
REMARK Flexibility Score: inf
ROOT
ATOM      1  C   UNL A   1      31.392  28.774  24.679  1.00  0.00     0.117 C 
ENDROOT
BRANCH   1   2
ATOM      2  N   UNL A   1      31.029  27.784  25.672  1.00  0.00    -0.356 N 
ATOM      3  C   UNL A   1      30.838  26.441  25.528  1.00  0.00     0.227 C 
ATOM      4  O   UNL A   1      30.307  25.851  26.469  1.00  0.00    -0.274 OA
ATOM      5  H   UNL A   1      30.902  28.131  26.585  1.00  0.00     0.163 HD
BRANCH   3   6
ATOM      6  C   UNL A   1      31.314  25.747  24.244  1.00  0.00     0.105 C 
ATOM      7  C   UNL A   1      30.259  24.824  23.629  1.00  0.00     0.023 C 
BRANCH   6   8
ATOM      8  C   UNL A   1      32.615  24.988  24.465  1.00  0.00    -0.034 A 
ATOM      9  C   UNL A   1      33.805  25.653  24.764  1.00  0.00     0.005 A 
ATOM     10  C   UNL A   1      32.616  23.590  24.341  1.00  0.00     0.032 A 
ATOM     11  C   UNL A   1      34.965  24.939  25.058  1.00  0.00     0.011 A 
ATOM     12  C   UNL A   1      33.814  22.876  24.543  1.00  0.00     0.057 A 
ATOM     13  C   UNL A   1      34.960  23.534  24.972  1.00  0.00     0.008 A 
ATOM     14  N   UNL A   1      34.111  21.508  24.397  1.00  0.00    -0.276 N 
ATOM     15  C   UNL A   1      35.946  22.550  25.217  1.00  0.00     0.009 A 
ATOM     16  C   UNL A   1      35.459  21.321  24.748  1.00  0.00     0.057 A 
ATOM     17  C   UNL A   1      37.253  22.650  25.736  1.00  0.00     0.031 A 
ATOM     18  C   UNL A   1      36.339  20.227  24.630  1.00  0.00     0.029 A 
ATOM     19  C   UNL A   1      38.089  21.543  25.691  1.00  0.00     0.041 A 
ATOM     20  C   UNL A   1      37.652  20.359  25.113  1.00  0.00     0.023 A 
ATOM     21  Cl  UNL A   1      39.689  21.670  26.312  1.00  0.00    -0.084 Cl
BRANCH  14  22
ATOM     22  C   UNL A   1      33.163  20.569  23.899  1.00  0.00     0.262 C 
ATOM     23  O   UNL A   1      32.296  21.031  23.152  1.00  0.00    -0.268 OA
BRANCH  22  24
ATOM     24  C   UNL A   1      33.013  19.110  24.176  1.00  0.00     0.040 A 
ATOM     25  C   UNL A   1      32.758  18.748  25.518  1.00  0.00     0.015 A 
ATOM     26  C   UNL A   1      33.266  18.093  23.252  1.00  0.00     0.015 A 
ATOM     27  C   UNL A   1      32.749  17.414  25.928  1.00  0.00     0.021 A 
ATOM     28  C   UNL A   1      33.225  16.748  23.658  1.00  0.00     0.021 A 
ATOM     29  C   UNL A   1      32.978  16.415  24.992  1.00  0.00     0.041 A 
ATOM     30  Cl  UNL A   1      32.991  14.770  25.491  1.00  0.00    -0.084 Cl
ENDBRANCH  22  24
ENDBRANCH  14  22
ENDBRANCH   6   8
ENDBRANCH   3   6
ENDBRANCH   1   2
BRANCH   1  31
ATOM     31  C   UNL A   1      32.445  29.730  25.230  1.00  0.00     0.042 C 
BRANCH  31  32
ATOM     32  C   UNL A   1      32.121  30.248  26.625  1.00  0.00     0.118 C 
BRANCH  32  33
ATOM     33  N   UNL A   1      31.983  31.696  26.656  1.00  0.00    -0.352 N 
ATOM     34  C   UNL A   1      32.728  32.628  27.336  1.00  0.00     0.251 C 
ATOM     35  H   UNL A   1      31.249  32.061  26.111  1.00  0.00     0.163 HD
ATOM     36  O   UNL A   1      32.338  33.785  27.417  1.00  0.00    -0.269 OA
BRANCH  34  37
ATOM     37  C   UNL A   1      33.995  32.223  27.979  1.00  0.00     0.039 A 
ATOM     38  C   UNL A   1      34.998  33.178  28.161  1.00  0.00     0.014 A 
ATOM     39  C   UNL A   1      34.195  30.902  28.391  1.00  0.00     0.014 A 
ATOM     40  C   UNL A   1      36.182  32.820  28.808  1.00  0.00     0.010 A 
ATOM     41  C   UNL A   1      35.335  30.571  29.112  1.00  0.00     0.010 A 
ATOM     42  C   UNL A   1      36.347  31.521  29.315  1.00  0.00    -0.014 A 
BRANCH  42  43
ATOM     43  C   UNL A   1      37.578  31.116  30.035  1.00  0.00     0.031 A 
ATOM     44  C   UNL A   1      38.575  30.215  29.359  1.00  0.00     0.074 A 
ATOM     45  C   UNL A   1      37.761  31.488  31.316  1.00  0.00     0.049 A 
ATOM     46  N   UNL A   1      39.648  29.650  29.851  1.00  0.00    -0.248 NA
ATOM     47  C   UNL A   1      38.309  29.879  27.952  1.00  0.00     0.031 C 
ATOM     48  C   UNL A   1      36.850  32.330  32.093  1.00  0.00     0.029 A 
ATOM     49  N   UNL A   1      38.768  31.185  32.197  1.00  0.00    -0.354 N 
ATOM     50  C   UNL A   1      40.170  28.876  28.822  1.00  0.00     0.074 A 
ATOM     51  C   UNL A   1      39.265  28.999  27.699  1.00  0.00     0.031 C 
ATOM     52  C   UNL A   1      37.348  32.489  33.329  1.00  0.00     0.029 A 
ATOM     53  C   UNL A   1      38.585  31.723  33.448  1.00  0.00     0.049 A 
ATOM     54  H   UNL A   1      39.548  30.635  31.957  1.00  0.00     0.167 HD
ATOM     55  C   UNL A   1      41.311  28.148  28.804  1.00  0.00     0.037 A 
ATOM     56  C   UNL A   1      39.321  31.598  34.568  1.00  0.00     0.037 A 
ATOM     57  C   UNL A   1      42.215  28.044  29.919  1.00  0.00     0.049 A 
ATOM     58  C   UNL A   1      40.573  30.767  34.534  1.00  0.00     0.074 A 
ATOM     59  C   UNL A   1      43.424  27.375  29.990  1.00  0.00     0.029 A 
ATOM     60  N   UNL A   1      42.004  28.621  31.163  1.00  0.00    -0.354 N 
ATOM     61  N   UNL A   1      41.089  30.087  33.538  1.00  0.00    -0.248 NA
ATOM     62  C   UNL A   1      41.351  30.690  35.778  1.00  0.00     0.031 C 
ATOM     63  C   UNL A   1      43.917  27.500  31.291  1.00  0.00     0.029 A 
ATOM     64  C   UNL A   1      43.048  28.302  32.015  1.00  0.00     0.049 A 
ATOM     65  H   UNL A   1      41.227  29.174  31.404  1.00  0.00     0.167 HD
ATOM     66  C   UNL A   1      42.266  29.532  34.023  1.00  0.00     0.074 A 
ATOM     67  C   UNL A   1      42.391  29.960  35.401  1.00  0.00     0.031 C 
ATOM     68  C   UNL A   1      43.165  28.744  33.383  1.00  0.00     0.037 A 
BRANCH  55  69
ATOM     69  C   UNL A   1      41.632  27.402  27.541  1.00  0.00     0.057 A 
ATOM     70  C   UNL A   1      42.351  27.990  26.491  1.00  0.00     0.134 A 
ATOM     71  C   UNL A   1      41.224  26.072  27.373  1.00  0.00     0.134 A 
ATOM     72  F   UNL A   1      42.764  29.265  26.579  1.00  0.00    -0.206 F 
ATOM     73  C   UNL A   1      42.615  27.300  25.306  1.00  0.00     0.040 A 
ATOM     74  C   UNL A   1      41.511  25.360  26.206  1.00  0.00     0.040 A 
ATOM     75  F   UNL A   1      40.540  25.441  28.339  1.00  0.00    -0.206 F 
ATOM     76  C   UNL A   1      42.199  25.978  25.165  1.00  0.00     0.006 A 
ENDBRANCH  55  69
BRANCH  56  77
ATOM     77  C   UNL A   1      38.899  32.293  35.810  1.00  0.00     0.057 A 
ATOM     78  C   UNL A   1      39.215  33.639  36.027  1.00  0.00     0.134 A 
ATOM     79  C   UNL A   1      38.162  31.637  36.804  1.00  0.00     0.134 A 
ATOM     80  F   UNL A   1      39.933  34.318  35.119  1.00  0.00    -0.206 F 
ATOM     81  C   UNL A   1      38.828  34.304  37.191  1.00  0.00     0.040 A 
ATOM     82  C   UNL A   1      37.746  32.296  37.961  1.00  0.00     0.040 A 
ATOM     83  F   UNL A   1      37.818  30.349  36.653  1.00  0.00    -0.206 F 
ATOM     84  C   UNL A   1      38.085  33.633  38.160  1.00  0.00     0.006 A 
ENDBRANCH  56  77
BRANCH  68  85
ATOM     85  C   UNL A   1      44.392  28.333  34.145  1.00  0.00     0.057 A 
ATOM     86  C   UNL A   1      44.467  27.118  34.837  1.00  0.00     0.134 A 
ATOM     87  C   UNL A   1      45.535  29.144  34.138  1.00  0.00     0.134 A 
ATOM     88  F   UNL A   1      43.406  26.300  34.894  1.00  0.00    -0.206 F 
ATOM     89  C   UNL A   1      45.628  26.734  35.512  1.00  0.00     0.040 A 
ATOM     90  C   UNL A   1      46.710  28.758  34.783  1.00  0.00     0.040 A 
ATOM     91  F   UNL A   1      45.533  30.316  33.485  1.00  0.00    -0.206 F 
ATOM     92  C   UNL A   1      46.756  27.552  35.478  1.00  0.00     0.006 A 
ENDBRANCH  68  85
ENDBRANCH  42  43
ENDBRANCH  34  37
ENDBRANCH  32  33
ENDBRANCH  31  32
ENDBRANCH   1  31
TORSDOF 13
ENDMDL
