MODEL 1
REMARK VINA RESULT:     -12.5      0.000      0.000
REMARK SMILES Cc1c(C)c2cc(Cl)c(O[C@@H](C)C(=O)NCCCNC(=O)c3ccc(-c4c5nc(c(-c6c(F)cccc6F)c6ccc([nH]6)c(-c6c(F)cccc6F)c6nc(c(-c7c(F)cccc7F)c7ccc4[nH]7)C=C6)C=C5)cc3)cc2oc1=O
REMARK SMILES IDX 17 1 16 2 15 3 13 4 14 5 11 7 12 8 10 9 9 10 1 11 2 12 3 13
REMARK SMILES IDX 79 14 4 15 5 16 78 17 80 18 6 19 77 20 7 21 76 22 8 23 18 24
REMARK SMILES IDX 19 25 20 26 21 28 22 29 23 30 75 31 24 32 74 33 25 34 26 35
REMARK SMILES IDX 27 36 68 37 28 38 73 39 67 40 69 41 29 42 72 43 66 44 65 45
REMARK SMILES IDX 30 47 56 48 39 49 55 50 40 51 43 52 54 53 70 54 41 55 42 56
REMARK SMILES IDX 53 58 71 59 44 60 31 61 32 62 37 63 33 64 34 65 36 66 38 67
REMARK SMILES IDX 35 68 57 69 58 70 63 71 59 72 60 73 62 74 64 75 61 76 45 77
REMARK SMILES IDX 46 78 51 79 47 80 48 81 50 82 52 83 49 84
REMARK H PARENT 15 6 19 27 69 46 43 57
REMARK Flexibility Score: inf
ROOT
ATOM      1  C   UNL A   1      30.751  31.588  26.284  1.00  0.00     0.042 C 
ENDROOT
BRANCH   1   2
ATOM      2  C   UNL A   1      30.458  31.334  24.808  1.00  0.00     0.118 C 
BRANCH   2   3
ATOM      3  N   UNL A   1      29.626  32.384  24.253  1.00  0.00    -0.353 N 
ATOM      4  C   UNL A   1      28.926  32.492  23.092  1.00  0.00     0.260 C 
ATOM      5  O   UNL A   1      28.440  33.612  22.875  1.00  0.00    -0.271 OA
ATOM      6  H   UNL A   1      29.554  33.177  24.831  1.00  0.00     0.163 HD
BRANCH   4   7
ATOM      7  C   UNL A   1      28.647  31.323  22.095  1.00  0.00     0.258 C 
ATOM      8  C   UNL A   1      28.310  31.788  20.679  1.00  0.00     0.064 C 
BRANCH   7   9
ATOM      9  O   UNL A   1      28.027  30.095  22.470  1.00  0.00    -0.479 OA
BRANCH   9  10
ATOM     10  C   UNL A   1      28.769  28.989  22.741  1.00  0.00     0.142 A 
ATOM     11  C   UNL A   1      32.990  24.047  22.571  1.00  0.00     0.052 C 
ATOM     12  C   UNL A   1      32.163  25.295  22.684  1.00  0.00     0.038 A 
ATOM     13  C   UNL A   1      31.007  25.375  23.377  1.00  0.00    -0.030 A 
ATOM     14  C   UNL A   1      32.702  26.466  21.936  1.00  0.00     0.339 A 
ATOM     15  C   UNL A   1      30.434  24.246  24.191  1.00  0.00     0.046 C 
ATOM     16  C   UNL A   1      30.224  26.620  23.288  1.00  0.00     0.023 A 
ATOM     17  O   UNL A   1      32.125  27.693  22.206  1.00  0.00    -0.422 OA
ATOM     18  O   UNL A   1      33.644  26.371  21.157  1.00  0.00    -0.246 OA
ATOM     19  C   UNL A   1      28.885  26.738  23.677  1.00  0.00     0.036 A 
ATOM     20  C   UNL A   1      30.822  27.740  22.719  1.00  0.00     0.142 A 
ATOM     21  C   UNL A   1      28.162  27.908  23.396  1.00  0.00     0.083 A 
ATOM     22  C   UNL A   1      30.132  28.933  22.496  1.00  0.00     0.096 A 
ATOM     23  Cl  UNL A   1      26.495  27.957  23.845  1.00  0.00    -0.080 Cl
ENDBRANCH   9  10
ENDBRANCH   7   9
ENDBRANCH   4   7
ENDBRANCH   2   3
ENDBRANCH   1   2
BRANCH   1  24
ATOM     24  C   UNL A   1      32.138  32.148  26.559  1.00  0.00     0.118 C 
BRANCH  24  25
ATOM     25  N   UNL A   1      32.093  33.496  27.118  1.00  0.00    -0.352 N 
ATOM     26  C   UNL A   1      32.867  34.150  28.049  1.00  0.00     0.251 C 
ATOM     27  H   UNL A   1      31.364  34.047  26.756  1.00  0.00     0.163 HD
ATOM     28  O   UNL A   1      32.509  35.266  28.423  1.00  0.00    -0.269 OA
BRANCH  26  29
ATOM     29  C   UNL A   1      34.097  33.559  28.638  1.00  0.00     0.039 A 
ATOM     30  C   UNL A   1      34.066  32.435  29.460  1.00  0.00     0.014 A 
ATOM     31  C   UNL A   1      35.342  34.105  28.292  1.00  0.00     0.014 A 
ATOM     32  C   UNL A   1      35.229  31.982  30.078  1.00  0.00     0.010 A 
ATOM     33  C   UNL A   1      36.528  33.586  28.832  1.00  0.00     0.010 A 
ATOM     34  C   UNL A   1      36.477  32.547  29.768  1.00  0.00    -0.014 A 
BRANCH  34  35
ATOM     35  C   UNL A   1      37.694  31.955  30.381  1.00  0.00     0.031 A 
ATOM     36  C   UNL A   1      38.137  32.317  31.770  1.00  0.00     0.074 A 
ATOM     37  C   UNL A   1      38.358  31.007  29.693  1.00  0.00     0.049 A 
ATOM     38  N   UNL A   1      39.040  31.747  32.527  1.00  0.00    -0.248 NA
ATOM     39  C   UNL A   1      37.474  33.463  32.401  1.00  0.00     0.031 C 
ATOM     40  C   UNL A   1      38.041  30.579  28.329  1.00  0.00     0.029 A 
ATOM     41  N   UNL A   1      39.416  30.214  30.055  1.00  0.00    -0.354 N 
ATOM     42  C   UNL A   1      39.021  32.437  33.733  1.00  0.00     0.074 A 
ATOM     43  C   UNL A   1      38.056  33.504  33.592  1.00  0.00     0.031 C 
ATOM     44  C   UNL A   1      38.859  29.576  27.983  1.00  0.00     0.029 A 
ATOM     45  C   UNL A   1      39.785  29.320  29.082  1.00  0.00     0.049 A 
ATOM     46  H   UNL A   1      39.866  30.280  30.927  1.00  0.00     0.167 HD
ATOM     47  C   UNL A   1      39.736  32.198  34.858  1.00  0.00     0.037 A 
ATOM     48  C   UNL A   1      40.767  28.401  29.071  1.00  0.00     0.037 A 
ATOM     49  C   UNL A   1      40.746  31.179  34.972  1.00  0.00     0.049 A 
ATOM     50  C   UNL A   1      41.619  28.231  30.294  1.00  0.00     0.074 A 
ATOM     51  C   UNL A   1      41.519  30.846  36.072  1.00  0.00     0.029 A 
ATOM     52  N   UNL A   1      41.149  30.351  33.936  1.00  0.00    -0.354 N 
ATOM     53  N   UNL A   1      41.521  28.822  31.459  1.00  0.00    -0.248 NA
ATOM     54  C   UNL A   1      42.719  27.262  30.199  1.00  0.00     0.031 C 
ATOM     55  C   UNL A   1      42.433  29.860  35.681  1.00  0.00     0.029 A 
ATOM     56  C   UNL A   1      42.193  29.544  34.354  1.00  0.00     0.049 A 
ATOM     57  H   UNL A   1      40.750  30.339  33.036  1.00  0.00     0.167 HD
ATOM     58  C   UNL A   1      42.536  28.290  32.242  1.00  0.00     0.074 A 
ATOM     59  C   UNL A   1      43.222  27.309  31.425  1.00  0.00     0.031 C 
ATOM     60  C   UNL A   1      42.871  28.584  33.522  1.00  0.00     0.037 A 
BRANCH  47  61
ATOM     61  C   UNL A   1      39.465  33.061  36.055  1.00  0.00     0.057 A 
ATOM     62  C   UNL A   1      40.144  34.272  36.238  1.00  0.00     0.134 A 
ATOM     63  C   UNL A   1      38.582  32.657  37.066  1.00  0.00     0.134 A 
ATOM     64  F   UNL A   1      41.002  34.716  35.308  1.00  0.00    -0.206 F 
ATOM     65  C   UNL A   1      39.964  35.044  37.387  1.00  0.00     0.040 A 
ATOM     66  C   UNL A   1      38.383  33.427  38.213  1.00  0.00     0.040 A 
ATOM     67  F   UNL A   1      37.888  31.515  36.945  1.00  0.00    -0.206 F 
ATOM     68  C   UNL A   1      39.082  34.622  38.380  1.00  0.00     0.006 A 
ENDBRANCH  47  61
BRANCH  48  69
ATOM     69  C   UNL A   1      41.008  27.593  27.851  1.00  0.00     0.057 A 
ATOM     70  C   UNL A   1      40.420  26.331  27.697  1.00  0.00     0.134 A 
ATOM     71  C   UNL A   1      41.821  28.058  26.813  1.00  0.00     0.134 A 
ATOM     72  F   UNL A   1      39.634  25.827  28.660  1.00  0.00    -0.206 F 
ATOM     73  C   UNL A   1      40.637  25.557  26.557  1.00  0.00     0.040 A 
ATOM     74  C   UNL A   1      42.026  27.307  25.656  1.00  0.00     0.040 A 
ATOM     75  F   UNL A   1      42.399  29.266  26.898  1.00  0.00    -0.206 F 
ATOM     76  C   UNL A   1      41.436  26.050  25.529  1.00  0.00     0.006 A 
ENDBRANCH  48  69
BRANCH  60  77
ATOM     77  C   UNL A   1      44.026  27.828  34.107  1.00  0.00     0.057 A 
ATOM     78  C   UNL A   1      43.832  26.578  34.706  1.00  0.00     0.134 A 
ATOM     79  C   UNL A   1      45.329  28.340  34.080  1.00  0.00     0.134 A 
ATOM     80  F   UNL A   1      42.606  26.035  34.771  1.00  0.00    -0.206 F 
ATOM     81  C   UNL A   1      44.895  25.860  35.254  1.00  0.00     0.040 A 
ATOM     82  C   UNL A   1      46.405  27.620  34.600  1.00  0.00     0.040 A 
ATOM     83  F   UNL A   1      45.582  29.526  33.506  1.00  0.00    -0.206 F 
ATOM     84  C   UNL A   1      46.188  26.378  35.194  1.00  0.00     0.006 A 
ENDBRANCH  60  77
ENDBRANCH  34  35
ENDBRANCH  26  29
ENDBRANCH  24  25
ENDBRANCH   1  24
TORSDOF 12
ENDMDL
MODEL 2
REMARK VINA RESULT:     -12.3      2.406      3.490
REMARK SMILES Cc1c(C)c2cc(Cl)c(O[C@@H](C)C(=O)NCCCNC(=O)c3ccc(-c4c5nc(c(-c6c(F)cccc6F)c6ccc([nH]6)c(-c6c(F)cccc6F)c6nc(c(-c7c(F)cccc7F)c7ccc4[nH]7)C=C6)C=C5)cc3)cc2oc1=O
REMARK SMILES IDX 17 1 16 2 15 3 13 4 14 5 11 7 12 8 10 9 9 10 1 11 2 12 3 13
REMARK SMILES IDX 79 14 4 15 5 16 78 17 80 18 6 19 77 20 7 21 76 22 8 23 18 24
REMARK SMILES IDX 19 25 20 26 21 28 22 29 23 30 75 31 24 32 74 33 25 34 26 35
REMARK SMILES IDX 27 36 68 37 28 38 73 39 67 40 69 41 29 42 72 43 66 44 65 45
REMARK SMILES IDX 30 47 56 48 39 49 55 50 40 51 43 52 54 53 70 54 41 55 42 56
REMARK SMILES IDX 53 58 71 59 44 60 31 61 32 62 37 63 33 64 34 65 36 66 38 67
REMARK SMILES IDX 35 68 57 69 58 70 63 71 59 72 60 73 62 74 64 75 61 76 45 77
REMARK SMILES IDX 46 78 51 79 47 80 48 81 50 82 52 83 49 84
REMARK H PARENT 15 6 19 27 69 46 43 57
REMARK Flexibility Score: inf
ROOT
ATOM      1  C   UNL A   1      31.365  32.171  26.638  1.00  0.00     0.042 C 
ENDROOT
BRANCH   1   2
ATOM      2  C   UNL A   1      31.513  30.794  25.999  1.00  0.00     0.118 C 
BRANCH   2   3
ATOM      3  N   UNL A   1      31.393  29.742  26.990  1.00  0.00    -0.353 N 
ATOM      4  C   UNL A   1      32.195  28.699  27.334  1.00  0.00     0.260 C 
ATOM      5  O   UNL A   1      31.699  27.899  28.140  1.00  0.00    -0.271 OA
ATOM      6  H   UNL A   1      30.565  29.793  27.520  1.00  0.00     0.163 HD
BRANCH   4   7
ATOM      7  C   UNL A   1      33.667  28.497  26.852  1.00  0.00     0.258 C 
ATOM      8  C   UNL A   1      34.655  29.495  27.456  1.00  0.00     0.064 C 
BRANCH   7   9
ATOM      9  O   UNL A   1      34.017  28.048  25.545  1.00  0.00    -0.479 OA
BRANCH   9  10
ATOM     10  C   UNL A   1      33.745  26.778  25.144  1.00  0.00     0.142 A 
ATOM     11  C   UNL A   1      33.509  20.319  24.435  1.00  0.00     0.052 C 
ATOM     12  C   UNL A   1      33.426  21.787  24.737  1.00  0.00     0.038 A 
ATOM     13  C   UNL A   1      33.152  22.734  23.814  1.00  0.00    -0.030 A 
ATOM     14  C   UNL A   1      33.700  22.146  26.157  1.00  0.00     0.339 A 
ATOM     15  C   UNL A   1      32.818  22.436  22.377  1.00  0.00     0.046 C 
ATOM     16  C   UNL A   1      33.240  24.148  24.216  1.00  0.00     0.023 A 
ATOM     17  O   UNL A   1      33.393  23.438  26.542  1.00  0.00    -0.422 OA
ATOM     18  O   UNL A   1      34.127  21.332  26.969  1.00  0.00    -0.246 OA
ATOM     19  C   UNL A   1      33.299  25.220  23.319  1.00  0.00     0.036 A 
ATOM     20  C   UNL A   1      33.340  24.447  25.572  1.00  0.00     0.142 A 
ATOM     21  C   UNL A   1      33.560  26.521  23.778  1.00  0.00     0.083 A 
ATOM     22  C   UNL A   1      33.532  25.746  26.046  1.00  0.00     0.096 A 
ATOM     23  Cl  UNL A   1      33.686  27.784  22.607  1.00  0.00    -0.080 Cl
ENDBRANCH   9  10
ENDBRANCH   7   9
ENDBRANCH   4   7
ENDBRANCH   2   3
ENDBRANCH   1   2
BRANCH   1  24
ATOM     24  C   UNL A   1      32.682  32.888  26.891  1.00  0.00     0.118 C 
BRANCH  24  25
ATOM     25  N   UNL A   1      32.526  34.045  27.769  1.00  0.00    -0.352 N 
ATOM     26  C   UNL A   1      33.215  34.479  28.878  1.00  0.00     0.251 C 
ATOM     27  H   UNL A   1      31.779  34.633  27.515  1.00  0.00     0.163 HD
ATOM     28  O   UNL A   1      32.769  35.442  29.499  1.00  0.00    -0.269 OA
BRANCH  26  29
ATOM     29  C   UNL A   1      34.452  33.820  29.370  1.00  0.00     0.039 A 
ATOM     30  C   UNL A   1      34.426  32.722  30.228  1.00  0.00     0.014 A 
ATOM     31  C   UNL A   1      35.693  34.271  28.895  1.00  0.00     0.014 A 
ATOM     32  C   UNL A   1      35.609  32.207  30.751  1.00  0.00     0.010 A 
ATOM     33  C   UNL A   1      36.888  33.686  29.340  1.00  0.00     0.010 A 
ATOM     34  C   UNL A   1      36.856  32.678  30.310  1.00  0.00    -0.014 A 
BRANCH  34  35
ATOM     35  C   UNL A   1      38.084  32.020  30.827  1.00  0.00     0.031 A 
ATOM     36  C   UNL A   1      38.651  32.352  32.178  1.00  0.00     0.074 A 
ATOM     37  C   UNL A   1      38.643  31.041  30.090  1.00  0.00     0.049 A 
ATOM     38  N   UNL A   1      39.578  31.732  32.864  1.00  0.00    -0.248 NA
ATOM     39  C   UNL A   1      38.099  33.529  32.859  1.00  0.00     0.031 C 
ATOM     40  C   UNL A   1      38.200  30.637  28.754  1.00  0.00     0.029 A 
ATOM     41  N   UNL A   1      39.682  30.193  30.369  1.00  0.00    -0.354 N 
ATOM     42  C   UNL A   1      39.688  32.417  34.067  1.00  0.00     0.074 A 
ATOM     43  C   UNL A   1      38.772  33.533  34.001  1.00  0.00     0.031 C 
ATOM     44  C   UNL A   1      38.936  29.594  28.346  1.00  0.00     0.029 A 
ATOM     45  C   UNL A   1      39.928  29.285  29.370  1.00  0.00     0.049 A 
ATOM     46  H   UNL A   1      40.201  30.231  31.204  1.00  0.00     0.167 HD
ATOM     47  C   UNL A   1      40.474  32.136  35.135  1.00  0.00     0.037 A 
ATOM     48  C   UNL A   1      40.857  28.316  29.283  1.00  0.00     0.037 A 
ATOM     49  C   UNL A   1      41.434  31.064  35.170  1.00  0.00     0.049 A 
ATOM     50  C   UNL A   1      41.789  28.095  30.438  1.00  0.00     0.074 A 
ATOM     51  C   UNL A   1      42.271  30.686  36.208  1.00  0.00     0.029 A 
ATOM     52  N   UNL A   1      41.712  30.221  34.106  1.00  0.00    -0.354 N 
ATOM     53  N   UNL A   1      41.812  28.686  31.607  1.00  0.00    -0.248 NA
ATOM     54  C   UNL A   1      42.826  27.071  30.258  1.00  0.00     0.031 C 
ATOM     55  C   UNL A   1      43.099  29.655  35.747  1.00  0.00     0.029 A 
ATOM     56  C   UNL A   1      42.741  29.358  34.442  1.00  0.00     0.049 A 
ATOM     57  H   UNL A   1      41.245  30.234  33.239  1.00  0.00     0.167 HD
ATOM     58  C   UNL A   1      42.854  28.097  32.310  1.00  0.00     0.074 A 
ATOM     59  C   UNL A   1      43.423  27.086  31.442  1.00  0.00     0.031 C 
ATOM     60  C   UNL A   1      43.302  28.368  33.560  1.00  0.00     0.037 A 
BRANCH  47  61
ATOM     61  C   UNL A   1      40.341  33.006  36.349  1.00  0.00     0.057 A 
ATOM     62  C   UNL A   1      39.338  32.771  37.297  1.00  0.00     0.134 A 
ATOM     63  C   UNL A   1      41.164  34.124  36.543  1.00  0.00     0.134 A 
ATOM     64  F   UNL A   1      38.517  31.719  37.170  1.00  0.00    -0.206 F 
ATOM     65  C   UNL A   1      39.149  33.622  38.388  1.00  0.00     0.040 A 
ATOM     66  C   UNL A   1      40.994  34.975  37.637  1.00  0.00     0.040 A 
ATOM     67  F   UNL A   1      42.154  34.397  35.680  1.00  0.00    -0.206 F 
ATOM     68  C   UNL A   1      39.979  34.729  38.560  1.00  0.00     0.006 A 
ENDBRANCH  47  61
BRANCH  48  69
ATOM     69  C   UNL A   1      40.960  27.501  28.049  1.00  0.00     0.057 A 
ATOM     70  C   UNL A   1      41.744  27.927  26.969  1.00  0.00     0.134 A 
ATOM     71  C   UNL A   1      40.289  26.282  27.918  1.00  0.00     0.134 A 
ATOM     72  F   UNL A   1      42.409  29.091  27.031  1.00  0.00    -0.206 F 
ATOM     73  C   UNL A   1      41.851  27.174  25.800  1.00  0.00     0.040 A 
ATOM     74  C   UNL A   1      40.408  25.504  26.766  1.00  0.00     0.040 A 
ATOM     75  F   UNL A   1      39.536  25.815  28.925  1.00  0.00    -0.206 F 
ATOM     76  C   UNL A   1      41.187  25.954  25.701  1.00  0.00     0.006 A 
ENDBRANCH  48  69
BRANCH  60  77
ATOM     77  C   UNL A   1      44.457  27.550  34.055  1.00  0.00     0.057 A 
ATOM     78  C   UNL A   1      45.771  28.006  33.907  1.00  0.00     0.134 A 
ATOM     79  C   UNL A   1      44.265  26.309  34.675  1.00  0.00     0.134 A 
ATOM     80  F   UNL A   1      46.022  29.184  33.314  1.00  0.00    -0.206 F 
ATOM     81  C   UNL A   1      46.857  27.259  34.362  1.00  0.00     0.040 A 
ATOM     82  C   UNL A   1      45.341  25.564  35.160  1.00  0.00     0.040 A 
ATOM     83  F   UNL A   1      43.028  25.824  34.861  1.00  0.00    -0.206 F 
ATOM     84  C   UNL A   1      46.643  26.038  35.000  1.00  0.00     0.006 A 
ENDBRANCH  60  77
ENDBRANCH  34  35
ENDBRANCH  26  29
ENDBRANCH  24  25
ENDBRANCH   1  24
TORSDOF 12
ENDMDL
MODEL 3
REMARK VINA RESULT:     -12.3      3.488      8.286
REMARK SMILES Cc1c(C)c2cc(Cl)c(O[C@@H](C)C(=O)NCCCNC(=O)c3ccc(-c4c5nc(c(-c6c(F)cccc6F)c6ccc([nH]6)c(-c6c(F)cccc6F)c6nc(c(-c7c(F)cccc7F)c7ccc4[nH]7)C=C6)C=C5)cc3)cc2oc1=O
REMARK SMILES IDX 17 1 16 2 15 3 13 4 14 5 11 7 12 8 10 9 9 10 1 11 2 12 3 13
REMARK SMILES IDX 79 14 4 15 5 16 78 17 80 18 6 19 77 20 7 21 76 22 8 23 18 24
REMARK SMILES IDX 19 25 20 26 21 28 22 29 23 30 75 31 24 32 74 33 25 34 26 35
REMARK SMILES IDX 27 36 68 37 28 38 73 39 67 40 69 41 29 42 72 43 66 44 65 45
REMARK SMILES IDX 30 47 56 48 39 49 55 50 40 51 43 52 54 53 70 54 41 55 42 56
REMARK SMILES IDX 53 58 71 59 44 60 31 61 32 62 37 63 33 64 34 65 36 66 38 67
REMARK SMILES IDX 35 68 57 69 58 70 63 71 59 72 60 73 62 74 64 75 61 76 45 77
REMARK SMILES IDX 46 78 51 79 47 80 48 81 50 82 52 83 49 84
REMARK H PARENT 15 6 19 27 69 46 43 57
REMARK Flexibility Score: inf
ROOT
ATOM      1  C   UNL A   1      36.877  23.647  24.969  1.00  0.00     0.042 C 
ENDROOT
BRANCH   1   2
ATOM      2  C   UNL A   1      36.345  22.217  24.986  1.00  0.00     0.118 C 
BRANCH   2   3
ATOM      3  N   UNL A   1      35.703  21.913  26.250  1.00  0.00    -0.353 N 
ATOM      4  C   UNL A   1      34.432  21.559  26.579  1.00  0.00     0.260 C 
ATOM      5  O   UNL A   1      34.196  21.522  27.796  1.00  0.00    -0.271 OA
ATOM      6  H   UNL A   1      36.307  21.976  27.024  1.00  0.00     0.163 HD
BRANCH   4   7
ATOM      7  C   UNL A   1      33.320  21.144  25.564  1.00  0.00     0.258 C 
ATOM      8  C   UNL A   1      33.675  19.911  24.733  1.00  0.00     0.064 C 
BRANCH   7   9
ATOM      9  O   UNL A   1      32.471  22.074  24.897  1.00  0.00    -0.479 OA
BRANCH   9  10
ATOM     10  C   UNL A   1      32.700  23.411  24.970  1.00  0.00     0.142 A 
ATOM     11  C   UNL A   1      32.327  29.808  26.076  1.00  0.00     0.052 C 
ATOM     12  C   UNL A   1      32.486  28.317  26.002  1.00  0.00     0.038 A 
ATOM     13  C   UNL A   1      33.202  27.679  25.051  1.00  0.00    -0.030 A 
ATOM     14  C   UNL A   1      31.759  27.562  27.061  1.00  0.00     0.339 A 
ATOM     15  C   UNL A   1      33.998  28.383  23.985  1.00  0.00     0.046 C 
ATOM     16  C   UNL A   1      33.160  26.207  25.014  1.00  0.00     0.023 A 
ATOM     17  O   UNL A   1      32.070  26.221  27.192  1.00  0.00    -0.422 OA
ATOM     18  O   UNL A   1      30.960  28.099  27.820  1.00  0.00    -0.246 OA
ATOM     19  C   UNL A   1      33.576  25.435  23.924  1.00  0.00     0.036 A 
ATOM     20  C   UNL A   1      32.609  25.532  26.098  1.00  0.00     0.142 A 
ATOM     21  C   UNL A   1      33.339  24.051  23.898  1.00  0.00     0.083 A 
ATOM     22  C   UNL A   1      32.429  24.148  26.113  1.00  0.00     0.096 A 
ATOM     23  Cl  UNL A   1      33.820  23.172  22.492  1.00  0.00    -0.080 Cl
ENDBRANCH   9  10
ENDBRANCH   7   9
ENDBRANCH   4   7
ENDBRANCH   2   3
ENDBRANCH   1   2
BRANCH   1  24
ATOM     24  C   UNL A   1      37.698  24.023  26.194  1.00  0.00     0.118 C 
BRANCH  24  25
ATOM     25  N   UNL A   1      39.103  23.650  26.058  1.00  0.00    -0.352 N 
ATOM     26  C   UNL A   1      40.267  24.183  26.563  1.00  0.00     0.251 C 
ATOM     27  H   UNL A   1      39.246  22.858  25.492  1.00  0.00     0.163 HD
ATOM     28  O   UNL A   1      41.337  23.721  26.169  1.00  0.00    -0.269 OA
BRANCH  26  29
ATOM     29  C   UNL A   1      40.286  25.302  27.540  1.00  0.00     0.039 A 
ATOM     30  C   UNL A   1      39.427  25.355  28.635  1.00  0.00     0.014 A 
ATOM     31  C   UNL A   1      41.256  26.307  27.398  1.00  0.00     0.014 A 
ATOM     32  C   UNL A   1      39.405  26.476  29.461  1.00  0.00     0.010 A 
ATOM     33  C   UNL A   1      41.305  27.388  28.290  1.00  0.00     0.010 A 
ATOM     34  C   UNL A   1      40.347  27.505  29.303  1.00  0.00    -0.014 A 
BRANCH  34  35
ATOM     35  C   UNL A   1      40.340  28.627  30.278  1.00  0.00     0.031 A 
ATOM     36  C   UNL A   1      39.357  29.758  30.174  1.00  0.00     0.074 A 
ATOM     37  C   UNL A   1      41.185  28.569  31.324  1.00  0.00     0.049 A 
ATOM     38  N   UNL A   1      39.076  30.695  31.046  1.00  0.00    -0.248 NA
ATOM     39  C   UNL A   1      38.577  29.850  28.935  1.00  0.00     0.031 C 
ATOM     40  C   UNL A   1      42.200  27.534  31.529  1.00  0.00     0.029 A 
ATOM     41  N   UNL A   1      41.307  29.380  32.422  1.00  0.00    -0.354 N 
ATOM     42  C   UNL A   1      38.061  31.455  30.477  1.00  0.00     0.074 A 
ATOM     43  C   UNL A   1      37.810  30.907  29.164  1.00  0.00     0.031 C 
ATOM     44  C   UNL A   1      42.814  27.749  32.701  1.00  0.00     0.029 A 
ATOM     45  C   UNL A   1      42.268  28.959  33.307  1.00  0.00     0.049 A 
ATOM     46  H   UNL A   1      40.759  30.185  32.562  1.00  0.00     0.167 HD
ATOM     47  C   UNL A   1      37.393  32.508  31.006  1.00  0.00     0.037 A 
ATOM     48  C   UNL A   1      42.672  29.493  34.473  1.00  0.00     0.037 A 
ATOM     49  C   UNL A   1      37.692  33.094  32.286  1.00  0.00     0.049 A 
ATOM     50  C   UNL A   1      41.987  30.726  34.985  1.00  0.00     0.074 A 
ATOM     51  C   UNL A   1      37.067  34.155  32.920  1.00  0.00     0.029 A 
ATOM     52  N   UNL A   1      38.729  32.691  33.113  1.00  0.00    -0.354 N 
ATOM     53  N   UNL A   1      40.963  31.372  34.484  1.00  0.00    -0.248 NA
ATOM     54  C   UNL A   1      42.517  31.304  36.228  1.00  0.00     0.031 C 
ATOM     55  C   UNL A   1      37.767  34.433  34.100  1.00  0.00     0.029 A 
ATOM     56  C   UNL A   1      38.795  33.512  34.225  1.00  0.00     0.049 A 
ATOM     57  H   UNL A   1      39.330  31.932  32.935  1.00  0.00     0.167 HD
ATOM     58  C   UNL A   1      40.715  32.424  35.355  1.00  0.00     0.074 A 
ATOM     59  C   UNL A   1      41.682  32.314  36.428  1.00  0.00     0.031 C 
ATOM     60  C   UNL A   1      39.773  33.395  35.275  1.00  0.00     0.037 A 
BRANCH  47  61
ATOM     61  C   UNL A   1      36.280  33.107  30.198  1.00  0.00     0.057 A 
ATOM     62  C   UNL A   1      36.549  33.989  29.146  1.00  0.00     0.134 A 
ATOM     63  C   UNL A   1      34.935  32.864  30.510  1.00  0.00     0.134 A 
ATOM     64  F   UNL A   1      37.814  34.264  28.796  1.00  0.00    -0.206 F 
ATOM     65  C   UNL A   1      35.522  34.619  28.439  1.00  0.00     0.040 A 
ATOM     66  C   UNL A   1      33.899  33.476  29.802  1.00  0.00     0.040 A 
ATOM     67  F   UNL A   1      34.608  32.015  31.496  1.00  0.00    -0.206 F 
ATOM     68  C   UNL A   1      34.192  34.364  28.767  1.00  0.00     0.006 A 
ENDBRANCH  47  61
BRANCH  48  69
ATOM     69  C   UNL A   1      43.794  28.875  35.218  1.00  0.00     0.057 A 
ATOM     70  C   UNL A   1      45.123  29.202  34.921  1.00  0.00     0.134 A 
ATOM     71  C   UNL A   1      43.571  27.953  36.245  1.00  0.00     0.134 A 
ATOM     72  F   UNL A   1      45.403  30.077  33.942  1.00  0.00    -0.206 F 
ATOM     73  C   UNL A   1      46.191  28.628  35.610  1.00  0.00     0.040 A 
ATOM     74  C   UNL A   1      44.628  27.391  36.963  1.00  0.00     0.040 A 
ATOM     75  F   UNL A   1      42.319  27.612  36.586  1.00  0.00    -0.206 F 
ATOM     76  C   UNL A   1      45.943  27.726  36.641  1.00  0.00     0.006 A 
ENDBRANCH  48  69
BRANCH  60  77
ATOM     77  C   UNL A   1      39.747  34.403  36.385  1.00  0.00     0.057 A 
ATOM     78  C   UNL A   1      39.032  34.152  37.562  1.00  0.00     0.134 A 
ATOM     79  C   UNL A   1      40.428  35.622  36.286  1.00  0.00     0.134 A 
ATOM     80  F   UNL A   1      38.351  33.005  37.715  1.00  0.00    -0.206 F 
ATOM     81  C   UNL A   1      38.998  35.078  38.604  1.00  0.00     0.040 A 
ATOM     82  C   UNL A   1      40.425  36.544  37.333  1.00  0.00     0.040 A 
ATOM     83  F   UNL A   1      41.146  35.914  35.190  1.00  0.00    -0.206 F 
ATOM     84  C   UNL A   1      39.704  36.275  38.495  1.00  0.00     0.006 A 
ENDBRANCH  60  77
ENDBRANCH  34  35
ENDBRANCH  26  29
ENDBRANCH  24  25
ENDBRANCH   1  24
TORSDOF 12
ENDMDL
