MODEL 1
REMARK VINA RESULT:     -12.3      0.000      0.000
REMARK SMILES COc1cc(Cl)ccc1NC(=O)COc1ccccc1C(=O)NCCCNC(=O)c1ccc(-c2c3nc(c(-c4c(F)cccc4F)c4ccc([nH]4)c(-c4c(F)cccc4F)c4nc(c(-c5c(F)cccc5F)c5ccc2[nH]5)C=C4)C=C3)cc1
REMARK SMILES IDX 21 1 22 2 23 3 20 5 15 6 16 7 17 8 19 9 18 10 14 11 13 12
REMARK SMILES IDX 11 13 10 14 12 16 9 17 3 18 4 19 5 20 8 21 6 22 7 23 2 24
REMARK SMILES IDX 1 25 24 26 25 27 26 28 27 29 28 30 29 32 30 33 31 34 83 35
REMARK SMILES IDX 32 36 82 37 33 38 34 39 35 40 76 41 36 42 81 43 75 44 77 45
REMARK SMILES IDX 37 46 80 47 74 48 73 49 38 51 64 52 47 53 63 54 48 55 51 56
REMARK SMILES IDX 62 57 78 58 49 59 50 60 61 62 79 63 52 64 39 65 40 66 45 67
REMARK SMILES IDX 41 68 42 69 44 70 46 71 43 72 65 73 66 74 71 75 67 76 68 77
REMARK SMILES IDX 70 78 72 79 69 80 53 81 54 82 59 83 55 84 56 85 58 86 60 87
REMARK SMILES IDX 57 88
REMARK H PARENT 23 4 10 15 27 31 77 50 51 61
REMARK Flexibility Score: inf
ROOT
ATOM      1  C   UNL A   1      34.851  21.500  26.117  1.00  0.00     0.255 C 
ATOM      2  O   UNL A   1      34.128  21.487  27.110  1.00  0.00    -0.269 OA
ATOM      3  N   UNL A   1      36.189  21.895  26.106  1.00  0.00    -0.352 N 
ATOM      4  H   UNL A   1      36.480  22.095  27.025  1.00  0.00     0.163 HD
ENDROOT
BRANCH   1   5
ATOM      5  C   UNL A   1      34.286  20.870  24.973  1.00  0.00     0.081 A 
ATOM      6  C   UNL A   1      33.709  21.730  24.079  1.00  0.00     0.132 A 
ATOM      7  C   UNL A   1      32.595  21.209  23.431  1.00  0.00     0.047 A 
ATOM      8  C   UNL A   1      32.299  19.824  23.525  1.00  0.00     0.004 A 
ATOM      9  C   UNL A   1      34.181  19.481  24.939  1.00  0.00     0.018 A 
ATOM     10  C   UNL A   1      33.158  18.945  24.190  1.00  0.00     0.001 A 
BRANCH   6  11
ATOM     11  O   UNL A   1      34.083  23.050  24.015  1.00  0.00    -0.483 OA
BRANCH  11  12
ATOM     12  C   UNL A   1      33.559  23.960  23.020  1.00  0.00     0.329 C 
BRANCH  12  13
ATOM     13  C   UNL A   1      33.375  25.524  22.290  1.00  0.00     0.262 C 
ATOM     14  N   UNL A   1      33.067  26.825  22.643  1.00  0.00    -0.320 N 
ATOM     15  H   UNL A   1      32.759  27.221  21.796  1.00  0.00     0.170 HD
ATOM     16  O   UNL A   1      33.309  25.422  21.035  1.00  0.00    -0.271 OA
BRANCH  14  17
ATOM     17  C   UNL A   1      32.947  27.933  23.588  1.00  0.00     0.084 A 
ATOM     18  C   UNL A   1      31.739  28.648  23.559  1.00  0.00     0.143 A 
ATOM     19  C   UNL A   1      31.316  29.498  24.601  1.00  0.00     0.069 A 
ATOM     20  C   UNL A   1      32.172  29.774  25.652  1.00  0.00     0.044 A 
ATOM     21  C   UNL A   1      33.841  28.466  24.528  1.00  0.00     0.031 A 
ATOM     22  Cl  UNL A   1      31.682  30.758  26.968  1.00  0.00    -0.084 Cl
ATOM     23  C   UNL A   1      33.466  29.313  25.583  1.00  0.00     0.023 A 
BRANCH  18  24
ATOM     24  O   UNL A   1      30.981  28.609  22.410  1.00  0.00    -0.495 OA
ATOM     25  C   UNL A   1      29.612  28.437  22.829  1.00  0.00     0.278 C 
ENDBRANCH  18  24
ENDBRANCH  14  17
ENDBRANCH  12  13
ENDBRANCH  11  12
ENDBRANCH   6  11
ENDBRANCH   1   5
BRANCH   3  26
ATOM     26  C   UNL A   1      37.316  22.113  25.175  1.00  0.00     0.118 C 
BRANCH  26  27
ATOM     27  C   UNL A   1      38.055  20.782  24.836  1.00  0.00     0.042 C 
BRANCH  27  28
ATOM     28  C   UNL A   1      38.737  20.035  26.009  1.00  0.00     0.118 C 
BRANCH  28  29
ATOM     29  N   UNL A   1      39.952  19.306  25.682  1.00  0.00    -0.352 N 
ATOM     30  C   UNL A   1      41.266  19.567  25.991  1.00  0.00     0.251 C 
ATOM     31  H   UNL A   1      39.809  18.489  25.151  1.00  0.00     0.163 HD
ATOM     32  O   UNL A   1      42.132  18.746  25.687  1.00  0.00    -0.269 OA
BRANCH  30  33
ATOM     33  C   UNL A   1      41.689  20.843  26.614  1.00  0.00     0.039 A 
ATOM     34  C   UNL A   1      42.125  21.862  25.759  1.00  0.00     0.014 A 
ATOM     35  C   UNL A   1      41.734  21.040  27.997  1.00  0.00     0.014 A 
ATOM     36  C   UNL A   1      42.523  23.098  26.277  1.00  0.00     0.010 A 
ATOM     37  C   UNL A   1      42.096  22.295  28.514  1.00  0.00     0.010 A 
ATOM     38  C   UNL A   1      42.475  23.345  27.659  1.00  0.00    -0.014 A 
BRANCH  38  39
ATOM     39  C   UNL A   1      42.773  24.708  28.184  1.00  0.00     0.031 A 
ATOM     40  C   UNL A   1      44.174  25.131  28.532  1.00  0.00     0.074 A 
ATOM     41  C   UNL A   1      41.762  25.583  28.365  1.00  0.00     0.049 A 
ATOM     42  N   UNL A   1      44.606  26.288  28.974  1.00  0.00    -0.248 NA
ATOM     43  C   UNL A   1      45.226  24.116  28.383  1.00  0.00     0.031 C 
ATOM     44  C   UNL A   1      40.350  25.302  28.108  1.00  0.00     0.029 A 
ATOM     45  N   UNL A   1      41.768  26.888  28.799  1.00  0.00    -0.354 N 
ATOM     46  C   UNL A   1      45.973  26.139  29.167  1.00  0.00     0.074 A 
ATOM     47  C   UNL A   1      46.291  24.765  28.836  1.00  0.00     0.031 C 
ATOM     48  C   UNL A   1      39.630  26.408  28.350  1.00  0.00     0.029 A 
ATOM     49  C   UNL A   1      40.522  27.469  28.810  1.00  0.00     0.049 A 
ATOM     50  H   UNL A   1      42.586  27.360  29.075  1.00  0.00     0.167 HD
ATOM     51  C   UNL A   1      46.884  27.062  29.564  1.00  0.00     0.037 A 
ATOM     52  C   UNL A   1      40.137  28.716  29.144  1.00  0.00     0.037 A 
ATOM     53  C   UNL A   1      46.578  28.436  29.878  1.00  0.00     0.049 A 
ATOM     54  C   UNL A   1      41.163  29.720  29.588  1.00  0.00     0.074 A 
ATOM     55  C   UNL A   1      47.448  29.456  30.227  1.00  0.00     0.029 A 
ATOM     56  N   UNL A   1      45.304  28.982  29.889  1.00  0.00    -0.354 N 
ATOM     57  N   UNL A   1      42.461  29.583  29.696  1.00  0.00    -0.248 NA
ATOM     58  C   UNL A   1      40.667  31.056  29.955  1.00  0.00     0.031 C 
ATOM     59  C   UNL A   1      46.696  30.606  30.491  1.00  0.00     0.029 A 
ATOM     60  C   UNL A   1      45.361  30.316  30.263  1.00  0.00     0.049 A 
ATOM     61  H   UNL A   1      44.479  28.493  29.664  1.00  0.00     0.167 HD
ATOM     62  C   UNL A   1      42.940  30.817  30.118  1.00  0.00     0.074 A 
ATOM     63  C   UNL A   1      41.795  31.695  30.236  1.00  0.00     0.031 C 
ATOM     64  C   UNL A   1      44.218  31.186  30.380  1.00  0.00     0.037 A 
BRANCH  51  65
ATOM     65  C   UNL A   1      48.311  26.606  29.691  1.00  0.00     0.057 A 
ATOM     66  C   UNL A   1      48.799  26.023  30.869  1.00  0.00     0.134 A 
ATOM     67  C   UNL A   1      49.205  26.741  28.621  1.00  0.00     0.134 A 
ATOM     68  F   UNL A   1      47.997  25.868  31.933  1.00  0.00    -0.206 F 
ATOM     69  C   UNL A   1      50.134  25.631  30.992  1.00  0.00     0.040 A 
ATOM     70  C   UNL A   1      50.535  26.326  28.723  1.00  0.00     0.040 A 
ATOM     71  F   UNL A   1      48.801  27.277  27.459  1.00  0.00    -0.206 F 
ATOM     72  C   UNL A   1      51.005  25.780  29.915  1.00  0.00     0.006 A 
ENDBRANCH  51  65
BRANCH  52  73
ATOM     73  C   UNL A   1      38.708  29.101  29.026  1.00  0.00     0.057 A 
ATOM     74  C   UNL A   1      37.857  29.048  30.136  1.00  0.00     0.134 A 
ATOM     75  C   UNL A   1      38.163  29.539  27.813  1.00  0.00     0.134 A 
ATOM     76  F   UNL A   1      38.316  28.616  31.319  1.00  0.00    -0.206 F 
ATOM     77  C   UNL A   1      36.513  29.410  30.044  1.00  0.00     0.040 A 
ATOM     78  C   UNL A   1      36.825  29.925  27.712  1.00  0.00     0.040 A 
ATOM     79  F   UNL A   1      38.928  29.613  26.715  1.00  0.00    -0.206 F 
ATOM     80  C   UNL A   1      35.995  29.857  28.829  1.00  0.00     0.006 A 
ENDBRANCH  52  73
BRANCH  64  81
ATOM     81  C   UNL A   1      44.451  32.610  30.798  1.00  0.00     0.057 A 
ATOM     82  C   UNL A   1      44.476  32.991  32.145  1.00  0.00     0.134 A 
ATOM     83  C   UNL A   1      44.691  33.604  29.840  1.00  0.00     0.134 A 
ATOM     84  F   UNL A   1      44.240  32.091  33.111  1.00  0.00    -0.206 F 
ATOM     85  C   UNL A   1      44.711  34.314  32.525  1.00  0.00     0.040 A 
ATOM     86  C   UNL A   1      44.950  34.925  30.209  1.00  0.00     0.040 A 
ATOM     87  F   UNL A   1      44.687  33.307  28.532  1.00  0.00    -0.206 F 
ATOM     88  C   UNL A   1      44.955  35.285  31.554  1.00  0.00     0.006 A 
ENDBRANCH  64  81
ENDBRANCH  38  39
ENDBRANCH  30  33
ENDBRANCH  28  29
ENDBRANCH  27  28
ENDBRANCH  26  27
ENDBRANCH   3  26
TORSDOF 15
ENDMDL
MODEL 2
REMARK VINA RESULT:     -12.2      3.874      7.904
REMARK SMILES COc1cc(Cl)ccc1NC(=O)COc1ccccc1C(=O)NCCCNC(=O)c1ccc(-c2c3nc(c(-c4c(F)cccc4F)c4ccc([nH]4)c(-c4c(F)cccc4F)c4nc(c(-c5c(F)cccc5F)c5ccc2[nH]5)C=C4)C=C3)cc1
REMARK SMILES IDX 21 1 22 2 23 3 20 5 15 6 16 7 17 8 19 9 18 10 14 11 13 12
REMARK SMILES IDX 11 13 10 14 12 16 9 17 3 18 4 19 5 20 8 21 6 22 7 23 2 24
REMARK SMILES IDX 1 25 24 26 25 27 26 28 27 29 28 30 29 32 30 33 31 34 83 35
REMARK SMILES IDX 32 36 82 37 33 38 34 39 35 40 76 41 36 42 81 43 75 44 77 45
REMARK SMILES IDX 37 46 80 47 74 48 73 49 38 51 64 52 47 53 63 54 48 55 51 56
REMARK SMILES IDX 62 57 78 58 49 59 50 60 61 62 79 63 52 64 39 65 40 66 45 67
REMARK SMILES IDX 41 68 42 69 44 70 46 71 43 72 65 73 66 74 71 75 67 76 68 77
REMARK SMILES IDX 70 78 72 79 69 80 53 81 54 82 59 83 55 84 56 85 58 86 60 87
REMARK SMILES IDX 57 88
REMARK H PARENT 23 4 10 15 27 31 77 50 51 61
REMARK Flexibility Score: inf
ROOT
ATOM      1  C   UNL A   1      33.153  22.747  23.739  1.00  0.00     0.255 C 
ATOM      2  O   UNL A   1      32.311  23.604  23.482  1.00  0.00    -0.269 OA
ATOM      3  N   UNL A   1      34.503  23.001  23.987  1.00  0.00    -0.352 N 
ATOM      4  H   UNL A   1      34.659  23.973  23.990  1.00  0.00     0.163 HD
ENDROOT
BRANCH   1   5
ATOM      5  C   UNL A   1      32.616  21.453  23.984  1.00  0.00     0.081 A 
ATOM      6  C   UNL A   1      32.779  21.005  25.266  1.00  0.00     0.132 A 
ATOM      7  C   UNL A   1      32.971  19.631  25.365  1.00  0.00     0.047 A 
ATOM      8  C   UNL A   1      32.736  18.796  24.242  1.00  0.00     0.004 A 
ATOM      9  C   UNL A   1      32.166  20.685  22.912  1.00  0.00     0.018 A 
ATOM     10  C   UNL A   1      32.227  19.316  23.050  1.00  0.00     0.001 A 
BRANCH   6  11
ATOM     11  O   UNL A   1      32.955  21.879  26.311  1.00  0.00    -0.483 OA
BRANCH  11  12
ATOM     12  C   UNL A   1      31.859  22.609  26.909  1.00  0.00     0.329 C 
BRANCH  12  13
ATOM     13  C   UNL A   1      30.380  23.516  26.847  1.00  0.00     0.262 C 
ATOM     14  N   UNL A   1      29.903  24.729  26.385  1.00  0.00    -0.320 N 
ATOM     15  H   UNL A   1      29.094  24.873  26.925  1.00  0.00     0.170 HD
ATOM     16  O   UNL A   1      29.521  23.016  27.622  1.00  0.00    -0.271 OA
BRANCH  14  17
ATOM     17  C   UNL A   1      29.947  25.915  25.532  1.00  0.00     0.084 A 
ATOM     18  C   UNL A   1      30.922  26.873  25.849  1.00  0.00     0.143 A 
ATOM     19  C   UNL A   1      31.334  27.885  24.957  1.00  0.00     0.069 A 
ATOM     20  C   UNL A   1      30.665  28.056  23.757  1.00  0.00     0.044 A 
ATOM     21  C   UNL A   1      29.159  26.318  24.443  1.00  0.00     0.031 A 
ATOM     22  Cl  UNL A   1      31.164  29.236  22.619  1.00  0.00    -0.084 Cl
ATOM     23  C   UNL A   1      29.529  27.316  23.528  1.00  0.00     0.023 A 
BRANCH  18  24
ATOM     24  O   UNL A   1      31.422  26.902  27.132  1.00  0.00    -0.495 OA
ATOM     25  C   UNL A   1      31.778  28.273  27.401  1.00  0.00     0.278 C 
ENDBRANCH  18  24
ENDBRANCH  14  17
ENDBRANCH  12  13
ENDBRANCH  11  12
ENDBRANCH   6  11
ENDBRANCH   1   5
BRANCH   3  26
ATOM     26  C   UNL A   1      35.775  22.296  24.247  1.00  0.00     0.118 C 
BRANCH  26  27
ATOM     27  C   UNL A   1      36.336  22.613  25.667  1.00  0.00     0.042 C 
BRANCH  27  28
ATOM     28  C   UNL A   1      37.430  23.704  25.767  1.00  0.00     0.118 C 
BRANCH  28  29
ATOM     29  N   UNL A   1      38.806  23.238  25.707  1.00  0.00    -0.352 N 
ATOM     30  C   UNL A   1      39.929  23.664  26.376  1.00  0.00     0.251 C 
ATOM     31  H   UNL A   1      38.958  22.490  25.084  1.00  0.00     0.163 HD
ATOM     32  O   UNL A   1      40.986  23.047  26.237  1.00  0.00    -0.269 OA
BRANCH  30  33
ATOM     33  C   UNL A   1      39.931  24.892  27.206  1.00  0.00     0.039 A 
ATOM     34  C   UNL A   1      39.164  24.877  28.377  1.00  0.00     0.014 A 
ATOM     35  C   UNL A   1      40.599  26.063  26.837  1.00  0.00     0.014 A 
ATOM     36  C   UNL A   1      39.133  25.995  29.216  1.00  0.00     0.010 A 
ATOM     37  C   UNL A   1      40.599  27.170  27.700  1.00  0.00     0.010 A 
ATOM     38  C   UNL A   1      39.883  27.142  28.910  1.00  0.00    -0.014 A 
BRANCH  38  39
ATOM     39  C   UNL A   1      39.946  28.273  29.879  1.00  0.00     0.031 A 
ATOM     40  C   UNL A   1      38.955  29.404  29.840  1.00  0.00     0.074 A 
ATOM     41  C   UNL A   1      40.924  28.293  30.809  1.00  0.00     0.049 A 
ATOM     42  N   UNL A   1      38.856  30.447  30.628  1.00  0.00    -0.248 NA
ATOM     43  C   UNL A   1      37.956  29.368  28.764  1.00  0.00     0.031 C 
ATOM     44  C   UNL A   1      41.977  27.287  30.944  1.00  0.00     0.029 A 
ATOM     45  N   UNL A   1      41.186  29.186  31.821  1.00  0.00    -0.354 N 
ATOM     46  C   UNL A   1      37.795  31.198  30.138  1.00  0.00     0.074 A 
ATOM     47  C   UNL A   1      37.311  30.511  28.958  1.00  0.00     0.031 C 
ATOM     48  C   UNL A   1      42.747  27.595  32.000  1.00  0.00     0.029 A 
ATOM     49  C   UNL A   1      42.264  28.836  32.599  1.00  0.00     0.049 A 
ATOM     50  H   UNL A   1      40.652  29.999  31.974  1.00  0.00     0.167 HD
ATOM     51  C   UNL A   1      37.259  32.342  30.632  1.00  0.00     0.037 A 
ATOM     52  C   UNL A   1      42.802  29.438  33.677  1.00  0.00     0.037 A 
ATOM     53  C   UNL A   1      37.723  33.022  31.816  1.00  0.00     0.049 A 
ATOM     54  C   UNL A   1      42.196  30.708  34.203  1.00  0.00     0.074 A 
ATOM     55  C   UNL A   1      37.199  34.150  32.425  1.00  0.00     0.029 A 
ATOM     56  N   UNL A   1      38.824  32.642  32.568  1.00  0.00    -0.354 N 
ATOM     57  N   UNL A   1      41.149  31.365  33.771  1.00  0.00    -0.248 NA
ATOM     58  C   UNL A   1      42.848  31.319  35.372  1.00  0.00     0.031 C 
ATOM     59  C   UNL A   1      38.009  34.478  33.518  1.00  0.00     0.029 A 
ATOM     60  C   UNL A   1      39.012  33.528  33.618  1.00  0.00     0.049 A 
ATOM     61  H   UNL A   1      39.391  31.858  32.382  1.00  0.00     0.167 HD
ATOM     62  C   UNL A   1      41.001  32.451  34.626  1.00  0.00     0.074 A 
ATOM     63  C   UNL A   1      42.059  32.358  35.609  1.00  0.00     0.031 C 
ATOM     64  C   UNL A   1      40.067  33.433  34.595  1.00  0.00     0.037 A 
BRANCH  51  65
ATOM     65  C   UNL A   1      36.103  32.939  29.878  1.00  0.00     0.057 A 
ATOM     66  C   UNL A   1      34.777  32.766  30.298  1.00  0.00     0.134 A 
ATOM     67  C   UNL A   1      36.319  33.704  28.724  1.00  0.00     0.134 A 
ATOM     68  F   UNL A   1      34.500  32.041  31.392  1.00  0.00    -0.206 F 
ATOM     69  C   UNL A   1      33.707  33.296  29.574  1.00  0.00     0.040 A 
ATOM     70  C   UNL A   1      35.258  34.262  28.008  1.00  0.00     0.040 A 
ATOM     71  F   UNL A   1      37.564  33.922  28.274  1.00  0.00    -0.206 F 
ATOM     72  C   UNL A   1      33.947  34.049  28.427  1.00  0.00     0.006 A 
ENDBRANCH  51  65
BRANCH  52  73
ATOM     73  C   UNL A   1      43.962  28.816  34.364  1.00  0.00     0.057 A 
ATOM     74  C   UNL A   1      45.273  29.160  34.013  1.00  0.00     0.134 A 
ATOM     75  C   UNL A   1      43.792  27.877  35.388  1.00  0.00     0.134 A 
ATOM     76  F   UNL A   1      45.499  30.037  33.025  1.00  0.00    -0.206 F 
ATOM     77  C   UNL A   1      46.374  28.588  34.651  1.00  0.00     0.040 A 
ATOM     78  C   UNL A   1      44.884  27.313  36.050  1.00  0.00     0.040 A 
ATOM     79  F   UNL A   1      42.561  27.508  35.771  1.00  0.00    -0.206 F 
ATOM     80  C   UNL A   1      46.180  27.665  35.679  1.00  0.00     0.006 A 
ENDBRANCH  52  73
BRANCH  64  81
ATOM     81  C   UNL A   1      40.130  34.476  35.674  1.00  0.00     0.057 A 
ATOM     82  C   UNL A   1      40.871  35.655  35.520  1.00  0.00     0.134 A 
ATOM     83  C   UNL A   1      39.412  34.315  36.865  1.00  0.00     0.134 A 
ATOM     84  F   UNL A   1      41.593  35.864  34.409  1.00  0.00    -0.206 F 
ATOM     85  C   UNL A   1      40.910  36.628  36.521  1.00  0.00     0.040 A 
ATOM     86  C   UNL A   1      39.425  35.292  37.863  1.00  0.00     0.040 A 
ATOM     87  F   UNL A   1      38.677  33.213  37.075  1.00  0.00    -0.206 F 
ATOM     88  C   UNL A   1      40.180  36.449  37.695  1.00  0.00     0.006 A 
ENDBRANCH  64  81
ENDBRANCH  38  39
ENDBRANCH  30  33
ENDBRANCH  28  29
ENDBRANCH  27  28
ENDBRANCH  26  27
ENDBRANCH   3  26
TORSDOF 15
ENDMDL
MODEL 3
REMARK VINA RESULT:     -12.1      4.273      9.393
REMARK SMILES COc1cc(Cl)ccc1NC(=O)COc1ccccc1C(=O)NCCCNC(=O)c1ccc(-c2c3nc(c(-c4c(F)cccc4F)c4ccc([nH]4)c(-c4c(F)cccc4F)c4nc(c(-c5c(F)cccc5F)c5ccc2[nH]5)C=C4)C=C3)cc1
REMARK SMILES IDX 21 1 22 2 23 3 20 5 15 6 16 7 17 8 19 9 18 10 14 11 13 12
REMARK SMILES IDX 11 13 10 14 12 16 9 17 3 18 4 19 5 20 8 21 6 22 7 23 2 24
REMARK SMILES IDX 1 25 24 26 25 27 26 28 27 29 28 30 29 32 30 33 31 34 83 35
REMARK SMILES IDX 32 36 82 37 33 38 34 39 35 40 76 41 36 42 81 43 75 44 77 45
REMARK SMILES IDX 37 46 80 47 74 48 73 49 38 51 64 52 47 53 63 54 48 55 51 56
REMARK SMILES IDX 62 57 78 58 49 59 50 60 61 62 79 63 52 64 39 65 40 66 45 67
REMARK SMILES IDX 41 68 42 69 44 70 46 71 43 72 65 73 66 74 71 75 67 76 68 77
REMARK SMILES IDX 70 78 72 79 69 80 53 81 54 82 59 83 55 84 56 85 58 86 60 87
REMARK SMILES IDX 57 88
REMARK H PARENT 23 4 10 15 27 31 77 50 51 61
REMARK Flexibility Score: inf
ROOT
ATOM      1  C   UNL A   1      33.209  28.797  25.609  1.00  0.00     0.255 C 
ATOM      2  O   UNL A   1      34.416  28.573  25.643  1.00  0.00    -0.269 OA
ATOM      3  N   UNL A   1      32.634  30.058  25.442  1.00  0.00    -0.352 N 
ATOM      4  H   UNL A   1      33.342  30.724  25.289  1.00  0.00     0.163 HD
ENDROOT
BRANCH   1   5
ATOM      5  C   UNL A   1      32.398  27.631  25.538  1.00  0.00     0.081 A 
ATOM      6  C   UNL A   1      31.959  27.321  24.280  1.00  0.00     0.132 A 
ATOM      7  C   UNL A   1      30.693  26.747  24.248  1.00  0.00     0.047 A 
ATOM      8  C   UNL A   1      30.083  26.300  25.449  1.00  0.00     0.004 A 
ATOM      9  C   UNL A   1      31.959  27.031  26.717  1.00  0.00     0.018 A 
ATOM     10  C   UNL A   1      30.767  26.343  26.667  1.00  0.00     0.001 A 
BRANCH   6  11
ATOM     11  O   UNL A   1      32.631  27.752  23.163  1.00  0.00    -0.483 OA
BRANCH  11  12
ATOM     12  C   UNL A   1      32.798  26.926  21.987  1.00  0.00     0.329 C 
BRANCH  12  13
ATOM     13  C   UNL A   1      32.882  25.402  21.159  1.00  0.00     0.262 C 
ATOM     14  N   UNL A   1      33.097  24.063  21.429  1.00  0.00    -0.320 N 
ATOM     15  H   UNL A   1      33.385  23.703  20.561  1.00  0.00     0.170 HD
ATOM     16  O   UNL A   1      32.968  25.579  19.914  1.00  0.00    -0.271 OA
BRANCH  14  17
ATOM     17  C   UNL A   1      33.132  22.892  22.302  1.00  0.00     0.084 A 
ATOM     18  C   UNL A   1      34.266  22.757  23.117  1.00  0.00     0.143 A 
ATOM     19  C   UNL A   1      34.316  21.908  24.243  1.00  0.00     0.069 A 
ATOM     20  C   UNL A   1      33.263  21.047  24.500  1.00  0.00     0.044 A 
ATOM     21  C   UNL A   1      32.243  21.819  22.470  1.00  0.00     0.031 A 
ATOM     22  Cl  UNL A   1      33.256  20.036  25.885  1.00  0.00    -0.084 Cl
ATOM     23  C   UNL A   1      32.252  20.951  23.573  1.00  0.00     0.023 A 
BRANCH  18  24
ATOM     24  O   UNL A   1      35.426  23.395  22.739  1.00  0.00    -0.495 OA
ATOM     25  C   UNL A   1      36.440  22.993  23.682  1.00  0.00     0.278 C 
ENDBRANCH  18  24
ENDBRANCH  14  17
ENDBRANCH  12  13
ENDBRANCH  11  12
ENDBRANCH   6  11
ENDBRANCH   1   5
BRANCH   3  26
ATOM     26  C   UNL A   1      31.316  30.726  25.417  1.00  0.00     0.118 C 
BRANCH  26  27
ATOM     27  C   UNL A   1      31.174  31.775  26.562  1.00  0.00     0.042 C 
BRANCH  27  28
ATOM     28  C   UNL A   1      32.454  32.538  26.984  1.00  0.00     0.118 C 
BRANCH  28  29
ATOM     29  N   UNL A   1      32.250  33.846  27.582  1.00  0.00    -0.352 N 
ATOM     30  C   UNL A   1      33.053  34.587  28.417  1.00  0.00     0.251 C 
ATOM     31  H   UNL A   1      31.393  34.274  27.351  1.00  0.00     0.163 HD
ATOM     32  O   UNL A   1      32.712  35.730  28.726  1.00  0.00    -0.269 OA
BRANCH  30  33
ATOM     33  C   UNL A   1      34.285  34.030  29.022  1.00  0.00     0.039 A 
ATOM     34  C   UNL A   1      34.132  33.184  30.127  1.00  0.00     0.014 A 
ATOM     35  C   UNL A   1      35.570  34.363  28.585  1.00  0.00     0.014 A 
ATOM     36  C   UNL A   1      35.250  32.608  30.737  1.00  0.00     0.010 A 
ATOM     37  C   UNL A   1      36.690  33.754  29.174  1.00  0.00     0.010 A 
ATOM     38  C   UNL A   1      36.542  32.853  30.244  1.00  0.00    -0.014 A 
BRANCH  38  39
ATOM     39  C   UNL A   1      37.711  32.128  30.819  1.00  0.00     0.031 A 
ATOM     40  C   UNL A   1      38.228  32.432  32.199  1.00  0.00     0.074 A 
ATOM     41  C   UNL A   1      38.331  31.184  30.082  1.00  0.00     0.049 A 
ATOM     42  N   UNL A   1      39.216  31.875  32.856  1.00  0.00    -0.248 NA
ATOM     43  C   UNL A   1      37.560  33.519  32.929  1.00  0.00     0.031 C 
ATOM     44  C   UNL A   1      37.967  30.808  28.716  1.00  0.00     0.029 A 
ATOM     45  N   UNL A   1      39.392  30.362  30.381  1.00  0.00    -0.354 N 
ATOM     46  C   UNL A   1      39.297  32.546  34.069  1.00  0.00     0.074 A 
ATOM     47  C   UNL A   1      38.286  33.583  34.037  1.00  0.00     0.031 C 
ATOM     48  C   UNL A   1      38.762  29.806  28.308  1.00  0.00     0.029 A 
ATOM     49  C   UNL A   1      39.713  29.487  29.370  1.00  0.00     0.049 A 
ATOM     50  H   UNL A   1      39.876  30.396  31.238  1.00  0.00     0.167 HD
ATOM     51  C   UNL A   1      40.123  32.313  35.119  1.00  0.00     0.037 A 
ATOM     52  C   UNL A   1      40.659  28.532  29.301  1.00  0.00     0.037 A 
ATOM     53  C   UNL A   1      41.120  31.272  35.166  1.00  0.00     0.049 A 
ATOM     54  C   UNL A   1      41.567  28.295  30.475  1.00  0.00     0.074 A 
ATOM     55  C   UNL A   1      41.956  30.923  36.213  1.00  0.00     0.029 A 
ATOM     56  N   UNL A   1      41.422  30.417  34.117  1.00  0.00    -0.354 N 
ATOM     57  N   UNL A   1      41.583  28.892  31.641  1.00  0.00    -0.248 NA
ATOM     58  C   UNL A   1      42.589  27.248  30.322  1.00  0.00     0.031 C 
ATOM     59  C   UNL A   1      42.792  29.887  35.784  1.00  0.00     0.029 A 
ATOM     60  C   UNL A   1      42.448  29.559  34.483  1.00  0.00     0.049 A 
ATOM     61  H   UNL A   1      40.973  30.419  33.240  1.00  0.00     0.167 HD
ATOM     62  C   UNL A   1      42.596  28.278  32.369  1.00  0.00     0.074 A 
ATOM     63  C   UNL A   1      43.164  27.255  31.517  1.00  0.00     0.031 C 
ATOM     64  C   UNL A   1      43.011  28.542  33.632  1.00  0.00     0.037 A 
BRANCH  51  65
ATOM     65  C   UNL A   1      39.985  33.217  36.313  1.00  0.00     0.057 A 
ATOM     66  C   UNL A   1      39.089  32.936  37.354  1.00  0.00     0.134 A 
ATOM     67  C   UNL A   1      40.763  34.376  36.428  1.00  0.00     0.134 A 
ATOM     68  F   UNL A   1      38.311  31.844  37.305  1.00  0.00    -0.206 F 
ATOM     69  C   UNL A   1      38.942  33.796  38.444  1.00  0.00     0.040 A 
ATOM     70  C   UNL A   1      40.645  35.229  37.527  1.00  0.00     0.040 A 
ATOM     71  F   UNL A   1      41.651  34.699  35.475  1.00  0.00    -0.206 F 
ATOM     72  C   UNL A   1      39.724  34.946  38.533  1.00  0.00     0.006 A 
ENDBRANCH  51  65
BRANCH  52  73
ATOM     73  C   UNL A   1      40.768  27.688  28.084  1.00  0.00     0.057 A 
ATOM     74  C   UNL A   1      41.547  28.096  26.996  1.00  0.00     0.134 A 
ATOM     75  C   UNL A   1      40.108  26.458  27.983  1.00  0.00     0.134 A 
ATOM     76  F   UNL A   1      42.184  29.276  27.026  1.00  0.00    -0.206 F 
ATOM     77  C   UNL A   1      41.662  27.315  25.846  1.00  0.00     0.040 A 
ATOM     78  C   UNL A   1      40.232  25.655  26.847  1.00  0.00     0.040 A 
ATOM     79  F   UNL A   1      39.348  26.011  28.993  1.00  0.00    -0.206 F 
ATOM     80  C   UNL A   1      41.008  26.086  25.772  1.00  0.00     0.006 A 
ENDBRANCH  52  73
BRANCH  64  81
ATOM     81  C   UNL A   1      44.122  27.692  34.182  1.00  0.00     0.057 A 
ATOM     82  C   UNL A   1      45.461  28.097  34.125  1.00  0.00     0.134 A 
ATOM     83  C   UNL A   1      43.842  26.472  34.810  1.00  0.00     0.134 A 
ATOM     84  F   UNL A   1      45.798  29.248  33.524  1.00  0.00    -0.206 F 
ATOM     85  C   UNL A   1      46.485  27.309  34.654  1.00  0.00     0.040 A 
ATOM     86  C   UNL A   1      44.855  25.687  35.364  1.00  0.00     0.040 A 
ATOM     87  F   UNL A   1      42.580  26.027  34.905  1.00  0.00    -0.206 F 
ATOM     88  C   UNL A   1      46.181  26.102  35.282  1.00  0.00     0.006 A 
ENDBRANCH  64  81
ENDBRANCH  38  39
ENDBRANCH  30  33
ENDBRANCH  28  29
ENDBRANCH  27  28
ENDBRANCH  26  27
ENDBRANCH   3  26
TORSDOF 15
ENDMDL
