MODEL 1
REMARK VINA RESULT:     -12.2      0.000      0.000
REMARK SMILES Cn1c(C[NH+](C)C)nnc1[C@@H]1CCC[N@@H+](Cc2ccccc2C(=O)NCCCNC(=O)c2ccc(-c3c4nc(c(-c5c(F)cccc5F)c5ccc([nH]5)c(-c5c(F)cccc5F)c5nc(c(-c6c(F)cccc6F)c6ccc3[nH]6)C=C5)C=C4)cc2)C1
REMARK SMILES IDX 23 1 24 2 25 3 22 5 17 6 18 7 19 8 21 9 20 10 16 11 15 12
REMARK SMILES IDX 11 13 12 14 86 15 13 16 14 17 10 19 3 20 8 21 2 22 9 23 1 24
REMARK SMILES IDX 4 25 5 26 6 27 7 28 26 30 27 31 28 32 29 33 30 34 31 36
REMARK SMILES IDX 32 37 33 38 85 39 34 40 84 41 35 42 36 43 37 44 78 45 38 46
REMARK SMILES IDX 83 47 77 48 79 49 39 50 82 51 76 52 75 53 40 55 66 56 49 57
REMARK SMILES IDX 65 58 50 59 53 60 64 61 80 62 51 63 52 64 63 66 81 67 54 68
REMARK SMILES IDX 41 69 42 70 47 71 43 72 44 73 46 74 48 75 45 76 67 77 68 78
REMARK SMILES IDX 73 79 69 80 70 81 72 82 74 83 71 84 55 85 56 86 61 87 57 88
REMARK SMILES IDX 58 89 60 90 62 91 59 92
REMARK H PARENT 25 4 15 18 5 29 29 35 79 54 53 65
REMARK Flexibility Score: inf
ROOT
ATOM      1  C   UNL A   1      34.773  22.217  26.002  1.00  0.00     0.251 C 
ATOM      2  O   UNL A   1      34.275  22.302  27.129  1.00  0.00    -0.269 OA
ATOM      3  N   UNL A   1      36.107  22.528  25.914  1.00  0.00    -0.352 N 
ATOM      4  H   UNL A   1      36.457  22.967  26.722  1.00  0.00     0.163 HD
ENDROOT
BRANCH   1   5
ATOM      5  C   UNL A   1      33.858  21.915  24.864  1.00  0.00     0.048 A 
ATOM      6  C   UNL A   1      33.406  22.757  23.831  1.00  0.00     0.019 A 
ATOM      7  C   UNL A   1      32.525  22.214  22.859  1.00  0.00     0.010 A 
ATOM      8  C   UNL A   1      32.153  20.873  22.860  1.00  0.00     0.001 A 
ATOM      9  C   UNL A   1      33.508  20.544  24.811  1.00  0.00     0.014 A 
ATOM     10  C   UNL A   1      32.669  20.027  23.824  1.00  0.00     0.001 A 
BRANCH   6  11
ATOM     11  C   UNL A   1      33.691  24.220  23.675  1.00  0.00     0.299 C 
BRANCH  11  12
ATOM     12  N   UNL A   1      33.043  25.210  24.522  1.00  0.00    -0.331 N 
ATOM     13  C   UNL A   1      31.034  26.550  25.097  1.00  0.00     0.113 C 
ATOM     14  C   UNL A   1      31.761  27.069  26.343  1.00  0.00     0.023 C 
ATOM     15  C   UNL A   1      31.597  25.180  24.686  1.00  0.00     0.274 C 
ATOM     16  C   UNL A   1      33.278  27.001  26.179  1.00  0.00     0.062 C 
ATOM     17  C   UNL A   1      33.755  25.611  25.728  1.00  0.00     0.262 C 
ATOM     18  H   UNL A   1      33.151  25.984  23.867  1.00  0.00     0.348 HD
BRANCH  13  19
ATOM     19  C   UNL A   1      30.930  27.619  24.025  1.00  0.00     0.141 A 
ATOM     20  C   UNL A   1      30.314  29.088  22.488  1.00  0.00     0.187 A 
ATOM     21  N   UNL A   1      31.626  29.111  22.578  1.00  0.00    -0.129 NA
ATOM     22  N   UNL A   1      29.837  28.129  23.352  1.00  0.00    -0.313 N 
ATOM     23  N   UNL A   1      32.005  28.221  23.546  1.00  0.00    -0.135 NA
ATOM     24  C   UNL A   1      28.453  27.786  23.474  1.00  0.00     0.153 C 
BRANCH  20  25
ATOM     25  C   UNL A   1      29.459  30.002  21.657  1.00  0.00     0.340 C 
BRANCH  25  26
ATOM     26  N   UNL A   1      29.335  31.397  22.125  1.00  0.00    -0.333 N 
ATOM     27  C   UNL A   1      28.406  32.141  21.278  1.00  0.00     0.332 C 
ATOM     28  C   UNL A   1      28.984  31.544  23.532  1.00  0.00     0.332 C 
ATOM     29  H   UNL A   1      30.273  31.793  22.045  1.00  0.00     0.348 HD
ENDBRANCH  25  26
ENDBRANCH  20  25
ENDBRANCH  13  19
ENDBRANCH  11  12
ENDBRANCH   6  11
ENDBRANCH   1   5
BRANCH   3  30
ATOM     30  C   UNL A   1      37.108  22.350  24.883  1.00  0.00     0.118 C 
BRANCH  30  31
ATOM     31  C   UNL A   1      37.661  20.932  24.743  1.00  0.00     0.042 C 
BRANCH  31  32
ATOM     32  C   UNL A   1      38.459  20.419  25.948  1.00  0.00     0.118 C 
BRANCH  32  33
ATOM     33  N   UNL A   1      39.556  19.498  25.665  1.00  0.00    -0.352 N 
ATOM     34  C   UNL A   1      40.899  19.578  25.938  1.00  0.00     0.251 C 
ATOM     35  H   UNL A   1      39.285  18.675  25.198  1.00  0.00     0.163 HD
ATOM     36  O   UNL A   1      41.632  18.603  25.751  1.00  0.00    -0.269 OA
BRANCH  34  37
ATOM     37  C   UNL A   1      41.545  20.815  26.388  1.00  0.00     0.039 A 
ATOM     38  C   UNL A   1      41.792  21.817  25.439  1.00  0.00     0.014 A 
ATOM     39  C   UNL A   1      41.977  20.973  27.700  1.00  0.00     0.014 A 
ATOM     40  C   UNL A   1      42.382  23.017  25.829  1.00  0.00     0.010 A 
ATOM     41  C   UNL A   1      42.467  22.202  28.110  1.00  0.00     0.010 A 
ATOM     42  C   UNL A   1      42.675  23.232  27.180  1.00  0.00    -0.014 A 
BRANCH  42  43
ATOM     43  C   UNL A   1      43.235  24.506  27.676  1.00  0.00     0.031 A 
ATOM     44  C   UNL A   1      42.290  25.574  28.140  1.00  0.00     0.074 A 
ATOM     45  C   UNL A   1      44.554  24.740  27.552  1.00  0.00     0.049 A 
ATOM     46  N   UNL A   1      42.503  26.850  28.314  1.00  0.00    -0.248 NA
ATOM     47  C   UNL A   1      40.898  25.154  28.377  1.00  0.00     0.031 C 
ATOM     48  C   UNL A   1      45.548  23.773  27.082  1.00  0.00     0.029 A 
ATOM     49  N   UNL A   1      45.278  25.881  27.776  1.00  0.00    -0.354 N 
ATOM     50  C   UNL A   1      41.261  27.396  28.619  1.00  0.00     0.074 A 
ATOM     51  C   UNL A   1      40.298  26.317  28.573  1.00  0.00     0.031 C 
ATOM     52  C   UNL A   1      46.754  24.363  27.051  1.00  0.00     0.029 A 
ATOM     53  C   UNL A   1      46.606  25.758  27.446  1.00  0.00     0.049 A 
ATOM     54  H   UNL A   1      44.884  26.709  28.136  1.00  0.00     0.167 HD
ATOM     55  C   UNL A   1      40.963  28.683  28.915  1.00  0.00     0.037 A 
ATOM     56  C   UNL A   1      47.584  26.682  27.439  1.00  0.00     0.037 A 
ATOM     57  C   UNL A   1      41.955  29.720  29.012  1.00  0.00     0.049 A 
ATOM     58  C   UNL A   1      47.240  28.089  27.834  1.00  0.00     0.074 A 
ATOM     59  C   UNL A   1      41.792  31.043  29.376  1.00  0.00     0.029 A 
ATOM     60  N   UNL A   1      43.308  29.535  28.757  1.00  0.00    -0.354 N 
ATOM     61  N   UNL A   1      46.069  28.596  28.142  1.00  0.00    -0.248 NA
ATOM     62  C   UNL A   1      48.347  29.052  27.884  1.00  0.00     0.031 C 
ATOM     63  C   UNL A   1      43.045  31.665  29.321  1.00  0.00     0.029 A 
ATOM     64  C   UNL A   1      43.993  30.720  28.956  1.00  0.00     0.049 A 
ATOM     65  H   UNL A   1      43.719  28.685  28.478  1.00  0.00     0.167 HD
ATOM     66  C   UNL A   1      46.299  29.931  28.442  1.00  0.00     0.074 A 
ATOM     67  C   UNL A   1      47.725  30.150  28.293  1.00  0.00     0.031 C 
ATOM     68  C   UNL A   1      45.415  30.892  28.806  1.00  0.00     0.037 A 
BRANCH  55  69
ATOM     69  C   UNL A   1      39.520  29.024  29.147  1.00  0.00     0.057 A 
ATOM     70  C   UNL A   1      38.940  28.982  30.422  1.00  0.00     0.134 A 
ATOM     71  C   UNL A   1      38.694  29.396  28.078  1.00  0.00     0.134 A 
ATOM     72  F   UNL A   1      39.669  28.620  31.488  1.00  0.00    -0.206 F 
ATOM     73  C   UNL A   1      37.586  29.261  30.621  1.00  0.00     0.040 A 
ATOM     74  C   UNL A   1      37.345  29.706  28.269  1.00  0.00     0.040 A 
ATOM     75  F   UNL A   1      39.180  29.460  26.829  1.00  0.00    -0.206 F 
ATOM     76  C   UNL A   1      36.785  29.629  29.542  1.00  0.00     0.006 A 
ENDBRANCH  55  69
BRANCH  56  77
ATOM     77  C   UNL A   1      48.967  26.294  27.069  1.00  0.00     0.057 A 
ATOM     78  C   UNL A   1      49.396  26.358  25.739  1.00  0.00     0.134 A 
ATOM     79  C   UNL A   1      49.901  25.884  28.028  1.00  0.00     0.134 A 
ATOM     80  F   UNL A   1      48.544  26.732  24.774  1.00  0.00    -0.206 F 
ATOM     81  C   UNL A   1      50.700  26.018  25.372  1.00  0.00     0.040 A 
ATOM     82  C   UNL A   1      51.214  25.562  27.679  1.00  0.00     0.040 A 
ATOM     83  F   UNL A   1      49.559  25.816  29.323  1.00  0.00    -0.206 F 
ATOM     84  C   UNL A   1      51.615  25.624  26.346  1.00  0.00     0.006 A 
ENDBRANCH  56  77
BRANCH  68  85
ATOM     85  C   UNL A   1      45.977  32.250  29.097  1.00  0.00     0.057 A 
ATOM     86  C   UNL A   1      46.438  32.597  30.371  1.00  0.00     0.134 A 
ATOM     87  C   UNL A   1      46.098  33.201  28.077  1.00  0.00     0.134 A 
ATOM     88  F   UNL A   1      46.334  31.731  31.391  1.00  0.00    -0.206 F 
ATOM     89  C   UNL A   1      46.987  33.853  30.627  1.00  0.00     0.040 A 
ATOM     90  C   UNL A   1      46.666  34.452  28.314  1.00  0.00     0.040 A 
ATOM     91  F   UNL A   1      45.680  32.923  26.833  1.00  0.00    -0.206 F 
ATOM     92  C   UNL A   1      47.108  34.781  29.594  1.00  0.00     0.006 A 
ENDBRANCH  68  85
ENDBRANCH  42  43
ENDBRANCH  34  37
ENDBRANCH  32  33
ENDBRANCH  31  32
ENDBRANCH  30  31
ENDBRANCH   3  30
TORSDOF 15
ENDMDL
MODEL 2
REMARK VINA RESULT:     -12.0      4.893     10.289
REMARK SMILES Cn1c(C[NH+](C)C)nnc1[C@@H]1CCC[N@@H+](Cc2ccccc2C(=O)NCCCNC(=O)c2ccc(-c3c4nc(c(-c5c(F)cccc5F)c5ccc([nH]5)c(-c5c(F)cccc5F)c5nc(c(-c6c(F)cccc6F)c6ccc3[nH]6)C=C5)C=C4)cc2)C1
REMARK SMILES IDX 23 1 24 2 25 3 22 5 17 6 18 7 19 8 21 9 20 10 16 11 15 12
REMARK SMILES IDX 11 13 12 14 86 15 13 16 14 17 10 19 3 20 8 21 2 22 9 23 1 24
REMARK SMILES IDX 4 25 5 26 6 27 7 28 26 30 27 31 28 32 29 33 30 34 31 36
REMARK SMILES IDX 32 37 33 38 85 39 34 40 84 41 35 42 36 43 37 44 78 45 38 46
REMARK SMILES IDX 83 47 77 48 79 49 39 50 82 51 76 52 75 53 40 55 66 56 49 57
REMARK SMILES IDX 65 58 50 59 53 60 64 61 80 62 51 63 52 64 63 66 81 67 54 68
REMARK SMILES IDX 41 69 42 70 47 71 43 72 44 73 46 74 48 75 45 76 67 77 68 78
REMARK SMILES IDX 73 79 69 80 70 81 72 82 74 83 71 84 55 85 56 86 61 87 57 88
REMARK SMILES IDX 58 89 60 90 62 91 59 92
REMARK H PARENT 25 4 15 18 5 29 29 35 79 54 53 65
REMARK Flexibility Score: inf
ROOT
ATOM      1  C   UNL A   1      32.328  28.934  24.410  1.00  0.00     0.251 C 
ATOM      2  O   UNL A   1      33.195  28.902  23.532  1.00  0.00    -0.269 OA
ATOM      3  N   UNL A   1      32.671  29.592  25.565  1.00  0.00    -0.352 N 
ATOM      4  H   UNL A   1      33.633  29.791  25.627  1.00  0.00     0.163 HD
ENDROOT
BRANCH   1   5
ATOM      5  C   UNL A   1      31.075  28.161  24.172  1.00  0.00     0.048 A 
ATOM      6  C   UNL A   1      30.744  26.850  24.564  1.00  0.00     0.019 A 
ATOM      7  C   UNL A   1      29.468  26.343  24.203  1.00  0.00     0.010 A 
ATOM      8  C   UNL A   1      28.522  27.117  23.539  1.00  0.00     0.001 A 
ATOM      9  C   UNL A   1      30.076  28.944  23.545  1.00  0.00     0.014 A 
ATOM     10  C   UNL A   1      28.816  28.433  23.232  1.00  0.00     0.001 A 
BRANCH   6  11
ATOM     11  C   UNL A   1      31.634  25.873  25.271  1.00  0.00     0.299 C 
BRANCH  11  12
ATOM     12  N   UNL A   1      32.591  25.058  24.539  1.00  0.00    -0.331 N 
ATOM     13  C   UNL A   1      33.066  23.123  23.059  1.00  0.00     0.113 C 
ATOM     14  C   UNL A   1      34.530  23.571  22.976  1.00  0.00     0.023 C 
ATOM     15  C   UNL A   1      32.159  24.326  23.357  1.00  0.00     0.274 C 
ATOM     16  C   UNL A   1      34.930  24.415  24.185  1.00  0.00     0.062 C 
ATOM     17  C   UNL A   1      33.950  25.572  24.438  1.00  0.00     0.262 C 
ATOM     18  H   UNL A   1      32.631  24.309  25.231  1.00  0.00     0.348 HD
BRANCH  13  19
ATOM     19  C   UNL A   1      32.909  21.889  23.929  1.00  0.00     0.141 A 
ATOM     20  C   UNL A   1      32.557  19.880  24.789  1.00  0.00     0.187 A 
ATOM     21  N   UNL A   1      32.876  20.698  25.768  1.00  0.00    -0.129 NA
ATOM     22  N   UNL A   1      32.522  20.600  23.616  1.00  0.00    -0.313 N 
ATOM     23  N   UNL A   1      33.118  21.934  25.232  1.00  0.00    -0.135 NA
ATOM     24  C   UNL A   1      32.150  20.043  22.351  1.00  0.00     0.153 C 
BRANCH  20  25
ATOM     25  C   UNL A   1      32.348  18.396  24.895  1.00  0.00     0.340 C 
BRANCH  25  26
ATOM     26  N   UNL A   1      33.553  17.549  24.768  1.00  0.00    -0.333 N 
ATOM     27  C   UNL A   1      33.458  16.389  25.652  1.00  0.00     0.332 C 
ATOM     28  C   UNL A   1      33.874  17.139  23.408  1.00  0.00     0.332 C 
ATOM     29  H   UNL A   1      34.331  18.143  25.055  1.00  0.00     0.348 HD
ENDBRANCH  25  26
ENDBRANCH  20  25
ENDBRANCH  13  19
ENDBRANCH  11  12
ENDBRANCH   6  11
ENDBRANCH   1   5
BRANCH   3  30
ATOM     30  C   UNL A   1      31.918  30.055  26.712  1.00  0.00     0.118 C 
BRANCH  30  31
ATOM     31  C   UNL A   1      31.428  31.501  26.637  1.00  0.00     0.042 C 
BRANCH  31  32
ATOM     32  C   UNL A   1      32.524  32.570  26.741  1.00  0.00     0.118 C 
BRANCH  32  33
ATOM     33  N   UNL A   1      32.221  33.743  27.556  1.00  0.00    -0.352 N 
ATOM     34  C   UNL A   1      32.977  34.425  28.476  1.00  0.00     0.251 C 
ATOM     35  H   UNL A   1      31.317  34.108  27.422  1.00  0.00     0.163 HD
ATOM     36  O   UNL A   1      32.579  35.499  28.937  1.00  0.00    -0.269 OA
BRANCH  34  37
ATOM     37  C   UNL A   1      34.240  33.905  29.009  1.00  0.00     0.039 A 
ATOM     38  C   UNL A   1      35.438  34.422  28.498  1.00  0.00     0.014 A 
ATOM     39  C   UNL A   1      34.265  32.873  29.940  1.00  0.00     0.014 A 
ATOM     40  C   UNL A   1      36.660  33.973  28.994  1.00  0.00     0.010 A 
ATOM     41  C   UNL A   1      35.471  32.500  30.508  1.00  0.00     0.010 A 
ATOM     42  C   UNL A   1      36.677  33.044  30.040  1.00  0.00    -0.014 A 
BRANCH  42  43
ATOM     43  C   UNL A   1      37.933  32.576  30.664  1.00  0.00     0.031 A 
ATOM     44  C   UNL A   1      38.626  31.384  30.076  1.00  0.00     0.074 A 
ATOM     45  C   UNL A   1      38.335  33.121  31.826  1.00  0.00     0.049 A 
ATOM     46  N   UNL A   1      39.534  30.608  30.605  1.00  0.00    -0.248 NA
ATOM     47  C   UNL A   1      38.188  30.973  28.731  1.00  0.00     0.031 C 
ATOM     48  C   UNL A   1      37.707  34.264  32.492  1.00  0.00     0.029 A 
ATOM     49  N   UNL A   1      39.349  32.758  32.673  1.00  0.00    -0.354 N 
ATOM     50  C   UNL A   1      39.728  29.584  29.686  1.00  0.00     0.074 A 
ATOM     51  C   UNL A   1      38.821  29.820  28.584  1.00  0.00     0.031 C 
ATOM     52  C   UNL A   1      38.349  34.508  33.645  1.00  0.00     0.029 A 
ATOM     53  C   UNL A   1      39.395  33.508  33.823  1.00  0.00     0.049 A 
ATOM     54  H   UNL A   1      39.982  32.030  32.476  1.00  0.00     0.167 HD
ATOM     55  C   UNL A   1      40.594  28.546  29.762  1.00  0.00     0.037 A 
ATOM     56  C   UNL A   1      40.178  33.379  34.909  1.00  0.00     0.037 A 
ATOM     57  C   UNL A   1      41.526  28.374  30.844  1.00  0.00     0.049 A 
ATOM     58  C   UNL A   1      41.176  32.256  34.940  1.00  0.00     0.074 A 
ATOM     59  C   UNL A   1      42.503  27.409  31.000  1.00  0.00     0.029 A 
ATOM     60  N   UNL A   1      41.603  29.209  31.951  1.00  0.00    -0.354 N 
ATOM     61  N   UNL A   1      41.371  31.303  34.060  1.00  0.00    -0.248 NA
ATOM     62  C   UNL A   1      42.062  32.191  36.108  1.00  0.00     0.031 C 
ATOM     63  C   UNL A   1      43.157  27.648  32.214  1.00  0.00     0.029 A 
ATOM     64  C   UNL A   1      42.611  28.783  32.796  1.00  0.00     0.049 A 
ATOM     65  H   UNL A   1      41.025  29.991  32.110  1.00  0.00     0.167 HD
ATOM     66  C   UNL A   1      42.415  30.535  34.556  1.00  0.00     0.074 A 
ATOM     67  C   UNL A   1      42.819  31.145  35.808  1.00  0.00     0.031 C 
ATOM     68  C   UNL A   1      42.988  29.424  34.029  1.00  0.00     0.037 A 
BRANCH  55  69
ATOM     69  C   UNL A   1      40.561  27.534  28.654  1.00  0.00     0.057 A 
ATOM     70  C   UNL A   1      41.321  27.684  27.486  1.00  0.00     0.134 A 
ATOM     71  C   UNL A   1      39.754  26.393  28.753  1.00  0.00     0.134 A 
ATOM     72  F   UNL A   1      42.104  28.760  27.318  1.00  0.00    -0.206 F 
ATOM     73  C   UNL A   1      41.252  26.757  26.442  1.00  0.00     0.040 A 
ATOM     74  C   UNL A   1      39.699  25.444  27.728  1.00  0.00     0.040 A 
ATOM     75  F   UNL A   1      39.002  26.182  29.843  1.00  0.00    -0.206 F 
ATOM     76  C   UNL A   1      40.442  25.631  26.565  1.00  0.00     0.006 A 
ENDBRANCH  55  69
BRANCH  56  77
ATOM     77  C   UNL A   1      40.060  34.346  36.027  1.00  0.00     0.057 A 
ATOM     78  C   UNL A   1      39.270  34.053  37.145  1.00  0.00     0.134 A 
ATOM     79  C   UNL A   1      40.751  35.563  36.028  1.00  0.00     0.134 A 
ATOM     80  F   UNL A   1      38.575  32.908  37.197  1.00  0.00    -0.206 F 
ATOM     81  C   UNL A   1      39.162  34.940  38.218  1.00  0.00     0.040 A 
ATOM     82  C   UNL A   1      40.670  36.450  37.104  1.00  0.00     0.040 A 
ATOM     83  F   UNL A   1      41.538  35.897  34.994  1.00  0.00    -0.206 F 
ATOM     84  C   UNL A   1      39.869  36.140  38.202  1.00  0.00     0.006 A 
ENDBRANCH  56  77
BRANCH  68  85
ATOM     85  C   UNL A   1      44.129  28.828  34.794  1.00  0.00     0.057 A 
ATOM     86  C   UNL A   1      43.926  27.858  35.782  1.00  0.00     0.134 A 
ATOM     87  C   UNL A   1      45.448  29.198  34.503  1.00  0.00     0.134 A 
ATOM     88  F   UNL A   1      42.683  27.475  36.113  1.00  0.00    -0.206 F 
ATOM     89  C   UNL A   1      44.996  27.287  36.469  1.00  0.00     0.040 A 
ATOM     90  C   UNL A   1      46.528  28.618  35.167  1.00  0.00     0.040 A 
ATOM     91  F   UNL A   1      45.705  30.117  33.561  1.00  0.00    -0.206 F 
ATOM     92  C   UNL A   1      46.302  27.662  36.156  1.00  0.00     0.006 A 
ENDBRANCH  68  85
ENDBRANCH  42  43
ENDBRANCH  34  37
ENDBRANCH  32  33
ENDBRANCH  31  32
ENDBRANCH  30  31
ENDBRANCH   3  30
TORSDOF 15
ENDMDL
MODEL 3
REMARK VINA RESULT:     -11.5      2.540      8.056
REMARK SMILES Cn1c(C[NH+](C)C)nnc1[C@@H]1CCC[N@@H+](Cc2ccccc2C(=O)NCCCNC(=O)c2ccc(-c3c4nc(c(-c5c(F)cccc5F)c5ccc([nH]5)c(-c5c(F)cccc5F)c5nc(c(-c6c(F)cccc6F)c6ccc3[nH]6)C=C5)C=C4)cc2)C1
REMARK SMILES IDX 23 1 24 2 25 3 22 5 17 6 18 7 19 8 21 9 20 10 16 11 15 12
REMARK SMILES IDX 11 13 12 14 86 15 13 16 14 17 10 19 3 20 8 21 2 22 9 23 1 24
REMARK SMILES IDX 4 25 5 26 6 27 7 28 26 30 27 31 28 32 29 33 30 34 31 36
REMARK SMILES IDX 32 37 33 38 85 39 34 40 84 41 35 42 36 43 37 44 78 45 38 46
REMARK SMILES IDX 83 47 77 48 79 49 39 50 82 51 76 52 75 53 40 55 66 56 49 57
REMARK SMILES IDX 65 58 50 59 53 60 64 61 80 62 51 63 52 64 63 66 81 67 54 68
REMARK SMILES IDX 41 69 42 70 47 71 43 72 44 73 46 74 48 75 45 76 67 77 68 78
REMARK SMILES IDX 73 79 69 80 70 81 72 82 74 83 71 84 55 85 56 86 61 87 57 88
REMARK SMILES IDX 58 89 60 90 62 91 59 92
REMARK H PARENT 25 4 15 18 5 29 29 35 79 54 53 65
REMARK Flexibility Score: inf
ROOT
ATOM      1  C   UNL A   1      33.235  28.721  24.321  1.00  0.00     0.251 C 
ATOM      2  O   UNL A   1      34.056  28.550  23.414  1.00  0.00    -0.269 OA
ATOM      3  N   UNL A   1      33.717  29.324  25.456  1.00  0.00    -0.352 N 
ATOM      4  H   UNL A   1      34.699  29.370  25.483  1.00  0.00     0.163 HD
ENDROOT
BRANCH   1   5
ATOM      5  C   UNL A   1      31.870  28.151  24.133  1.00  0.00     0.048 A 
ATOM      6  C   UNL A   1      31.275  27.032  24.745  1.00  0.00     0.019 A 
ATOM      7  C   UNL A   1      29.944  26.697  24.383  1.00  0.00     0.010 A 
ATOM      8  C   UNL A   1      29.196  27.472  23.501  1.00  0.00     0.001 A 
ATOM      9  C   UNL A   1      31.071  28.952  23.281  1.00  0.00     0.014 A 
ATOM     10  C   UNL A   1      29.752  28.620  22.969  1.00  0.00     0.001 A 
BRANCH   6  11
ATOM     11  C   UNL A   1      31.926  26.082  25.704  1.00  0.00     0.299 C 
BRANCH  11  12
ATOM     12  N   UNL A   1      33.025  25.223  25.286  1.00  0.00    -0.331 N 
ATOM     13  C   UNL A   1      33.883  23.390  23.850  1.00  0.00     0.113 C 
ATOM     14  C   UNL A   1      35.294  23.655  24.389  1.00  0.00     0.023 C 
ATOM     15  C   UNL A   1      33.032  24.666  23.942  1.00  0.00     0.274 C 
ATOM     16  C   UNL A   1      35.256  24.325  25.761  1.00  0.00     0.062 C 
ATOM     17  C   UNL A   1      34.352  25.568  25.778  1.00  0.00     0.262 C 
ATOM     18  H   UNL A   1      32.730  24.415  25.833  1.00  0.00     0.348 HD
BRANCH  13  19
ATOM     19  C   UNL A   1      33.298  22.111  24.420  1.00  0.00     0.141 A 
ATOM     20  C   UNL A   1      32.899  20.103  25.263  1.00  0.00     0.187 A 
ATOM     21  N   UNL A   1      31.747  20.711  25.080  1.00  0.00    -0.129 NA
ATOM     22  N   UNL A   1      33.902  20.934  24.818  1.00  0.00    -0.313 N 
ATOM     23  N   UNL A   1      31.996  21.961  24.582  1.00  0.00    -0.135 NA
ATOM     24  C   UNL A   1      35.287  20.573  24.807  1.00  0.00     0.153 C 
BRANCH  20  25
ATOM     25  C   UNL A   1      33.112  18.770  25.922  1.00  0.00     0.340 C 
BRANCH  25  26
ATOM     26  N   UNL A   1      33.480  17.647  25.036  1.00  0.00    -0.333 N 
ATOM     27  C   UNL A   1      33.210  16.369  25.691  1.00  0.00     0.332 C 
ATOM     28  C   UNL A   1      32.877  17.687  23.710  1.00  0.00     0.332 C 
ATOM     29  H   UNL A   1      34.483  17.750  24.872  1.00  0.00     0.348 HD
ENDBRANCH  25  26
ENDBRANCH  20  25
ENDBRANCH  13  19
ENDBRANCH  11  12
ENDBRANCH   6  11
ENDBRANCH   1   5
BRANCH   3  30
ATOM     30  C   UNL A   1      33.086  29.905  26.623  1.00  0.00     0.118 C 
BRANCH  30  31
ATOM     31  C   UNL A   1      33.873  31.021  27.308  1.00  0.00     0.042 C 
BRANCH  31  32
ATOM     32  C   UNL A   1      35.234  30.605  27.882  1.00  0.00     0.118 C 
BRANCH  32  33
ATOM     33  N   UNL A   1      35.270  30.257  29.299  1.00  0.00    -0.352 N 
ATOM     34  C   UNL A   1      36.307  29.862  30.108  1.00  0.00     0.251 C 
ATOM     35  H   UNL A   1      34.399  30.316  29.754  1.00  0.00     0.163 HD
ATOM     36  O   UNL A   1      36.145  29.771  31.328  1.00  0.00    -0.269 OA
BRANCH  34  37
ATOM     37  C   UNL A   1      37.616  29.464  29.583  1.00  0.00     0.039 A 
ATOM     38  C   UNL A   1      37.884  29.694  28.226  1.00  0.00     0.014 A 
ATOM     39  C   UNL A   1      38.549  28.807  30.377  1.00  0.00     0.014 A 
ATOM     40  C   UNL A   1      39.124  29.354  27.692  1.00  0.00     0.010 A 
ATOM     41  C   UNL A   1      39.817  28.563  29.876  1.00  0.00     0.010 A 
ATOM     42  C   UNL A   1      40.115  28.833  28.531  1.00  0.00    -0.014 A 
BRANCH  42  43
ATOM     43  C   UNL A   1      41.476  28.515  28.050  1.00  0.00     0.031 A 
ATOM     44  C   UNL A   1      41.790  27.100  27.667  1.00  0.00     0.074 A 
ATOM     45  C   UNL A   1      42.435  29.455  28.118  1.00  0.00     0.049 A 
ATOM     46  N   UNL A   1      42.951  26.518  27.524  1.00  0.00    -0.248 NA
ATOM     47  C   UNL A   1      40.637  26.202  27.484  1.00  0.00     0.031 C 
ATOM     48  C   UNL A   1      42.232  30.852  28.508  1.00  0.00     0.029 A 
ATOM     49  N   UNL A   1      43.784  29.364  27.896  1.00  0.00    -0.354 N 
ATOM     50  C   UNL A   1      42.668  25.177  27.298  1.00  0.00     0.074 A 
ATOM     51  C   UNL A   1      41.231  25.027  27.356  1.00  0.00     0.031 C 
ATOM     52  C   UNL A   1      43.414  31.488  28.499  1.00  0.00     0.029 A 
ATOM     53  C   UNL A   1      44.460  30.531  28.157  1.00  0.00     0.049 A 
ATOM     54  H   UNL A   1      44.226  28.542  27.582  1.00  0.00     0.167 HD
ATOM     55  C   UNL A   1      43.539  24.168  27.059  1.00  0.00     0.037 A 
ATOM     56  C   UNL A   1      45.780  30.787  28.147  1.00  0.00     0.037 A 
ATOM     57  C   UNL A   1      44.960  24.362  26.947  1.00  0.00     0.049 A 
ATOM     58  C   UNL A   1      46.722  29.664  27.814  1.00  0.00     0.074 A 
ATOM     59  C   UNL A   1      45.938  23.438  26.634  1.00  0.00     0.029 A 
ATOM     60  N   UNL A   1      45.599  25.581  27.130  1.00  0.00    -0.354 N 
ATOM     61  N   UNL A   1      46.450  28.402  27.580  1.00  0.00    -0.248 NA
ATOM     62  C   UNL A   1      48.149  29.998  27.742  1.00  0.00     0.031 C 
ATOM     63  C   UNL A   1      47.174  24.094  26.649  1.00  0.00     0.029 A 
ATOM     64  C   UNL A   1      46.961  25.434  26.936  1.00  0.00     0.049 A 
ATOM     65  H   UNL A   1      45.150  26.426  27.362  1.00  0.00     0.167 HD
ATOM     66  C   UNL A   1      47.668  27.793  27.312  1.00  0.00     0.074 A 
ATOM     67  C   UNL A   1      48.677  28.831  27.399  1.00  0.00     0.031 C 
ATOM     68  C   UNL A   1      47.931  26.495  27.023  1.00  0.00     0.037 A 
BRANCH  55  69
ATOM     69  C   UNL A   1      42.973  22.786  26.908  1.00  0.00     0.057 A 
ATOM     70  C   UNL A   1      42.833  22.170  25.657  1.00  0.00     0.134 A 
ATOM     71  C   UNL A   1      42.557  22.058  28.031  1.00  0.00     0.134 A 
ATOM     72  F   UNL A   1      43.197  22.815  24.538  1.00  0.00    -0.206 F 
ATOM     73  C   UNL A   1      42.267  20.900  25.524  1.00  0.00     0.040 A 
ATOM     74  C   UNL A   1      42.017  20.775  27.914  1.00  0.00     0.040 A 
ATOM     75  F   UNL A   1      42.664  22.583  29.261  1.00  0.00    -0.206 F 
ATOM     76  C   UNL A   1      41.861  20.198  26.656  1.00  0.00     0.006 A 
ENDBRANCH  55  69
BRANCH  56  77
ATOM     77  C   UNL A   1      46.273  32.155  28.436  1.00  0.00     0.057 A 
ATOM     78  C   UNL A   1      46.341  33.119  27.424  1.00  0.00     0.134 A 
ATOM     79  C   UNL A   1      46.656  32.546  29.725  1.00  0.00     0.134 A 
ATOM     80  F   UNL A   1      46.000  32.801  26.167  1.00  0.00    -0.206 F 
ATOM     81  C   UNL A   1      46.783  34.420  27.679  1.00  0.00     0.040 A 
ATOM     82  C   UNL A   1      47.078  33.849  29.999  1.00  0.00     0.040 A 
ATOM     83  F   UNL A   1      46.600  31.675  30.743  1.00  0.00    -0.206 F 
ATOM     84  C   UNL A   1      47.147  34.789  28.972  1.00  0.00     0.006 A 
ENDBRANCH  56  77
BRANCH  68  85
ATOM     85  C   UNL A   1      49.361  26.143  26.750  1.00  0.00     0.057 A 
ATOM     86  C   UNL A   1      49.908  26.235  25.465  1.00  0.00     0.134 A 
ATOM     87  C   UNL A   1      50.208  25.752  27.794  1.00  0.00     0.134 A 
ATOM     88  F   UNL A   1      49.141  26.592  24.423  1.00  0.00    -0.206 F 
ATOM     89  C   UNL A   1      51.248  25.934  25.224  1.00  0.00     0.040 A 
ATOM     90  C   UNL A   1      51.555  25.469  27.570  1.00  0.00     0.040 A 
ATOM     91  F   UNL A   1      49.742  25.652  29.047  1.00  0.00    -0.206 F 
ATOM     92  C   UNL A   1      52.076  25.557  26.280  1.00  0.00     0.006 A 
ENDBRANCH  68  85
ENDBRANCH  42  43
ENDBRANCH  34  37
ENDBRANCH  32  33
ENDBRANCH  31  32
ENDBRANCH  30  31
ENDBRANCH   3  30
TORSDOF 15
ENDMDL
