MODEL 1
REMARK VINA RESULT:     -12.2      0.000      0.000
REMARK SMILES C[C@@H](NC(=O)c1cc(C(=O)NCCCNC(=O)c2ccc(-c3c4nc(c(-c5c(F)cccc5F)c5ccc([nH]5)c(-c5c(F)cccc5F)c5nc(c(-c6c(F)cccc6F)c6ccc3[nH]6)C=C5)C=C4)cc2)n(C)n1)c1ccccc1
REMARK SMILES IDX 12 1 11 2 9 3 10 4 8 6 6 7 7 8 74 9 72 10 73 11 4 12 3 13
REMARK SMILES IDX 5 15 2 16 1 17 75 18 76 19 80 20 77 21 79 22 78 23 13 24
REMARK SMILES IDX 14 25 15 26 16 27 17 29 18 30 19 31 71 32 20 33 70 34 21 35
REMARK SMILES IDX 22 36 23 37 64 38 24 39 69 40 63 41 65 42 25 43 68 44 62 45
REMARK SMILES IDX 61 46 26 48 52 49 35 50 51 51 36 52 39 53 50 54 66 55 37 56
REMARK SMILES IDX 38 57 49 59 67 60 40 61 27 62 28 63 33 64 29 65 30 66 32 67
REMARK SMILES IDX 34 68 31 69 53 70 54 71 59 72 55 73 56 74 58 75 60 76 57 77
REMARK SMILES IDX 41 78 42 79 47 80 43 81 44 82 46 83 48 84 45 85
REMARK H PARENT 11 5 3 14 15 28 65 47 39 58
REMARK Flexibility Score: inf
ROOT
ATOM      1  C   UNL A   1      36.066  20.501  24.879  1.00  0.00     0.118 C 
ENDROOT
BRANCH   1   2
ATOM      2  N   UNL A   1      34.839  19.761  25.043  1.00  0.00    -0.351 N 
ATOM      3  C   UNL A   1      33.546  20.084  25.338  1.00  0.00     0.269 C 
ATOM      4  O   UNL A   1      32.768  19.142  25.135  1.00  0.00    -0.268 OA
ATOM      5  H   UNL A   1      34.964  18.794  24.911  1.00  0.00     0.163 HD
BRANCH   3   6
ATOM      6  C   UNL A   1      33.047  21.353  25.836  1.00  0.00     0.126 A 
ATOM      7  C   UNL A   1      31.476  22.868  26.405  1.00  0.00     0.151 A 
ATOM      8  C   UNL A   1      31.739  21.775  25.566  1.00  0.00     0.069 A 
ATOM      9  N   UNL A   1      32.610  23.281  26.981  1.00  0.00    -0.167 NA
ATOM     10  N   UNL A   1      33.503  22.307  26.720  1.00  0.00    -0.262 N 
ATOM     11  C   UNL A   1      34.676  22.362  27.552  1.00  0.00     0.174 C 
BRANCH   7  12
ATOM     12  C   UNL A   1      30.211  23.514  26.726  1.00  0.00     0.272 C 
ATOM     13  N   UNL A   1      29.762  24.547  25.939  1.00  0.00    -0.344 N 
ATOM     14  H   UNL A   1      28.782  24.637  25.935  1.00  0.00     0.164 HD
ATOM     15  O   UNL A   1      29.466  23.105  27.620  1.00  0.00    -0.267 OA
BRANCH  13  16
ATOM     16  C   UNL A   1      30.439  25.543  25.102  1.00  0.00     0.109 C 
ATOM     17  C   UNL A   1      31.030  24.834  23.875  1.00  0.00     0.036 C 
BRANCH  16  18
ATOM     18  C   UNL A   1      31.518  26.406  25.722  1.00  0.00    -0.026 A 
ATOM     19  C   UNL A   1      31.172  27.286  26.767  1.00  0.00     0.006 A 
ATOM     20  C   UNL A   1      32.842  26.413  25.260  1.00  0.00     0.006 A 
ATOM     21  C   UNL A   1      32.126  28.120  27.351  1.00  0.00     0.000 A 
ATOM     22  C   UNL A   1      33.796  27.253  25.847  1.00  0.00     0.000 A 
ATOM     23  C   UNL A   1      33.440  28.101  26.894  1.00  0.00     0.000 A 
ENDBRANCH  16  18
ENDBRANCH  13  16
ENDBRANCH   7  12
ENDBRANCH   3   6
ENDBRANCH   1   2
BRANCH   1  24
ATOM     24  C   UNL A   1      37.295  19.594  24.966  1.00  0.00     0.042 C 
BRANCH  24  25
ATOM     25  C   UNL A   1      38.564  20.298  25.444  1.00  0.00     0.118 C 
BRANCH  25  26
ATOM     26  N   UNL A   1      39.653  19.363  25.670  1.00  0.00    -0.352 N 
ATOM     27  C   UNL A   1      40.963  19.575  26.012  1.00  0.00     0.251 C 
ATOM     28  H   UNL A   1      39.408  18.416  25.558  1.00  0.00     0.163 HD
ATOM     29  O   UNL A   1      41.763  18.651  25.884  1.00  0.00    -0.269 OA
BRANCH  27  30
ATOM     30  C   UNL A   1      41.434  20.878  26.537  1.00  0.00     0.039 A 
ATOM     31  C   UNL A   1      41.313  21.123  27.911  1.00  0.00     0.014 A 
ATOM     32  C   UNL A   1      41.892  21.893  25.694  1.00  0.00     0.014 A 
ATOM     33  C   UNL A   1      41.673  22.365  28.436  1.00  0.00     0.010 A 
ATOM     34  C   UNL A   1      42.319  23.109  26.228  1.00  0.00     0.010 A 
ATOM     35  C   UNL A   1      42.197  23.364  27.602  1.00  0.00    -0.014 A 
BRANCH  35  36
ATOM     36  C   UNL A   1      42.596  24.687  28.150  1.00  0.00     0.031 A 
ATOM     37  C   UNL A   1      41.564  25.760  28.375  1.00  0.00     0.074 A 
ATOM     38  C   UNL A   1      43.895  24.939  28.402  1.00  0.00     0.049 A 
ATOM     39  N   UNL A   1      41.727  26.991  28.790  1.00  0.00    -0.248 NA
ATOM     40  C   UNL A   1      40.168  25.410  28.069  1.00  0.00     0.031 C 
ATOM     41  C   UNL A   1      44.994  23.997  28.189  1.00  0.00     0.029 A 
ATOM     42  N   UNL A   1      44.510  26.067  28.883  1.00  0.00    -0.354 N 
ATOM     43  C   UNL A   1      40.462  27.565  28.777  1.00  0.00     0.074 A 
ATOM     44  C   UNL A   1      39.549  26.564  28.270  1.00  0.00     0.031 C 
ATOM     45  C   UNL A   1      46.148  24.579  28.556  1.00  0.00     0.029 A 
ATOM     46  C   UNL A   1      45.874  25.943  28.997  1.00  0.00     0.049 A 
ATOM     47  H   UNL A   1      44.021  26.886  29.124  1.00  0.00     0.167 HD
ATOM     48  C   UNL A   1      40.091  28.808  29.172  1.00  0.00     0.037 A 
ATOM     49  C   UNL A   1      46.799  26.831  29.405  1.00  0.00     0.037 A 
ATOM     50  C   UNL A   1      40.997  29.792  29.704  1.00  0.00     0.049 A 
ATOM     51  C   UNL A   1      46.361  28.199  29.846  1.00  0.00     0.074 A 
ATOM     52  C   UNL A   1      40.709  31.058  30.187  1.00  0.00     0.029 A 
ATOM     53  N   UNL A   1      42.367  29.621  29.825  1.00  0.00    -0.354 N 
ATOM     54  N   UNL A   1      45.155  28.708  29.885  1.00  0.00    -0.248 NA
ATOM     55  C   UNL A   1      47.415  29.114  30.307  1.00  0.00     0.031 C 
ATOM     56  C   UNL A   1      41.912  31.666  30.563  1.00  0.00     0.029 A 
ATOM     57  C   UNL A   1      42.942  30.763  30.357  1.00  0.00     0.049 A 
ATOM     58  H   UNL A   1      42.859  28.807  29.569  1.00  0.00     0.167 HD
ATOM     59  C   UNL A   1      45.299  29.990  30.399  1.00  0.00     0.074 A 
ATOM     60  C   UNL A   1      46.708  30.176  30.671  1.00  0.00     0.031 C 
ATOM     61  C   UNL A   1      44.348  30.929  30.626  1.00  0.00     0.037 A 
BRANCH  48  62
ATOM     62  C   UNL A   1      38.640  29.171  29.043  1.00  0.00     0.057 A 
ATOM     63  C   UNL A   1      37.764  29.117  30.136  1.00  0.00     0.134 A 
ATOM     64  C   UNL A   1      38.119  29.616  27.822  1.00  0.00     0.134 A 
ATOM     65  F   UNL A   1      38.196  28.689  31.332  1.00  0.00    -0.206 F 
ATOM     66  C   UNL A   1      36.418  29.464  30.012  1.00  0.00     0.040 A 
ATOM     67  C   UNL A   1      36.780  29.992  27.691  1.00  0.00     0.040 A 
ATOM     68  F   UNL A   1      38.903  29.700  26.736  1.00  0.00    -0.206 F 
ATOM     69  C   UNL A   1      35.924  29.910  28.787  1.00  0.00     0.006 A 
ENDBRANCH  48  62
BRANCH  49  70
ATOM     70  C   UNL A   1      48.231  26.444  29.440  1.00  0.00     0.057 A 
ATOM     71  C   UNL A   1      49.077  26.710  28.357  1.00  0.00     0.134 A 
ATOM     72  C   UNL A   1      48.789  25.803  30.553  1.00  0.00     0.134 A 
ATOM     73  F   UNL A   1      48.596  27.306  27.257  1.00  0.00    -0.206 F 
ATOM     74  C   UNL A   1      50.421  26.336  28.370  1.00  0.00     0.040 A 
ATOM     75  C   UNL A   1      50.138  25.445  30.590  1.00  0.00     0.040 A 
ATOM     76  F   UNL A   1      48.033  25.529  31.626  1.00  0.00    -0.206 F 
ATOM     77  C   UNL A   1      50.957  25.706  29.493  1.00  0.00     0.006 A 
ENDBRANCH  49  70
BRANCH  61  78
ATOM     78  C   UNL A   1      44.799  32.228  31.228  1.00  0.00     0.057 A 
ATOM     79  C   UNL A   1      45.149  33.327  30.434  1.00  0.00     0.134 A 
ATOM     80  C   UNL A   1      44.854  32.388  32.618  1.00  0.00     0.134 A 
ATOM     81  F   UNL A   1      45.131  33.234  29.096  1.00  0.00    -0.206 F 
ATOM     82  C   UNL A   1      45.563  34.534  31.003  1.00  0.00     0.040 A 
ATOM     83  C   UNL A   1      45.241  33.597  33.198  1.00  0.00     0.040 A 
ATOM     84  F   UNL A   1      44.523  31.376  33.434  1.00  0.00    -0.206 F 
ATOM     85  C   UNL A   1      45.603  34.672  32.389  1.00  0.00     0.006 A 
ENDBRANCH  61  78
ENDBRANCH  35  36
ENDBRANCH  27  30
ENDBRANCH  25  26
ENDBRANCH  24  25
ENDBRANCH   1  24
TORSDOF 13
ENDMDL
MODEL 2
REMARK VINA RESULT:     -12.1      0.840      1.884
REMARK SMILES C[C@@H](NC(=O)c1cc(C(=O)NCCCNC(=O)c2ccc(-c3c4nc(c(-c5c(F)cccc5F)c5ccc([nH]5)c(-c5c(F)cccc5F)c5nc(c(-c6c(F)cccc6F)c6ccc3[nH]6)C=C5)C=C4)cc2)n(C)n1)c1ccccc1
REMARK SMILES IDX 12 1 11 2 9 3 10 4 8 6 6 7 7 8 74 9 72 10 73 11 4 12 3 13
REMARK SMILES IDX 5 15 2 16 1 17 75 18 76 19 80 20 77 21 79 22 78 23 13 24
REMARK SMILES IDX 14 25 15 26 16 27 17 29 18 30 19 31 71 32 20 33 70 34 21 35
REMARK SMILES IDX 22 36 23 37 64 38 24 39 69 40 63 41 65 42 25 43 68 44 62 45
REMARK SMILES IDX 61 46 26 48 52 49 35 50 51 51 36 52 39 53 50 54 66 55 37 56
REMARK SMILES IDX 38 57 49 59 67 60 40 61 27 62 28 63 33 64 29 65 30 66 32 67
REMARK SMILES IDX 34 68 31 69 53 70 54 71 59 72 55 73 56 74 58 75 60 76 57 77
REMARK SMILES IDX 41 78 42 79 47 80 43 81 44 82 46 83 48 84 45 85
REMARK H PARENT 11 5 3 14 15 28 65 47 39 58
REMARK Flexibility Score: inf
ROOT
ATOM      1  C   UNL A   1      36.040  20.218  25.058  1.00  0.00     0.118 C 
ENDROOT
BRANCH   1   2
ATOM      2  N   UNL A   1      35.949  21.656  25.108  1.00  0.00    -0.351 N 
ATOM      3  C   UNL A   1      34.977  22.553  25.446  1.00  0.00     0.269 C 
ATOM      4  O   UNL A   1      35.422  23.703  25.573  1.00  0.00    -0.268 OA
ATOM      5  H   UNL A   1      36.786  22.095  24.833  1.00  0.00     0.163 HD
BRANCH   3   6
ATOM      6  C   UNL A   1      33.565  22.286  25.653  1.00  0.00     0.126 A 
ATOM      7  C   UNL A   1      31.469  22.721  26.361  1.00  0.00     0.151 A 
ATOM      8  C   UNL A   1      32.823  23.000  26.601  1.00  0.00     0.069 A 
ATOM      9  N   UNL A   1      31.361  21.707  25.496  1.00  0.00    -0.167 NA
ATOM     10  N   UNL A   1      32.605  21.540  25.006  1.00  0.00    -0.262 N 
ATOM     11  C   UNL A   1      32.647  20.759  23.797  1.00  0.00     0.174 C 
BRANCH   7  12
ATOM     12  C   UNL A   1      30.277  23.386  26.867  1.00  0.00     0.272 C 
ATOM     13  N   UNL A   1      29.759  24.458  26.181  1.00  0.00    -0.344 N 
ATOM     14  H   UNL A   1      28.789  24.573  26.310  1.00  0.00     0.164 HD
ATOM     15  O   UNL A   1      29.643  22.963  27.837  1.00  0.00    -0.267 OA
BRANCH  13  16
ATOM     16  C   UNL A   1      30.349  25.467  25.295  1.00  0.00     0.109 C 
ATOM     17  C   UNL A   1      30.796  24.781  23.997  1.00  0.00     0.036 C 
BRANCH  16  18
ATOM     18  C   UNL A   1      31.497  26.310  25.812  1.00  0.00    -0.026 A 
ATOM     19  C   UNL A   1      31.245  27.266  26.815  1.00  0.00     0.006 A 
ATOM     20  C   UNL A   1      32.795  26.223  25.290  1.00  0.00     0.006 A 
ATOM     21  C   UNL A   1      32.264  28.084  27.303  1.00  0.00     0.000 A 
ATOM     22  C   UNL A   1      33.815  27.047  25.779  1.00  0.00     0.000 A 
ATOM     23  C   UNL A   1      33.552  27.972  26.788  1.00  0.00     0.000 A 
ENDBRANCH  16  18
ENDBRANCH  13  16
ENDBRANCH   7  12
ENDBRANCH   3   6
ENDBRANCH   1   2
BRANCH   1  24
ATOM     24  C   UNL A   1      37.448  19.748  24.686  1.00  0.00     0.042 C 
BRANCH  24  25
ATOM     25  C   UNL A   1      38.559  20.348  25.546  1.00  0.00     0.118 C 
BRANCH  25  26
ATOM     26  N   UNL A   1      39.665  19.424  25.729  1.00  0.00    -0.352 N 
ATOM     27  C   UNL A   1      40.981  19.647  26.042  1.00  0.00     0.251 C 
ATOM     28  H   UNL A   1      39.430  18.476  25.607  1.00  0.00     0.163 HD
ATOM     29  O   UNL A   1      41.789  18.736  25.879  1.00  0.00    -0.269 OA
BRANCH  27  30
ATOM     30  C   UNL A   1      41.448  20.947  26.577  1.00  0.00     0.039 A 
ATOM     31  C   UNL A   1      41.338  21.177  27.954  1.00  0.00     0.014 A 
ATOM     32  C   UNL A   1      41.893  21.975  25.741  1.00  0.00     0.014 A 
ATOM     33  C   UNL A   1      41.695  22.416  28.490  1.00  0.00     0.010 A 
ATOM     34  C   UNL A   1      42.317  23.188  26.284  1.00  0.00     0.010 A 
ATOM     35  C   UNL A   1      42.206  23.427  27.662  1.00  0.00    -0.014 A 
BRANCH  35  36
ATOM     36  C   UNL A   1      42.601  24.747  28.220  1.00  0.00     0.031 A 
ATOM     37  C   UNL A   1      41.571  25.825  28.426  1.00  0.00     0.074 A 
ATOM     38  C   UNL A   1      43.896  24.991  28.498  1.00  0.00     0.049 A 
ATOM     39  N   UNL A   1      41.733  27.055  28.846  1.00  0.00    -0.248 NA
ATOM     40  C   UNL A   1      40.180  25.484  28.091  1.00  0.00     0.031 C 
ATOM     41  C   UNL A   1      44.994  24.043  28.306  1.00  0.00     0.029 A 
ATOM     42  N   UNL A   1      44.507  26.114  28.995  1.00  0.00    -0.354 N 
ATOM     43  C   UNL A   1      40.471  27.637  28.809  1.00  0.00     0.074 A 
ATOM     44  C   UNL A   1      39.563  26.642  28.282  1.00  0.00     0.031 C 
ATOM     45  C   UNL A   1      46.143  24.617  28.698  1.00  0.00     0.029 A 
ATOM     46  C   UNL A   1      45.868  25.982  29.135  1.00  0.00     0.049 A 
ATOM     47  H   UNL A   1      44.019  26.936  29.227  1.00  0.00     0.167 HD
ATOM     48  C   UNL A   1      40.100  28.881  29.199  1.00  0.00     0.037 A 
ATOM     49  C   UNL A   1      46.790  26.864  29.564  1.00  0.00     0.037 A 
ATOM     50  C   UNL A   1      41.001  29.859  29.751  1.00  0.00     0.049 A 
ATOM     51  C   UNL A   1      46.352  28.234  29.998  1.00  0.00     0.074 A 
ATOM     52  C   UNL A   1      40.711  31.125  30.231  1.00  0.00     0.029 A 
ATOM     53  N   UNL A   1      42.367  29.679  29.900  1.00  0.00    -0.354 N 
ATOM     54  N   UNL A   1      45.147  28.750  30.014  1.00  0.00    -0.248 NA
ATOM     55  C   UNL A   1      47.401  29.141  30.483  1.00  0.00     0.031 C 
ATOM     56  C   UNL A   1      41.909  31.725  30.632  1.00  0.00     0.029 A 
ATOM     57  C   UNL A   1      42.938  30.817  30.445  1.00  0.00     0.049 A 
ATOM     58  H   UNL A   1      42.859  28.863  29.652  1.00  0.00     0.167 HD
ATOM     59  C   UNL A   1      45.288  30.029  30.534  1.00  0.00     0.074 A 
ATOM     60  C   UNL A   1      46.693  30.206  30.834  1.00  0.00     0.031 C 
ATOM     61  C   UNL A   1      44.339  30.974  30.743  1.00  0.00     0.037 A 
BRANCH  48  62
ATOM     62  C   UNL A   1      38.654  29.253  29.042  1.00  0.00     0.057 A 
ATOM     63  C   UNL A   1      38.117  29.628  27.804  1.00  0.00     0.134 A 
ATOM     64  C   UNL A   1      37.779  29.202  30.135  1.00  0.00     0.134 A 
ATOM     65  F   UNL A   1      38.902  29.708  26.718  1.00  0.00    -0.206 F 
ATOM     66  C   UNL A   1      36.769  29.966  27.663  1.00  0.00     0.040 A 
ATOM     67  C   UNL A   1      36.424  29.511  30.002  1.00  0.00     0.040 A 
ATOM     68  F   UNL A   1      38.225  28.844  31.349  1.00  0.00    -0.206 F 
ATOM     69  C   UNL A   1      35.917  29.900  28.764  1.00  0.00     0.006 A 
ENDBRANCH  48  62
BRANCH  49  70
ATOM     70  C   UNL A   1      48.219  26.468  29.627  1.00  0.00     0.057 A 
ATOM     71  C   UNL A   1      48.737  25.815  30.752  1.00  0.00     0.134 A 
ATOM     72  C   UNL A   1      49.099  26.730  28.570  1.00  0.00     0.134 A 
ATOM     73  F   UNL A   1      47.947  25.552  31.802  1.00  0.00    -0.206 F 
ATOM     74  C   UNL A   1      50.083  25.453  30.831  1.00  0.00     0.040 A 
ATOM     75  C   UNL A   1      50.441  26.352  28.626  1.00  0.00     0.040 A 
ATOM     76  F   UNL A   1      48.660  27.345  27.462  1.00  0.00    -0.206 F 
ATOM     77  C   UNL A   1      50.938  25.717  29.763  1.00  0.00     0.006 A 
ENDBRANCH  49  70
BRANCH  61  78
ATOM     78  C   UNL A   1      44.785  32.269  31.356  1.00  0.00     0.057 A 
ATOM     79  C   UNL A   1      44.870  32.438  32.744  1.00  0.00     0.134 A 
ATOM     80  C   UNL A   1      45.162  33.348  30.547  1.00  0.00     0.134 A 
ATOM     81  F   UNL A   1      44.511  31.447  33.573  1.00  0.00    -0.206 F 
ATOM     82  C   UNL A   1      45.292  33.645  33.306  1.00  0.00     0.040 A 
ATOM     83  C   UNL A   1      45.609  34.551  31.096  1.00  0.00     0.040 A 
ATOM     84  F   UNL A   1      45.112  33.248  29.211  1.00  0.00    -0.206 F 
ATOM     85  C   UNL A   1      45.668  34.703  32.481  1.00  0.00     0.006 A 
ENDBRANCH  61  78
ENDBRANCH  35  36
ENDBRANCH  27  30
ENDBRANCH  25  26
ENDBRANCH  24  25
ENDBRANCH   1  24
TORSDOF 13
ENDMDL
MODEL 3
REMARK VINA RESULT:     -12.0      3.905      8.856
REMARK SMILES C[C@@H](NC(=O)c1cc(C(=O)NCCCNC(=O)c2ccc(-c3c4nc(c(-c5c(F)cccc5F)c5ccc([nH]5)c(-c5c(F)cccc5F)c5nc(c(-c6c(F)cccc6F)c6ccc3[nH]6)C=C5)C=C4)cc2)n(C)n1)c1ccccc1
REMARK SMILES IDX 12 1 11 2 9 3 10 4 8 6 6 7 7 8 74 9 72 10 73 11 4 12 3 13
REMARK SMILES IDX 5 15 2 16 1 17 75 18 76 19 80 20 77 21 79 22 78 23 13 24
REMARK SMILES IDX 14 25 15 26 16 27 17 29 18 30 19 31 71 32 20 33 70 34 21 35
REMARK SMILES IDX 22 36 23 37 64 38 24 39 69 40 63 41 65 42 25 43 68 44 62 45
REMARK SMILES IDX 61 46 26 48 52 49 35 50 51 51 36 52 39 53 50 54 66 55 37 56
REMARK SMILES IDX 38 57 49 59 67 60 40 61 27 62 28 63 33 64 29 65 30 66 32 67
REMARK SMILES IDX 34 68 31 69 53 70 54 71 59 72 55 73 56 74 58 75 60 76 57 77
REMARK SMILES IDX 41 78 42 79 47 80 43 81 44 82 46 83 48 84 45 85
REMARK H PARENT 11 5 3 14 15 28 65 47 39 58
REMARK Flexibility Score: inf
ROOT
ATOM      1  C   UNL A   1      31.394  30.071  25.319  1.00  0.00     0.118 C 
ENDROOT
BRANCH   1   2
ATOM      2  N   UNL A   1      30.757  29.979  24.029  1.00  0.00    -0.351 N 
ATOM      3  C   UNL A   1      30.816  29.108  22.980  1.00  0.00     0.269 C 
ATOM      4  O   UNL A   1      29.902  29.292  22.164  1.00  0.00    -0.268 OA
ATOM      5  H   UNL A   1      30.130  30.720  23.868  1.00  0.00     0.163 HD
BRANCH   3   6
ATOM      6  C   UNL A   1      31.796  28.059  22.760  1.00  0.00     0.126 A 
ATOM      7  C   UNL A   1      32.627  26.179  21.834  1.00  0.00     0.151 A 
ATOM      8  C   UNL A   1      31.437  26.845  22.164  1.00  0.00     0.069 A 
ATOM      9  N   UNL A   1      33.666  26.796  22.407  1.00  0.00    -0.167 NA
ATOM     10  N   UNL A   1      33.167  27.965  22.855  1.00  0.00    -0.262 N 
ATOM     11  C   UNL A   1      34.178  28.939  23.170  1.00  0.00     0.174 C 
BRANCH   7  12
ATOM     12  C   UNL A   1      32.842  25.023  20.975  1.00  0.00     0.272 C 
ATOM     13  N   UNL A   1      32.683  23.759  21.492  1.00  0.00    -0.344 N 
ATOM     14  H   UNL A   1      32.425  23.092  20.816  1.00  0.00     0.164 HD
ATOM     15  O   UNL A   1      33.062  25.128  19.766  1.00  0.00    -0.267 OA
BRANCH  13  16
ATOM     16  C   UNL A   1      32.816  23.199  22.840  1.00  0.00     0.109 C 
ATOM     17  C   UNL A   1      31.649  23.705  23.701  1.00  0.00     0.036 C 
BRANCH  16  18
ATOM     18  C   UNL A   1      34.106  23.426  23.601  1.00  0.00    -0.026 A 
ATOM     19  C   UNL A   1      35.315  22.961  23.048  1.00  0.00     0.006 A 
ATOM     20  C   UNL A   1      34.143  24.027  24.867  1.00  0.00     0.006 A 
ATOM     21  C   UNL A   1      36.525  23.122  23.724  1.00  0.00     0.000 A 
ATOM     22  C   UNL A   1      35.358  24.184  25.544  1.00  0.00     0.000 A 
ATOM     23  C   UNL A   1      36.548  23.738  24.971  1.00  0.00     0.000 A 
ENDBRANCH  16  18
ENDBRANCH  13  16
ENDBRANCH   7  12
ENDBRANCH   3   6
ENDBRANCH   1   2
BRANCH   1  24
ATOM     24  C   UNL A   1      31.134  31.422  25.989  1.00  0.00     0.042 C 
BRANCH  24  25
ATOM     25  C   UNL A   1      32.196  31.834  27.007  1.00  0.00     0.118 C 
BRANCH  25  26
ATOM     26  N   UNL A   1      32.148  33.256  27.299  1.00  0.00    -0.352 N 
ATOM     27  C   UNL A   1      32.923  34.032  28.121  1.00  0.00     0.251 C 
ATOM     28  H   UNL A   1      31.437  33.746  26.826  1.00  0.00     0.163 HD
ATOM     29  O   UNL A   1      32.528  35.158  28.415  1.00  0.00    -0.269 OA
BRANCH  27  30
ATOM     30  C   UNL A   1      34.221  33.555  28.652  1.00  0.00     0.039 A 
ATOM     31  C   UNL A   1      35.381  33.829  27.917  1.00  0.00     0.014 A 
ATOM     32  C   UNL A   1      34.304  32.760  29.798  1.00  0.00     0.014 A 
ATOM     33  C   UNL A   1      36.615  33.332  28.342  1.00  0.00     0.010 A 
ATOM     34  C   UNL A   1      35.545  32.323  30.262  1.00  0.00     0.010 A 
ATOM     35  C   UNL A   1      36.711  32.590  29.528  1.00  0.00    -0.014 A 
BRANCH  35  36
ATOM     36  C   UNL A   1      38.019  32.065  29.999  1.00  0.00     0.031 A 
ATOM     37  C   UNL A   1      38.548  30.757  29.473  1.00  0.00     0.074 A 
ATOM     38  C   UNL A   1      38.711  32.744  30.935  1.00  0.00     0.049 A 
ATOM     39  N   UNL A   1      39.638  30.112  29.805  1.00  0.00    -0.248 NA
ATOM     40  C   UNL A   1      37.731  30.073  28.459  1.00  0.00     0.031 C 
ATOM     41  C   UNL A   1      38.288  34.001  31.551  1.00  0.00     0.029 A 
ATOM     42  N   UNL A   1      39.913  32.464  31.536  1.00  0.00    -0.354 N 
ATOM     43  C   UNL A   1      39.627  28.941  29.056  1.00  0.00     0.074 A 
ATOM     44  C   UNL A   1      38.402  28.942  28.287  1.00  0.00     0.031 C 
ATOM     45  C   UNL A   1      39.223  34.396  32.430  1.00  0.00     0.029 A 
ATOM     46  C   UNL A   1      40.294  33.404  32.464  1.00  0.00     0.049 A 
ATOM     47  H   UNL A   1      40.449  31.668  31.323  1.00  0.00     0.167 HD
ATOM     48  C   UNL A   1      40.564  27.963  28.999  1.00  0.00     0.037 A 
ATOM     49  C   UNL A   1      41.380  33.456  33.256  1.00  0.00     0.037 A 
ATOM     50  C   UNL A   1      41.798  27.979  29.743  1.00  0.00     0.049 A 
ATOM     51  C   UNL A   1      42.409  32.364  33.167  1.00  0.00     0.074 A 
ATOM     52  C   UNL A   1      42.837  27.065  29.707  1.00  0.00     0.029 A 
ATOM     53  N   UNL A   1      42.158  28.959  30.654  1.00  0.00    -0.354 N 
ATOM     54  N   UNL A   1      42.415  31.294  32.411  1.00  0.00    -0.248 NA
ATOM     55  C   UNL A   1      43.587  32.493  34.036  1.00  0.00     0.031 C 
ATOM     56  C   UNL A   1      43.809  27.473  30.628  1.00  0.00     0.029 A 
ATOM     57  C   UNL A   1      43.395  28.664  31.203  1.00  0.00     0.049 A 
ATOM     58  H   UNL A   1      41.614  29.748  30.879  1.00  0.00     0.167 HD
ATOM     59  C   UNL A   1      43.604  30.636  32.691  1.00  0.00     0.074 A 
ATOM     60  C   UNL A   1      44.302  31.435  33.677  1.00  0.00     0.031 C 
ATOM     61  C   UNL A   1      44.078  29.474  32.179  1.00  0.00     0.037 A 
BRANCH  48  62
ATOM     62  C   UNL A   1      40.291  26.794  28.098  1.00  0.00     0.057 A 
ATOM     63  C   UNL A   1      40.850  26.700  26.817  1.00  0.00     0.134 A 
ATOM     64  C   UNL A   1      39.488  25.731  28.529  1.00  0.00     0.134 A 
ATOM     65  F   UNL A   1      41.621  27.689  26.337  1.00  0.00    -0.206 F 
ATOM     66  C   UNL A   1      40.598  25.606  25.987  1.00  0.00     0.040 A 
ATOM     67  C   UNL A   1      39.250  24.618  27.720  1.00  0.00     0.040 A 
ATOM     68  F   UNL A   1      38.926  25.751  29.748  1.00  0.00    -0.206 F 
ATOM     69  C   UNL A   1      39.802  24.557  26.441  1.00  0.00     0.006 A 
ENDBRANCH  48  62
BRANCH  49  70
ATOM     70  C   UNL A   1      41.565  34.599  34.185  1.00  0.00     0.057 A 
ATOM     71  C   UNL A   1      41.080  34.546  35.497  1.00  0.00     0.134 A 
ATOM     72  C   UNL A   1      42.228  35.766  33.788  1.00  0.00     0.134 A 
ATOM     73  F   UNL A   1      40.422  33.461  35.930  1.00  0.00    -0.206 F 
ATOM     74  C   UNL A   1      41.231  35.620  36.376  1.00  0.00     0.040 A 
ATOM     75  C   UNL A   1      42.408  36.838  34.663  1.00  0.00     0.040 A 
ATOM     76  F   UNL A   1      42.723  35.874  32.546  1.00  0.00    -0.206 F 
ATOM     77  C   UNL A   1      41.902  36.769  35.960  1.00  0.00     0.006 A 
ENDBRANCH  49  70
BRANCH  61  78
ATOM     78  C   UNL A   1      45.427  29.017  32.651  1.00  0.00     0.057 A 
ATOM     79  C   UNL A   1      46.607  29.416  32.012  1.00  0.00     0.134 A 
ATOM     80  C   UNL A   1      45.546  28.191  33.776  1.00  0.00     0.134 A 
ATOM     81  F   UNL A   1      46.559  30.196  30.921  1.00  0.00    -0.206 F 
ATOM     82  C   UNL A   1      47.858  28.990  32.461  1.00  0.00     0.040 A 
ATOM     83  C   UNL A   1      46.793  27.779  34.250  1.00  0.00     0.040 A 
ATOM     84  F   UNL A   1      44.455  27.780  34.439  1.00  0.00    -0.206 F 
ATOM     85  C   UNL A   1      47.953  28.174  33.587  1.00  0.00     0.006 A 
ENDBRANCH  61  78
ENDBRANCH  35  36
ENDBRANCH  27  30
ENDBRANCH  25  26
ENDBRANCH  24  25
ENDBRANCH   1  24
TORSDOF 13
ENDMDL
