MODEL 1
REMARK VINA RESULT:     -12.2      0.000      0.000
REMARK SMILES O=C(NCCCNC(=O)C1(NC(=O)c2nc(C3CC3)n[nH]2)CCCCC1)c1ccc(-c2c3nc(c(-c4c(F)cccc4F)c4ccc([nH]4)c(-c4c(F)cccc4F)c4nc(c(-c5c(F)cccc5F)c5ccc2[nH]5)C=C4)C=C3)cc1
REMARK SMILES IDX 5 1 4 2 3 3 1 4 2 5 27 7 28 8 80 9 29 10 79 11 30 12 31 13
REMARK SMILES IDX 32 14 73 15 33 16 78 17 72 18 74 19 34 20 77 21 71 22 70 23
REMARK SMILES IDX 35 25 61 26 44 27 60 28 45 29 48 30 59 31 75 32 46 33 47 34
REMARK SMILES IDX 58 36 76 37 49 38 36 39 37 40 42 41 38 42 39 43 41 44 43 45
REMARK SMILES IDX 40 46 62 47 63 48 68 49 64 50 65 51 67 52 69 53 66 54 50 55
REMARK SMILES IDX 51 56 56 57 52 58 53 59 55 60 57 61 54 62 6 63 7 64 8 65
REMARK SMILES IDX 9 67 10 68 22 69 26 70 23 71 25 72 24 73 11 74 12 75 13 77
REMARK SMILES IDX 14 78 15 79 21 80 16 81 20 82 17 84 18 85 19 86
REMARK H PARENT 3 6 74 24 48 35 7 66 11 76 21 83
REMARK Flexibility Score: inf
ROOT
ATOM      1  C   UNL A   1      37.594  20.434  24.640  1.00  0.00     0.042 C 
ENDROOT
BRANCH   1   2
ATOM      2  C   UNL A   1      38.635  20.607  25.739  1.00  0.00     0.118 C 
BRANCH   2   3
ATOM      3  N   UNL A   1      39.640  19.550  25.759  1.00  0.00    -0.352 N 
ATOM      4  O   UNL A   1      41.732  18.685  25.783  1.00  0.00    -0.269 OA
ATOM      5  C   UNL A   1      40.993  19.630  26.015  1.00  0.00     0.251 C 
ATOM      6  H   UNL A   1      39.303  18.646  25.561  1.00  0.00     0.163 HD
BRANCH   5   7
ATOM      7  C   UNL A   1      41.543  20.894  26.555  1.00  0.00     0.039 A 
ATOM      8  C   UNL A   1      41.564  21.099  27.931  1.00  0.00     0.014 A 
ATOM      9  C   UNL A   1      42.002  21.894  25.694  1.00  0.00     0.014 A 
ATOM     10  C   UNL A   1      41.785  22.370  28.430  1.00  0.00     0.010 A 
ATOM     11  C   UNL A   1      42.388  23.133  26.219  1.00  0.00     0.010 A 
ATOM     12  C   UNL A   1      42.234  23.399  27.588  1.00  0.00    -0.014 A 
BRANCH  12  13
ATOM     13  C   UNL A   1      42.584  24.706  28.204  1.00  0.00     0.031 A 
ATOM     14  C   UNL A   1      44.007  25.075  28.521  1.00  0.00     0.074 A 
ATOM     15  C   UNL A   1      41.593  25.601  28.400  1.00  0.00     0.049 A 
ATOM     16  N   UNL A   1      44.471  26.190  29.030  1.00  0.00    -0.248 NA
ATOM     17  C   UNL A   1      45.044  24.068  28.247  1.00  0.00     0.031 C 
ATOM     18  C   UNL A   1      40.172  25.354  28.129  1.00  0.00     0.029 A 
ATOM     19  N   UNL A   1      41.625  26.904  28.820  1.00  0.00    -0.354 N 
ATOM     20  C   UNL A   1      45.840  26.007  29.171  1.00  0.00     0.074 A 
ATOM     21  C   UNL A   1      46.135  24.670  28.703  1.00  0.00     0.031 C 
ATOM     22  C   UNL A   1      39.485  26.490  28.301  1.00  0.00     0.029 A 
ATOM     23  C   UNL A   1      40.395  27.517  28.789  1.00  0.00     0.049 A 
ATOM     24  H   UNL A   1      42.446  27.358  29.116  1.00  0.00     0.167 HD
ATOM     25  C   UNL A   1      46.764  26.877  29.648  1.00  0.00     0.037 A 
ATOM     26  C   UNL A   1      40.027  28.762  29.137  1.00  0.00     0.037 A 
ATOM     27  C   UNL A   1      46.464  28.220  30.080  1.00  0.00     0.049 A 
ATOM     28  C   UNL A   1      41.069  29.701  29.662  1.00  0.00     0.074 A 
ATOM     29  C   UNL A   1      47.333  29.186  30.558  1.00  0.00     0.029 A 
ATOM     30  N   UNL A   1      45.199  28.786  30.080  1.00  0.00    -0.354 N 
ATOM     31  N   UNL A   1      42.358  29.506  29.797  1.00  0.00    -0.248 NA
ATOM     32  C   UNL A   1      40.605  31.022  30.101  1.00  0.00     0.031 C 
ATOM     33  C   UNL A   1      46.588  30.325  30.881  1.00  0.00     0.029 A 
ATOM     34  C   UNL A   1      45.261  30.083  30.567  1.00  0.00     0.049 A 
ATOM     35  H   UNL A   1      44.378  28.335  29.779  1.00  0.00     0.167 HD
ATOM     36  C   UNL A   1      42.861  30.677  30.339  1.00  0.00     0.074 A 
ATOM     37  C   UNL A   1      41.742  31.589  30.477  1.00  0.00     0.031 C 
ATOM     38  C   UNL A   1      44.134  30.969  30.702  1.00  0.00     0.037 A 
BRANCH  25  39
ATOM     39  C   UNL A   1      48.184  26.402  29.753  1.00  0.00     0.057 A 
ATOM     40  C   UNL A   1      49.111  26.593  28.721  1.00  0.00     0.134 A 
ATOM     41  C   UNL A   1      48.643  25.791  30.928  1.00  0.00     0.134 A 
ATOM     42  F   UNL A   1      48.735  27.160  27.565  1.00  0.00    -0.206 F 
ATOM     43  C   UNL A   1      50.440  26.180  28.849  1.00  0.00     0.040 A 
ATOM     44  C   UNL A   1      49.973  25.394  31.075  1.00  0.00     0.040 A 
ATOM     45  F   UNL A   1      47.808  25.583  31.957  1.00  0.00    -0.206 F 
ATOM     46  C   UNL A   1      50.876  25.585  30.032  1.00  0.00     0.006 A 
ENDBRANCH  25  39
BRANCH  26  47
ATOM     47  C   UNL A   1      38.605  29.168  29.025  1.00  0.00     0.057 A 
ATOM     48  C   UNL A   1      37.748  29.124  30.129  1.00  0.00     0.134 A 
ATOM     49  C   UNL A   1      38.077  29.640  27.817  1.00  0.00     0.134 A 
ATOM     50  F   UNL A   1      38.190  28.667  31.310  1.00  0.00    -0.206 F 
ATOM     51  C   UNL A   1      36.415  29.529  30.035  1.00  0.00     0.040 A 
ATOM     52  C   UNL A   1      36.756  30.076  27.715  1.00  0.00     0.040 A 
ATOM     53  F   UNL A   1      38.852  29.716  26.723  1.00  0.00    -0.206 F 
ATOM     54  C   UNL A   1      35.919  30.016  28.826  1.00  0.00     0.006 A 
ENDBRANCH  26  47
BRANCH  38  55
ATOM     55  C   UNL A   1      44.372  32.334  31.271  1.00  0.00     0.057 A 
ATOM     56  C   UNL A   1      44.315  32.573  32.649  1.00  0.00     0.134 A 
ATOM     57  C   UNL A   1      44.668  33.415  30.432  1.00  0.00     0.134 A 
ATOM     58  F   UNL A   1      44.018  31.580  33.500  1.00  0.00    -0.206 F 
ATOM     59  C   UNL A   1      44.520  33.850  33.173  1.00  0.00     0.040 A 
ATOM     60  C   UNL A   1      44.897  34.691  30.947  1.00  0.00     0.040 A 
ATOM     61  F   UNL A   1      44.739  33.248  29.103  1.00  0.00    -0.206 F 
ATOM     62  C   UNL A   1      44.817  34.912  32.321  1.00  0.00     0.006 A 
ENDBRANCH  38  55
ENDBRANCH  12  13
ENDBRANCH   5   7
ENDBRANCH   2   3
ENDBRANCH   1   2
BRANCH   1  63
ATOM     63  C   UNL A   1      36.433  21.392  24.796  1.00  0.00     0.117 C 
BRANCH  63  64
ATOM     64  N   UNL A   1      35.651  21.101  25.986  1.00  0.00    -0.354 N 
ATOM     65  C   UNL A   1      34.453  21.591  26.412  1.00  0.00     0.245 C 
ATOM     66  H   UNL A   1      36.058  20.436  26.587  1.00  0.00     0.163 HD
ATOM     67  O   UNL A   1      34.061  21.178  27.508  1.00  0.00    -0.272 OA
BRANCH  65  68
ATOM     68  C   UNL A   1      33.780  22.789  25.688  1.00  0.00     0.119 C 
ATOM     69  C   UNL A   1      32.591  23.339  26.509  1.00  0.00     0.038 C 
ATOM     70  C   UNL A   1      34.924  23.856  25.683  1.00  0.00     0.038 C 
ATOM     71  C   UNL A   1      32.163  24.742  26.067  1.00  0.00     0.003 C 
ATOM     72  C   UNL A   1      34.492  25.256  25.272  1.00  0.00     0.003 C 
ATOM     73  C   UNL A   1      33.321  25.733  26.114  1.00  0.00     0.000 C 
BRANCH  68  74
ATOM     74  N   UNL A   1      33.341  22.528  24.295  1.00  0.00    -0.335 N 
ATOM     75  C   UNL A   1      32.783  21.412  23.706  1.00  0.00     0.289 C 
ATOM     76  H   UNL A   1      33.472  23.286  23.681  1.00  0.00     0.165 HD
ATOM     77  O   UNL A   1      32.323  21.560  22.571  1.00  0.00    -0.266 OA
BRANCH  75  78
ATOM     78  C   UNL A   1      32.947  20.101  24.287  1.00  0.00     0.214 A 
ATOM     79  N   UNL A   1      33.698  19.095  23.888  1.00  0.00    -0.207 NA
ATOM     80  N   UNL A   1      32.162  19.669  25.321  1.00  0.00    -0.255 N 
ATOM     81  C   UNL A   1      33.181  18.024  24.581  1.00  0.00     0.154 A 
ATOM     82  N   UNL A   1      32.163  18.327  25.397  1.00  0.00    -0.158 NA
ATOM     83  H   UNL A   1      31.663  20.261  25.928  1.00  0.00     0.192 HD
BRANCH  81  84
ATOM     84  C   UNL A   1      33.643  16.588  24.396  1.00  0.00     0.060 C 
ATOM     85  C   UNL A   1      34.629  15.995  25.380  1.00  0.00     0.012 C 
ATOM     86  C   UNL A   1      33.207  15.543  25.397  1.00  0.00     0.012 C 
ENDBRANCH  81  84
ENDBRANCH  75  78
ENDBRANCH  68  74
ENDBRANCH  65  68
ENDBRANCH  63  64
ENDBRANCH   1  63
TORSDOF 13
ENDMDL
MODEL 2
REMARK VINA RESULT:     -12.1      0.312      6.286
REMARK SMILES O=C(NCCCNC(=O)C1(NC(=O)c2nc(C3CC3)n[nH]2)CCCCC1)c1ccc(-c2c3nc(c(-c4c(F)cccc4F)c4ccc([nH]4)c(-c4c(F)cccc4F)c4nc(c(-c5c(F)cccc5F)c5ccc2[nH]5)C=C4)C=C3)cc1
REMARK SMILES IDX 5 1 4 2 3 3 1 4 2 5 27 7 28 8 80 9 29 10 79 11 30 12 31 13
REMARK SMILES IDX 32 14 73 15 33 16 78 17 72 18 74 19 34 20 77 21 71 22 70 23
REMARK SMILES IDX 35 25 61 26 44 27 60 28 45 29 48 30 59 31 75 32 46 33 47 34
REMARK SMILES IDX 58 36 76 37 49 38 36 39 37 40 42 41 38 42 39 43 41 44 43 45
REMARK SMILES IDX 40 46 62 47 63 48 68 49 64 50 65 51 67 52 69 53 66 54 50 55
REMARK SMILES IDX 51 56 56 57 52 58 53 59 55 60 57 61 54 62 6 63 7 64 8 65
REMARK SMILES IDX 9 67 10 68 22 69 26 70 23 71 25 72 24 73 11 74 12 75 13 77
REMARK SMILES IDX 14 78 15 79 21 80 16 81 20 82 17 84 18 85 19 86
REMARK H PARENT 3 6 74 24 48 35 7 66 11 76 21 83
REMARK Flexibility Score: inf
ROOT
ATOM      1  C   UNL A   1      37.560  20.395  24.648  1.00  0.00     0.042 C 
ENDROOT
BRANCH   1   2
ATOM      2  C   UNL A   1      38.646  20.652  25.685  1.00  0.00     0.118 C 
BRANCH   2   3
ATOM      3  N   UNL A   1      39.652  19.598  25.747  1.00  0.00    -0.352 N 
ATOM      4  O   UNL A   1      41.746  18.739  25.821  1.00  0.00    -0.269 OA
ATOM      5  C   UNL A   1      41.001  19.688  26.018  1.00  0.00     0.251 C 
ATOM      6  H   UNL A   1      39.320  18.690  25.569  1.00  0.00     0.163 HD
BRANCH   5   7
ATOM      7  C   UNL A   1      41.542  20.967  26.531  1.00  0.00     0.039 A 
ATOM      8  C   UNL A   1      41.480  21.239  27.895  1.00  0.00     0.014 A 
ATOM      9  C   UNL A   1      42.077  21.915  25.655  1.00  0.00     0.014 A 
ATOM     10  C   UNL A   1      41.695  22.529  28.345  1.00  0.00     0.010 A 
ATOM     11  C   UNL A   1      42.455  23.172  26.144  1.00  0.00     0.010 A 
ATOM     12  C   UNL A   1      42.219  23.507  27.486  1.00  0.00    -0.014 A 
BRANCH  12  13
ATOM     13  C   UNL A   1      42.556  24.837  28.059  1.00  0.00     0.031 A 
ATOM     14  C   UNL A   1      41.498  25.867  28.342  1.00  0.00     0.074 A 
ATOM     15  C   UNL A   1      43.840  25.073  28.402  1.00  0.00     0.049 A 
ATOM     16  N   UNL A   1      41.635  27.059  28.870  1.00  0.00    -0.248 NA
ATOM     17  C   UNL A   1      40.112  25.531  27.980  1.00  0.00     0.031 C 
ATOM     18  C   UNL A   1      44.955  24.146  28.175  1.00  0.00     0.029 A 
ATOM     19  N   UNL A   1      44.420  26.129  29.054  1.00  0.00    -0.354 N 
ATOM     20  C   UNL A   1      40.367  27.626  28.870  1.00  0.00     0.074 A 
ATOM     21  C   UNL A   1      39.472  26.654  28.280  1.00  0.00     0.031 C 
ATOM     22  C   UNL A   1      46.059  24.631  28.756  1.00  0.00     0.029 A 
ATOM     23  C   UNL A   1      45.757  25.944  29.309  1.00  0.00     0.049 A 
ATOM     24  H   UNL A   1      43.928  26.941  29.312  1.00  0.00     0.167 HD
ATOM     25  C   UNL A   1      39.989  28.847  29.320  1.00  0.00     0.037 A 
ATOM     26  C   UNL A   1      46.656  26.749  29.902  1.00  0.00     0.037 A 
ATOM     27  C   UNL A   1      40.882  29.796  29.937  1.00  0.00     0.049 A 
ATOM     28  C   UNL A   1      46.209  28.092  30.389  1.00  0.00     0.074 A 
ATOM     29  C   UNL A   1      40.591  31.049  30.446  1.00  0.00     0.029 A 
ATOM     30  N   UNL A   1      42.240  29.591  30.133  1.00  0.00    -0.354 N 
ATOM     31  N   UNL A   1      45.007  28.615  30.371  1.00  0.00    -0.248 NA
ATOM     32  C   UNL A   1      47.242  28.964  30.958  1.00  0.00     0.031 C 
ATOM     33  C   UNL A   1      41.779  31.618  30.918  1.00  0.00     0.029 A 
ATOM     34  C   UNL A   1      42.803  30.703  30.739  1.00  0.00     0.049 A 
ATOM     35  H   UNL A   1      42.731  28.777  29.879  1.00  0.00     0.167 HD
ATOM     36  C   UNL A   1      45.138  29.879  30.923  1.00  0.00     0.074 A 
ATOM     37  C   UNL A   1      46.531  30.030  31.296  1.00  0.00     0.031 C 
ATOM     38  C   UNL A   1      44.192  30.834  31.095  1.00  0.00     0.037 A 
BRANCH  25  39
ATOM     39  C   UNL A   1      38.551  29.243  29.144  1.00  0.00     0.057 A 
ATOM     40  C   UNL A   1      37.640  29.231  30.206  1.00  0.00     0.134 A 
ATOM     41  C   UNL A   1      38.087  29.694  27.900  1.00  0.00     0.134 A 
ATOM     42  F   UNL A   1      38.015  28.799  31.420  1.00  0.00    -0.206 F 
ATOM     43  C   UNL A   1      36.315  29.640  30.036  1.00  0.00     0.040 A 
ATOM     44  C   UNL A   1      36.771  30.126  27.723  1.00  0.00     0.040 A 
ATOM     45  F   UNL A   1      38.910  29.736  26.842  1.00  0.00    -0.206 F 
ATOM     46  C   UNL A   1      35.879  30.096  28.792  1.00  0.00     0.006 A 
ENDBRANCH  25  39
BRANCH  26  47
ATOM     47  C   UNL A   1      48.066  26.307  30.034  1.00  0.00     0.057 A 
ATOM     48  C   UNL A   1      48.991  26.516  29.006  1.00  0.00     0.134 A 
ATOM     49  C   UNL A   1      48.530  25.694  31.205  1.00  0.00     0.134 A 
ATOM     50  F   UNL A   1      48.605  27.084  27.854  1.00  0.00    -0.206 F 
ATOM     51  C   UNL A   1      50.326  26.125  29.135  1.00  0.00     0.040 A 
ATOM     52  C   UNL A   1      49.865  25.325  31.359  1.00  0.00     0.040 A 
ATOM     53  F   UNL A   1      47.693  25.476  32.231  1.00  0.00    -0.206 F 
ATOM     54  C   UNL A   1      50.767  25.536  30.319  1.00  0.00     0.006 A 
ENDBRANCH  26  47
BRANCH  38  55
ATOM     55  C   UNL A   1      44.643  32.117  31.723  1.00  0.00     0.057 A 
ATOM     56  C   UNL A   1      44.648  32.290  33.113  1.00  0.00     0.134 A 
ATOM     57  C   UNL A   1      45.083  33.184  30.931  1.00  0.00     0.134 A 
ATOM     58  F   UNL A   1      44.220  31.309  33.921  1.00  0.00    -0.206 F 
ATOM     59  C   UNL A   1      45.052  33.493  33.693  1.00  0.00     0.040 A 
ATOM     60  C   UNL A   1      45.511  34.383  31.502  1.00  0.00     0.040 A 
ATOM     61  F   UNL A   1      45.104  33.078  29.595  1.00  0.00    -0.206 F 
ATOM     62  C   UNL A   1      45.490  34.541  32.886  1.00  0.00     0.006 A 
ENDBRANCH  38  55
ENDBRANCH  12  13
ENDBRANCH   5   7
ENDBRANCH   2   3
ENDBRANCH   1   2
BRANCH   1  63
ATOM     63  C   UNL A   1      36.398  21.354  24.787  1.00  0.00     0.117 C 
BRANCH  63  64
ATOM     64  N   UNL A   1      35.610  21.076  25.976  1.00  0.00    -0.354 N 
ATOM     65  C   UNL A   1      34.415  21.579  26.397  1.00  0.00     0.245 C 
ATOM     66  H   UNL A   1      36.009  20.410  26.582  1.00  0.00     0.163 HD
ATOM     67  O   UNL A   1      34.017  21.175  27.495  1.00  0.00    -0.272 OA
BRANCH  65  68
ATOM     68  C   UNL A   1      33.756  22.781  25.666  1.00  0.00     0.119 C 
ATOM     69  C   UNL A   1      32.575  23.350  26.485  1.00  0.00     0.038 C 
ATOM     70  C   UNL A   1      34.913  23.834  25.652  1.00  0.00     0.038 C 
ATOM     71  C   UNL A   1      32.164  24.756  26.034  1.00  0.00     0.003 C 
ATOM     72  C   UNL A   1      34.497  25.236  25.233  1.00  0.00     0.003 C 
ATOM     73  C   UNL A   1      33.334  25.733  26.073  1.00  0.00     0.000 C 
BRANCH  68  74
ATOM     74  N   UNL A   1      33.312  22.516  24.276  1.00  0.00    -0.335 N 
ATOM     75  C   UNL A   1      32.752  21.397  23.692  1.00  0.00     0.289 C 
ATOM     76  H   UNL A   1      33.440  23.272  23.659  1.00  0.00     0.165 HD
ATOM     77  O   UNL A   1      32.288  21.542  22.559  1.00  0.00    -0.266 OA
BRANCH  75  78
ATOM     78  C   UNL A   1      32.920  20.088  24.275  1.00  0.00     0.214 A 
ATOM     79  N   UNL A   1      33.673  19.082  23.878  1.00  0.00    -0.207 NA
ATOM     80  N   UNL A   1      32.138  19.657  25.312  1.00  0.00    -0.255 N 
ATOM     81  C   UNL A   1      33.159  18.012  24.574  1.00  0.00     0.154 A 
ATOM     82  N   UNL A   1      32.142  18.315  25.391  1.00  0.00    -0.158 NA
ATOM     83  H   UNL A   1      31.639  20.249  25.919  1.00  0.00     0.192 HD
BRANCH  81  84
ATOM     84  C   UNL A   1      33.624  16.576  24.392  1.00  0.00     0.060 C 
ATOM     85  C   UNL A   1      34.623  15.992  25.368  1.00  0.00     0.012 C 
ATOM     86  C   UNL A   1      33.202  15.536  25.404  1.00  0.00     0.012 C 
ENDBRANCH  81  84
ENDBRANCH  75  78
ENDBRANCH  68  74
ENDBRANCH  65  68
ENDBRANCH  63  64
ENDBRANCH   1  63
TORSDOF 13
ENDMDL
MODEL 3
REMARK VINA RESULT:     -11.9      4.438      9.466
REMARK SMILES O=C(NCCCNC(=O)C1(NC(=O)c2nc(C3CC3)n[nH]2)CCCCC1)c1ccc(-c2c3nc(c(-c4c(F)cccc4F)c4ccc([nH]4)c(-c4c(F)cccc4F)c4nc(c(-c5c(F)cccc5F)c5ccc2[nH]5)C=C4)C=C3)cc1
REMARK SMILES IDX 5 1 4 2 3 3 1 4 2 5 27 7 28 8 80 9 29 10 79 11 30 12 31 13
REMARK SMILES IDX 32 14 73 15 33 16 78 17 72 18 74 19 34 20 77 21 71 22 70 23
REMARK SMILES IDX 35 25 61 26 44 27 60 28 45 29 48 30 59 31 75 32 46 33 47 34
REMARK SMILES IDX 58 36 76 37 49 38 36 39 37 40 42 41 38 42 39 43 41 44 43 45
REMARK SMILES IDX 40 46 62 47 63 48 68 49 64 50 65 51 67 52 69 53 66 54 50 55
REMARK SMILES IDX 51 56 56 57 52 58 53 59 55 60 57 61 54 62 6 63 7 64 8 65
REMARK SMILES IDX 9 67 10 68 22 69 26 70 23 71 25 72 24 73 11 74 12 75 13 77
REMARK SMILES IDX 14 78 15 79 21 80 16 81 20 82 17 84 18 85 19 86
REMARK H PARENT 3 6 74 24 48 35 7 66 11 76 21 83
REMARK Flexibility Score: inf
ROOT
ATOM      1  C   UNL A   1      31.515  30.778  26.882  1.00  0.00     0.042 C 
ENDROOT
BRANCH   1   2
ATOM      2  C   UNL A   1      32.729  31.696  26.952  1.00  0.00     0.118 C 
BRANCH   2   3
ATOM      3  N   UNL A   1      32.398  33.072  27.304  1.00  0.00    -0.352 N 
ATOM      4  O   UNL A   1      32.496  34.975  28.528  1.00  0.00    -0.269 OA
ATOM      5  C   UNL A   1      33.025  33.927  28.187  1.00  0.00     0.251 C 
ATOM      6  H   UNL A   1      31.612  33.445  26.845  1.00  0.00     0.163 HD
BRANCH   5   7
ATOM      7  C   UNL A   1      34.344  33.542  28.738  1.00  0.00     0.039 A 
ATOM      8  C   UNL A   1      35.501  33.875  28.039  1.00  0.00     0.014 A 
ATOM      9  C   UNL A   1      34.433  32.816  29.928  1.00  0.00     0.014 A 
ATOM     10  C   UNL A   1      36.700  33.270  28.373  1.00  0.00     0.010 A 
ATOM     11  C   UNL A   1      35.679  32.344  30.357  1.00  0.00     0.010 A 
ATOM     12  C   UNL A   1      36.817  32.524  29.556  1.00  0.00    -0.014 A 
BRANCH  12  13
ATOM     13  C   UNL A   1      38.161  32.011  29.931  1.00  0.00     0.031 A 
ATOM     14  C   UNL A   1      39.018  32.712  30.949  1.00  0.00     0.074 A 
ATOM     15  C   UNL A   1      38.569  30.844  29.391  1.00  0.00     0.049 A 
ATOM     16  N   UNL A   1      40.198  32.368  31.402  1.00  0.00    -0.248 NA
ATOM     17  C   UNL A   1      38.498  33.960  31.528  1.00  0.00     0.031 C 
ATOM     18  C   UNL A   1      37.821  30.074  28.390  1.00  0.00     0.029 A 
ATOM     19  N   UNL A   1      39.675  30.074  29.636  1.00  0.00    -0.354 N 
ATOM     20  C   UNL A   1      40.576  33.370  32.287  1.00  0.00     0.074 A 
ATOM     21  C   UNL A   1      39.505  34.343  32.302  1.00  0.00     0.031 C 
ATOM     22  C   UNL A   1      38.440  28.907  28.176  1.00  0.00     0.029 A 
ATOM     23  C   UNL A   1      39.677  28.886  28.945  1.00  0.00     0.049 A 
ATOM     24  H   UNL A   1      40.399  30.346  30.245  1.00  0.00     0.167 HD
ATOM     25  C   UNL A   1      41.714  33.466  33.017  1.00  0.00     0.037 A 
ATOM     26  C   UNL A   1      40.583  27.894  28.910  1.00  0.00     0.037 A 
ATOM     27  C   UNL A   1      42.761  32.475  33.020  1.00  0.00     0.049 A 
ATOM     28  C   UNL A   1      41.831  28.029  29.726  1.00  0.00     0.074 A 
ATOM     29  C   UNL A   1      43.942  32.470  33.742  1.00  0.00     0.029 A 
ATOM     30  N   UNL A   1      42.748  31.309  32.269  1.00  0.00    -0.354 N 
ATOM     31  N   UNL A   1      42.174  28.990  30.549  1.00  0.00    -0.248 NA
ATOM     32  C   UNL A   1      42.823  26.957  29.595  1.00  0.00     0.031 C 
ATOM     33  C   UNL A   1      44.661  31.319  33.401  1.00  0.00     0.029 A 
ATOM     34  C   UNL A   1      43.909  30.587  32.497  1.00  0.00     0.049 A 
ATOM     35  H   UNL A   1      42.022  31.035  31.664  1.00  0.00     0.167 HD
ATOM     36  C   UNL A   1      43.426  28.641  31.033  1.00  0.00     0.074 A 
ATOM     37  C   UNL A   1      43.764  27.364  30.436  1.00  0.00     0.031 C 
ATOM     38  C   UNL A   1      44.228  29.322  31.886  1.00  0.00     0.037 A 
BRANCH  25  39
ATOM     39  C   UNL A   1      41.904  34.696  33.857  1.00  0.00     0.057 A 
ATOM     40  C   UNL A   1      41.496  34.754  35.195  1.00  0.00     0.134 A 
ATOM     41  C   UNL A   1      42.555  35.821  33.331  1.00  0.00     0.134 A 
ATOM     42  F   UNL A   1      40.856  33.718  35.756  1.00  0.00    -0.206 F 
ATOM     43  C   UNL A   1      41.715  35.892  35.975  1.00  0.00     0.040 A 
ATOM     44  C   UNL A   1      42.799  36.955  34.108  1.00  0.00     0.040 A 
ATOM     45  F   UNL A   1      42.977  35.829  32.058  1.00  0.00    -0.206 F 
ATOM     46  C   UNL A   1      42.374  36.994  35.434  1.00  0.00     0.006 A 
ENDBRANCH  25  39
BRANCH  26  47
ATOM     47  C   UNL A   1      40.345  26.710  28.048  1.00  0.00     0.057 A 
ATOM     48  C   UNL A   1      40.939  26.599  26.787  1.00  0.00     0.134 A 
ATOM     49  C   UNL A   1      39.543  25.646  28.480  1.00  0.00     0.134 A 
ATOM     50  F   UNL A   1      41.705  27.592  26.311  1.00  0.00    -0.206 F 
ATOM     51  C   UNL A   1      40.739  25.475  25.983  1.00  0.00     0.040 A 
ATOM     52  C   UNL A   1      39.358  24.505  27.701  1.00  0.00     0.040 A 
ATOM     53  F   UNL A   1      38.954  25.688  29.685  1.00  0.00    -0.206 F 
ATOM     54  C   UNL A   1      39.954  24.420  26.444  1.00  0.00     0.006 A 
ENDBRANCH  26  47
BRANCH  38  55
ATOM     55  C   UNL A   1      45.540  28.685  32.224  1.00  0.00     0.057 A 
ATOM     56  C   UNL A   1      46.697  28.953  31.482  1.00  0.00     0.134 A 
ATOM     57  C   UNL A   1      45.648  27.801  33.305  1.00  0.00     0.134 A 
ATOM     58  F   UNL A   1      46.652  29.777  30.425  1.00  0.00    -0.206 F 
ATOM     59  C   UNL A   1      47.915  28.344  31.790  1.00  0.00     0.040 A 
ATOM     60  C   UNL A   1      46.865  27.204  33.636  1.00  0.00     0.040 A 
ATOM     61  F   UNL A   1      44.576  27.507  34.054  1.00  0.00    -0.206 F 
ATOM     62  C   UNL A   1      48.000  27.471  32.873  1.00  0.00     0.006 A 
ENDBRANCH  38  55
ENDBRANCH  12  13
ENDBRANCH   5   7
ENDBRANCH   2   3
ENDBRANCH   1   2
BRANCH   1  63
ATOM     63  C   UNL A   1      31.814  29.491  26.145  1.00  0.00     0.117 C 
BRANCH  63  64
ATOM     64  N   UNL A   1      32.437  29.740  24.856  1.00  0.00    -0.354 N 
ATOM     65  C   UNL A   1      32.780  28.890  23.848  1.00  0.00     0.245 C 
ATOM     66  H   UNL A   1      32.646  30.686  24.683  1.00  0.00     0.163 HD
ATOM     67  O   UNL A   1      33.348  29.405  22.878  1.00  0.00    -0.272 OA
BRANCH  65  68
ATOM     68  C   UNL A   1      32.705  27.351  24.044  1.00  0.00     0.119 C 
ATOM     69  C   UNL A   1      33.366  26.607  22.861  1.00  0.00     0.038 C 
ATOM     70  C   UNL A   1      33.579  27.139  25.324  1.00  0.00     0.038 C 
ATOM     71  C   UNL A   1      33.690  25.145  23.187  1.00  0.00     0.003 C 
ATOM     72  C   UNL A   1      33.925  25.689  25.629  1.00  0.00     0.003 C 
ATOM     73  C   UNL A   1      34.567  25.017  24.428  1.00  0.00     0.000 C 
BRANCH  68  74
ATOM     74  N   UNL A   1      31.346  26.803  24.276  1.00  0.00    -0.335 N 
ATOM     75  C   UNL A   1      30.120  27.141  23.741  1.00  0.00     0.289 C 
ATOM     76  H   UNL A   1      31.313  26.068  24.930  1.00  0.00     0.165 HD
ATOM     77  O   UNL A   1      29.188  26.366  23.967  1.00  0.00    -0.266 OA
BRANCH  75  78
ATOM     78  C   UNL A   1      29.892  28.442  23.161  1.00  0.00     0.214 A 
ATOM     79  N   UNL A   1      29.184  29.454  23.621  1.00  0.00    -0.207 NA
ATOM     80  N   UNL A   1      30.300  28.745  21.890  1.00  0.00    -0.255 N 
ATOM     81  C   UNL A   1      29.025  30.255  22.513  1.00  0.00     0.154 A 
ATOM     82  N   UNL A   1      29.614  29.793  21.403  1.00  0.00    -0.158 NA
ATOM     83  H   UNL A   1      31.001  28.261  21.399  1.00  0.00     0.192 HD
BRANCH  81  84
ATOM     84  C   UNL A   1      28.184  31.521  22.492  1.00  0.00     0.060 C 
ATOM     85  C   UNL A   1      28.848  32.856  22.747  1.00  0.00     0.012 C 
ATOM     86  C   UNL A   1      28.383  32.514  21.370  1.00  0.00     0.012 C 
ENDBRANCH  81  84
ENDBRANCH  75  78
ENDBRANCH  68  74
ENDBRANCH  65  68
ENDBRANCH  63  64
ENDBRANCH   1  63
TORSDOF 13
ENDMDL
