MODEL 1
REMARK VINA RESULT:     -11.4      0.000      0.000
REMARK SMILES COc1c(N)cc(-c2ccccc2)cc1C(=O)NCCCNC(=O)c1ccc(-c2c3nc(c(-c4c(F)cccc4F)c4ccc([nH]4)c(-c4c(F)cccc4F)c4nc(c(-c5c(F)cccc5F)c5ccc2[nH]5)C=C4)C=C3)cc1
REMARK SMILES IDX 20 1 19 2 18 3 16 4 17 5 15 7 3 8 4 9 6 10 14 11 7 12 2 13
REMARK SMILES IDX 1 14 5 15 8 18 9 19 13 20 10 21 12 22 11 23 21 24 22 25
REMARK SMILES IDX 23 26 24 28 25 29 26 30 78 31 27 32 77 33 28 34 29 35 30 36
REMARK SMILES IDX 71 37 31 38 76 39 70 40 72 41 32 42 75 43 69 44 68 45 33 47
REMARK SMILES IDX 59 48 42 49 58 50 43 51 46 52 57 53 73 54 44 55 45 56 56 58
REMARK SMILES IDX 74 59 47 60 34 61 35 62 40 63 36 64 37 65 39 66 41 67 38 68
REMARK SMILES IDX 60 69 61 70 66 71 62 72 63 73 65 74 67 75 64 76 48 77 49 78
REMARK SMILES IDX 54 79 50 80 51 81 53 82 55 83 52 84
REMARK H PARENT 18 6 5 16 5 17 22 27 72 46 46 57
REMARK Flexibility Score: inf
ROOT
ATOM      1  C   UNL A   1      33.021  27.923  25.921  1.00  0.00     0.042 C 
ENDROOT
BRANCH   1   2
ATOM      2  C   UNL A   1      31.552  27.510  26.028  1.00  0.00     0.118 C 
BRANCH   2   3
ATOM      3  N   UNL A   1      31.443  26.255  26.747  1.00  0.00    -0.352 N 
ATOM      4  C   UNL A   1      31.755  24.959  26.432  1.00  0.00     0.255 C 
ATOM      5  O   UNL A   1      31.392  24.110  27.251  1.00  0.00    -0.269 OA
ATOM      6  H   UNL A   1      31.065  26.355  27.651  1.00  0.00     0.163 HD
BRANCH   4   7
ATOM      7  C   UNL A   1      32.561  24.508  25.258  1.00  0.00     0.084 A 
ATOM      8  C   UNL A   1      32.164  24.390  23.921  1.00  0.00     0.154 A 
ATOM      9  C   UNL A   1      33.097  24.026  22.921  1.00  0.00     0.076 A 
ATOM     10  C   UNL A   1      34.355  23.556  23.303  1.00  0.00     0.038 A 
ATOM     11  C   UNL A   1      33.860  24.066  25.595  1.00  0.00     0.026 A 
ATOM     12  C   UNL A   1      34.751  23.544  24.645  1.00  0.00    -0.015 A 
BRANCH   8  13
ATOM     13  O   UNL A   1      30.871  24.619  23.516  1.00  0.00    -0.494 OA
ATOM     14  C   UNL A   1      30.707  25.987  23.122  1.00  0.00     0.278 C 
ENDBRANCH   8  13
BRANCH   9  15
ATOM     15  N   UNL A   1      32.729  23.966  21.575  1.00  0.00    -0.396 N 
ATOM     16  H   UNL A   1      32.106  23.269  21.265  1.00  0.00     0.156 HD
ATOM     17  H   UNL A   1      33.092  24.620  20.935  1.00  0.00     0.156 HD
ENDBRANCH   9  15
BRANCH  12  18
ATOM     18  C   UNL A   1      36.042  22.962  25.049  1.00  0.00    -0.018 A 
ATOM     19  C   UNL A   1      36.979  23.703  25.786  1.00  0.00     0.009 A 
ATOM     20  C   UNL A   1      36.387  21.652  24.671  1.00  0.00     0.009 A 
ATOM     21  C   UNL A   1      38.220  23.158  26.127  1.00  0.00     0.001 A 
ATOM     22  C   UNL A   1      37.627  21.106  25.010  1.00  0.00     0.001 A 
ATOM     23  C   UNL A   1      38.545  21.860  25.736  1.00  0.00     0.000 A 
ENDBRANCH  12  18
ENDBRANCH   4   7
ENDBRANCH   2   3
ENDBRANCH   1   2
BRANCH   1  24
ATOM     24  C   UNL A   1      33.677  28.238  27.261  1.00  0.00     0.118 C 
BRANCH  24  25
ATOM     25  N   UNL A   1      33.645  29.660  27.562  1.00  0.00    -0.352 N 
ATOM     26  C   UNL A   1      34.605  30.462  28.123  1.00  0.00     0.251 C 
ATOM     27  H   UNL A   1      32.805  30.116  27.327  1.00  0.00     0.163 HD
ATOM     28  O   UNL A   1      34.294  31.589  28.510  1.00  0.00    -0.269 OA
BRANCH  26  29
ATOM     29  C   UNL A   1      36.008  30.005  28.279  1.00  0.00     0.039 A 
ATOM     30  C   UNL A   1      36.413  29.507  29.523  1.00  0.00     0.014 A 
ATOM     31  C   UNL A   1      36.947  30.137  27.251  1.00  0.00     0.014 A 
ATOM     32  C   UNL A   1      37.741  29.115  29.726  1.00  0.00     0.010 A 
ATOM     33  C   UNL A   1      38.256  29.687  27.435  1.00  0.00     0.010 A 
ATOM     34  C   UNL A   1      38.671  29.188  28.679  1.00  0.00    -0.014 A 
BRANCH  34  35
ATOM     35  C   UNL A   1      40.087  28.784  28.879  1.00  0.00     0.031 A 
ATOM     36  C   UNL A   1      41.076  29.756  29.464  1.00  0.00     0.074 A 
ATOM     37  C   UNL A   1      40.500  27.561  28.492  1.00  0.00     0.049 A 
ATOM     38  N   UNL A   1      42.366  29.619  29.643  1.00  0.00    -0.248 NA
ATOM     39  C   UNL A   1      40.548  31.064  29.881  1.00  0.00     0.031 C 
ATOM     40  C   UNL A   1      39.653  26.537  27.880  1.00  0.00     0.029 A 
ATOM     41  N   UNL A   1      41.742  26.980  28.545  1.00  0.00    -0.354 N 
ATOM     42  C   UNL A   1      42.805  30.828  30.169  1.00  0.00     0.074 A 
ATOM     43  C   UNL A   1      41.653  31.698  30.249  1.00  0.00     0.031 C 
ATOM     44  C   UNL A   1      40.396  25.446  27.629  1.00  0.00     0.029 A 
ATOM     45  C   UNL A   1      41.776  25.706  28.033  1.00  0.00     0.049 A 
ATOM     46  H   UNL A   1      42.534  27.432  28.915  1.00  0.00     0.167 HD
ATOM     47  C   UNL A   1      44.053  31.177  30.565  1.00  0.00     0.037 A 
ATOM     48  C   UNL A   1      42.802  24.846  27.898  1.00  0.00     0.037 A 
ATOM     49  C   UNL A   1      45.195  30.301  30.526  1.00  0.00     0.049 A 
ATOM     50  C   UNL A   1      44.173  25.248  28.365  1.00  0.00     0.074 A 
ATOM     51  C   UNL A   1      46.486  30.546  30.961  1.00  0.00     0.029 A 
ATOM     52  N   UNL A   1      45.180  29.008  30.027  1.00  0.00    -0.354 N 
ATOM     53  N   UNL A   1      44.564  26.378  28.901  1.00  0.00    -0.248 NA
ATOM     54  C   UNL A   1      45.244  24.253  28.212  1.00  0.00     0.031 C 
ATOM     55  C   UNL A   1      47.258  29.408  30.702  1.00  0.00     0.029 A 
ATOM     56  C   UNL A   1      46.440  28.446  30.133  1.00  0.00     0.049 A 
ATOM     57  H   UNL A   1      44.389  28.557  29.652  1.00  0.00     0.167 HD
ATOM     58  C   UNL A   1      45.916  26.223  29.169  1.00  0.00     0.074 A 
ATOM     59  C   UNL A   1      46.278  24.886  28.748  1.00  0.00     0.031 C 
ATOM     60  C   UNL A   1      46.782  27.111  29.717  1.00  0.00     0.037 A 
BRANCH  47  61
ATOM     61  C   UNL A   1      44.247  32.572  31.082  1.00  0.00     0.057 A 
ATOM     62  C   UNL A   1      44.568  33.635  30.228  1.00  0.00     0.134 A 
ATOM     63  C   UNL A   1      44.080  32.860  32.442  1.00  0.00     0.134 A 
ATOM     64  F   UNL A   1      44.753  33.422  28.917  1.00  0.00    -0.206 F 
ATOM     65  C   UNL A   1      44.742  34.932  30.713  1.00  0.00     0.040 A 
ATOM     66  C   UNL A   1      44.229  34.158  32.935  1.00  0.00     0.040 A 
ATOM     67  F   UNL A   1      43.766  31.888  33.311  1.00  0.00    -0.206 F 
ATOM     68  C   UNL A   1      44.566  35.197  32.071  1.00  0.00     0.006 A 
ENDBRANCH  47  61
BRANCH  48  69
ATOM     69  C   UNL A   1      42.569  23.503  27.313  1.00  0.00     0.057 A 
ATOM     70  C   UNL A   1      42.241  22.412  28.127  1.00  0.00     0.134 A 
ATOM     71  C   UNL A   1      42.666  23.278  25.936  1.00  0.00     0.134 A 
ATOM     72  F   UNL A   1      42.154  22.565  29.457  1.00  0.00    -0.206 F 
ATOM     73  C   UNL A   1      42.030  21.141  27.592  1.00  0.00     0.040 A 
ATOM     74  C   UNL A   1      42.438  22.016  25.386  1.00  0.00     0.040 A 
ATOM     75  F   UNL A   1      42.972  24.285  25.105  1.00  0.00    -0.206 F 
ATOM     76  C   UNL A   1      42.124  20.941  26.216  1.00  0.00     0.006 A 
ENDBRANCH  48  69
BRANCH  60  77
ATOM     77  C   UNL A   1      48.195  26.654  29.916  1.00  0.00     0.057 A 
ATOM     78  C   UNL A   1      48.587  25.952  31.062  1.00  0.00     0.134 A 
ATOM     79  C   UNL A   1      49.166  26.890  28.935  1.00  0.00     0.134 A 
ATOM     80  F   UNL A   1      47.706  25.706  32.043  1.00  0.00    -0.206 F 
ATOM     81  C   UNL A   1      49.901  25.513  31.232  1.00  0.00     0.040 A 
ATOM     82  C   UNL A   1      50.478  26.440  29.085  1.00  0.00     0.040 A 
ATOM     83  F   UNL A   1      48.851  27.553  27.812  1.00  0.00    -0.206 F 
ATOM     84  C   UNL A   1      50.849  25.753  30.239  1.00  0.00     0.006 A 
ENDBRANCH  60  77
ENDBRANCH  34  35
ENDBRANCH  26  29
ENDBRANCH  24  25
ENDBRANCH   1  24
TORSDOF 13
ENDMDL
MODEL 2
REMARK VINA RESULT:     -11.4      0.938      1.992
REMARK SMILES COc1c(N)cc(-c2ccccc2)cc1C(=O)NCCCNC(=O)c1ccc(-c2c3nc(c(-c4c(F)cccc4F)c4ccc([nH]4)c(-c4c(F)cccc4F)c4nc(c(-c5c(F)cccc5F)c5ccc2[nH]5)C=C4)C=C3)cc1
REMARK SMILES IDX 20 1 19 2 18 3 16 4 17 5 15 7 3 8 4 9 6 10 14 11 7 12 2 13
REMARK SMILES IDX 1 14 5 15 8 18 9 19 13 20 10 21 12 22 11 23 21 24 22 25
REMARK SMILES IDX 23 26 24 28 25 29 26 30 78 31 27 32 77 33 28 34 29 35 30 36
REMARK SMILES IDX 71 37 31 38 76 39 70 40 72 41 32 42 75 43 69 44 68 45 33 47
REMARK SMILES IDX 59 48 42 49 58 50 43 51 46 52 57 53 73 54 44 55 45 56 56 58
REMARK SMILES IDX 74 59 47 60 34 61 35 62 40 63 36 64 37 65 39 66 41 67 38 68
REMARK SMILES IDX 60 69 61 70 66 71 62 72 63 73 65 74 67 75 64 76 48 77 49 78
REMARK SMILES IDX 54 79 50 80 51 81 53 82 55 83 52 84
REMARK H PARENT 18 6 5 16 5 17 22 27 72 46 46 57
REMARK Flexibility Score: inf
ROOT
ATOM      1  C   UNL A   1      34.101  28.507  25.745  1.00  0.00     0.042 C 
ENDROOT
BRANCH   1   2
ATOM      2  C   UNL A   1      33.018  28.967  24.767  1.00  0.00     0.118 C 
BRANCH   2   3
ATOM      3  N   UNL A   1      33.079  28.175  23.554  1.00  0.00    -0.352 N 
ATOM      4  C   UNL A   1      33.273  26.842  23.309  1.00  0.00     0.255 C 
ATOM      5  O   UNL A   1      33.406  26.533  22.121  1.00  0.00    -0.269 OA
ATOM      6  H   UNL A   1      32.956  28.707  22.734  1.00  0.00     0.163 HD
BRANCH   4   7
ATOM      7  C   UNL A   1      33.242  25.747  24.323  1.00  0.00     0.084 A 
ATOM      8  C   UNL A   1      32.267  25.481  25.292  1.00  0.00     0.154 A 
ATOM      9  C   UNL A   1      32.364  24.336  26.118  1.00  0.00     0.076 A 
ATOM     10  C   UNL A   1      33.551  23.602  26.127  1.00  0.00     0.038 A 
ATOM     11  C   UNL A   1      34.408  24.949  24.335  1.00  0.00     0.026 A 
ATOM     12  C   UNL A   1      34.602  23.907  25.255  1.00  0.00    -0.015 A 
BRANCH   8  13
ATOM     13  O   UNL A   1      31.184  26.303  25.487  1.00  0.00    -0.494 OA
ATOM     14  C   UNL A   1      30.162  26.018  24.522  1.00  0.00     0.278 C 
ENDBRANCH   8  13
BRANCH   9  15
ATOM     15  N   UNL A   1      31.366  24.026  27.045  1.00  0.00    -0.396 N 
ATOM     16  H   UNL A   1      30.979  23.120  27.068  1.00  0.00     0.156 HD
ATOM     17  H   UNL A   1      31.047  24.712  27.674  1.00  0.00     0.156 HD
ENDBRANCH   9  15
BRANCH  12  18
ATOM     18  C   UNL A   1      35.885  23.188  25.334  1.00  0.00    -0.018 A 
ATOM     19  C   UNL A   1      36.014  21.871  24.865  1.00  0.00     0.009 A 
ATOM     20  C   UNL A   1      37.011  23.792  25.919  1.00  0.00     0.009 A 
ATOM     21  C   UNL A   1      37.223  21.180  24.983  1.00  0.00     0.001 A 
ATOM     22  C   UNL A   1      38.220  23.104  26.040  1.00  0.00     0.001 A 
ATOM     23  C   UNL A   1      38.325  21.796  25.573  1.00  0.00     0.000 A 
ENDBRANCH  12  18
ENDBRANCH   4   7
ENDBRANCH   2   3
ENDBRANCH   1   2
BRANCH   1  24
ATOM     24  C   UNL A   1      33.700  28.615  27.212  1.00  0.00     0.118 C 
BRANCH  24  25
ATOM     25  N   UNL A   1      33.683  29.994  27.671  1.00  0.00    -0.352 N 
ATOM     26  C   UNL A   1      34.638  30.707  28.351  1.00  0.00     0.251 C 
ATOM     27  H   UNL A   1      32.861  30.492  27.463  1.00  0.00     0.163 HD
ATOM     28  O   UNL A   1      34.334  31.788  28.853  1.00  0.00    -0.269 OA
BRANCH  26  29
ATOM     29  C   UNL A   1      36.027  30.204  28.498  1.00  0.00     0.039 A 
ATOM     30  C   UNL A   1      36.426  29.703  29.743  1.00  0.00     0.014 A 
ATOM     31  C   UNL A   1      36.961  30.297  27.462  1.00  0.00     0.014 A 
ATOM     32  C   UNL A   1      37.742  29.268  29.938  1.00  0.00     0.010 A 
ATOM     33  C   UNL A   1      38.255  29.805  27.638  1.00  0.00     0.010 A 
ATOM     34  C   UNL A   1      38.664  29.302  28.882  1.00  0.00    -0.014 A 
BRANCH  34  35
ATOM     35  C   UNL A   1      40.068  28.853  29.073  1.00  0.00     0.031 A 
ATOM     36  C   UNL A   1      41.087  29.787  29.669  1.00  0.00     0.074 A 
ATOM     37  C   UNL A   1      40.443  27.624  28.668  1.00  0.00     0.049 A 
ATOM     38  N   UNL A   1      42.372  29.608  29.844  1.00  0.00    -0.248 NA
ATOM     39  C   UNL A   1      40.599  31.103  30.107  1.00  0.00     0.031 C 
ATOM     40  C   UNL A   1      39.564  26.634  28.044  1.00  0.00     0.029 A 
ATOM     41  N   UNL A   1      41.667  27.005  28.711  1.00  0.00    -0.354 N 
ATOM     42  C   UNL A   1      42.849  30.795  30.386  1.00  0.00     0.074 A 
ATOM     43  C   UNL A   1      41.723  31.699  30.480  1.00  0.00     0.031 C 
ATOM     44  C   UNL A   1      40.275  25.525  27.776  1.00  0.00     0.029 A 
ATOM     45  C   UNL A   1      41.662  25.738  28.181  1.00  0.00     0.049 A 
ATOM     46  H   UNL A   1      42.473  27.428  29.085  1.00  0.00     0.167 HD
ATOM     47  C   UNL A   1      44.107  31.101  30.785  1.00  0.00     0.037 A 
ATOM     48  C   UNL A   1      42.662  24.849  28.031  1.00  0.00     0.037 A 
ATOM     49  C   UNL A   1      45.222  30.192  30.730  1.00  0.00     0.049 A 
ATOM     50  C   UNL A   1      44.045  25.204  28.500  1.00  0.00     0.074 A 
ATOM     51  C   UNL A   1      46.521  30.392  31.166  1.00  0.00     0.029 A 
ATOM     52  N   UNL A   1      45.167  28.907  30.213  1.00  0.00    -0.354 N 
ATOM     53  N   UNL A   1      44.470  26.314  29.052  1.00  0.00    -0.248 NA
ATOM     54  C   UNL A   1      45.085  24.178  28.331  1.00  0.00     0.031 C 
ATOM     55  C   UNL A   1      47.258  29.235  30.889  1.00  0.00     0.029 A 
ATOM     56  C   UNL A   1      46.410  28.306  30.309  1.00  0.00     0.049 A 
ATOM     57  H   UNL A   1      44.362  28.485  29.834  1.00  0.00     0.167 HD
ATOM     58  C   UNL A   1      45.818  26.114  29.315  1.00  0.00     0.074 A 
ATOM     59  C   UNL A   1      46.139  24.772  28.873  1.00  0.00     0.031 C 
ATOM     60  C   UNL A   1      46.711  26.967  29.873  1.00  0.00     0.037 A 
BRANCH  47  61
ATOM     61  C   UNL A   1      44.344  32.482  31.320  1.00  0.00     0.057 A 
ATOM     62  C   UNL A   1      44.231  32.772  32.686  1.00  0.00     0.134 A 
ATOM     63  C   UNL A   1      44.719  33.526  30.465  1.00  0.00     0.134 A 
ATOM     64  F   UNL A   1      43.864  31.818  33.555  1.00  0.00    -0.206 F 
ATOM     65  C   UNL A   1      44.458  34.058  33.180  1.00  0.00     0.040 A 
ATOM     66  C   UNL A   1      44.970  34.811  30.950  1.00  0.00     0.040 A 
ATOM     67  F   UNL A   1      44.851  33.313  29.147  1.00  0.00    -0.206 F 
ATOM     68  C   UNL A   1      44.834  35.080  32.310  1.00  0.00     0.006 A 
ENDBRANCH  47  61
BRANCH  48  69
ATOM     69  C   UNL A   1      42.387  23.522  27.428  1.00  0.00     0.057 A 
ATOM     70  C   UNL A   1      42.025  22.431  28.227  1.00  0.00     0.134 A 
ATOM     71  C   UNL A   1      42.477  23.313  26.047  1.00  0.00     0.134 A 
ATOM     72  F   UNL A   1      41.943  22.568  29.558  1.00  0.00    -0.206 F 
ATOM     73  C   UNL A   1      41.775  21.174  27.674  1.00  0.00     0.040 A 
ATOM     74  C   UNL A   1      42.210  22.067  25.480  1.00  0.00     0.040 A 
ATOM     75  F   UNL A   1      42.815  24.322  25.230  1.00  0.00    -0.206 F 
ATOM     76  C   UNL A   1      41.863  20.991  26.296  1.00  0.00     0.006 A 
ENDBRANCH  48  69
BRANCH  60  77
ATOM     77  C   UNL A   1      48.110  26.465  30.062  1.00  0.00     0.057 A 
ATOM     78  C   UNL A   1      49.095  26.643  29.084  1.00  0.00     0.134 A 
ATOM     79  C   UNL A   1      48.483  25.825  31.251  1.00  0.00     0.134 A 
ATOM     80  F   UNL A   1      48.796  27.237  27.919  1.00  0.00    -0.206 F 
ATOM     81  C   UNL A   1      50.401  26.189  29.275  1.00  0.00     0.040 A 
ATOM     82  C   UNL A   1      49.790  25.383  31.461  1.00  0.00     0.040 A 
ATOM     83  F   UNL A   1      47.585  25.628  32.228  1.00  0.00    -0.206 F 
ATOM     84  C   UNL A   1      50.752  25.561  30.468  1.00  0.00     0.006 A 
ENDBRANCH  60  77
ENDBRANCH  34  35
ENDBRANCH  26  29
ENDBRANCH  24  25
ENDBRANCH   1  24
TORSDOF 13
ENDMDL
MODEL 3
REMARK VINA RESULT:     -11.4      2.059      2.744
REMARK SMILES COc1c(N)cc(-c2ccccc2)cc1C(=O)NCCCNC(=O)c1ccc(-c2c3nc(c(-c4c(F)cccc4F)c4ccc([nH]4)c(-c4c(F)cccc4F)c4nc(c(-c5c(F)cccc5F)c5ccc2[nH]5)C=C4)C=C3)cc1
REMARK SMILES IDX 20 1 19 2 18 3 16 4 17 5 15 7 3 8 4 9 6 10 14 11 7 12 2 13
REMARK SMILES IDX 1 14 5 15 8 18 9 19 13 20 10 21 12 22 11 23 21 24 22 25
REMARK SMILES IDX 23 26 24 28 25 29 26 30 78 31 27 32 77 33 28 34 29 35 30 36
REMARK SMILES IDX 71 37 31 38 76 39 70 40 72 41 32 42 75 43 69 44 68 45 33 47
REMARK SMILES IDX 59 48 42 49 58 50 43 51 46 52 57 53 73 54 44 55 45 56 56 58
REMARK SMILES IDX 74 59 47 60 34 61 35 62 40 63 36 64 37 65 39 66 41 67 38 68
REMARK SMILES IDX 60 69 61 70 66 71 62 72 63 73 65 74 67 75 64 76 48 77 49 78
REMARK SMILES IDX 54 79 50 80 51 81 53 82 55 83 52 84
REMARK H PARENT 18 6 5 16 5 17 22 27 72 46 46 57
REMARK Flexibility Score: inf
ROOT
ATOM      1  C   UNL A   1      33.215  28.059  26.888  1.00  0.00     0.042 C 
ENDROOT
BRANCH   1   2
ATOM      2  C   UNL A   1      31.888  27.540  26.330  1.00  0.00     0.118 C 
BRANCH   2   3
ATOM      3  N   UNL A   1      31.584  26.244  26.905  1.00  0.00    -0.352 N 
ATOM      4  C   UNL A   1      31.767  24.957  26.475  1.00  0.00     0.255 C 
ATOM      5  O   UNL A   1      31.250  24.083  27.176  1.00  0.00    -0.269 OA
ATOM      6  H   UNL A   1      31.155  26.301  27.790  1.00  0.00     0.163 HD
BRANCH   4   7
ATOM      7  C   UNL A   1      32.598  24.527  25.311  1.00  0.00     0.084 A 
ATOM      8  C   UNL A   1      32.220  24.396  23.969  1.00  0.00     0.154 A 
ATOM      9  C   UNL A   1      33.174  24.057  22.981  1.00  0.00     0.076 A 
ATOM     10  C   UNL A   1      34.441  23.624  23.378  1.00  0.00     0.038 A 
ATOM     11  C   UNL A   1      33.906  24.124  25.663  1.00  0.00     0.026 A 
ATOM     12  C   UNL A   1      34.822  23.627  24.723  1.00  0.00    -0.015 A 
BRANCH   8  13
ATOM     13  O   UNL A   1      30.925  24.585  23.551  1.00  0.00    -0.494 OA
ATOM     14  C   UNL A   1      30.701  25.965  23.236  1.00  0.00     0.278 C 
ENDBRANCH   8  13
BRANCH   9  15
ATOM     15  N   UNL A   1      32.822  23.984  21.631  1.00  0.00    -0.396 N 
ATOM     16  H   UNL A   1      33.406  24.385  20.947  1.00  0.00     0.156 HD
ATOM     17  H   UNL A   1      31.989  23.532  21.362  1.00  0.00     0.156 HD
ENDBRANCH   9  15
BRANCH  12  18
ATOM     18  C   UNL A   1      36.125  23.084  25.142  1.00  0.00    -0.018 A 
ATOM     19  C   UNL A   1      37.038  23.858  25.876  1.00  0.00     0.009 A 
ATOM     20  C   UNL A   1      36.507  21.779  24.783  1.00  0.00     0.009 A 
ATOM     21  C   UNL A   1      38.291  23.350  26.231  1.00  0.00     0.001 A 
ATOM     22  C   UNL A   1      37.758  21.270  25.136  1.00  0.00     0.001 A 
ATOM     23  C   UNL A   1      38.651  22.056  25.859  1.00  0.00     0.000 A 
ENDBRANCH  12  18
ENDBRANCH   4   7
ENDBRANCH   2   3
ENDBRANCH   1   2
BRANCH   1  24
ATOM     24  C   UNL A   1      33.864  29.146  26.039  1.00  0.00     0.118 C 
BRANCH  24  25
ATOM     25  N   UNL A   1      33.740  30.459  26.648  1.00  0.00    -0.352 N 
ATOM     26  C   UNL A   1      34.462  31.029  27.666  1.00  0.00     0.251 C 
ATOM     27  H   UNL A   1      33.030  31.027  26.273  1.00  0.00     0.163 HD
ATOM     28  O   UNL A   1      34.045  32.060  28.193  1.00  0.00    -0.269 OA
BRANCH  26  29
ATOM     29  C   UNL A   1      35.730  30.430  28.151  1.00  0.00     0.039 A 
ATOM     30  C   UNL A   1      35.702  29.669  29.326  1.00  0.00     0.014 A 
ATOM     31  C   UNL A   1      36.952  30.674  27.518  1.00  0.00     0.014 A 
ATOM     32  C   UNL A   1      36.885  29.131  29.845  1.00  0.00     0.010 A 
ATOM     33  C   UNL A   1      38.123  30.086  28.002  1.00  0.00     0.010 A 
ATOM     34  C   UNL A   1      38.104  29.323  29.178  1.00  0.00    -0.014 A 
BRANCH  34  35
ATOM     35  C   UNL A   1      39.371  28.766  29.719  1.00  0.00     0.031 A 
ATOM     36  C   UNL A   1      40.008  29.380  30.938  1.00  0.00     0.074 A 
ATOM     37  C   UNL A   1      39.979  27.741  29.091  1.00  0.00     0.049 A 
ATOM     38  N   UNL A   1      41.147  29.088  31.513  1.00  0.00    -0.248 NA
ATOM     39  C   UNL A   1      39.276  30.481  31.581  1.00  0.00     0.031 C 
ATOM     40  C   UNL A   1      39.487  27.078  27.884  1.00  0.00     0.029 A 
ATOM     41  N   UNL A   1      41.150  27.087  29.379  1.00  0.00    -0.354 N 
ATOM     42  C   UNL A   1      41.280  29.984  32.566  1.00  0.00     0.074 A 
ATOM     43  C   UNL A   1      40.123  30.851  32.531  1.00  0.00     0.031 C 
ATOM     44  C   UNL A   1      40.343  26.100  27.541  1.00  0.00     0.029 A 
ATOM     45  C   UNL A   1      41.457  26.088  28.487  1.00  0.00     0.049 A 
ATOM     46  H   UNL A   1      41.719  27.311  30.151  1.00  0.00     0.167 HD
ATOM     47  C   UNL A   1      42.268  30.068  33.489  1.00  0.00     0.037 A 
ATOM     48  C   UNL A   1      42.516  25.260  28.431  1.00  0.00     0.037 A 
ATOM     49  C   UNL A   1      43.401  29.182  33.552  1.00  0.00     0.049 A 
ATOM     50  C   UNL A   1      43.589  25.358  29.479  1.00  0.00     0.074 A 
ATOM     51  C   UNL A   1      44.422  29.152  34.487  1.00  0.00     0.029 A 
ATOM     52  N   UNL A   1      43.658  28.165  32.647  1.00  0.00    -0.354 N 
ATOM     53  N   UNL A   1      43.678  26.182  30.495  1.00  0.00    -0.248 NA
ATOM     54  C   UNL A   1      44.706  24.408  29.376  1.00  0.00     0.031 C 
ATOM     55  C   UNL A   1      45.311  28.131  34.131  1.00  0.00     0.029 A 
ATOM     56  C   UNL A   1      44.826  27.508  32.993  1.00  0.00     0.049 A 
ATOM     57  H   UNL A   1      43.092  27.943  31.872  1.00  0.00     0.167 HD
ATOM     58  C   UNL A   1      44.845  25.836  31.163  1.00  0.00     0.074 A 
ATOM     59  C   UNL A   1      45.426  24.721  30.444  1.00  0.00     0.031 C 
ATOM     60  C   UNL A   1      45.386  26.394  32.273  1.00  0.00     0.037 A 
BRANCH  47  61
ATOM     61  C   UNL A   1      42.164  31.160  34.513  1.00  0.00     0.057 A 
ATOM     62  C   UNL A   1      42.752  32.415  34.313  1.00  0.00     0.134 A 
ATOM     63  C   UNL A   1      41.442  30.963  35.697  1.00  0.00     0.134 A 
ATOM     64  F   UNL A   1      43.467  32.662  33.205  1.00  0.00    -0.206 F 
ATOM     65  C   UNL A   1      42.648  33.429  35.266  1.00  0.00     0.040 A 
ATOM     66  C   UNL A   1      41.311  31.978  36.647  1.00  0.00     0.040 A 
ATOM     67  F   UNL A   1      40.849  29.786  35.946  1.00  0.00    -0.206 F 
ATOM     68  C   UNL A   1      41.920  33.213  36.435  1.00  0.00     0.006 A 
ENDBRANCH  47  61
BRANCH  48  69
ATOM     69  C   UNL A   1      42.605  24.245  27.354  1.00  0.00     0.057 A 
ATOM     70  C   UNL A   1      43.171  24.562  26.113  1.00  0.00     0.134 A 
ATOM     71  C   UNL A   1      42.131  22.941  27.535  1.00  0.00     0.134 A 
ATOM     72  F   UNL A   1      43.625  25.802  25.876  1.00  0.00    -0.206 F 
ATOM     73  C   UNL A   1      43.252  23.621  25.086  1.00  0.00     0.040 A 
ATOM     74  C   UNL A   1      42.222  21.985  26.524  1.00  0.00     0.040 A 
ATOM     75  F   UNL A   1      41.582  22.577  28.703  1.00  0.00    -0.206 F 
ATOM     76  C   UNL A   1      42.780  22.326  25.292  1.00  0.00     0.006 A 
ENDBRANCH  48  69
BRANCH  60  77
ATOM     77  C   UNL A   1      46.655  25.789  32.792  1.00  0.00     0.057 A 
ATOM     78  C   UNL A   1      47.911  26.229  32.361  1.00  0.00     0.134 A 
ATOM     79  C   UNL A   1      46.618  24.777  33.760  1.00  0.00     0.134 A 
ATOM     80  F   UNL A   1      48.011  27.186  31.426  1.00  0.00    -0.206 F 
ATOM     81  C   UNL A   1      49.089  25.673  32.862  1.00  0.00     0.040 A 
ATOM     82  C   UNL A   1      47.788  24.227  34.283  1.00  0.00     0.040 A 
ATOM     83  F   UNL A   1      45.444  24.316  34.217  1.00  0.00    -0.206 F 
ATOM     84  C   UNL A   1      49.029  24.672  33.830  1.00  0.00     0.006 A 
ENDBRANCH  60  77
ENDBRANCH  34  35
ENDBRANCH  26  29
ENDBRANCH  24  25
ENDBRANCH   1  24
TORSDOF 13
ENDMDL
