MODEL 1
REMARK VINA RESULT:     -12.1      0.000      0.000
REMARK SMILES CC1(C)[C@H](C(=O)Nc2ccc(C(F)(F)F)nc2)[C@@H]1C(=O)NCCCNC(=O)c1ccc(-c2c3nc(c(-c4c(F)cccc4F)c4ccc([nH]4)c(-c4c(F)cccc4F)c4nc(c(-c5c(F)cccc5F)c5ccc2[nH]5)C=C4)C=C3)cc1
REMARK SMILES IDX 22 1 21 2 19 3 20 4 18 6 1 7 2 8 3 9 4 10 5 11 6 12 7 13
REMARK SMILES IDX 8 15 9 16 17 17 10 18 16 19 11 20 12 21 13 22 14 23 15 24
REMARK SMILES IDX 23 25 24 26 25 27 26 28 27 30 28 31 29 32 81 33 30 34 80 35
REMARK SMILES IDX 31 36 32 37 33 38 74 39 34 40 79 41 73 42 75 43 35 44 78 45
REMARK SMILES IDX 72 46 71 47 36 49 62 50 45 51 61 52 46 53 49 54 60 55 76 56
REMARK SMILES IDX 47 57 48 58 59 60 77 61 50 62 37 63 38 64 43 65 39 66 40 67
REMARK SMILES IDX 42 68 44 69 41 70 63 71 64 72 69 73 65 74 66 75 68 76 70 77
REMARK SMILES IDX 67 78 51 79 52 80 57 81 53 82 54 83 56 84 58 85 55 86
REMARK H PARENT 21 5 7 14 25 29 75 48 49 59
REMARK Flexibility Score: inf
ROOT
ATOM      1  C   UNL A   1      36.459  21.258  24.862  1.00  0.00     0.117 C 
ENDROOT
BRANCH   1   2
ATOM      2  N   UNL A   1      35.994  21.756  26.143  1.00  0.00    -0.356 N 
ATOM      3  C   UNL A   1      34.717  22.114  26.483  1.00  0.00     0.224 C 
ATOM      4  O   UNL A   1      34.457  22.483  27.624  1.00  0.00    -0.275 OA
ATOM      5  H   UNL A   1      36.675  21.847  26.849  1.00  0.00     0.163 HD
BRANCH   3   6
ATOM      6  C   UNL A   1      33.714  22.169  25.407  1.00  0.00     0.098 C 
ATOM      7  C   UNL A   1      33.106  23.063  23.039  1.00  0.00     0.013 C 
ATOM      8  C   UNL A   1      33.438  23.365  24.491  1.00  0.00    -0.011 C 
ATOM      9  C   UNL A   1      34.218  24.636  24.616  1.00  0.00     0.013 C 
ATOM     10  C   UNL A   1      32.397  22.895  25.495  1.00  0.00     0.098 C 
BRANCH  10  11
ATOM     11  C   UNL A   1      31.730  23.567  26.660  1.00  0.00     0.228 C 
ATOM     12  O   UNL A   1      31.517  22.848  27.640  1.00  0.00    -0.274 OA
ATOM     13  N   UNL A   1      31.641  24.922  26.879  1.00  0.00    -0.324 N 
ATOM     14  H   UNL A   1      31.934  25.213  27.773  1.00  0.00     0.169 HD
BRANCH  13  15
ATOM     15  C   UNL A   1      31.207  25.953  26.049  1.00  0.00     0.059 A 
ATOM     16  C   UNL A   1      30.210  25.767  25.113  1.00  0.00     0.030 A 
ATOM     17  C   UNL A   1      31.726  27.234  26.183  1.00  0.00     0.137 A 
ATOM     18  C   UNL A   1      29.955  26.769  24.180  1.00  0.00     0.035 A 
ATOM     19  N   UNL A   1      31.515  28.227  25.291  1.00  0.00    -0.250 NA
ATOM     20  C   UNL A   1      30.693  27.952  24.236  1.00  0.00     0.144 A 
BRANCH  20  21
ATOM     21  C   UNL A   1      30.597  28.935  23.076  1.00  0.00     0.433 C 
ATOM     22  F   UNL A   1      29.913  28.432  22.010  1.00  0.00    -0.165 F 
ATOM     23  F   UNL A   1      29.982  30.109  23.401  1.00  0.00    -0.165 F 
ATOM     24  F   UNL A   1      31.822  29.293  22.585  1.00  0.00    -0.165 F 
ENDBRANCH  20  21
ENDBRANCH  13  15
ENDBRANCH  10  11
ENDBRANCH   3   6
ENDBRANCH   1   2
BRANCH   1  25
ATOM     25  C   UNL A   1      37.496  20.160  24.980  1.00  0.00     0.042 C 
BRANCH  25  26
ATOM     26  C   UNL A   1      38.757  20.575  25.722  1.00  0.00     0.118 C 
BRANCH  26  27
ATOM     27  N   UNL A   1      39.796  19.551  25.733  1.00  0.00    -0.352 N 
ATOM     28  C   UNL A   1      41.129  19.623  26.062  1.00  0.00     0.251 C 
ATOM     29  H   UNL A   1      39.491  18.655  25.460  1.00  0.00     0.163 HD
ATOM     30  O   UNL A   1      41.855  18.653  25.867  1.00  0.00    -0.269 OA
BRANCH  28  31
ATOM     31  C   UNL A   1      41.694  20.876  26.602  1.00  0.00     0.039 A 
ATOM     32  C   UNL A   1      42.243  21.810  25.719  1.00  0.00     0.014 A 
ATOM     33  C   UNL A   1      41.651  21.148  27.969  1.00  0.00     0.014 A 
ATOM     34  C   UNL A   1      42.646  23.058  26.201  1.00  0.00     0.010 A 
ATOM     35  C   UNL A   1      41.931  22.430  28.424  1.00  0.00     0.010 A 
ATOM     36  C   UNL A   1      42.435  23.400  27.547  1.00  0.00    -0.014 A 
BRANCH  36  37
ATOM     37  C   UNL A   1      42.723  24.764  28.056  1.00  0.00     0.031 A 
ATOM     38  C   UNL A   1      44.118  25.137  28.477  1.00  0.00     0.074 A 
ATOM     39  C   UNL A   1      41.712  25.639  28.221  1.00  0.00     0.049 A 
ATOM     40  N   UNL A   1      44.552  26.254  29.005  1.00  0.00    -0.248 NA
ATOM     41  C   UNL A   1      45.156  24.106  28.321  1.00  0.00     0.031 C 
ATOM     42  C   UNL A   1      40.304  25.373  27.923  1.00  0.00     0.029 A 
ATOM     43  N   UNL A   1      41.712  26.928  28.693  1.00  0.00    -0.354 N 
ATOM     44  C   UNL A   1      45.901  26.049  29.264  1.00  0.00     0.074 A 
ATOM     45  C   UNL A   1      46.198  24.682  28.899  1.00  0.00     0.031 C 
ATOM     46  C   UNL A   1      39.582  26.473  28.188  1.00  0.00     0.029 A 
ATOM     47  C   UNL A   1      40.466  27.506  28.716  1.00  0.00     0.049 A 
ATOM     48  H   UNL A   1      42.528  27.393  28.987  1.00  0.00     0.167 HD
ATOM     49  C   UNL A   1      46.817  26.928  29.735  1.00  0.00     0.037 A 
ATOM     50  C   UNL A   1      40.076  28.729  29.122  1.00  0.00     0.037 A 
ATOM     51  C   UNL A   1      46.518  28.295  30.074  1.00  0.00     0.049 A 
ATOM     52  C   UNL A   1      41.110  29.695  29.630  1.00  0.00     0.074 A 
ATOM     53  C   UNL A   1      47.387  29.292  30.481  1.00  0.00     0.029 A 
ATOM     54  N   UNL A   1      45.248  28.852  30.059  1.00  0.00    -0.354 N 
ATOM     55  N   UNL A   1      42.401  29.520  29.779  1.00  0.00    -0.248 NA
ATOM     56  C   UNL A   1      40.634  31.028  30.020  1.00  0.00     0.031 C 
ATOM     57  C   UNL A   1      46.634  30.434  30.771  1.00  0.00     0.029 A 
ATOM     58  C   UNL A   1      45.304  30.171  30.483  1.00  0.00     0.049 A 
ATOM     59  H   UNL A   1      44.427  28.381  29.787  1.00  0.00     0.167 HD
ATOM     60  C   UNL A   1      42.896  30.725  30.259  1.00  0.00     0.074 A 
ATOM     61  C   UNL A   1      41.767  31.628  30.358  1.00  0.00     0.031 C 
ATOM     62  C   UNL A   1      44.170  31.055  30.586  1.00  0.00     0.037 A 
BRANCH  49  63
ATOM     63  C   UNL A   1      48.222  26.427  29.918  1.00  0.00     0.057 A 
ATOM     64  C   UNL A   1      48.652  25.832  31.113  1.00  0.00     0.134 A 
ATOM     65  C   UNL A   1      49.160  26.541  28.885  1.00  0.00     0.134 A 
ATOM     66  F   UNL A   1      47.810  25.702  32.150  1.00  0.00    -0.206 F 
ATOM     67  C   UNL A   1      49.971  25.411  31.289  1.00  0.00     0.040 A 
ATOM     68  C   UNL A   1      50.473  26.091  29.036  1.00  0.00     0.040 A 
ATOM     69  F   UNL A   1      48.818  27.093  27.711  1.00  0.00    -0.206 F 
ATOM     70  C   UNL A   1      50.885  25.534  30.245  1.00  0.00     0.006 A 
ENDBRANCH  49  63
BRANCH  50  71
ATOM     71  C   UNL A   1      38.645  29.110  29.035  1.00  0.00     0.057 A 
ATOM     72  C   UNL A   1      37.802  29.020  30.148  1.00  0.00     0.134 A 
ATOM     73  C   UNL A   1      38.091  29.601  27.845  1.00  0.00     0.134 A 
ATOM     74  F   UNL A   1      38.269  28.542  31.312  1.00  0.00    -0.206 F 
ATOM     75  C   UNL A   1      36.459  29.395  30.082  1.00  0.00     0.040 A 
ATOM     76  C   UNL A   1      36.757  30.003  27.771  1.00  0.00     0.040 A 
ATOM     77  F   UNL A   1      38.848  29.722  26.746  1.00  0.00    -0.206 F 
ATOM     78  C   UNL A   1      35.935  29.896  28.891  1.00  0.00     0.006 A 
ENDBRANCH  50  71
BRANCH  62  79
ATOM     79  C   UNL A   1      44.416  32.459  31.062  1.00  0.00     0.057 A 
ATOM     80  C   UNL A   1      44.400  32.794  32.423  1.00  0.00     0.134 A 
ATOM     81  C   UNL A   1      44.707  33.480  30.148  1.00  0.00     0.134 A 
ATOM     82  F   UNL A   1      44.115  31.866  33.349  1.00  0.00    -0.206 F 
ATOM     83  C   UNL A   1      44.640  34.100  32.854  1.00  0.00     0.040 A 
ATOM     84  C   UNL A   1      44.980  34.782  30.570  1.00  0.00     0.040 A 
ATOM     85  F   UNL A   1      44.748  33.225  28.832  1.00  0.00    -0.206 F 
ATOM     86  C   UNL A   1      44.939  35.096  31.926  1.00  0.00     0.006 A 
ENDBRANCH  62  79
ENDBRANCH  36  37
ENDBRANCH  28  31
ENDBRANCH  26  27
ENDBRANCH  25  26
ENDBRANCH   1  25
TORSDOF 13
ENDMDL
MODEL 2
REMARK VINA RESULT:     -12.1      0.392      6.190
REMARK SMILES CC1(C)[C@H](C(=O)Nc2ccc(C(F)(F)F)nc2)[C@@H]1C(=O)NCCCNC(=O)c1ccc(-c2c3nc(c(-c4c(F)cccc4F)c4ccc([nH]4)c(-c4c(F)cccc4F)c4nc(c(-c5c(F)cccc5F)c5ccc2[nH]5)C=C4)C=C3)cc1
REMARK SMILES IDX 22 1 21 2 19 3 20 4 18 6 1 7 2 8 3 9 4 10 5 11 6 12 7 13
REMARK SMILES IDX 8 15 9 16 17 17 10 18 16 19 11 20 12 21 13 22 14 23 15 24
REMARK SMILES IDX 23 25 24 26 25 27 26 28 27 30 28 31 29 32 81 33 30 34 80 35
REMARK SMILES IDX 31 36 32 37 33 38 74 39 34 40 79 41 73 42 75 43 35 44 78 45
REMARK SMILES IDX 72 46 71 47 36 49 62 50 45 51 61 52 46 53 49 54 60 55 76 56
REMARK SMILES IDX 47 57 48 58 59 60 77 61 50 62 37 63 38 64 43 65 39 66 40 67
REMARK SMILES IDX 42 68 44 69 41 70 63 71 64 72 69 73 65 74 66 75 68 76 70 77
REMARK SMILES IDX 67 78 51 79 52 80 57 81 53 82 54 83 56 84 58 85 55 86
REMARK H PARENT 21 5 7 14 25 29 75 48 49 59
REMARK Flexibility Score: inf
ROOT
ATOM      1  C   UNL A   1      36.016  20.627  25.182  1.00  0.00     0.117 C 
ENDROOT
BRANCH   1   2
ATOM      2  N   UNL A   1      35.667  21.431  26.338  1.00  0.00    -0.356 N 
ATOM      3  C   UNL A   1      34.499  22.112  26.555  1.00  0.00     0.224 C 
ATOM      4  O   UNL A   1      34.321  22.724  27.604  1.00  0.00    -0.275 OA
ATOM      5  H   UNL A   1      36.347  21.495  27.047  1.00  0.00     0.163 HD
BRANCH   3   6
ATOM      6  C   UNL A   1      33.538  22.192  25.443  1.00  0.00     0.098 C 
ATOM      7  C   UNL A   1      33.030  23.125  23.066  1.00  0.00     0.013 C 
ATOM      8  C   UNL A   1      33.311  23.404  24.533  1.00  0.00    -0.011 C 
ATOM      9  C   UNL A   1      34.099  24.665  24.706  1.00  0.00     0.013 C 
ATOM     10  C   UNL A   1      32.227  22.932  25.490  1.00  0.00     0.098 C 
BRANCH  10  11
ATOM     11  C   UNL A   1      31.523  23.596  26.639  1.00  0.00     0.228 C 
ATOM     12  O   UNL A   1      31.272  22.868  27.602  1.00  0.00    -0.274 OA
ATOM     13  N   UNL A   1      31.435  24.950  26.870  1.00  0.00    -0.324 N 
ATOM     14  H   UNL A   1      31.698  25.229  27.776  1.00  0.00     0.169 HD
BRANCH  13  15
ATOM     15  C   UNL A   1      31.038  25.992  26.036  1.00  0.00     0.059 A 
ATOM     16  C   UNL A   1      30.045  25.834  25.090  1.00  0.00     0.030 A 
ATOM     17  C   UNL A   1      31.590  27.259  26.176  1.00  0.00     0.137 A 
ATOM     18  C   UNL A   1      29.826  26.843  24.156  1.00  0.00     0.035 A 
ATOM     19  N   UNL A   1      31.414  28.258  25.283  1.00  0.00    -0.250 NA
ATOM     20  C   UNL A   1      30.595  28.005  24.219  1.00  0.00     0.144 A 
BRANCH  20  21
ATOM     21  C   UNL A   1      30.537  28.991  23.060  1.00  0.00     0.433 C 
ATOM     22  F   UNL A   1      31.766  29.275  22.543  1.00  0.00    -0.165 F 
ATOM     23  F   UNL A   1      29.775  28.563  22.012  1.00  0.00    -0.165 F 
ATOM     24  F   UNL A   1      30.007  30.200  23.421  1.00  0.00    -0.165 F 
ENDBRANCH  20  21
ENDBRANCH  13  15
ENDBRANCH  10  11
ENDBRANCH   3   6
ENDBRANCH   1   2
BRANCH   1  25
ATOM     25  C   UNL A   1      37.409  20.900  24.653  1.00  0.00     0.042 C 
BRANCH  25  26
ATOM     26  C   UNL A   1      38.478  20.978  25.733  1.00  0.00     0.118 C 
BRANCH  26  27
ATOM     27  N   UNL A   1      39.452  19.893  25.676  1.00  0.00    -0.352 N 
ATOM     28  C   UNL A   1      40.790  19.866  25.990  1.00  0.00     0.251 C 
ATOM     29  H   UNL A   1      39.089  19.034  25.360  1.00  0.00     0.163 HD
ATOM     30  O   UNL A   1      41.453  18.865  25.734  1.00  0.00    -0.269 OA
BRANCH  28  31
ATOM     31  C   UNL A   1      41.437  21.052  26.588  1.00  0.00     0.039 A 
ATOM     32  C   UNL A   1      42.050  21.987  25.750  1.00  0.00     0.014 A 
ATOM     33  C   UNL A   1      41.408  21.262  27.966  1.00  0.00     0.014 A 
ATOM     34  C   UNL A   1      42.535  23.180  26.290  1.00  0.00     0.010 A 
ATOM     35  C   UNL A   1      41.772  22.499  28.482  1.00  0.00     0.010 A 
ATOM     36  C   UNL A   1      42.344  23.472  27.650  1.00  0.00    -0.014 A 
BRANCH  36  37
ATOM     37  C   UNL A   1      42.722  24.789  28.223  1.00  0.00     0.031 A 
ATOM     38  C   UNL A   1      41.678  25.850  28.439  1.00  0.00     0.074 A 
ATOM     39  C   UNL A   1      44.019  25.060  28.466  1.00  0.00     0.049 A 
ATOM     40  N   UNL A   1      41.823  27.078  28.866  1.00  0.00    -0.248 NA
ATOM     41  C   UNL A   1      40.292  25.497  28.093  1.00  0.00     0.031 C 
ATOM     42  C   UNL A   1      45.136  24.144  28.227  1.00  0.00     0.029 A 
ATOM     43  N   UNL A   1      44.620  26.192  28.958  1.00  0.00    -0.354 N 
ATOM     44  C   UNL A   1      40.557  27.647  28.817  1.00  0.00     0.074 A 
ATOM     45  C   UNL A   1      39.669  26.653  28.255  1.00  0.00     0.031 C 
ATOM     46  C   UNL A   1      46.279  24.737  28.601  1.00  0.00     0.029 A 
ATOM     47  C   UNL A   1      45.985  26.088  29.065  1.00  0.00     0.049 A 
ATOM     48  H   UNL A   1      44.118  27.001  29.210  1.00  0.00     0.167 HD
ATOM     49  C   UNL A   1      40.162  28.875  29.228  1.00  0.00     0.037 A 
ATOM     50  C   UNL A   1      46.900  26.982  29.483  1.00  0.00     0.037 A 
ATOM     51  C   UNL A   1      41.047  29.851  29.807  1.00  0.00     0.049 A 
ATOM     52  C   UNL A   1      46.441  28.336  29.948  1.00  0.00     0.074 A 
ATOM     53  C   UNL A   1      40.736  31.092  30.334  1.00  0.00     0.029 A 
ATOM     54  N   UNL A   1      42.421  29.700  29.924  1.00  0.00    -0.354 N 
ATOM     55  N   UNL A   1      45.226  28.827  29.987  1.00  0.00    -0.248 NA
ATOM     56  C   UNL A   1      47.478  29.256  30.434  1.00  0.00     0.031 C 
ATOM     57  C   UNL A   1      41.929  31.717  30.711  1.00  0.00     0.029 A 
ATOM     58  C   UNL A   1      42.978  30.840  30.482  1.00  0.00     0.049 A 
ATOM     59  H   UNL A   1      42.927  28.900  29.651  1.00  0.00     0.167 HD
ATOM     60  C   UNL A   1      45.348  30.104  30.519  1.00  0.00     0.074 A 
ATOM     61  C   UNL A   1      46.754  30.302  30.805  1.00  0.00     0.031 C 
ATOM     62  C   UNL A   1      44.382  31.028  30.752  1.00  0.00     0.037 A 
BRANCH  49  63
ATOM     63  C   UNL A   1      38.711  29.228  29.052  1.00  0.00     0.057 A 
ATOM     64  C   UNL A   1      37.808  29.225  30.125  1.00  0.00     0.134 A 
ATOM     65  C   UNL A   1      38.209  29.575  27.792  1.00  0.00     0.134 A 
ATOM     66  F   UNL A   1      38.218  28.890  31.359  1.00  0.00    -0.206 F 
ATOM     67  C   UNL A   1      36.454  29.510  29.943  1.00  0.00     0.040 A 
ATOM     68  C   UNL A   1      36.864  29.896  27.604  1.00  0.00     0.040 A 
ATOM     69  F   UNL A   1      39.017  29.606  26.721  1.00  0.00    -0.206 F 
ATOM     70  C   UNL A   1      35.979  29.853  28.679  1.00  0.00     0.006 A 
ENDBRANCH  49  63
BRANCH  50  71
ATOM     71  C   UNL A   1      48.336  26.608  29.505  1.00  0.00     0.057 A 
ATOM     72  C   UNL A   1      48.887  25.911  30.586  1.00  0.00     0.134 A 
ATOM     73  C   UNL A   1      49.186  26.913  28.434  1.00  0.00     0.134 A 
ATOM     74  F   UNL A   1      48.128  25.603  31.648  1.00  0.00    -0.206 F 
ATOM     75  C   UNL A   1      50.232  25.536  30.606  1.00  0.00     0.040 A 
ATOM     76  C   UNL A   1      50.526  26.523  28.430  1.00  0.00     0.040 A 
ATOM     77  F   UNL A   1      48.718  27.571  27.364  1.00  0.00    -0.206 F 
ATOM     78  C   UNL A   1      51.054  25.836  29.521  1.00  0.00     0.006 A 
ENDBRANCH  50  71
BRANCH  62  79
ATOM     79  C   UNL A   1      44.811  32.330  31.365  1.00  0.00     0.057 A 
ATOM     80  C   UNL A   1      45.156  33.441  30.583  1.00  0.00     0.134 A 
ATOM     81  C   UNL A   1      44.843  32.485  32.757  1.00  0.00     0.134 A 
ATOM     82  F   UNL A   1      45.157  33.356  29.244  1.00  0.00    -0.206 F 
ATOM     83  C   UNL A   1      45.542  34.650  31.164  1.00  0.00     0.040 A 
ATOM     84  C   UNL A   1      45.198  33.698  33.349  1.00  0.00     0.040 A 
ATOM     85  F   UNL A   1      44.516  31.465  33.564  1.00  0.00    -0.206 F 
ATOM     86  C   UNL A   1      45.556  34.782  32.552  1.00  0.00     0.006 A 
ENDBRANCH  62  79
ENDBRANCH  36  37
ENDBRANCH  28  31
ENDBRANCH  26  27
ENDBRANCH  25  26
ENDBRANCH   1  25
TORSDOF 13
ENDMDL
MODEL 3
REMARK VINA RESULT:     -12.0      2.135      7.165
REMARK SMILES CC1(C)[C@H](C(=O)Nc2ccc(C(F)(F)F)nc2)[C@@H]1C(=O)NCCCNC(=O)c1ccc(-c2c3nc(c(-c4c(F)cccc4F)c4ccc([nH]4)c(-c4c(F)cccc4F)c4nc(c(-c5c(F)cccc5F)c5ccc2[nH]5)C=C4)C=C3)cc1
REMARK SMILES IDX 22 1 21 2 19 3 20 4 18 6 1 7 2 8 3 9 4 10 5 11 6 12 7 13
REMARK SMILES IDX 8 15 9 16 17 17 10 18 16 19 11 20 12 21 13 22 14 23 15 24
REMARK SMILES IDX 23 25 24 26 25 27 26 28 27 30 28 31 29 32 81 33 30 34 80 35
REMARK SMILES IDX 31 36 32 37 33 38 74 39 34 40 79 41 73 42 75 43 35 44 78 45
REMARK SMILES IDX 72 46 71 47 36 49 62 50 45 51 61 52 46 53 49 54 60 55 76 56
REMARK SMILES IDX 47 57 48 58 59 60 77 61 50 62 37 63 38 64 43 65 39 66 40 67
REMARK SMILES IDX 42 68 44 69 41 70 63 71 64 72 69 73 65 74 66 75 68 76 70 77
REMARK SMILES IDX 67 78 51 79 52 80 57 81 53 82 54 83 56 84 58 85 55 86
REMARK H PARENT 21 5 7 14 25 29 75 48 49 59
REMARK Flexibility Score: inf
ROOT
ATOM      1  C   UNL A   1      33.622  26.636  25.931  1.00  0.00     0.117 C 
ENDROOT
BRANCH   1   2
ATOM      2  N   UNL A   1      33.752  26.198  24.554  1.00  0.00    -0.356 N 
ATOM      3  C   UNL A   1      34.378  25.069  24.096  1.00  0.00     0.224 C 
ATOM      4  O   UNL A   1      34.377  24.799  22.899  1.00  0.00    -0.275 OA
ATOM      5  H   UNL A   1      33.344  26.778  23.871  1.00  0.00     0.163 HD
BRANCH   3   6
ATOM      6  C   UNL A   1      35.156  24.279  25.065  1.00  0.00     0.098 C 
ATOM      7  C   UNL A   1      37.463  23.241  25.676  1.00  0.00     0.013 C 
ATOM      8  C   UNL A   1      36.277  23.290  24.729  1.00  0.00    -0.011 C 
ATOM      9  C   UNL A   1      36.700  23.046  23.314  1.00  0.00     0.013 C 
ATOM     10  C   UNL A   1      34.964  22.809  25.326  1.00  0.00     0.098 C 
BRANCH  10  11
ATOM     11  C   UNL A   1      33.908  21.860  24.835  1.00  0.00     0.228 C 
ATOM     12  O   UNL A   1      34.303  20.730  24.539  1.00  0.00    -0.274 OA
ATOM     13  N   UNL A   1      32.548  21.999  24.996  1.00  0.00    -0.324 N 
ATOM     14  H   UNL A   1      32.097  21.208  25.371  1.00  0.00     0.169 HD
BRANCH  13  15
ATOM     15  C   UNL A   1      31.702  23.070  24.717  1.00  0.00     0.059 A 
ATOM     16  C   UNL A   1      31.254  23.334  23.439  1.00  0.00     0.030 A 
ATOM     17  C   UNL A   1      31.226  23.878  25.741  1.00  0.00     0.137 A 
ATOM     18  C   UNL A   1      30.576  24.525  23.186  1.00  0.00     0.035 A 
ATOM     19  N   UNL A   1      30.579  25.047  25.536  1.00  0.00    -0.250 NA
ATOM     20  C   UNL A   1      30.339  25.407  24.240  1.00  0.00     0.144 A 
BRANCH  20  21
ATOM     21  C   UNL A   1      29.831  26.809  23.927  1.00  0.00     0.433 C 
ATOM     22  F   UNL A   1      28.475  26.912  24.015  1.00  0.00    -0.165 F 
ATOM     23  F   UNL A   1      30.339  27.773  24.748  1.00  0.00    -0.165 F 
ATOM     24  F   UNL A   1      30.144  27.213  22.658  1.00  0.00    -0.165 F 
ENDBRANCH  20  21
ENDBRANCH  13  15
ENDBRANCH  10  11
ENDBRANCH   3   6
ENDBRANCH   1   2
BRANCH   1  25
ATOM     25  C   UNL A   1      33.688  28.141  26.095  1.00  0.00     0.042 C 
BRANCH  25  26
ATOM     26  C   UNL A   1      33.306  28.630  27.484  1.00  0.00     0.118 C 
BRANCH  26  27
ATOM     27  N   UNL A   1      33.477  30.067  27.669  1.00  0.00    -0.352 N 
ATOM     28  C   UNL A   1      34.569  30.802  28.066  1.00  0.00     0.251 C 
ATOM     29  H   UNL A   1      32.672  30.602  27.476  1.00  0.00     0.163 HD
ATOM     30  O   UNL A   1      34.444  32.003  28.285  1.00  0.00    -0.269 OA
BRANCH  28  31
ATOM     31  C   UNL A   1      35.873  30.141  28.273  1.00  0.00     0.039 A 
ATOM     32  C   UNL A   1      36.788  30.097  27.218  1.00  0.00     0.014 A 
ATOM     33  C   UNL A   1      36.210  29.597  29.512  1.00  0.00     0.014 A 
ATOM     34  C   UNL A   1      38.076  29.605  27.443  1.00  0.00     0.010 A 
ATOM     35  C   UNL A   1      37.525  29.230  29.768  1.00  0.00     0.010 A 
ATOM     36  C   UNL A   1      38.473  29.226  28.736  1.00  0.00    -0.014 A 
BRANCH  36  37
ATOM     37  C   UNL A   1      39.873  28.834  29.035  1.00  0.00     0.031 A 
ATOM     38  C   UNL A   1      40.804  29.802  29.712  1.00  0.00     0.074 A 
ATOM     39  C   UNL A   1      40.331  27.638  28.618  1.00  0.00     0.049 A 
ATOM     40  N   UNL A   1      42.075  29.666  29.996  1.00  0.00    -0.248 NA
ATOM     41  C   UNL A   1      40.245  31.111  30.083  1.00  0.00     0.031 C 
ATOM     42  C   UNL A   1      39.551  26.640  27.883  1.00  0.00     0.029 A 
ATOM     43  N   UNL A   1      41.571  27.061  28.741  1.00  0.00    -0.354 N 
ATOM     44  C   UNL A   1      42.467  30.876  30.555  1.00  0.00     0.074 A 
ATOM     45  C   UNL A   1      41.320  31.755  30.507  1.00  0.00     0.031 C 
ATOM     46  C   UNL A   1      40.318  25.565  27.650  1.00  0.00     0.029 A 
ATOM     47  C   UNL A   1      41.656  25.811  28.177  1.00  0.00     0.049 A 
ATOM     48  H   UNL A   1      42.327  27.503  29.191  1.00  0.00     0.167 HD
ATOM     49  C   UNL A   1      43.666  31.215  31.087  1.00  0.00     0.037 A 
ATOM     50  C   UNL A   1      42.695  24.961  28.088  1.00  0.00     0.037 A 
ATOM     51  C   UNL A   1      44.796  30.327  31.152  1.00  0.00     0.049 A 
ATOM     52  C   UNL A   1      44.014  25.350  28.696  1.00  0.00     0.074 A 
ATOM     53  C   UNL A   1      46.028  30.541  31.744  1.00  0.00     0.029 A 
ATOM     54  N   UNL A   1      44.836  29.058  30.593  1.00  0.00    -0.354 N 
ATOM     55  N   UNL A   1      44.344  26.462  29.308  1.00  0.00    -0.248 NA
ATOM     56  C   UNL A   1      45.100  24.366  28.607  1.00  0.00     0.031 C 
ATOM     57  C   UNL A   1      46.833  29.427  31.489  1.00  0.00     0.029 A 
ATOM     58  C   UNL A   1      46.083  28.490  30.796  1.00  0.00     0.049 A 
ATOM     59  H   UNL A   1      44.087  28.624  30.123  1.00  0.00     0.167 HD
ATOM     60  C   UNL A   1      45.668  26.304  29.696  1.00  0.00     0.074 A 
ATOM     61  C   UNL A   1      46.073  24.981  29.265  1.00  0.00     0.031 C 
ATOM     62  C   UNL A   1      46.476  27.175  30.352  1.00  0.00     0.037 A 
BRANCH  49  63
ATOM     63  C   UNL A   1      43.809  32.610  31.628  1.00  0.00     0.057 A 
ATOM     64  C   UNL A   1      43.516  32.927  32.962  1.00  0.00     0.134 A 
ATOM     65  C   UNL A   1      44.247  33.654  30.803  1.00  0.00     0.134 A 
ATOM     66  F   UNL A   1      43.079  31.979  33.806  1.00  0.00    -0.206 F 
ATOM     67  C   UNL A   1      43.609  34.234  33.442  1.00  0.00     0.040 A 
ATOM     68  C   UNL A   1      44.379  34.959  31.281  1.00  0.00     0.040 A 
ATOM     69  F   UNL A   1      44.553  33.423  29.517  1.00  0.00    -0.206 F 
ATOM     70  C   UNL A   1      44.048  35.254  32.602  1.00  0.00     0.006 A 
ENDBRANCH  49  63
BRANCH  50  71
ATOM     71  C   UNL A   1      42.515  23.648  27.420  1.00  0.00     0.057 A 
ATOM     72  C   UNL A   1      42.736  23.498  26.047  1.00  0.00     0.134 A 
ATOM     73  C   UNL A   1      42.145  22.506  28.143  1.00  0.00     0.134 A 
ATOM     74  F   UNL A   1      43.076  24.557  25.298  1.00  0.00    -0.206 F 
ATOM     75  C   UNL A   1      42.588  22.262  25.413  1.00  0.00     0.040 A 
ATOM     76  C   UNL A   1      42.019  21.260  27.527  1.00  0.00     0.040 A 
ATOM     77  F   UNL A   1      41.930  22.581  29.464  1.00  0.00    -0.206 F 
ATOM     78  C   UNL A   1      42.236  21.136  26.156  1.00  0.00     0.006 A 
ENDBRANCH  50  71
BRANCH  62  79
ATOM     79  C   UNL A   1      47.872  26.717  30.661  1.00  0.00     0.057 A 
ATOM     80  C   UNL A   1      48.955  27.020  29.826  1.00  0.00     0.134 A 
ATOM     81  C   UNL A   1      48.142  25.994  31.832  1.00  0.00     0.134 A 
ATOM     82  F   UNL A   1      48.764  27.698  28.684  1.00  0.00    -0.206 F 
ATOM     83  C   UNL A   1      50.251  26.598  30.129  1.00  0.00     0.040 A 
ATOM     84  C   UNL A   1      49.437  25.594  32.161  1.00  0.00     0.040 A 
ATOM     85  F   UNL A   1      47.152  25.679  32.680  1.00  0.00    -0.206 F 
ATOM     86  C   UNL A   1      50.495  25.889  31.305  1.00  0.00     0.006 A 
ENDBRANCH  62  79
ENDBRANCH  36  37
ENDBRANCH  28  31
ENDBRANCH  26  27
ENDBRANCH  25  26
ENDBRANCH   1  25
TORSDOF 13
ENDMDL
