MODEL 1
REMARK VINA RESULT:     -12.5      0.000      0.000
REMARK SMILES CC[C@@H]1CCC[C@@](Cc2cccc(O)c2)(C(=O)NCCCNC(=O)c2ccc(-c3c4nc(c(-c5c(F)cccc5F)c5ccc([nH]5)c(-c5c(F)cccc5F)c5nc(c(-c6c(F)cccc6F)c6ccc3[nH]6)C=C5)C=C4)cc2)C1
REMARK SMILES IDX 19 1 18 2 16 3 17 4 7 6 3 7 4 8 79 9 5 10 6 11 2 12 1 13
REMARK SMILES IDX 8 14 9 15 10 16 15 17 11 18 13 19 12 20 14 21 20 23 21 24
REMARK SMILES IDX 22 25 23 26 24 28 25 29 26 30 78 31 27 32 77 33 28 34 29 35
REMARK SMILES IDX 30 36 71 37 31 38 76 39 70 40 72 41 32 42 75 43 69 44 68 45
REMARK SMILES IDX 33 47 59 48 42 49 58 50 43 51 46 52 57 53 73 54 44 55 45 56
REMARK SMILES IDX 56 58 74 59 47 60 34 61 35 62 40 63 36 64 37 65 39 66 41 67
REMARK SMILES IDX 38 68 60 69 61 70 66 71 62 72 63 73 65 74 67 75 64 76 48 77
REMARK SMILES IDX 49 78 54 79 50 80 51 81 53 82 55 83 52 84
REMARK H PARENT 18 5 14 22 22 27 72 46 46 57
REMARK Flexibility Score: inf
ROOT
ATOM      1  C   UNL A   1      36.662  21.046  24.799  1.00  0.00     0.117 C 
ENDROOT
BRANCH   1   2
ATOM      2  N   UNL A   1      36.108  21.562  26.027  1.00  0.00    -0.356 N 
ATOM      3  C   UNL A   1      34.801  21.753  26.354  1.00  0.00     0.226 C 
ATOM      4  O   UNL A   1      34.550  21.707  27.564  1.00  0.00    -0.274 OA
ATOM      5  H   UNL A   1      36.763  21.811  26.719  1.00  0.00     0.163 HD
BRANCH   3   6
ATOM      6  C   UNL A   1      33.685  22.005  25.302  1.00  0.00     0.053 C 
ATOM      7  C   UNL A   1      33.716  24.586  25.767  1.00  0.00    -0.010 C 
ATOM      8  C   UNL A   1      34.389  24.818  24.406  1.00  0.00     0.003 C 
ATOM      9  C   UNL A   1      32.892  23.278  25.778  1.00  0.00     0.020 C 
ATOM     10  C   UNL A   1      35.120  23.587  23.894  1.00  0.00     0.001 C 
ATOM     11  C   UNL A   1      34.200  22.364  23.887  1.00  0.00     0.017 C 
BRANCH   7  12
ATOM     12  C   UNL A   1      32.858  25.817  26.120  1.00  0.00     0.000 C 
ATOM     13  C   UNL A   1      33.598  27.142  26.015  1.00  0.00     0.004 C 
ENDBRANCH   7  12
BRANCH   6  14
ATOM     14  C   UNL A   1      32.640  20.833  25.318  1.00  0.00     0.052 C 
BRANCH  14  15
ATOM     15  C   UNL A   1      32.946  19.547  24.582  1.00  0.00    -0.043 A 
ATOM     16  C   UNL A   1      34.067  18.775  24.930  1.00  0.00     0.004 A 
ATOM     17  C   UNL A   1      32.156  19.133  23.499  1.00  0.00     0.049 A 
ATOM     18  C   UNL A   1      34.439  17.667  24.157  1.00  0.00     0.004 A 
ATOM     19  C   UNL A   1      32.541  18.037  22.730  1.00  0.00     0.115 A 
ATOM     20  C   UNL A   1      33.686  17.310  23.038  1.00  0.00     0.046 A 
BRANCH  19  21
ATOM     21  O   UNL A   1      31.780  17.728  21.640  1.00  0.00    -0.508 OA
ATOM     22  H   UNL A   1      31.394  16.878  21.564  1.00  0.00     0.293 HD
ENDBRANCH  19  21
ENDBRANCH  14  15
ENDBRANCH   6  14
ENDBRANCH   3   6
ENDBRANCH   1   2
BRANCH   1  23
ATOM     23  C   UNL A   1      37.698  19.965  24.966  1.00  0.00     0.042 C 
BRANCH  23  24
ATOM     24  C   UNL A   1      38.929  20.453  25.706  1.00  0.00     0.118 C 
BRANCH  24  25
ATOM     25  N   UNL A   1      39.992  19.448  25.788  1.00  0.00    -0.352 N 
ATOM     26  C   UNL A   1      41.323  19.572  26.097  1.00  0.00     0.251 C 
ATOM     27  H   UNL A   1      39.701  18.528  25.589  1.00  0.00     0.163 HD
ATOM     28  O   UNL A   1      42.087  18.628  25.917  1.00  0.00    -0.269 OA
BRANCH  26  29
ATOM     29  C   UNL A   1      41.832  20.852  26.619  1.00  0.00     0.039 A 
ATOM     30  C   UNL A   1      42.278  21.832  25.730  1.00  0.00     0.014 A 
ATOM     31  C   UNL A   1      41.830  21.098  27.991  1.00  0.00     0.014 A 
ATOM     32  C   UNL A   1      42.630  23.089  26.220  1.00  0.00     0.010 A 
ATOM     33  C   UNL A   1      42.028  22.386  28.456  1.00  0.00     0.010 A 
ATOM     34  C   UNL A   1      42.454  23.391  27.581  1.00  0.00    -0.014 A 
BRANCH  34  35
ATOM     35  C   UNL A   1      42.729  24.744  28.120  1.00  0.00     0.031 A 
ATOM     36  C   UNL A   1      44.130  25.121  28.521  1.00  0.00     0.074 A 
ATOM     37  C   UNL A   1      41.707  25.599  28.319  1.00  0.00     0.049 A 
ATOM     38  N   UNL A   1      44.565  26.233  29.057  1.00  0.00    -0.248 NA
ATOM     39  C   UNL A   1      45.175  24.099  28.341  1.00  0.00     0.031 C 
ATOM     40  C   UNL A   1      40.294  25.312  28.056  1.00  0.00     0.029 A 
ATOM     41  N   UNL A   1      41.700  26.887  28.789  1.00  0.00    -0.354 N 
ATOM     42  C   UNL A   1      45.919  26.030  29.297  1.00  0.00     0.074 A 
ATOM     43  C   UNL A   1      46.217  24.666  28.928  1.00  0.00     0.031 C 
ATOM     44  C   UNL A   1      39.565  26.408  28.319  1.00  0.00     0.029 A 
ATOM     45  C   UNL A   1      40.452  27.461  28.802  1.00  0.00     0.049 A 
ATOM     46  H   UNL A   1      42.512  27.355  29.088  1.00  0.00     0.167 HD
ATOM     47  C   UNL A   1      46.841  26.912  29.746  1.00  0.00     0.037 A 
ATOM     48  C   UNL A   1      40.072  28.703  29.152  1.00  0.00     0.037 A 
ATOM     49  C   UNL A   1      46.543  28.281  30.068  1.00  0.00     0.049 A 
ATOM     50  C   UNL A   1      41.122  29.681  29.598  1.00  0.00     0.074 A 
ATOM     51  C   UNL A   1      47.410  29.283  30.468  1.00  0.00     0.029 A 
ATOM     52  N   UNL A   1      45.275  28.841  30.018  1.00  0.00    -0.354 N 
ATOM     53  N   UNL A   1      42.413  29.502  29.743  1.00  0.00    -0.248 NA
ATOM     54  C   UNL A   1      40.665  31.041  29.913  1.00  0.00     0.031 C 
ATOM     55  C   UNL A   1      46.659  30.442  30.694  1.00  0.00     0.029 A 
ATOM     56  C   UNL A   1      45.334  30.174  30.387  1.00  0.00     0.049 A 
ATOM     57  H   UNL A   1      44.456  28.362  29.758  1.00  0.00     0.167 HD
ATOM     58  C   UNL A   1      42.927  30.731  30.132  1.00  0.00     0.074 A 
ATOM     59  C   UNL A   1      41.809  31.651  30.183  1.00  0.00     0.031 C 
ATOM     60  C   UNL A   1      44.207  31.071  30.421  1.00  0.00     0.037 A 
BRANCH  47  61
ATOM     61  C   UNL A   1      48.253  26.422  29.891  1.00  0.00     0.057 A 
ATOM     62  C   UNL A   1      48.708  25.814  31.071  1.00  0.00     0.134 A 
ATOM     63  C   UNL A   1      49.169  26.550  28.840  1.00  0.00     0.134 A 
ATOM     64  F   UNL A   1      47.888  25.676  32.124  1.00  0.00    -0.206 F 
ATOM     65  C   UNL A   1      50.028  25.382  31.211  1.00  0.00     0.040 A 
ATOM     66  C   UNL A   1      50.483  26.093  28.956  1.00  0.00     0.040 A 
ATOM     67  F   UNL A   1      48.803  27.121  27.683  1.00  0.00    -0.206 F 
ATOM     68  C   UNL A   1      50.918  25.515  30.147  1.00  0.00     0.006 A 
ENDBRANCH  47  61
BRANCH  48  69
ATOM     69  C   UNL A   1      38.648  29.107  29.038  1.00  0.00     0.057 A 
ATOM     70  C   UNL A   1      37.785  29.027  30.139  1.00  0.00     0.134 A 
ATOM     71  C   UNL A   1      38.113  29.581  27.835  1.00  0.00     0.134 A 
ATOM     72  F   UNL A   1      38.237  28.569  31.316  1.00  0.00    -0.206 F 
ATOM     73  C   UNL A   1      36.438  29.376  30.042  1.00  0.00     0.040 A 
ATOM     74  C   UNL A   1      36.773  29.961  27.730  1.00  0.00     0.040 A 
ATOM     75  F   UNL A   1      38.889  29.698  26.748  1.00  0.00    -0.206 F 
ATOM     76  C   UNL A   1      35.930  29.850  28.834  1.00  0.00     0.006 A 
ENDBRANCH  48  69
BRANCH  60  77
ATOM     77  C   UNL A   1      44.466  32.507  30.771  1.00  0.00     0.057 A 
ATOM     78  C   UNL A   1      44.749  33.470  29.795  1.00  0.00     0.134 A 
ATOM     79  C   UNL A   1      44.411  32.931  32.104  1.00  0.00     0.134 A 
ATOM     80  F   UNL A   1      44.827  33.125  28.500  1.00  0.00    -0.206 F 
ATOM     81  C   UNL A   1      45.005  34.798  30.136  1.00  0.00     0.040 A 
ATOM     82  C   UNL A   1      44.635  34.263  32.455  1.00  0.00     0.040 A 
ATOM     83  F   UNL A   1      44.133  32.061  33.086  1.00  0.00    -0.206 F 
ATOM     84  C   UNL A   1      44.943  35.198  31.470  1.00  0.00     0.006 A 
ENDBRANCH  60  77
ENDBRANCH  34  35
ENDBRANCH  26  29
ENDBRANCH  24  25
ENDBRANCH  23  24
ENDBRANCH   1  23
TORSDOF 14
ENDMDL
MODEL 2
REMARK VINA RESULT:     -12.3      5.076      9.708
REMARK SMILES CC[C@@H]1CCC[C@@](Cc2cccc(O)c2)(C(=O)NCCCNC(=O)c2ccc(-c3c4nc(c(-c5c(F)cccc5F)c5ccc([nH]5)c(-c5c(F)cccc5F)c5nc(c(-c6c(F)cccc6F)c6ccc3[nH]6)C=C5)C=C4)cc2)C1
REMARK SMILES IDX 19 1 18 2 16 3 17 4 7 6 3 7 4 8 79 9 5 10 6 11 2 12 1 13
REMARK SMILES IDX 8 14 9 15 10 16 15 17 11 18 13 19 12 20 14 21 20 23 21 24
REMARK SMILES IDX 22 25 23 26 24 28 25 29 26 30 78 31 27 32 77 33 28 34 29 35
REMARK SMILES IDX 30 36 71 37 31 38 76 39 70 40 72 41 32 42 75 43 69 44 68 45
REMARK SMILES IDX 33 47 59 48 42 49 58 50 43 51 46 52 57 53 73 54 44 55 45 56
REMARK SMILES IDX 56 58 74 59 47 60 34 61 35 62 40 63 36 64 37 65 39 66 41 67
REMARK SMILES IDX 38 68 60 69 61 70 66 71 62 72 63 73 65 74 67 75 64 76 48 77
REMARK SMILES IDX 49 78 54 79 50 80 51 81 53 82 55 83 52 84
REMARK H PARENT 18 5 14 22 22 27 72 46 46 57
REMARK Flexibility Score: inf
ROOT
ATOM      1  C   UNL A   1      31.123  30.162  25.245  1.00  0.00     0.117 C 
ENDROOT
BRANCH   1   2
ATOM      2  N   UNL A   1      32.435  29.764  24.798  1.00  0.00    -0.356 N 
ATOM      3  C   UNL A   1      32.780  28.712  24.006  1.00  0.00     0.226 C 
ATOM      4  O   UNL A   1      33.824  28.860  23.362  1.00  0.00    -0.274 OA
ATOM      5  H   UNL A   1      33.180  30.328  25.108  1.00  0.00     0.163 HD
BRANCH   3   6
ATOM      6  C   UNL A   1      31.935  27.412  23.897  1.00  0.00     0.053 C 
ATOM      7  C   UNL A   1      33.926  25.947  24.773  1.00  0.00    -0.010 C 
ATOM      8  C   UNL A   1      33.187  25.748  26.105  1.00  0.00     0.003 C 
ATOM      9  C   UNL A   1      32.943  26.238  23.616  1.00  0.00     0.020 C 
ATOM     10  C   UNL A   1      32.165  26.841  26.380  1.00  0.00     0.001 C 
ATOM     11  C   UNL A   1      31.205  27.005  25.201  1.00  0.00     0.017 C 
BRANCH   7  12
ATOM     12  C   UNL A   1      34.804  24.711  24.495  1.00  0.00     0.000 C 
ATOM     13  C   UNL A   1      35.072  23.851  25.721  1.00  0.00     0.004 C 
ENDBRANCH   7  12
BRANCH   6  14
ATOM     14  C   UNL A   1      31.000  27.469  22.637  1.00  0.00     0.052 C 
BRANCH  14  15
ATOM     15  C   UNL A   1      29.871  28.476  22.588  1.00  0.00    -0.043 A 
ATOM     16  C   UNL A   1      28.613  28.165  23.130  1.00  0.00     0.004 A 
ATOM     17  C   UNL A   1      30.040  29.712  21.947  1.00  0.00     0.049 A 
ATOM     18  C   UNL A   1      27.526  29.032  22.955  1.00  0.00     0.004 A 
ATOM     19  C   UNL A   1      28.949  30.562  21.768  1.00  0.00     0.115 A 
ATOM     20  C   UNL A   1      27.689  30.225  22.251  1.00  0.00     0.046 A 
BRANCH  19  21
ATOM     21  O   UNL A   1      29.151  31.714  21.067  1.00  0.00    -0.508 OA
ATOM     22  H   UNL A   1      29.987  31.888  20.681  1.00  0.00     0.293 HD
ENDBRANCH  19  21
ENDBRANCH  14  15
ENDBRANCH   6  14
ENDBRANCH   3   6
ENDBRANCH   1   2
BRANCH   1  23
ATOM     23  C   UNL A   1      31.027  31.562  25.792  1.00  0.00     0.042 C 
BRANCH  23  24
ATOM     24  C   UNL A   1      32.050  31.829  26.879  1.00  0.00     0.118 C 
BRANCH  24  25
ATOM     25  N   UNL A   1      32.151  33.245  27.244  1.00  0.00    -0.352 N 
ATOM     26  C   UNL A   1      33.079  33.913  28.002  1.00  0.00     0.251 C 
ATOM     27  H   UNL A   1      31.432  33.813  26.882  1.00  0.00     0.163 HD
ATOM     28  O   UNL A   1      32.871  35.072  28.351  1.00  0.00    -0.269 OA
BRANCH  26  29
ATOM     29  C   UNL A   1      34.312  33.221  28.418  1.00  0.00     0.039 A 
ATOM     30  C   UNL A   1      35.519  33.922  28.456  1.00  0.00     0.014 A 
ATOM     31  C   UNL A   1      34.265  31.885  28.812  1.00  0.00     0.014 A 
ATOM     32  C   UNL A   1      36.652  33.302  28.979  1.00  0.00     0.010 A 
ATOM     33  C   UNL A   1      35.345  31.326  29.471  1.00  0.00     0.010 A 
ATOM     34  C   UNL A   1      36.559  32.018  29.542  1.00  0.00    -0.014 A 
BRANCH  34  35
ATOM     35  C   UNL A   1      37.721  31.366  30.190  1.00  0.00     0.031 A 
ATOM     36  C   UNL A   1      38.067  31.696  31.617  1.00  0.00     0.074 A 
ATOM     37  C   UNL A   1      38.505  30.538  29.471  1.00  0.00     0.049 A 
ATOM     38  N   UNL A   1      39.070  31.272  32.344  1.00  0.00    -0.248 NA
ATOM     39  C   UNL A   1      37.203  32.669  32.307  1.00  0.00     0.031 C 
ATOM     40  C   UNL A   1      38.323  30.214  28.052  1.00  0.00     0.029 A 
ATOM     41  N   UNL A   1      39.613  29.818  29.834  1.00  0.00    -0.354 N 
ATOM     42  C   UNL A   1      38.966  31.944  33.556  1.00  0.00     0.074 A 
ATOM     43  C   UNL A   1      37.857  32.862  33.441  1.00  0.00     0.031 C 
ATOM     44  C   UNL A   1      39.253  29.321  27.682  1.00  0.00     0.029 A 
ATOM     45  C   UNL A   1      40.117  29.037  28.822  1.00  0.00     0.049 A 
ATOM     46  H   UNL A   1      40.008  29.857  30.734  1.00  0.00     0.167 HD
ATOM     47  C   UNL A   1      39.700  31.781  34.680  1.00  0.00     0.037 A 
ATOM     48  C   UNL A   1      41.153  28.179  28.824  1.00  0.00     0.037 A 
ATOM     49  C   UNL A   1      40.774  30.831  34.800  1.00  0.00     0.049 A 
ATOM     50  C   UNL A   1      41.922  27.976  30.099  1.00  0.00     0.074 A 
ATOM     51  C   UNL A   1      41.544  30.534  35.910  1.00  0.00     0.029 A 
ATOM     52  N   UNL A   1      41.222  30.020  33.768  1.00  0.00    -0.354 N 
ATOM     53  N   UNL A   1      41.762  28.557  31.264  1.00  0.00    -0.248 NA
ATOM     54  C   UNL A   1      43.006  26.986  30.064  1.00  0.00     0.031 C 
ATOM     55  C   UNL A   1      42.483  29.565  35.539  1.00  0.00     0.029 A 
ATOM     56  C   UNL A   1      42.264  29.225  34.214  1.00  0.00     0.049 A 
ATOM     57  H   UNL A   1      40.853  30.010  32.856  1.00  0.00     0.167 HD
ATOM     58  C   UNL A   1      42.700  27.980  32.109  1.00  0.00     0.074 A 
ATOM     59  C   UNL A   1      43.413  26.991  31.326  1.00  0.00     0.031 C 
ATOM     60  C   UNL A   1      42.951  28.241  33.415  1.00  0.00     0.037 A 
BRANCH  47  61
ATOM     61  C   UNL A   1      39.350  32.634  35.865  1.00  0.00     0.057 A 
ATOM     62  C   UNL A   1      38.464  32.191  36.860  1.00  0.00     0.134 A 
ATOM     63  C   UNL A   1      39.908  33.908  36.023  1.00  0.00     0.134 A 
ATOM     64  F   UNL A   1      37.880  30.987  36.762  1.00  0.00    -0.206 F 
ATOM     65  C   UNL A   1      38.122  32.996  37.947  1.00  0.00     0.040 A 
ATOM     66  C   UNL A   1      39.598  34.710  37.123  1.00  0.00     0.040 A 
ATOM     67  F   UNL A   1      40.762  34.396  35.112  1.00  0.00    -0.206 F 
ATOM     68  C   UNL A   1      38.697  34.258  38.084  1.00  0.00     0.006 A 
ENDBRANCH  47  61
BRANCH  48  69
ATOM     69  C   UNL A   1      41.483  27.406  27.600  1.00  0.00     0.057 A 
ATOM     70  C   UNL A   1      42.323  27.941  26.614  1.00  0.00     0.134 A 
ATOM     71  C   UNL A   1      40.972  26.122  27.381  1.00  0.00     0.134 A 
ATOM     72  F   UNL A   1      42.834  29.172  26.761  1.00  0.00    -0.206 F 
ATOM     73  C   UNL A   1      42.620  27.240  25.445  1.00  0.00     0.040 A 
ATOM     74  C   UNL A   1      41.283  25.397  26.229  1.00  0.00     0.040 A 
ATOM     75  F   UNL A   1      40.174  25.546  28.293  1.00  0.00    -0.206 F 
ATOM     76  C   UNL A   1      42.103  25.960  25.253  1.00  0.00     0.006 A 
ENDBRANCH  48  69
BRANCH  60  77
ATOM     77  C   UNL A   1      44.007  27.412  34.084  1.00  0.00     0.057 A 
ATOM     78  C   UNL A   1      43.706  26.212  34.738  1.00  0.00     0.134 A 
ATOM     79  C   UNL A   1      45.348  27.816  34.052  1.00  0.00     0.134 A 
ATOM     80  F   UNL A   1      42.439  25.776  34.813  1.00  0.00    -0.206 F 
ATOM     81  C   UNL A   1      44.696  25.459  35.370  1.00  0.00     0.040 A 
ATOM     82  C   UNL A   1      46.352  27.056  34.654  1.00  0.00     0.040 A 
ATOM     83  F   UNL A   1      45.705  28.949  33.430  1.00  0.00    -0.206 F 
ATOM     84  C   UNL A   1      46.025  25.879  35.324  1.00  0.00     0.006 A 
ENDBRANCH  60  77
ENDBRANCH  34  35
ENDBRANCH  26  29
ENDBRANCH  24  25
ENDBRANCH  23  24
ENDBRANCH   1  23
TORSDOF 14
ENDMDL
MODEL 3
REMARK VINA RESULT:     -12.3      4.884      9.786
REMARK SMILES CC[C@@H]1CCC[C@@](Cc2cccc(O)c2)(C(=O)NCCCNC(=O)c2ccc(-c3c4nc(c(-c5c(F)cccc5F)c5ccc([nH]5)c(-c5c(F)cccc5F)c5nc(c(-c6c(F)cccc6F)c6ccc3[nH]6)C=C5)C=C4)cc2)C1
REMARK SMILES IDX 19 1 18 2 16 3 17 4 7 6 3 7 4 8 79 9 5 10 6 11 2 12 1 13
REMARK SMILES IDX 8 14 9 15 10 16 15 17 11 18 13 19 12 20 14 21 20 23 21 24
REMARK SMILES IDX 22 25 23 26 24 28 25 29 26 30 78 31 27 32 77 33 28 34 29 35
REMARK SMILES IDX 30 36 71 37 31 38 76 39 70 40 72 41 32 42 75 43 69 44 68 45
REMARK SMILES IDX 33 47 59 48 42 49 58 50 43 51 46 52 57 53 73 54 44 55 45 56
REMARK SMILES IDX 56 58 74 59 47 60 34 61 35 62 40 63 36 64 37 65 39 66 41 67
REMARK SMILES IDX 38 68 60 69 61 70 66 71 62 72 63 73 65 74 67 75 64 76 48 77
REMARK SMILES IDX 49 78 54 79 50 80 51 81 53 82 55 83 52 84
REMARK H PARENT 18 5 14 22 22 27 72 46 46 57
REMARK Flexibility Score: inf
ROOT
ATOM      1  C   UNL A   1      31.570  30.426  26.275  1.00  0.00     0.117 C 
ENDROOT
BRANCH   1   2
ATOM      2  N   UNL A   1      32.794  29.953  25.678  1.00  0.00    -0.356 N 
ATOM      3  C   UNL A   1      32.952  29.118  24.614  1.00  0.00     0.226 C 
ATOM      4  O   UNL A   1      34.008  29.261  23.987  1.00  0.00    -0.274 OA
ATOM      5  H   UNL A   1      33.625  30.276  26.095  1.00  0.00     0.163 HD
BRANCH   3   6
ATOM      6  C   UNL A   1      31.895  28.060  24.195  1.00  0.00     0.053 C 
ATOM      7  C   UNL A   1      33.456  26.087  24.935  1.00  0.00    -0.010 C 
ATOM      8  C   UNL A   1      32.543  25.823  26.142  1.00  0.00     0.003 C 
ATOM      9  C   UNL A   1      32.687  26.766  23.779  1.00  0.00     0.020 C 
ATOM     10  C   UNL A   1      31.722  27.042  26.536  1.00  0.00     0.001 C 
ATOM     11  C   UNL A   1      30.954  27.599  25.336  1.00  0.00     0.017 C 
BRANCH   7  12
ATOM     12  C   UNL A   1      34.110  24.760  24.500  1.00  0.00     0.000 C 
ATOM     13  C   UNL A   1      35.317  24.359  25.334  1.00  0.00     0.004 C 
ENDBRANCH   7  12
BRANCH   6  14
ATOM     14  C   UNL A   1      31.140  28.521  22.897  1.00  0.00     0.052 C 
BRANCH  14  15
ATOM     15  C   UNL A   1      29.819  29.248  23.020  1.00  0.00    -0.043 A 
ATOM     16  C   UNL A   1      29.782  30.612  23.357  1.00  0.00     0.004 A 
ATOM     17  C   UNL A   1      28.605  28.564  22.858  1.00  0.00     0.049 A 
ATOM     18  C   UNL A   1      28.563  31.250  23.618  1.00  0.00     0.004 A 
ATOM     19  C   UNL A   1      27.398  29.206  23.131  1.00  0.00     0.115 A 
ATOM     20  C   UNL A   1      27.367  30.539  23.527  1.00  0.00     0.046 A 
BRANCH  19  21
ATOM     21  O   UNL A   1      26.253  28.470  23.038  1.00  0.00    -0.508 OA
ATOM     22  H   UNL A   1      25.507  28.818  22.589  1.00  0.00     0.293 HD
ENDBRANCH  19  21
ENDBRANCH  14  15
ENDBRANCH   6  14
ENDBRANCH   3   6
ENDBRANCH   1   2
BRANCH   1  23
ATOM     23  C   UNL A   1      31.463  31.922  26.423  1.00  0.00     0.042 C 
BRANCH  23  24
ATOM     24  C   UNL A   1      32.599  32.505  27.240  1.00  0.00     0.118 C 
BRANCH  24  25
ATOM     25  N   UNL A   1      32.404  33.918  27.578  1.00  0.00    -0.352 N 
ATOM     26  C   UNL A   1      33.043  34.720  28.490  1.00  0.00     0.251 C 
ATOM     27  H   UNL A   1      31.695  34.368  27.062  1.00  0.00     0.163 HD
ATOM     28  O   UNL A   1      32.592  35.830  28.756  1.00  0.00    -0.269 OA
BRANCH  26  29
ATOM     29  C   UNL A   1      34.256  34.228  29.167  1.00  0.00     0.039 A 
ATOM     30  C   UNL A   1      34.136  33.456  30.324  1.00  0.00     0.014 A 
ATOM     31  C   UNL A   1      35.514  34.497  28.630  1.00  0.00     0.014 A 
ATOM     32  C   UNL A   1      35.277  32.881  30.882  1.00  0.00     0.010 A 
ATOM     33  C   UNL A   1      36.618  33.802  29.090  1.00  0.00     0.010 A 
ATOM     34  C   UNL A   1      36.519  33.005  30.236  1.00  0.00    -0.014 A 
BRANCH  34  35
ATOM     35  C   UNL A   1      37.734  32.330  30.749  1.00  0.00     0.031 A 
ATOM     36  C   UNL A   1      38.423  32.859  31.978  1.00  0.00     0.074 A 
ATOM     37  C   UNL A   1      38.257  31.294  30.065  1.00  0.00     0.049 A 
ATOM     38  N   UNL A   1      39.523  32.441  32.554  1.00  0.00    -0.248 NA
ATOM     39  C   UNL A   1      37.829  34.043  32.621  1.00  0.00     0.031 C 
ATOM     40  C   UNL A   1      37.729  30.752  28.809  1.00  0.00     0.029 A 
ATOM     41  N   UNL A   1      39.349  30.509  30.330  1.00  0.00    -0.354 N 
ATOM     42  C   UNL A   1      39.757  33.324  33.602  1.00  0.00     0.074 A 
ATOM     43  C   UNL A   1      38.738  34.345  33.534  1.00  0.00     0.031 C 
ATOM     44  C   UNL A   1      38.467  29.692  28.443  1.00  0.00     0.029 A 
ATOM     45  C   UNL A   1      39.538  29.502  29.415  1.00  0.00     0.049 A 
ATOM     46  H   UNL A   1      39.940  30.653  31.103  1.00  0.00     0.167 HD
ATOM     47  C   UNL A   1      40.710  33.267  34.560  1.00  0.00     0.037 A 
ATOM     48  C   UNL A   1      40.466  28.529  29.375  1.00  0.00     0.037 A 
ATOM     49  C   UNL A   1      41.692  32.220  34.645  1.00  0.00     0.049 A 
ATOM     50  C   UNL A   1      41.483  28.455  30.479  1.00  0.00     0.074 A 
ATOM     51  C   UNL A   1      42.664  32.024  35.610  1.00  0.00     0.029 A 
ATOM     52  N   UNL A   1      41.820  31.188  33.728  1.00  0.00    -0.354 N 
ATOM     53  N   UNL A   1      41.644  29.248  31.512  1.00  0.00    -0.248 NA
ATOM     54  C   UNL A   1      42.437  27.340  30.423  1.00  0.00     0.031 C 
ATOM     55  C   UNL A   1      43.403  30.890  35.256  1.00  0.00     0.029 A 
ATOM     56  C   UNL A   1      42.860  30.353  34.100  1.00  0.00     0.049 A 
ATOM     57  H   UNL A   1      41.255  31.066  32.932  1.00  0.00     0.167 HD
ATOM     58  C   UNL A   1      42.693  28.710  32.244  1.00  0.00     0.074 A 
ATOM     59  C   UNL A   1      43.118  27.514  31.546  1.00  0.00     0.031 C 
ATOM     60  C   UNL A   1      43.257  29.163  33.392  1.00  0.00     0.037 A 
BRANCH  47  61
ATOM     61  C   UNL A   1      40.715  34.354  35.596  1.00  0.00     0.057 A 
ATOM     62  C   UNL A   1      41.480  35.520  35.441  1.00  0.00     0.134 A 
ATOM     63  C   UNL A   1      39.943  34.242  36.758  1.00  0.00     0.134 A 
ATOM     64  F   UNL A   1      42.256  35.685  34.359  1.00  0.00    -0.206 F 
ATOM     65  C   UNL A   1      41.501  36.518  36.417  1.00  0.00     0.040 A 
ATOM     66  C   UNL A   1      39.931  35.247  37.727  1.00  0.00     0.040 A 
ATOM     67  F   UNL A   1      39.188  33.155  36.972  1.00  0.00    -0.206 F 
ATOM     68  C   UNL A   1      40.718  36.384  37.562  1.00  0.00     0.006 A 
ENDBRANCH  47  61
BRANCH  48  69
ATOM     69  C   UNL A   1      40.439  27.516  28.291  1.00  0.00     0.057 A 
ATOM     70  C   UNL A   1      39.718  26.323  28.437  1.00  0.00     0.134 A 
ATOM     71  C   UNL A   1      41.126  27.708  27.087  1.00  0.00     0.134 A 
ATOM     72  F   UNL A   1      39.048  26.076  29.572  1.00  0.00    -0.206 F 
ATOM     73  C   UNL A   1      39.704  25.348  27.439  1.00  0.00     0.040 A 
ATOM     74  C   UNL A   1      41.098  26.754  26.069  1.00  0.00     0.040 A 
ATOM     75  F   UNL A   1      41.822  28.835  26.878  1.00  0.00    -0.206 F 
ATOM     76  C   UNL A   1      40.393  25.565  26.247  1.00  0.00     0.006 A 
ENDBRANCH  48  69
BRANCH  60  77
ATOM     77  C   UNL A   1      44.358  28.332  33.981  1.00  0.00     0.057 A 
ATOM     78  C   UNL A   1      45.706  28.572  33.690  1.00  0.00     0.134 A 
ATOM     79  C   UNL A   1      44.061  27.290  34.868  1.00  0.00     0.134 A 
ATOM     80  F   UNL A   1      46.055  29.550  32.839  1.00  0.00    -0.206 F 
ATOM     81  C   UNL A   1      46.720  27.782  34.231  1.00  0.00     0.040 A 
ATOM     82  C   UNL A   1      45.068  26.512  35.441  1.00  0.00     0.040 A 
ATOM     83  F   UNL A   1      42.791  27.016  35.198  1.00  0.00    -0.206 F 
ATOM     84  C   UNL A   1      46.401  26.751  35.114  1.00  0.00     0.006 A 
ENDBRANCH  60  77
ENDBRANCH  34  35
ENDBRANCH  26  29
ENDBRANCH  24  25
ENDBRANCH  23  24
ENDBRANCH   1  23
TORSDOF 14
ENDMDL
