MODEL 1
REMARK VINA RESULT:     -12.2      0.000      0.000
REMARK SMILES CC(C)(C)OC(=O)N1CCC[C@@H](CC2CCCCC2)[C@@H]1C(=O)NCCCNC(=O)c1ccc(-c2c3nc(c(-c4c(F)cccc4F)c4ccc([nH]4)c(-c4c(F)cccc4F)c4nc(c(-c5c(F)cccc5F)c5ccc2[nH]5)C=C4)C=C3)cc1
REMARK SMILES IDX 24 1 23 2 21 3 22 4 20 6 8 7 9 8 10 9 12 10 11 11 6 12 7 13
REMARK SMILES IDX 5 14 2 15 1 16 3 17 4 18 13 19 14 20 15 21 19 22 16 23 18 24
REMARK SMILES IDX 17 25 25 26 26 27 27 28 28 29 29 31 30 32 31 33 83 34 32 35
REMARK SMILES IDX 82 36 33 37 34 38 35 39 76 40 36 41 81 42 75 43 77 44 37 45
REMARK SMILES IDX 80 46 74 47 73 48 38 50 64 51 47 52 63 53 48 54 51 55 62 56
REMARK SMILES IDX 78 57 49 58 50 59 61 61 79 62 52 63 39 64 40 65 45 66 41 67
REMARK SMILES IDX 42 68 44 69 46 70 43 71 65 72 66 73 71 74 67 75 68 76 70 77
REMARK SMILES IDX 72 78 69 79 53 80 54 81 59 82 55 83 56 84 58 85 60 86 57 87
REMARK H PARENT 23 5 27 30 77 49 51 60
REMARK Flexibility Score: inf
ROOT
ATOM      1  C   UNL A   1      31.994  29.671  25.946  1.00  0.00     0.117 C 
ENDROOT
BRANCH   1   2
ATOM      2  N   UNL A   1      32.908  29.663  24.818  1.00  0.00    -0.354 N 
ATOM      3  C   UNL A   1      33.031  28.763  23.800  1.00  0.00     0.243 C 
ATOM      4  O   UNL A   1      33.966  28.925  23.011  1.00  0.00    -0.273 OA
ATOM      5  H   UNL A   1      33.535  30.421  24.783  1.00  0.00     0.163 HD
BRANCH   3   6
ATOM      6  C   UNL A   1      32.139  27.502  23.738  1.00  0.00     0.181 C 
ATOM      7  N   UNL A   1      30.692  27.798  23.512  1.00  0.00    -0.296 N 
ATOM      8  C   UNL A   1      29.752  26.726  23.805  1.00  0.00     0.124 C 
ATOM      9  C   UNL A   1      29.909  26.224  25.226  1.00  0.00     0.022 C 
ATOM     10  C   UNL A   1      32.383  26.713  25.085  1.00  0.00     0.022 C 
ATOM     11  C   UNL A   1      31.310  25.662  25.395  1.00  0.00     0.008 C 
BRANCH   7  12
ATOM     12  C   UNL A   1      30.189  28.838  22.723  1.00  0.00     0.410 C 
ATOM     13  O   UNL A   1      30.412  28.915  21.526  1.00  0.00    -0.224 OA
BRANCH  12  14
ATOM     14  O   UNL A   1      29.392  29.708  23.396  1.00  0.00    -0.444 OA
BRANCH  14  15
ATOM     15  C   UNL A   1      28.076  30.074  22.886  1.00  0.00     0.106 C 
ATOM     16  C   UNL A   1      27.621  31.250  23.763  1.00  0.00     0.056 C 
ATOM     17  C   UNL A   1      27.094  28.914  23.083  1.00  0.00     0.056 C 
ATOM     18  C   UNL A   1      28.085  30.537  21.424  1.00  0.00     0.056 C 
ENDBRANCH  14  15
ENDBRANCH  12  14
ENDBRANCH   7  12
BRANCH  10  19
ATOM     19  C   UNL A   1      33.833  26.225  25.384  1.00  0.00     0.010 C 
BRANCH  19  20
ATOM     20  C   UNL A   1      34.384  24.838  24.975  1.00  0.00    -0.011 C 
ATOM     21  C   UNL A   1      34.310  24.545  23.469  1.00  0.00     0.003 C 
ATOM     22  C   UNL A   1      35.762  24.524  25.566  1.00  0.00     0.003 C 
ATOM     23  C   UNL A   1      34.859  23.168  23.102  1.00  0.00     0.000 C 
ATOM     24  C   UNL A   1      36.273  23.143  25.165  1.00  0.00     0.000 C 
ATOM     25  C   UNL A   1      36.269  22.985  23.650  1.00  0.00     0.000 C 
ENDBRANCH  19  20
ENDBRANCH  10  19
ENDBRANCH   3   6
ENDBRANCH   1   2
BRANCH   1  26
ATOM     26  C   UNL A   1      31.643  31.086  26.363  1.00  0.00     0.042 C 
BRANCH  26  27
ATOM     27  C   UNL A   1      32.774  31.781  27.101  1.00  0.00     0.118 C 
BRANCH  27  28
ATOM     28  N   UNL A   1      32.442  33.152  27.472  1.00  0.00    -0.352 N 
ATOM     29  C   UNL A   1      33.090  33.999  28.336  1.00  0.00     0.251 C 
ATOM     30  H   UNL A   1      31.639  33.523  27.042  1.00  0.00     0.163 HD
ATOM     31  O   UNL A   1      32.569  35.050  28.690  1.00  0.00    -0.269 OA
BRANCH  29  32
ATOM     32  C   UNL A   1      34.419  33.617  28.847  1.00  0.00     0.039 A 
ATOM     33  C   UNL A   1      34.512  32.878  30.028  1.00  0.00     0.014 A 
ATOM     34  C   UNL A   1      35.568  33.964  28.133  1.00  0.00     0.014 A 
ATOM     35  C   UNL A   1      35.760  32.425  30.455  1.00  0.00     0.010 A 
ATOM     36  C   UNL A   1      36.793  33.430  28.504  1.00  0.00     0.010 A 
ATOM     37  C   UNL A   1      36.903  32.667  29.675  1.00  0.00    -0.014 A 
BRANCH  37  38
ATOM     38  C   UNL A   1      38.239  32.167  30.073  1.00  0.00     0.031 A 
ATOM     39  C   UNL A   1      38.722  30.848  29.537  1.00  0.00     0.074 A 
ATOM     40  C   UNL A   1      38.971  32.847  30.976  1.00  0.00     0.049 A 
ATOM     41  N   UNL A   1      39.793  30.168  29.853  1.00  0.00    -0.248 NA
ATOM     42  C   UNL A   1      37.864  30.188  28.537  1.00  0.00     0.031 C 
ATOM     43  C   UNL A   1      38.585  34.112  31.604  1.00  0.00     0.029 A 
ATOM     44  N   UNL A   1      40.191  32.558  31.533  1.00  0.00    -0.354 N 
ATOM     45  C   UNL A   1      39.722  28.992  29.117  1.00  0.00     0.074 A 
ATOM     46  C   UNL A   1      38.477  29.026  28.381  1.00  0.00     0.031 C 
ATOM     47  C   UNL A   1      39.559  34.501  32.443  1.00  0.00     0.029 A 
ATOM     48  C   UNL A   1      40.618  33.496  32.441  1.00  0.00     0.049 A 
ATOM     49  H   UNL A   1      40.711  31.754  31.303  1.00  0.00     0.167 HD
ATOM     50  C   UNL A   1      40.625  27.987  29.039  1.00  0.00     0.037 A 
ATOM     51  C   UNL A   1      41.733  33.533  33.192  1.00  0.00     0.037 A 
ATOM     52  C   UNL A   1      41.881  27.982  29.740  1.00  0.00     0.049 A 
ATOM     53  C   UNL A   1      42.729  32.413  33.076  1.00  0.00     0.074 A 
ATOM     54  C   UNL A   1      42.895  27.044  29.684  1.00  0.00     0.029 A 
ATOM     55  N   UNL A   1      42.294  28.970  30.620  1.00  0.00    -0.354 N 
ATOM     56  N   UNL A   1      42.676  31.333  32.334  1.00  0.00    -0.248 NA
ATOM     57  C   UNL A   1      43.943  32.518  33.899  1.00  0.00     0.031 C 
ATOM     58  C   UNL A   1      43.911  27.448  30.555  1.00  0.00     0.029 A 
ATOM     59  C   UNL A   1      43.546  28.659  31.123  1.00  0.00     0.049 A 
ATOM     60  H   UNL A   1      41.775  29.774  30.853  1.00  0.00     0.167 HD
ATOM     61  C   UNL A   1      43.860  30.647  32.575  1.00  0.00     0.074 A 
ATOM     62  C   UNL A   1      44.615  31.437  33.526  1.00  0.00     0.031 C 
ATOM     63  C   UNL A   1      44.285  29.470  32.056  1.00  0.00     0.037 A 
BRANCH  50  64
ATOM     64  C   UNL A   1      40.287  26.824  28.155  1.00  0.00     0.057 A 
ATOM     65  C   UNL A   1      40.819  26.697  26.866  1.00  0.00     0.134 A 
ATOM     66  C   UNL A   1      39.433  25.808  28.604  1.00  0.00     0.134 A 
ATOM     67  F   UNL A   1      41.632  27.643  26.370  1.00  0.00    -0.206 F 
ATOM     68  C   UNL A   1      40.492  25.618  26.042  1.00  0.00     0.040 A 
ATOM     69  C   UNL A   1      39.120  24.710  27.801  1.00  0.00     0.040 A 
ATOM     70  F   UNL A   1      38.891  25.866  29.830  1.00  0.00    -0.206 F 
ATOM     71  C   UNL A   1      39.645  24.618  26.514  1.00  0.00     0.006 A 
ENDBRANCH  50  64
BRANCH  51  72
ATOM     72  C   UNL A   1      41.984  34.683  34.096  1.00  0.00     0.057 A 
ATOM     73  C   UNL A   1      42.582  35.854  33.618  1.00  0.00     0.134 A 
ATOM     74  C   UNL A   1      41.641  34.640  35.452  1.00  0.00     0.134 A 
ATOM     75  F   UNL A   1      42.949  35.948  32.331  1.00  0.00    -0.206 F 
ATOM     76  C   UNL A   1      42.849  36.936  34.458  1.00  0.00     0.040 A 
ATOM     77  C   UNL A   1      41.880  35.724  36.300  1.00  0.00     0.040 A 
ATOM     78  F   UNL A   1      41.057  33.550  35.969  1.00  0.00    -0.206 F 
ATOM     79  C   UNL A   1      42.493  36.874  35.804  1.00  0.00     0.006 A 
ENDBRANCH  51  72
BRANCH  63  80
ATOM     80  C   UNL A   1      45.642  28.988  32.470  1.00  0.00     0.057 A 
ATOM     81  C   UNL A   1      45.821  28.141  33.570  1.00  0.00     0.134 A 
ATOM     82  C   UNL A   1      46.776  29.338  31.727  1.00  0.00     0.134 A 
ATOM     83  F   UNL A   1      44.776  27.781  34.328  1.00  0.00    -0.206 F 
ATOM     84  C   UNL A   1      47.086  27.672  33.927  1.00  0.00     0.040 A 
ATOM     85  C   UNL A   1      48.042  28.856  32.059  1.00  0.00     0.040 A 
ATOM     86  F   UNL A   1      46.668  30.140  30.656  1.00  0.00    -0.206 F 
ATOM     87  C   UNL A   1      48.200  28.023  33.166  1.00  0.00     0.006 A 
ENDBRANCH  63  80
ENDBRANCH  37  38
ENDBRANCH  29  32
ENDBRANCH  27  28
ENDBRANCH  26  27
ENDBRANCH   1  26
TORSDOF 15
ENDMDL
MODEL 2
REMARK VINA RESULT:     -12.1      4.063      8.999
REMARK SMILES CC(C)(C)OC(=O)N1CCC[C@@H](CC2CCCCC2)[C@@H]1C(=O)NCCCNC(=O)c1ccc(-c2c3nc(c(-c4c(F)cccc4F)c4ccc([nH]4)c(-c4c(F)cccc4F)c4nc(c(-c5c(F)cccc5F)c5ccc2[nH]5)C=C4)C=C3)cc1
REMARK SMILES IDX 24 1 23 2 21 3 22 4 20 6 8 7 9 8 10 9 12 10 11 11 6 12 7 13
REMARK SMILES IDX 5 14 2 15 1 16 3 17 4 18 13 19 14 20 15 21 19 22 16 23 18 24
REMARK SMILES IDX 17 25 25 26 26 27 27 28 28 29 29 31 30 32 31 33 83 34 32 35
REMARK SMILES IDX 82 36 33 37 34 38 35 39 76 40 36 41 81 42 75 43 77 44 37 45
REMARK SMILES IDX 80 46 74 47 73 48 38 50 64 51 47 52 63 53 48 54 51 55 62 56
REMARK SMILES IDX 78 57 49 58 50 59 61 61 79 62 52 63 39 64 40 65 45 66 41 67
REMARK SMILES IDX 42 68 44 69 46 70 43 71 65 72 66 73 71 74 67 75 68 76 70 77
REMARK SMILES IDX 72 78 69 79 53 80 54 81 59 82 55 83 56 84 58 85 60 86 57 87
REMARK H PARENT 23 5 27 30 77 49 51 60
REMARK Flexibility Score: inf
ROOT
ATOM      1  C   UNL A   1      36.246  21.633  24.905  1.00  0.00     0.117 C 
ENDROOT
BRANCH   1   2
ATOM      2  N   UNL A   1      35.592  21.845  26.183  1.00  0.00    -0.354 N 
ATOM      3  C   UNL A   1      34.342  22.321  26.456  1.00  0.00     0.243 C 
ATOM      4  O   UNL A   1      34.054  22.510  27.641  1.00  0.00    -0.273 OA
ATOM      5  H   UNL A   1      36.131  21.611  26.973  1.00  0.00     0.163 HD
BRANCH   3   6
ATOM      6  C   UNL A   1      33.391  22.762  25.320  1.00  0.00     0.181 C 
ATOM      7  N   UNL A   1      32.971  21.648  24.419  1.00  0.00    -0.296 N 
ATOM      8  C   UNL A   1      32.393  22.026  23.137  1.00  0.00     0.124 C 
ATOM      9  C   UNL A   1      33.321  22.933  22.356  1.00  0.00     0.022 C 
ATOM     10  C   UNL A   1      34.133  23.916  24.537  1.00  0.00     0.022 C 
ATOM     11  C   UNL A   1      33.543  24.208  23.151  1.00  0.00     0.008 C 
BRANCH   7  12
ATOM     12  C   UNL A   1      32.742  20.326  24.814  1.00  0.00     0.410 C 
ATOM     13  O   UNL A   1      31.771  20.003  25.480  1.00  0.00    -0.224 OA
BRANCH  12  14
ATOM     14  O   UNL A   1      33.656  19.439  24.341  1.00  0.00    -0.444 OA
BRANCH  14  15
ATOM     15  C   UNL A   1      33.268  18.086  23.963  1.00  0.00     0.106 C 
ATOM     16  C   UNL A   1      34.589  17.355  23.682  1.00  0.00     0.056 C 
ATOM     17  C   UNL A   1      32.446  18.116  22.668  1.00  0.00     0.056 C 
ATOM     18  C   UNL A   1      32.520  17.324  25.064  1.00  0.00     0.056 C 
ENDBRANCH  14  15
ENDBRANCH  12  14
ENDBRANCH   7  12
BRANCH  10  19
ATOM     19  C   UNL A   1      34.512  25.202  25.332  1.00  0.00     0.010 C 
BRANCH  19  20
ATOM     20  C   UNL A   1      33.531  26.364  25.624  1.00  0.00    -0.011 C 
ATOM     21  C   UNL A   1      32.207  25.928  26.271  1.00  0.00     0.003 C 
ATOM     22  C   UNL A   1      34.177  27.547  26.352  1.00  0.00     0.003 C 
ATOM     23  C   UNL A   1      31.264  27.098  26.542  1.00  0.00     0.000 C 
ATOM     24  C   UNL A   1      33.195  28.686  26.609  1.00  0.00     0.000 C 
ATOM     25  C   UNL A   1      31.965  28.181  27.352  1.00  0.00     0.000 C 
ENDBRANCH  19  20
ENDBRANCH  10  19
ENDBRANCH   3   6
ENDBRANCH   1   2
BRANCH   1  26
ATOM     26  C   UNL A   1      37.243  20.493  24.977  1.00  0.00     0.042 C 
BRANCH  26  27
ATOM     27  C   UNL A   1      38.537  20.884  25.672  1.00  0.00     0.118 C 
BRANCH  27  28
ATOM     28  N   UNL A   1      39.508  19.797  25.700  1.00  0.00    -0.352 N 
ATOM     29  C   UNL A   1      40.847  19.836  26.003  1.00  0.00     0.251 C 
ATOM     30  H   UNL A   1      39.155  18.908  25.468  1.00  0.00     0.163 HD
ATOM     31  O   UNL A   1      41.565  18.867  25.786  1.00  0.00    -0.269 OA
BRANCH  29  32
ATOM     32  C   UNL A   1      41.411  21.069  26.581  1.00  0.00     0.039 A 
ATOM     33  C   UNL A   1      41.953  22.037  25.732  1.00  0.00     0.014 A 
ATOM     34  C   UNL A   1      41.370  21.276  27.962  1.00  0.00     0.014 A 
ATOM     35  C   UNL A   1      42.390  23.248  26.268  1.00  0.00     0.010 A 
ATOM     36  C   UNL A   1      41.712  22.516  28.479  1.00  0.00     0.010 A 
ATOM     37  C   UNL A   1      42.238  23.509  27.640  1.00  0.00    -0.014 A 
BRANCH  37  38
ATOM     38  C   UNL A   1      42.650  24.799  28.239  1.00  0.00     0.031 A 
ATOM     39  C   UNL A   1      41.620  25.869  28.466  1.00  0.00     0.074 A 
ATOM     40  C   UNL A   1      43.951  25.038  28.492  1.00  0.00     0.049 A 
ATOM     41  N   UNL A   1      41.783  27.107  28.854  1.00  0.00    -0.248 NA
ATOM     42  C   UNL A   1      40.220  25.509  28.182  1.00  0.00     0.031 C 
ATOM     43  C   UNL A   1      45.049  24.095  28.265  1.00  0.00     0.029 A 
ATOM     44  N   UNL A   1      44.572  26.158  28.983  1.00  0.00    -0.354 N 
ATOM     45  C   UNL A   1      40.518  27.678  28.832  1.00  0.00     0.074 A 
ATOM     46  C   UNL A   1      39.605  26.670  28.340  1.00  0.00     0.031 C 
ATOM     47  C   UNL A   1      46.204  24.668  28.638  1.00  0.00     0.029 A 
ATOM     48  C   UNL A   1      45.935  26.030  29.091  1.00  0.00     0.049 A 
ATOM     49  H   UNL A   1      44.086  26.977  29.234  1.00  0.00     0.167 HD
ATOM     50  C   UNL A   1      40.143  28.921  29.214  1.00  0.00     0.037 A 
ATOM     51  C   UNL A   1      46.860  26.915  29.502  1.00  0.00     0.037 A 
ATOM     52  C   UNL A   1      41.050  29.904  29.744  1.00  0.00     0.049 A 
ATOM     53  C   UNL A   1      46.419  28.285  29.937  1.00  0.00     0.074 A 
ATOM     54  C   UNL A   1      40.766  31.171  30.219  1.00  0.00     0.029 A 
ATOM     55  N   UNL A   1      42.418  29.721  29.875  1.00  0.00    -0.354 N 
ATOM     56  N   UNL A   1      45.211  28.794  29.964  1.00  0.00    -0.248 NA
ATOM     57  C   UNL A   1      47.469  29.203  30.402  1.00  0.00     0.031 C 
ATOM     58  C   UNL A   1      41.968  31.769  30.608  1.00  0.00     0.029 A 
ATOM     59  C   UNL A   1      42.995  30.858  30.414  1.00  0.00     0.049 A 
ATOM     60  H   UNL A   1      42.907  28.904  29.624  1.00  0.00     0.167 HD
ATOM     61  C   UNL A   1      45.350  30.077  30.477  1.00  0.00     0.074 A 
ATOM     62  C   UNL A   1      46.759  30.265  30.756  1.00  0.00     0.031 C 
ATOM     63  C   UNL A   1      44.398  31.015  30.699  1.00  0.00     0.037 A 
BRANCH  50  64
ATOM     64  C   UNL A   1      38.692  29.276  29.082  1.00  0.00     0.057 A 
ATOM     65  C   UNL A   1      37.823  29.250  30.180  1.00  0.00     0.134 A 
ATOM     66  C   UNL A   1      38.160  29.664  27.846  1.00  0.00     0.134 A 
ATOM     67  F   UNL A   1      38.266  28.871  31.389  1.00  0.00    -0.206 F 
ATOM     68  C   UNL A   1      36.470  29.569  30.050  1.00  0.00     0.040 A 
ATOM     69  C   UNL A   1      36.815  30.013  27.708  1.00  0.00     0.040 A 
ATOM     70  F   UNL A   1      38.937  29.714  26.754  1.00  0.00    -0.206 F 
ATOM     71  C   UNL A   1      35.965  29.958  28.811  1.00  0.00     0.006 A 
ENDBRANCH  50  64
BRANCH  51  72
ATOM     72  C   UNL A   1      48.291  26.526  29.553  1.00  0.00     0.057 A 
ATOM     73  C   UNL A   1      48.817  25.867  30.671  1.00  0.00     0.134 A 
ATOM     74  C   UNL A   1      49.167  26.805  28.498  1.00  0.00     0.134 A 
ATOM     75  F   UNL A   1      48.030  25.587  31.721  1.00  0.00    -0.206 F 
ATOM     76  C   UNL A   1      50.165  25.516  30.748  1.00  0.00     0.040 A 
ATOM     77  C   UNL A   1      50.514  26.439  28.550  1.00  0.00     0.040 A 
ATOM     78  F   UNL A   1      48.724  27.426  27.396  1.00  0.00    -0.206 F 
ATOM     79  C   UNL A   1      51.018  25.799  29.681  1.00  0.00     0.006 A 
ENDBRANCH  51  72
BRANCH  63  80
ATOM     80  C   UNL A   1      44.840  32.310  31.311  1.00  0.00     0.057 A 
ATOM     81  C   UNL A   1      45.216  33.408  30.527  1.00  0.00     0.134 A 
ATOM     82  C   UNL A   1      44.843  32.473  32.702  1.00  0.00     0.134 A 
ATOM     83  F   UNL A   1      45.246  33.309  29.190  1.00  0.00    -0.206 F 
ATOM     84  C   UNL A   1      45.594  34.619  31.107  1.00  0.00     0.040 A 
ATOM     85  C   UNL A   1      45.196  33.687  33.293  1.00  0.00     0.040 A 
ATOM     86  F   UNL A   1      44.485  31.461  33.507  1.00  0.00    -0.206 F 
ATOM     87  C   UNL A   1      45.578  34.763  32.494  1.00  0.00     0.006 A 
ENDBRANCH  63  80
ENDBRANCH  37  38
ENDBRANCH  29  32
ENDBRANCH  27  28
ENDBRANCH  26  27
ENDBRANCH   1  26
TORSDOF 15
ENDMDL
MODEL 3
REMARK VINA RESULT:     -11.9      0.448      6.200
REMARK SMILES CC(C)(C)OC(=O)N1CCC[C@@H](CC2CCCCC2)[C@@H]1C(=O)NCCCNC(=O)c1ccc(-c2c3nc(c(-c4c(F)cccc4F)c4ccc([nH]4)c(-c4c(F)cccc4F)c4nc(c(-c5c(F)cccc5F)c5ccc2[nH]5)C=C4)C=C3)cc1
REMARK SMILES IDX 24 1 23 2 21 3 22 4 20 6 8 7 9 8 10 9 12 10 11 11 6 12 7 13
REMARK SMILES IDX 5 14 2 15 1 16 3 17 4 18 13 19 14 20 15 21 19 22 16 23 18 24
REMARK SMILES IDX 17 25 25 26 26 27 27 28 28 29 29 31 30 32 31 33 83 34 32 35
REMARK SMILES IDX 82 36 33 37 34 38 35 39 76 40 36 41 81 42 75 43 77 44 37 45
REMARK SMILES IDX 80 46 74 47 73 48 38 50 64 51 47 52 63 53 48 54 51 55 62 56
REMARK SMILES IDX 78 57 49 58 50 59 61 61 79 62 52 63 39 64 40 65 45 66 41 67
REMARK SMILES IDX 42 68 44 69 46 70 43 71 65 72 66 73 71 74 67 75 68 76 70 77
REMARK SMILES IDX 72 78 69 79 53 80 54 81 59 82 55 83 56 84 58 85 60 86 57 87
REMARK H PARENT 23 5 27 30 77 49 51 60
REMARK Flexibility Score: inf
ROOT
ATOM      1  C   UNL A   1      31.824  29.935  25.891  1.00  0.00     0.117 C 
ENDROOT
BRANCH   1   2
ATOM      2  N   UNL A   1      32.797  29.826  24.820  1.00  0.00    -0.354 N 
ATOM      3  C   UNL A   1      33.001  28.817  23.924  1.00  0.00     0.243 C 
ATOM      4  O   UNL A   1      33.972  28.917  23.170  1.00  0.00    -0.273 OA
ATOM      5  H   UNL A   1      33.402  30.597  24.725  1.00  0.00     0.163 HD
BRANCH   3   6
ATOM      6  C   UNL A   1      32.152  27.525  23.971  1.00  0.00     0.181 C 
ATOM      7  N   UNL A   1      30.697  27.752  23.717  1.00  0.00    -0.296 N 
ATOM      8  C   UNL A   1      29.792  26.678  24.100  1.00  0.00     0.124 C 
ATOM      9  C   UNL A   1      29.958  26.308  25.558  1.00  0.00     0.022 C 
ATOM     10  C   UNL A   1      32.415  26.865  25.381  1.00  0.00     0.022 C 
ATOM     11  C   UNL A   1      31.376  25.809  25.779  1.00  0.00     0.008 C 
BRANCH   7  12
ATOM     12  C   UNL A   1      30.164  28.703  22.840  1.00  0.00     0.410 C 
ATOM     13  O   UNL A   1      30.336  28.646  21.633  1.00  0.00    -0.224 OA
BRANCH  12  14
ATOM     14  O   UNL A   1      29.398  29.647  23.445  1.00  0.00    -0.444 OA
BRANCH  14  15
ATOM     15  C   UNL A   1      28.092  30.015  22.910  1.00  0.00     0.106 C 
ATOM     16  C   UNL A   1      27.653  31.236  23.732  1.00  0.00     0.056 C 
ATOM     17  C   UNL A   1      27.087  28.882  23.150  1.00  0.00     0.056 C 
ATOM     18  C   UNL A   1      28.118  30.414  21.429  1.00  0.00     0.056 C 
ENDBRANCH  14  15
ENDBRANCH  12  14
ENDBRANCH   7  12
BRANCH  10  19
ATOM     19  C   UNL A   1      33.879  26.453  25.724  1.00  0.00     0.010 C 
BRANCH  19  20
ATOM     20  C   UNL A   1      34.531  25.119  25.288  1.00  0.00    -0.011 C 
ATOM     21  C   UNL A   1      34.300  23.953  26.260  1.00  0.00     0.003 C 
ATOM     22  C   UNL A   1      34.236  24.737  23.834  1.00  0.00     0.003 C 
ATOM     23  C   UNL A   1      34.958  22.654  25.800  1.00  0.00     0.000 C 
ATOM     24  C   UNL A   1      34.907  23.429  23.422  1.00  0.00     0.000 C 
ATOM     25  C   UNL A   1      34.531  22.305  24.379  1.00  0.00     0.000 C 
ENDBRANCH  19  20
ENDBRANCH  10  19
ENDBRANCH   3   6
ENDBRANCH   1   2
BRANCH   1  26
ATOM     26  C   UNL A   1      31.569  31.382  26.263  1.00  0.00     0.042 C 
BRANCH  26  27
ATOM     27  C   UNL A   1      32.506  31.886  27.348  1.00  0.00     0.118 C 
BRANCH  27  28
ATOM     28  N   UNL A   1      32.359  33.315  27.597  1.00  0.00    -0.352 N 
ATOM     29  C   UNL A   1      33.142  34.150  28.355  1.00  0.00     0.251 C 
ATOM     30  H   UNL A   1      31.589  33.743  27.159  1.00  0.00     0.163 HD
ATOM     31  O   UNL A   1      32.768  35.285  28.623  1.00  0.00    -0.269 OA
BRANCH  29  32
ATOM     32  C   UNL A   1      34.436  33.653  28.857  1.00  0.00     0.039 A 
ATOM     33  C   UNL A   1      34.496  33.053  30.117  1.00  0.00     0.014 A 
ATOM     34  C   UNL A   1      35.579  33.752  28.061  1.00  0.00     0.014 A 
ATOM     35  C   UNL A   1      35.696  32.488  30.548  1.00  0.00     0.010 A 
ATOM     36  C   UNL A   1      36.742  33.104  28.448  1.00  0.00     0.010 A 
ATOM     37  C   UNL A   1      36.816  32.478  29.700  1.00  0.00    -0.014 A 
BRANCH  37  38
ATOM     38  C   UNL A   1      38.095  31.850  30.105  1.00  0.00     0.031 A 
ATOM     39  C   UNL A   1      39.019  32.588  31.033  1.00  0.00     0.074 A 
ATOM     40  C   UNL A   1      38.463  30.669  29.571  1.00  0.00     0.049 A 
ATOM     41  N   UNL A   1      40.233  32.283  31.408  1.00  0.00    -0.248 NA
ATOM     42  C   UNL A   1      38.522  33.861  31.583  1.00  0.00     0.031 C 
ATOM     43  C   UNL A   1      37.674  29.883  28.620  1.00  0.00     0.029 A 
ATOM     44  N   UNL A   1      39.606  29.931  29.744  1.00  0.00    -0.354 N 
ATOM     45  C   UNL A   1      40.654  33.336  32.210  1.00  0.00     0.074 A 
ATOM     46  C   UNL A   1      39.588  34.313  32.223  1.00  0.00     0.031 C 
ATOM     47  C   UNL A   1      38.347  28.762  28.312  1.00  0.00     0.029 A 
ATOM     48  C   UNL A   1      39.629  28.770  29.011  1.00  0.00     0.049 A 
ATOM     49  H   UNL A   1      40.342  30.208  30.338  1.00  0.00     0.167 HD
ATOM     50  C   UNL A   1      41.812  33.465  32.898  1.00  0.00     0.037 A 
ATOM     51  C   UNL A   1      40.581  27.825  28.910  1.00  0.00     0.037 A 
ATOM     52  C   UNL A   1      42.849  32.469  32.916  1.00  0.00     0.049 A 
ATOM     53  C   UNL A   1      41.853  27.983  29.696  1.00  0.00     0.074 A 
ATOM     54  C   UNL A   1      44.035  32.471  33.627  1.00  0.00     0.029 A 
ATOM     55  N   UNL A   1      42.817  31.287  32.191  1.00  0.00    -0.354 N 
ATOM     56  N   UNL A   1      42.215  28.957  30.495  1.00  0.00    -0.248 NA
ATOM     57  C   UNL A   1      42.847  26.907  29.569  1.00  0.00     0.031 C 
ATOM     58  C   UNL A   1      44.736  31.304  33.308  1.00  0.00     0.029 A 
ATOM     59  C   UNL A   1      43.968  30.556  32.430  1.00  0.00     0.049 A 
ATOM     60  H   UNL A   1      42.084  31.008  31.595  1.00  0.00     0.167 HD
ATOM     61  C   UNL A   1      43.462  28.598  30.991  1.00  0.00     0.074 A 
ATOM     62  C   UNL A   1      43.790  27.313  30.408  1.00  0.00     0.031 C 
ATOM     63  C   UNL A   1      44.264  29.271  31.851  1.00  0.00     0.037 A 
BRANCH  50  64
ATOM     64  C   UNL A   1      42.006  34.721  33.694  1.00  0.00     0.057 A 
ATOM     65  C   UNL A   1      41.579  34.826  35.024  1.00  0.00     0.134 A 
ATOM     66  C   UNL A   1      42.642  35.835  33.130  1.00  0.00     0.134 A 
ATOM     67  F   UNL A   1      40.949  33.801  35.618  1.00  0.00    -0.206 F 
ATOM     68  C   UNL A   1      41.750  36.002  35.756  1.00  0.00     0.040 A 
ATOM     69  C   UNL A   1      42.844  37.007  33.861  1.00  0.00     0.040 A 
ATOM     70  F   UNL A   1      43.078  35.801  31.862  1.00  0.00    -0.206 F 
ATOM     71  C   UNL A   1      42.391  37.094  35.175  1.00  0.00     0.006 A 
ENDBRANCH  50  64
BRANCH  51  72
ATOM     72  C   UNL A   1      40.357  26.632  28.057  1.00  0.00     0.057 A 
ATOM     73  C   UNL A   1      40.942  26.536  26.789  1.00  0.00     0.134 A 
ATOM     74  C   UNL A   1      39.555  25.566  28.479  1.00  0.00     0.134 A 
ATOM     75  F   UNL A   1      41.707  27.534  26.321  1.00  0.00    -0.206 F 
ATOM     76  C   UNL A   1      40.723  25.433  25.962  1.00  0.00     0.040 A 
ATOM     77  C   UNL A   1      39.346  24.444  27.673  1.00  0.00     0.040 A 
ATOM     78  F   UNL A   1      38.974  25.593  29.688  1.00  0.00    -0.206 F 
ATOM     79  C   UNL A   1      39.925  24.380  26.407  1.00  0.00     0.006 A 
ENDBRANCH  51  72
BRANCH  63  80
ATOM     80  C   UNL A   1      45.550  28.612  32.248  1.00  0.00     0.057 A 
ATOM     81  C   UNL A   1      46.746  28.852  31.561  1.00  0.00     0.134 A 
ATOM     82  C   UNL A   1      45.599  27.764  33.362  1.00  0.00     0.134 A 
ATOM     83  F   UNL A   1      46.761  29.644  30.479  1.00  0.00    -0.206 F 
ATOM     84  C   UNL A   1      47.944  28.258  31.960  1.00  0.00     0.040 A 
ATOM     85  C   UNL A   1      46.795  27.185  33.785  1.00  0.00     0.040 A 
ATOM     86  F   UNL A   1      44.487  27.502  34.067  1.00  0.00    -0.206 F 
ATOM     87  C   UNL A   1      47.972  27.428  33.079  1.00  0.00     0.006 A 
ENDBRANCH  63  80
ENDBRANCH  37  38
ENDBRANCH  29  32
ENDBRANCH  27  28
ENDBRANCH  26  27
ENDBRANCH   1  26
TORSDOF 15
ENDMDL
