MODEL 1
REMARK VINA RESULT:     -11.2      0.000      0.000
REMARK SMILES O=C(NCCCNC(=O)C1(O)CCC(F)(F)CC1)c1ccc(-c2c3nc(c(-c4c(F)cccc4F)c4ccc([nH]4)c(-c4c(F)cccc4F)c4nc(c(-c5c(F)cccc5F)c5ccc2[nH]5)C=C4)C=C3)cc1
REMARK SMILES IDX 4 1 3 2 1 3 2 4 19 6 20 7 72 8 21 9 71 10 22 11 23 12 24 13
REMARK SMILES IDX 65 14 25 15 70 16 64 17 66 18 26 19 69 20 63 21 62 22 27 24
REMARK SMILES IDX 53 25 36 26 52 27 37 28 40 29 51 30 67 31 38 32 39 33 50 35
REMARK SMILES IDX 68 36 41 37 28 38 29 39 34 40 30 41 31 42 33 43 35 44 32 45
REMARK SMILES IDX 54 46 55 47 60 48 56 49 57 50 59 51 61 52 58 53 42 54 43 55
REMARK SMILES IDX 48 56 44 57 45 58 47 59 49 60 46 61 5 62 6 63 7 64 8 65 9 67
REMARK SMILES IDX 10 68 12 69 18 70 13 71 17 72 14 73 15 74 16 75 11 76
REMARK H PARENT 3 5 66 23 40 34 7 66 11 77
REMARK Flexibility Score: inf
ROOT
ATOM      1  C   UNL A   1      38.588  20.397  25.546  1.00  0.00     0.118 C 
ENDROOT
BRANCH   1   2
ATOM      2  N   UNL A   1      39.660  19.428  25.702  1.00  0.00    -0.352 N 
ATOM      3  O   UNL A   1      41.788  18.717  25.832  1.00  0.00    -0.269 OA
ATOM      4  C   UNL A   1      40.983  19.625  26.019  1.00  0.00     0.251 C 
ATOM      5  H   UNL A   1      39.400  18.489  25.559  1.00  0.00     0.163 HD
BRANCH   4   6
ATOM      6  C   UNL A   1      41.447  20.915  26.583  1.00  0.00     0.039 A 
ATOM      7  C   UNL A   1      41.913  21.937  25.754  1.00  0.00     0.014 A 
ATOM      8  C   UNL A   1      41.334  21.138  27.960  1.00  0.00     0.014 A 
ATOM      9  C   UNL A   1      42.377  23.127  26.306  1.00  0.00     0.010 A 
ATOM     10  C   UNL A   1      41.714  22.369  28.505  1.00  0.00     0.010 A 
ATOM     11  C   UNL A   1      42.251  23.371  27.683  1.00  0.00    -0.014 A 
BRANCH  11  12
ATOM     12  C   UNL A   1      42.594  24.715  28.216  1.00  0.00     0.031 A 
ATOM     13  C   UNL A   1      44.005  25.081  28.577  1.00  0.00     0.074 A 
ATOM     14  C   UNL A   1      41.605  25.621  28.359  1.00  0.00     0.049 A 
ATOM     15  N   UNL A   1      44.468  26.215  29.043  1.00  0.00    -0.248 NA
ATOM     16  C   UNL A   1      45.031  24.042  28.403  1.00  0.00     0.031 C 
ATOM     17  C   UNL A   1      40.191  25.376  28.064  1.00  0.00     0.029 A 
ATOM     18  N   UNL A   1      41.635  26.929  28.770  1.00  0.00    -0.354 N 
ATOM     19  C   UNL A   1      45.829  26.022  29.234  1.00  0.00     0.074 A 
ATOM     20  C   UNL A   1      46.116  24.654  28.857  1.00  0.00     0.031 C 
ATOM     21  C   UNL A   1      39.497  26.506  28.259  1.00  0.00     0.029 A 
ATOM     22  C   UNL A   1      40.403  27.537  28.752  1.00  0.00     0.049 A 
ATOM     23  H   UNL A   1      42.459  27.389  29.050  1.00  0.00     0.167 HD
ATOM     24  C   UNL A   1      46.754  26.909  29.676  1.00  0.00     0.037 A 
ATOM     25  C   UNL A   1      40.034  28.780  29.109  1.00  0.00     0.037 A 
ATOM     26  C   UNL A   1      46.465  28.275  30.037  1.00  0.00     0.049 A 
ATOM     27  C   UNL A   1      41.077  29.735  29.608  1.00  0.00     0.074 A 
ATOM     28  C   UNL A   1      47.343  29.260  30.457  1.00  0.00     0.029 A 
ATOM     29  N   UNL A   1      45.201  28.847  30.024  1.00  0.00    -0.354 N 
ATOM     30  N   UNL A   1      42.366  29.549  29.747  1.00  0.00    -0.248 NA
ATOM     31  C   UNL A   1      40.615  31.072  30.004  1.00  0.00     0.031 C 
ATOM     32  C   UNL A   1      46.605  30.413  30.743  1.00  0.00     0.029 A 
ATOM     33  C   UNL A   1      45.274  30.164  30.452  1.00  0.00     0.049 A 
ATOM     34  H   UNL A   1      44.376  28.386  29.751  1.00  0.00     0.167 HD
ATOM     35  C   UNL A   1      42.873  30.747  30.230  1.00  0.00     0.074 A 
ATOM     36  C   UNL A   1      41.753  31.660  30.340  1.00  0.00     0.031 C 
ATOM     37  C   UNL A   1      44.150  31.061  30.558  1.00  0.00     0.037 A 
BRANCH  24  38
ATOM     38  C   UNL A   1      48.171  26.429  29.811  1.00  0.00     0.057 A 
ATOM     39  C   UNL A   1      48.635  25.806  30.977  1.00  0.00     0.134 A 
ATOM     40  C   UNL A   1      49.068  26.543  28.741  1.00  0.00     0.134 A 
ATOM     41  F   UNL A   1      47.831  25.672  32.042  1.00  0.00    -0.206 F 
ATOM     42  C   UNL A   1      49.945  25.331  31.080  1.00  0.00     0.040 A 
ATOM     43  C   UNL A   1      50.373  26.052  28.823  1.00  0.00     0.040 A 
ATOM     44  F   UNL A   1      48.687  27.121  27.592  1.00  0.00    -0.206 F 
ATOM     45  C   UNL A   1      50.816  25.447  29.998  1.00  0.00     0.006 A 
ENDBRANCH  24  38
BRANCH  25  46
ATOM     46  C   UNL A   1      38.608  29.184  29.012  1.00  0.00     0.057 A 
ATOM     47  C   UNL A   1      38.063  29.637  27.806  1.00  0.00     0.134 A 
ATOM     48  C   UNL A   1      37.755  29.111  30.120  1.00  0.00     0.134 A 
ATOM     49  F   UNL A   1      38.833  29.744  26.714  1.00  0.00    -0.206 F 
ATOM     50  C   UNL A   1      36.723  30.016  27.709  1.00  0.00     0.040 A 
ATOM     51  C   UNL A   1      36.408  29.459  30.030  1.00  0.00     0.040 A 
ATOM     52  F   UNL A   1      38.216  28.674  31.302  1.00  0.00    -0.206 F 
ATOM     53  C   UNL A   1      35.890  29.921  28.821  1.00  0.00     0.006 A 
ENDBRANCH  25  46
BRANCH  37  54
ATOM     54  C   UNL A   1      44.404  32.458  31.041  1.00  0.00     0.057 A 
ATOM     55  C   UNL A   1      44.375  32.786  32.402  1.00  0.00     0.134 A 
ATOM     56  C   UNL A   1      44.702  33.482  30.133  1.00  0.00     0.134 A 
ATOM     57  F   UNL A   1      44.080  31.854  33.321  1.00  0.00    -0.206 F 
ATOM     58  C   UNL A   1      44.607  34.090  32.842  1.00  0.00     0.040 A 
ATOM     59  C   UNL A   1      44.963  34.784  30.563  1.00  0.00     0.040 A 
ATOM     60  F   UNL A   1      44.752  33.233  28.816  1.00  0.00    -0.206 F 
ATOM     61  C   UNL A   1      44.908  35.092  31.921  1.00  0.00     0.006 A 
ENDBRANCH  37  54
ENDBRANCH  11  12
ENDBRANCH   4   6
ENDBRANCH   1   2
BRANCH   1  62
ATOM     62  C   UNL A   1      37.417  19.821  24.763  1.00  0.00     0.042 C 
BRANCH  62  63
ATOM     63  C   UNL A   1      36.129  20.621  24.905  1.00  0.00     0.117 C 
BRANCH  63  64
ATOM     64  N   UNL A   1      35.001  19.831  25.356  1.00  0.00    -0.354 N 
ATOM     65  C   UNL A   1      33.669  20.065  25.370  1.00  0.00     0.251 C 
ATOM     66  H   UNL A   1      35.254  18.953  25.725  1.00  0.00     0.163 HD
ATOM     67  O   UNL A   1      32.961  19.046  25.298  1.00  0.00    -0.272 OA
BRANCH  65  68
ATOM     68  C   UNL A   1      32.953  21.440  25.554  1.00  0.00     0.143 C 
ATOM     69  C   UNL A   1      33.322  22.030  26.926  1.00  0.00     0.051 C 
ATOM     70  C   UNL A   1      32.981  22.495  24.448  1.00  0.00     0.051 C 
ATOM     71  C   UNL A   1      34.609  22.836  26.901  1.00  0.00     0.080 C 
ATOM     72  C   UNL A   1      34.126  23.504  24.484  1.00  0.00     0.080 C 
ATOM     73  C   UNL A   1      34.531  23.953  25.876  1.00  0.00     0.248 C 
ATOM     74  F   UNL A   1      35.738  24.571  25.802  1.00  0.00    -0.207 F 
ATOM     75  F   UNL A   1      33.647  24.886  26.312  1.00  0.00    -0.207 F 
BRANCH  68  76
ATOM     76  O   UNL A   1      31.544  21.087  25.652  1.00  0.00    -0.380 OA
ATOM     77  H   UNL A   1      31.152  21.526  26.423  1.00  0.00     0.212 HD
ENDBRANCH  68  76
ENDBRANCH  65  68
ENDBRANCH  63  64
ENDBRANCH  62  63
ENDBRANCH   1  62
TORSDOF 11
ENDMDL
MODEL 2
REMARK VINA RESULT:     -11.1      0.254      6.615
REMARK SMILES O=C(NCCCNC(=O)C1(O)CCC(F)(F)CC1)c1ccc(-c2c3nc(c(-c4c(F)cccc4F)c4ccc([nH]4)c(-c4c(F)cccc4F)c4nc(c(-c5c(F)cccc5F)c5ccc2[nH]5)C=C4)C=C3)cc1
REMARK SMILES IDX 4 1 3 2 1 3 2 4 19 6 20 7 72 8 21 9 71 10 22 11 23 12 24 13
REMARK SMILES IDX 65 14 25 15 70 16 64 17 66 18 26 19 69 20 63 21 62 22 27 24
REMARK SMILES IDX 53 25 36 26 52 27 37 28 40 29 51 30 67 31 38 32 39 33 50 35
REMARK SMILES IDX 68 36 41 37 28 38 29 39 34 40 30 41 31 42 33 43 35 44 32 45
REMARK SMILES IDX 54 46 55 47 60 48 56 49 57 50 59 51 61 52 58 53 42 54 43 55
REMARK SMILES IDX 48 56 44 57 45 58 47 59 49 60 46 61 5 62 6 63 7 64 8 65 9 67
REMARK SMILES IDX 10 68 12 69 18 70 13 71 17 72 14 73 15 74 16 75 11 76
REMARK H PARENT 3 5 66 23 40 34 7 66 11 77
REMARK Flexibility Score: inf
ROOT
ATOM      1  C   UNL A   1      38.648  20.370  25.398  1.00  0.00     0.118 C 
ENDROOT
BRANCH   1   2
ATOM      2  N   UNL A   1      39.685  19.382  25.646  1.00  0.00    -0.352 N 
ATOM      3  O   UNL A   1      41.785  18.626  25.909  1.00  0.00    -0.269 OA
ATOM      4  C   UNL A   1      40.996  19.559  26.020  1.00  0.00     0.251 C 
ATOM      5  H   UNL A   1      39.408  18.445  25.527  1.00  0.00     0.163 HD
BRANCH   4   6
ATOM      6  C   UNL A   1      41.465  20.859  26.555  1.00  0.00     0.039 A 
ATOM      7  C   UNL A   1      41.934  21.862  25.704  1.00  0.00     0.014 A 
ATOM      8  C   UNL A   1      41.356  21.112  27.927  1.00  0.00     0.014 A 
ATOM      9  C   UNL A   1      42.403  23.062  26.230  1.00  0.00     0.010 A 
ATOM     10  C   UNL A   1      41.741  22.354  28.445  1.00  0.00     0.010 A 
ATOM     11  C   UNL A   1      42.281  23.336  27.601  1.00  0.00    -0.014 A 
BRANCH  11  12
ATOM     12  C   UNL A   1      42.629  24.690  28.104  1.00  0.00     0.031 A 
ATOM     13  C   UNL A   1      41.579  25.740  28.326  1.00  0.00     0.074 A 
ATOM     14  C   UNL A   1      43.922  24.962  28.377  1.00  0.00     0.049 A 
ATOM     15  N   UNL A   1      41.720  26.964  28.771  1.00  0.00    -0.248 NA
ATOM     16  C   UNL A   1      40.191  25.377  28.002  1.00  0.00     0.031 C 
ATOM     17  C   UNL A   1      45.036  24.030  28.180  1.00  0.00     0.029 A 
ATOM     18  N   UNL A   1      44.517  26.085  28.890  1.00  0.00    -0.354 N 
ATOM     19  C   UNL A   1      40.449  27.523  28.763  1.00  0.00     0.074 A 
ATOM     20  C   UNL A   1      39.550  26.513  28.245  1.00  0.00     0.031 C 
ATOM     21  C   UNL A   1      46.170  24.602  28.609  1.00  0.00     0.029 A 
ATOM     22  C   UNL A   1      45.876  25.960  29.052  1.00  0.00     0.049 A 
ATOM     23  H   UNL A   1      44.020  26.902  29.121  1.00  0.00     0.167 HD
ATOM     24  C   UNL A   1      40.068  28.762  29.158  1.00  0.00     0.037 A 
ATOM     25  C   UNL A   1      46.791  26.843  29.490  1.00  0.00     0.037 A 
ATOM     26  C   UNL A   1      40.966  29.760  29.685  1.00  0.00     0.049 A 
ATOM     27  C   UNL A   1      46.342  28.212  29.907  1.00  0.00     0.074 A 
ATOM     28  C   UNL A   1      40.667  31.030  30.149  1.00  0.00     0.029 A 
ATOM     29  N   UNL A   1      42.338  29.602  29.815  1.00  0.00    -0.354 N 
ATOM     30  N   UNL A   1      45.131  28.712  29.929  1.00  0.00    -0.248 NA
ATOM     31  C   UNL A   1      47.386  29.142  30.357  1.00  0.00     0.031 C 
ATOM     32  C   UNL A   1      41.863  31.657  30.515  1.00  0.00     0.029 A 
ATOM     33  C   UNL A   1      42.902  30.760  30.328  1.00  0.00     0.049 A 
ATOM     34  H   UNL A   1      42.838  28.788  29.577  1.00  0.00     0.167 HD
ATOM     35  C   UNL A   1      45.263  30.007  30.409  1.00  0.00     0.074 A 
ATOM     36  C   UNL A   1      46.671  30.208  30.686  1.00  0.00     0.031 C 
ATOM     37  C   UNL A   1      44.305  30.946  30.598  1.00  0.00     0.037 A 
BRANCH  24  38
ATOM     38  C   UNL A   1      38.617  29.122  29.022  1.00  0.00     0.057 A 
ATOM     39  C   UNL A   1      37.731  29.053  30.106  1.00  0.00     0.134 A 
ATOM     40  C   UNL A   1      38.109  29.595  27.805  1.00  0.00     0.134 A 
ATOM     41  F   UNL A   1      38.149  28.601  31.297  1.00  0.00    -0.206 F 
ATOM     42  C   UNL A   1      36.390  29.424  29.979  1.00  0.00     0.040 A 
ATOM     43  C   UNL A   1      36.777  29.991  27.671  1.00  0.00     0.040 A 
ATOM     44  F   UNL A   1      38.904  29.695  26.729  1.00  0.00    -0.206 F 
ATOM     45  C   UNL A   1      35.911  29.901  28.760  1.00  0.00     0.006 A 
ENDBRANCH  24  38
BRANCH  25  46
ATOM     46  C   UNL A   1      48.223  26.455  29.547  1.00  0.00     0.057 A 
ATOM     47  C   UNL A   1      48.753  25.800  30.664  1.00  0.00     0.134 A 
ATOM     48  C   UNL A   1      49.090  26.717  28.479  1.00  0.00     0.134 A 
ATOM     49  F   UNL A   1      47.977  25.536  31.724  1.00  0.00    -0.206 F 
ATOM     50  C   UNL A   1      50.098  25.432  30.723  1.00  0.00     0.040 A 
ATOM     51  C   UNL A   1      50.429  26.329  28.512  1.00  0.00     0.040 A 
ATOM     52  F   UNL A   1      48.639  27.333  27.376  1.00  0.00    -0.206 F 
ATOM     53  C   UNL A   1      50.939  25.690  29.641  1.00  0.00     0.006 A 
ENDBRANCH  25  46
BRANCH  37  54
ATOM     54  C   UNL A   1      44.749  32.266  31.154  1.00  0.00     0.057 A 
ATOM     55  C   UNL A   1      45.113  33.334  30.325  1.00  0.00     0.134 A 
ATOM     56  C   UNL A   1      44.792  32.478  32.539  1.00  0.00     0.134 A 
ATOM     57  F   UNL A   1      45.109  33.191  28.991  1.00  0.00    -0.206 F 
ATOM     58  C   UNL A   1      45.530  34.558  30.852  1.00  0.00     0.040 A 
ATOM     59  C   UNL A   1      45.180  33.705  33.077  1.00  0.00     0.040 A 
ATOM     60  F   UNL A   1      44.449  31.498  33.389  1.00  0.00    -0.206 F 
ATOM     61  C   UNL A   1      45.558  34.747  32.232  1.00  0.00     0.006 A 
ENDBRANCH  37  54
ENDBRANCH  11  12
ENDBRANCH   4   6
ENDBRANCH   1   2
BRANCH   1  62
ATOM     62  C   UNL A   1      37.401  19.739  24.796  1.00  0.00     0.042 C 
BRANCH  62  63
ATOM     63  C   UNL A   1      36.140  20.574  24.977  1.00  0.00     0.117 C 
BRANCH  63  64
ATOM     64  N   UNL A   1      34.975  19.794  25.346  1.00  0.00    -0.354 N 
ATOM     65  C   UNL A   1      33.650  20.060  25.311  1.00  0.00     0.251 C 
ATOM     66  H   UNL A   1      35.191  18.897  25.689  1.00  0.00     0.163 HD
ATOM     67  O   UNL A   1      32.923  19.063  25.168  1.00  0.00    -0.272 OA
BRANCH  65  68
ATOM     68  C   UNL A   1      32.959  21.445  25.519  1.00  0.00     0.143 C 
ATOM     69  C   UNL A   1      33.345  22.008  26.898  1.00  0.00     0.051 C 
ATOM     70  C   UNL A   1      32.998  22.515  24.429  1.00  0.00     0.051 C 
ATOM     71  C   UNL A   1      34.645  22.793  26.876  1.00  0.00     0.080 C 
ATOM     72  C   UNL A   1      34.161  23.504  24.472  1.00  0.00     0.080 C 
ATOM     73  C   UNL A   1      34.581  23.926  25.869  1.00  0.00     0.248 C 
ATOM     74  F   UNL A   1      35.797  24.524  25.796  1.00  0.00    -0.207 F 
ATOM     75  F   UNL A   1      33.715  24.868  26.323  1.00  0.00    -0.207 F 
BRANCH  68  76
ATOM     76  O   UNL A   1      31.544  21.114  25.620  1.00  0.00    -0.380 OA
ATOM     77  H   UNL A   1      31.019  21.795  25.169  1.00  0.00     0.212 HD
ENDBRANCH  68  76
ENDBRANCH  65  68
ENDBRANCH  63  64
ENDBRANCH  62  63
ENDBRANCH   1  62
TORSDOF 11
ENDMDL
MODEL 3
REMARK VINA RESULT:     -11.1      0.301      1.409
REMARK SMILES O=C(NCCCNC(=O)C1(O)CCC(F)(F)CC1)c1ccc(-c2c3nc(c(-c4c(F)cccc4F)c4ccc([nH]4)c(-c4c(F)cccc4F)c4nc(c(-c5c(F)cccc5F)c5ccc2[nH]5)C=C4)C=C3)cc1
REMARK SMILES IDX 4 1 3 2 1 3 2 4 19 6 20 7 72 8 21 9 71 10 22 11 23 12 24 13
REMARK SMILES IDX 65 14 25 15 70 16 64 17 66 18 26 19 69 20 63 21 62 22 27 24
REMARK SMILES IDX 53 25 36 26 52 27 37 28 40 29 51 30 67 31 38 32 39 33 50 35
REMARK SMILES IDX 68 36 41 37 28 38 29 39 34 40 30 41 31 42 33 43 35 44 32 45
REMARK SMILES IDX 54 46 55 47 60 48 56 49 57 50 59 51 61 52 58 53 42 54 43 55
REMARK SMILES IDX 48 56 44 57 45 58 47 59 49 60 46 61 5 62 6 63 7 64 8 65 9 67
REMARK SMILES IDX 10 68 12 69 18 70 13 71 17 72 14 73 15 74 16 75 11 76
REMARK H PARENT 3 5 66 23 40 34 7 66 11 77
REMARK Flexibility Score: inf
ROOT
ATOM      1  C   UNL A   1      38.762  20.292  25.756  1.00  0.00     0.118 C 
ENDROOT
BRANCH   1   2
ATOM      2  N   UNL A   1      39.869  19.355  25.843  1.00  0.00    -0.352 N 
ATOM      3  O   UNL A   1      42.021  18.708  25.836  1.00  0.00    -0.269 OA
ATOM      4  C   UNL A   1      41.204  19.591  26.074  1.00  0.00     0.251 C 
ATOM      5  H   UNL A   1      39.628  18.409  25.717  1.00  0.00     0.163 HD
BRANCH   4   6
ATOM      6  C   UNL A   1      41.664  20.895  26.608  1.00  0.00     0.039 A 
ATOM      7  C   UNL A   1      42.006  21.944  25.751  1.00  0.00     0.014 A 
ATOM      8  C   UNL A   1      41.674  21.102  27.992  1.00  0.00     0.014 A 
ATOM      9  C   UNL A   1      42.470  23.148  26.272  1.00  0.00     0.010 A 
ATOM     10  C   UNL A   1      42.052  22.343  28.514  1.00  0.00     0.010 A 
ATOM     11  C   UNL A   1      42.466  23.375  27.658  1.00  0.00    -0.014 A 
BRANCH  11  12
ATOM     12  C   UNL A   1      42.801  24.728  28.172  1.00  0.00     0.031 A 
ATOM     13  C   UNL A   1      44.216  25.122  28.484  1.00  0.00     0.074 A 
ATOM     14  C   UNL A   1      41.800  25.616  28.344  1.00  0.00     0.049 A 
ATOM     15  N   UNL A   1      44.672  26.266  28.928  1.00  0.00    -0.248 NA
ATOM     16  C   UNL A   1      45.255  24.101  28.280  1.00  0.00     0.031 C 
ATOM     17  C   UNL A   1      40.381  25.343  28.098  1.00  0.00     0.029 A 
ATOM     18  N   UNL A   1      41.819  26.926  28.747  1.00  0.00    -0.354 N 
ATOM     19  C   UNL A   1      46.043  26.101  29.074  1.00  0.00     0.074 A 
ATOM     20  C   UNL A   1      46.343  24.736  28.695  1.00  0.00     0.031 C 
ATOM     21  C   UNL A   1      39.673  26.460  28.310  1.00  0.00     0.029 A 
ATOM     22  C   UNL A   1      40.576  27.511  28.768  1.00  0.00     0.049 A 
ATOM     23  H   UNL A   1      42.643  27.403  28.998  1.00  0.00     0.167 HD
ATOM     24  C   UNL A   1      46.965  27.007  29.481  1.00  0.00     0.037 A 
ATOM     25  C   UNL A   1      40.195  28.749  29.131  1.00  0.00     0.037 A 
ATOM     26  C   UNL A   1      46.663  28.369  29.845  1.00  0.00     0.049 A 
ATOM     27  C   UNL A   1      41.237  29.726  29.590  1.00  0.00     0.074 A 
ATOM     28  C   UNL A   1      47.535  29.372  30.231  1.00  0.00     0.029 A 
ATOM     29  N   UNL A   1      45.388  28.917  29.872  1.00  0.00    -0.354 N 
ATOM     30  N   UNL A   1      42.533  29.565  29.687  1.00  0.00    -0.248 NA
ATOM     31  C   UNL A   1      40.763  31.056  29.996  1.00  0.00     0.031 C 
ATOM     32  C   UNL A   1      46.785  30.513  30.536  1.00  0.00     0.029 A 
ATOM     33  C   UNL A   1      45.450  30.237  30.291  1.00  0.00     0.049 A 
ATOM     34  H   UNL A   1      44.563  28.439  29.629  1.00  0.00     0.167 HD
ATOM     35  C   UNL A   1      43.033  30.774  30.147  1.00  0.00     0.074 A 
ATOM     36  C   UNL A   1      41.901  31.667  30.291  1.00  0.00     0.031 C 
ATOM     37  C   UNL A   1      44.314  31.114  30.430  1.00  0.00     0.037 A 
BRANCH  24  38
ATOM     38  C   UNL A   1      48.394  26.554  29.571  1.00  0.00     0.057 A 
ATOM     39  C   UNL A   1      49.308  26.770  28.531  1.00  0.00     0.134 A 
ATOM     40  C   UNL A   1      48.878  25.944  30.735  1.00  0.00     0.134 A 
ATOM     41  F   UNL A   1      48.910  27.343  27.385  1.00  0.00    -0.206 F 
ATOM     42  C   UNL A   1      50.644  26.377  28.638  1.00  0.00     0.040 A 
ATOM     43  C   UNL A   1      50.216  25.567  30.864  1.00  0.00     0.040 A 
ATOM     44  F   UNL A   1      48.060  25.715  31.774  1.00  0.00    -0.206 F 
ATOM     45  C   UNL A   1      51.103  25.781  29.811  1.00  0.00     0.006 A 
ENDBRANCH  24  38
BRANCH  25  46
ATOM     46  C   UNL A   1      38.760  29.125  29.081  1.00  0.00     0.057 A 
ATOM     47  C   UNL A   1      37.947  29.037  30.215  1.00  0.00     0.134 A 
ATOM     48  C   UNL A   1      38.173  29.596  27.899  1.00  0.00     0.134 A 
ATOM     49  F   UNL A   1      38.447  28.578  31.371  1.00  0.00    -0.206 F 
ATOM     50  C   UNL A   1      36.597  29.390  30.174  1.00  0.00     0.040 A 
ATOM     51  C   UNL A   1      36.833  29.981  27.852  1.00  0.00     0.040 A 
ATOM     52  F   UNL A   1      38.903  29.714  26.780  1.00  0.00    -0.206 F 
ATOM     53  C   UNL A   1      36.039  29.871  28.992  1.00  0.00     0.006 A 
ENDBRANCH  25  46
BRANCH  37  54
ATOM     54  C   UNL A   1      44.558  32.518  30.898  1.00  0.00     0.057 A 
ATOM     55  C   UNL A   1      44.567  32.853  32.258  1.00  0.00     0.134 A 
ATOM     56  C   UNL A   1      44.807  33.543  29.976  1.00  0.00     0.134 A 
ATOM     57  F   UNL A   1      44.320  31.920  33.190  1.00  0.00    -0.206 F 
ATOM     58  C   UNL A   1      44.790  34.163  32.684  1.00  0.00     0.040 A 
ATOM     59  C   UNL A   1      45.058  34.851  30.391  1.00  0.00     0.040 A 
ATOM     60  F   UNL A   1      44.819  33.287  28.659  1.00  0.00    -0.206 F 
ATOM     61  C   UNL A   1      45.041  35.165  31.749  1.00  0.00     0.006 A 
ENDBRANCH  37  54
ENDBRANCH  11  12
ENDBRANCH   4   6
ENDBRANCH   1   2
BRANCH   1  62
ATOM     62  C   UNL A   1      37.752  19.874  24.697  1.00  0.00     0.042 C 
BRANCH  62  63
ATOM     63  C   UNL A   1      36.395  20.552  24.838  1.00  0.00     0.117 C 
BRANCH  63  64
ATOM     64  N   UNL A   1      35.311  19.631  25.116  1.00  0.00    -0.354 N 
ATOM     65  C   UNL A   1      33.967  19.766  25.083  1.00  0.00     0.251 C 
ATOM     66  H   UNL A   1      35.613  18.731  25.380  1.00  0.00     0.163 HD
ATOM     67  O   UNL A   1      33.343  18.720  24.837  1.00  0.00    -0.272 OA
BRANCH  65  68
ATOM     68  C   UNL A   1      33.138  21.051  25.404  1.00  0.00     0.143 C 
ATOM     69  C   UNL A   1      33.481  21.540  26.822  1.00  0.00     0.051 C 
ATOM     70  C   UNL A   1      33.054  22.202  24.403  1.00  0.00     0.051 C 
ATOM     71  C   UNL A   1      34.694  22.454  26.858  1.00  0.00     0.080 C 
ATOM     72  C   UNL A   1      34.109  23.300  24.521  1.00  0.00     0.080 C 
ATOM     73  C   UNL A   1      34.500  23.651  25.945  1.00  0.00     0.248 C 
ATOM     74  F   UNL A   1      35.648  24.377  25.916  1.00  0.00    -0.207 F 
ATOM     75  F   UNL A   1      33.547  24.459  26.477  1.00  0.00    -0.207 F 
BRANCH  68  76
ATOM     76  O   UNL A   1      31.766  20.568  25.483  1.00  0.00    -0.380 OA
ATOM     77  H   UNL A   1      31.649  19.822  24.875  1.00  0.00     0.212 HD
ENDBRANCH  68  76
ENDBRANCH  65  68
ENDBRANCH  63  64
ENDBRANCH  62  63
ENDBRANCH   1  62
TORSDOF 11
ENDMDL
