MODEL 1
REMARK VINA RESULT:     -12.1      0.000      0.000
REMARK SMILES COc1ccc(/C=C(/Sc2nc(C)n[nH]2)C(=O)NCCCNC(=O)c2ccc(-c3c4nc(c(-c5c(F)cccc5F)c5ccc([nH]5)c(-c5c(F)cccc5F)c5nc(c(-c6c(F)cccc6F)c6ccc3[nH]6)C=C5)C=C4)cc2)cc1OC
REMARK SMILES IDX 20 1 19 2 18 3 16 4 17 5 8 7 7 8 6 9 3 10 4 11 80 12 5 13
REMARK SMILES IDX 79 14 2 15 1 16 81 17 82 18 9 19 10 20 11 21 15 22 12 23
REMARK SMILES IDX 14 24 13 26 21 27 22 28 23 29 24 31 25 32 26 33 78 34 27 35
REMARK SMILES IDX 77 36 28 37 29 38 30 39 71 40 31 41 76 42 70 43 72 44 32 45
REMARK SMILES IDX 75 46 69 47 68 48 33 50 59 51 42 52 58 53 43 54 46 55 57 56
REMARK SMILES IDX 73 57 44 58 45 59 56 61 74 62 47 63 34 64 35 65 40 66 36 67
REMARK SMILES IDX 37 68 39 69 41 70 38 71 60 72 61 73 66 74 62 75 63 76 65 77
REMARK SMILES IDX 67 78 64 79 48 80 49 81 54 82 50 83 51 84 53 85 55 86 52 87
REMARK H PARENT 18 6 15 25 22 30 72 49 46 60
REMARK Flexibility Score: inf
ROOT
ATOM      1  C   UNL A   1      32.077  29.561  27.231  1.00  0.00     0.042 C 
ENDROOT
BRANCH   1   2
ATOM      2  C   UNL A   1      31.728  28.075  27.356  1.00  0.00     0.118 C 
BRANCH   2   3
ATOM      3  N   UNL A   1      31.084  27.497  26.183  1.00  0.00    -0.352 N 
ATOM      4  C   UNL A   1      31.600  26.849  25.093  1.00  0.00     0.258 C 
ATOM      5  O   UNL A   1      30.922  25.894  24.706  1.00  0.00    -0.269 OA
ATOM      6  H   UNL A   1      30.104  27.590  26.173  1.00  0.00     0.163 HD
BRANCH   4   7
ATOM      7  C   UNL A   1      32.849  27.284  24.348  1.00  0.00     0.081 C 
ATOM      8  C   UNL A   1      33.839  26.412  24.037  1.00  0.00     0.029 C 
BRANCH   8   9
ATOM      9  C   UNL A   1      34.048  24.959  24.242  1.00  0.00    -0.020 A 
ATOM     10  C   UNL A   1      34.806  22.295  24.824  1.00  0.00     0.160 A 
ATOM     11  C   UNL A   1      34.724  22.744  23.501  1.00  0.00     0.051 A 
ATOM     12  C   UNL A   1      34.533  23.176  25.874  1.00  0.00     0.161 A 
ATOM     13  C   UNL A   1      34.370  24.069  23.215  1.00  0.00     0.012 A 
ATOM     14  C   UNL A   1      34.134  24.489  25.564  1.00  0.00     0.058 A 
BRANCH  10  15
ATOM     15  O   UNL A   1      35.284  21.029  25.025  1.00  0.00    -0.493 OA
ATOM     16  C   UNL A   1      36.710  21.003  25.076  1.00  0.00     0.278 C 
ENDBRANCH  10  15
BRANCH  12  17
ATOM     17  O   UNL A   1      34.629  22.961  27.223  1.00  0.00    -0.493 OA
ATOM     18  C   UNL A   1      33.572  22.295  27.895  1.00  0.00     0.278 C 
ENDBRANCH  12  17
ENDBRANCH   8   9
BRANCH   7  19
ATOM     19  S   UNL A   1      32.906  28.890  23.660  1.00  0.00    -0.045 SA
BRANCH  19  20
ATOM     20  C   UNL A   1      31.272  29.186  23.202  1.00  0.00     0.188 A 
ATOM     21  N   UNL A   1      30.278  29.690  23.891  1.00  0.00    -0.206 NA
ATOM     22  N   UNL A   1      30.912  29.081  21.894  1.00  0.00    -0.254 N 
ATOM     23  C   UNL A   1      29.318  29.907  22.933  1.00  0.00     0.148 A 
ATOM     24  N   UNL A   1      29.663  29.532  21.693  1.00  0.00    -0.158 NA
ATOM     25  H   UNL A   1      31.492  28.720  21.186  1.00  0.00     0.192 HD
ATOM     26  C   UNL A   1      28.037  30.577  23.236  1.00  0.00     0.092 C 
ENDBRANCH  19  20
ENDBRANCH   7  19
ENDBRANCH   4   7
ENDBRANCH   2   3
ENDBRANCH   1   2
BRANCH   1  27
ATOM     27  C   UNL A   1      33.520  29.862  27.606  1.00  0.00     0.118 C 
BRANCH  27  28
ATOM     28  N   UNL A   1      33.922  31.246  27.332  1.00  0.00    -0.352 N 
ATOM     29  C   UNL A   1      35.087  31.895  27.699  1.00  0.00     0.251 C 
ATOM     30  H   UNL A   1      33.278  31.784  26.819  1.00  0.00     0.163 HD
ATOM     31  O   UNL A   1      35.169  33.120  27.643  1.00  0.00    -0.269 OA
BRANCH  29  32
ATOM     32  C   UNL A   1      36.228  31.098  28.172  1.00  0.00     0.039 A 
ATOM     33  C   UNL A   1      36.414  29.766  27.788  1.00  0.00     0.014 A 
ATOM     34  C   UNL A   1      37.157  31.737  28.983  1.00  0.00     0.014 A 
ATOM     35  C   UNL A   1      37.589  29.118  28.162  1.00  0.00     0.010 A 
ATOM     36  C   UNL A   1      38.389  31.178  29.163  1.00  0.00     0.010 A 
ATOM     37  C   UNL A   1      38.583  29.843  28.836  1.00  0.00    -0.014 A 
BRANCH  37  38
ATOM     38  C   UNL A   1      39.881  29.261  29.149  1.00  0.00     0.031 A 
ATOM     39  C   UNL A   1      40.117  28.996  30.593  1.00  0.00     0.074 A 
ATOM     40  C   UNL A   1      40.682  28.752  28.185  1.00  0.00     0.049 A 
ATOM     41  N   UNL A   1      41.002  29.534  31.366  1.00  0.00    -0.248 NA
ATOM     42  C   UNL A   1      39.169  28.116  31.298  1.00  0.00     0.031 C 
ATOM     43  C   UNL A   1      40.417  28.638  26.743  1.00  0.00     0.029 A 
ATOM     44  N   UNL A   1      41.868  28.105  28.313  1.00  0.00    -0.354 N 
ATOM     45  C   UNL A   1      40.867  28.901  32.599  1.00  0.00     0.074 A 
ATOM     46  C   UNL A   1      39.613  28.197  32.554  1.00  0.00     0.031 C 
ATOM     47  C   UNL A   1      41.276  27.755  26.190  1.00  0.00     0.029 A 
ATOM     48  C   UNL A   1      42.263  27.394  27.187  1.00  0.00     0.049 A 
ATOM     49  H   UNL A   1      42.406  28.137  29.138  1.00  0.00     0.167 HD
ATOM     50  C   UNL A   1      41.924  28.796  33.452  1.00  0.00     0.037 A 
ATOM     51  C   UNL A   1      43.314  26.545  27.092  1.00  0.00     0.037 A 
ATOM     52  C   UNL A   1      42.972  29.721  33.092  1.00  0.00     0.049 A 
ATOM     53  C   UNL A   1      44.222  26.846  28.226  1.00  0.00     0.074 A 
ATOM     54  C   UNL A   1      43.055  31.093  32.946  1.00  0.00     0.029 A 
ATOM     55  N   UNL A   1      44.072  29.215  32.442  1.00  0.00    -0.354 N 
ATOM     56  N   UNL A   1      44.893  27.958  28.343  1.00  0.00    -0.248 NA
ATOM     57  C   UNL A   1      44.021  26.104  29.462  1.00  0.00     0.031 C 
ATOM     58  C   UNL A   1      43.897  31.291  31.812  1.00  0.00     0.029 A 
ATOM     59  C   UNL A   1      44.334  30.039  31.378  1.00  0.00     0.049 A 
ATOM     60  H   UNL A   1      44.578  28.410  32.693  1.00  0.00     0.167 HD
ATOM     61  C   UNL A   1      44.819  28.275  29.691  1.00  0.00     0.074 A 
ATOM     62  C   UNL A   1      44.352  27.052  30.344  1.00  0.00     0.031 C 
ATOM     63  C   UNL A   1      44.855  29.574  30.113  1.00  0.00     0.037 A 
BRANCH  50  64
ATOM     64  C   UNL A   1      42.192  27.601  34.344  1.00  0.00     0.057 A 
ATOM     65  C   UNL A   1      41.899  27.702  35.719  1.00  0.00     0.134 A 
ATOM     66  C   UNL A   1      42.993  26.496  33.990  1.00  0.00     0.134 A 
ATOM     67  F   UNL A   1      41.142  28.705  36.190  1.00  0.00    -0.206 F 
ATOM     68  C   UNL A   1      42.448  26.837  36.673  1.00  0.00     0.040 A 
ATOM     69  C   UNL A   1      43.504  25.596  34.929  1.00  0.00     0.040 A 
ATOM     70  F   UNL A   1      43.412  26.277  32.740  1.00  0.00    -0.206 F 
ATOM     71  C   UNL A   1      43.266  25.785  36.280  1.00  0.00     0.006 A 
ENDBRANCH  50  64
BRANCH  51  72
ATOM     72  C   UNL A   1      43.442  25.320  26.272  1.00  0.00     0.057 A 
ATOM     73  C   UNL A   1      44.471  25.183  25.331  1.00  0.00     0.134 A 
ATOM     74  C   UNL A   1      42.727  24.149  26.583  1.00  0.00     0.134 A 
ATOM     75  F   UNL A   1      45.231  26.235  24.997  1.00  0.00    -0.206 F 
ATOM     76  C   UNL A   1      44.792  23.947  24.754  1.00  0.00     0.040 A 
ATOM     77  C   UNL A   1      43.033  22.910  26.011  1.00  0.00     0.040 A 
ATOM     78  F   UNL A   1      41.768  24.151  27.521  1.00  0.00    -0.206 F 
ATOM     79  C   UNL A   1      44.080  22.803  25.104  1.00  0.00     0.006 A 
ENDBRANCH  51  72
BRANCH  63  80
ATOM     80  C   UNL A   1      45.232  30.631  29.109  1.00  0.00     0.057 A 
ATOM     81  C   UNL A   1      44.312  31.322  28.306  1.00  0.00     0.134 A 
ATOM     82  C   UNL A   1      46.559  31.071  29.066  1.00  0.00     0.134 A 
ATOM     83  F   UNL A   1      43.005  31.044  28.349  1.00  0.00    -0.206 F 
ATOM     84  C   UNL A   1      44.702  32.371  27.468  1.00  0.00     0.040 A 
ATOM     85  C   UNL A   1      46.956  32.140  28.259  1.00  0.00     0.040 A 
ATOM     86  F   UNL A   1      47.487  30.499  29.850  1.00  0.00    -0.206 F 
ATOM     87  C   UNL A   1      46.029  32.788  27.448  1.00  0.00     0.006 A 
ENDBRANCH  63  80
ENDBRANCH  37  38
ENDBRANCH  29  32
ENDBRANCH  27  28
ENDBRANCH   1  27
TORSDOF 15
ENDMDL
MODEL 2
REMARK VINA RESULT:     -12.1      3.150      8.098
REMARK SMILES COc1ccc(/C=C(/Sc2nc(C)n[nH]2)C(=O)NCCCNC(=O)c2ccc(-c3c4nc(c(-c5c(F)cccc5F)c5ccc([nH]5)c(-c5c(F)cccc5F)c5nc(c(-c6c(F)cccc6F)c6ccc3[nH]6)C=C5)C=C4)cc2)cc1OC
REMARK SMILES IDX 20 1 19 2 18 3 16 4 17 5 8 7 7 8 6 9 3 10 4 11 80 12 5 13
REMARK SMILES IDX 79 14 2 15 1 16 81 17 82 18 9 19 10 20 11 21 15 22 12 23
REMARK SMILES IDX 14 24 13 26 21 27 22 28 23 29 24 31 25 32 26 33 78 34 27 35
REMARK SMILES IDX 77 36 28 37 29 38 30 39 71 40 31 41 76 42 70 43 72 44 32 45
REMARK SMILES IDX 75 46 69 47 68 48 33 50 59 51 42 52 58 53 43 54 46 55 57 56
REMARK SMILES IDX 73 57 44 58 45 59 56 61 74 62 47 63 34 64 35 65 40 66 36 67
REMARK SMILES IDX 37 68 39 69 41 70 38 71 60 72 61 73 66 74 62 75 63 76 65 77
REMARK SMILES IDX 67 78 64 79 48 80 49 81 54 82 50 83 51 84 53 85 55 86 52 87
REMARK H PARENT 18 6 15 25 22 30 72 49 46 60
REMARK Flexibility Score: inf
ROOT
ATOM      1  C   UNL A   1      37.264  22.043  24.472  1.00  0.00     0.042 C 
ENDROOT
BRANCH   1   2
ATOM      2  C   UNL A   1      36.432  22.995  23.608  1.00  0.00     0.118 C 
BRANCH   2   3
ATOM      3  N   UNL A   1      35.031  22.622  23.460  1.00  0.00    -0.352 N 
ATOM      4  C   UNL A   1      33.923  22.947  24.197  1.00  0.00     0.258 C 
ATOM      5  O   UNL A   1      32.911  23.150  23.522  1.00  0.00    -0.269 OA
ATOM      6  H   UNL A   1      34.849  22.030  22.695  1.00  0.00     0.163 HD
BRANCH   4   7
ATOM      7  C   UNL A   1      33.882  22.986  25.714  1.00  0.00     0.081 C 
ATOM      8  C   UNL A   1      33.411  24.061  26.391  1.00  0.00     0.029 C 
BRANCH   8   9
ATOM      9  C   UNL A   1      32.837  25.369  25.998  1.00  0.00    -0.020 A 
ATOM     10  C   UNL A   1      31.877  28.005  25.621  1.00  0.00     0.160 A 
ATOM     11  C   UNL A   1      30.991  26.925  25.712  1.00  0.00     0.051 A 
ATOM     12  C   UNL A   1      33.252  27.786  25.740  1.00  0.00     0.161 A 
ATOM     13  C   UNL A   1      31.467  25.624  25.921  1.00  0.00     0.012 A 
ATOM     14  C   UNL A   1      33.712  26.466  25.902  1.00  0.00     0.058 A 
BRANCH  10  15
ATOM     15  O   UNL A   1      31.329  29.257  25.550  1.00  0.00    -0.493 OA
ATOM     16  C   UNL A   1      30.796  29.528  24.254  1.00  0.00     0.278 C 
ENDBRANCH  10  15
BRANCH  12  17
ATOM     17  O   UNL A   1      34.269  28.702  25.757  1.00  0.00    -0.493 OA
ATOM     18  C   UNL A   1      34.717  29.218  27.000  1.00  0.00     0.278 C 
ENDBRANCH  12  17
ENDBRANCH   8   9
BRANCH   7  19
ATOM     19  S   UNL A   1      34.221  21.520  26.604  1.00  0.00    -0.045 SA
BRANCH  19  20
ATOM     20  C   UNL A   1      33.673  20.275  25.549  1.00  0.00     0.188 A 
ATOM     21  N   UNL A   1      34.335  19.546  24.685  1.00  0.00    -0.206 NA
ATOM     22  N   UNL A   1      32.412  19.781  25.692  1.00  0.00    -0.254 N 
ATOM     23  C   UNL A   1      33.424  18.578  24.337  1.00  0.00     0.148 A 
ATOM     24  N   UNL A   1      32.224  18.695  24.923  1.00  0.00    -0.158 NA
ATOM     25  H   UNL A   1      31.727  20.169  26.281  1.00  0.00     0.192 HD
ATOM     26  C   UNL A   1      33.770  17.449  23.450  1.00  0.00     0.092 C 
ENDBRANCH  19  20
ENDBRANCH   7  19
ENDBRANCH   4   7
ENDBRANCH   2   3
ENDBRANCH   1   2
BRANCH   1  27
ATOM     27  C   UNL A   1      37.969  22.749  25.618  1.00  0.00     0.118 C 
BRANCH  27  28
ATOM     28  N   UNL A   1      38.864  21.875  26.386  1.00  0.00    -0.352 N 
ATOM     29  C   UNL A   1      39.988  22.217  27.115  1.00  0.00     0.251 C 
ATOM     30  H   UNL A   1      38.633  20.919  26.382  1.00  0.00     0.163 HD
ATOM     31  O   UNL A   1      40.790  21.358  27.476  1.00  0.00    -0.269 OA
BRANCH  29  32
ATOM     32  C   UNL A   1      40.219  23.631  27.446  1.00  0.00     0.039 A 
ATOM     33  C   UNL A   1      39.223  24.602  27.300  1.00  0.00     0.014 A 
ATOM     34  C   UNL A   1      41.463  23.967  27.966  1.00  0.00     0.014 A 
ATOM     35  C   UNL A   1      39.470  25.891  27.764  1.00  0.00     0.010 A 
ATOM     36  C   UNL A   1      41.622  25.160  28.610  1.00  0.00     0.010 A 
ATOM     37  C   UNL A   1      40.671  26.156  28.438  1.00  0.00    -0.014 A 
BRANCH  37  38
ATOM     38  C   UNL A   1      40.940  27.449  29.052  1.00  0.00     0.031 A 
ATOM     39  C   UNL A   1      42.133  28.160  28.520  1.00  0.00     0.074 A 
ATOM     40  C   UNL A   1      40.027  28.066  29.837  1.00  0.00     0.049 A 
ATOM     41  N   UNL A   1      43.219  28.468  29.147  1.00  0.00    -0.248 NA
ATOM     42  C   UNL A   1      42.176  28.452  27.077  1.00  0.00     0.031 C 
ATOM     43  C   UNL A   1      38.662  27.628  30.168  1.00  0.00     0.029 A 
ATOM     44  N   UNL A   1      40.083  29.296  30.409  1.00  0.00    -0.354 N 
ATOM     45  C   UNL A   1      43.993  29.187  28.239  1.00  0.00     0.074 A 
ATOM     46  C   UNL A   1      43.398  28.973  26.947  1.00  0.00     0.031 C 
ATOM     47  C   UNL A   1      37.954  28.671  30.653  1.00  0.00     0.029 A 
ATOM     48  C   UNL A   1      38.859  29.785  30.847  1.00  0.00     0.049 A 
ATOM     49  H   UNL A   1      40.924  29.799  30.506  1.00  0.00     0.167 HD
ATOM     50  C   UNL A   1      44.899  30.111  28.667  1.00  0.00     0.037 A 
ATOM     51  C   UNL A   1      38.605  31.032  31.311  1.00  0.00     0.037 A 
ATOM     52  C   UNL A   1      45.196  29.931  30.068  1.00  0.00     0.049 A 
ATOM     53  C   UNL A   1      39.908  31.628  31.697  1.00  0.00     0.074 A 
ATOM     54  C   UNL A   1      45.692  28.894  30.835  1.00  0.00     0.029 A 
ATOM     55  N   UNL A   1      44.617  30.803  30.959  1.00  0.00    -0.354 N 
ATOM     56  N   UNL A   1      40.632  31.204  32.695  1.00  0.00    -0.248 NA
ATOM     57  C   UNL A   1      40.622  32.392  30.686  1.00  0.00     0.031 C 
ATOM     58  C   UNL A   1      44.950  28.951  32.053  1.00  0.00     0.029 A 
ATOM     59  C   UNL A   1      44.102  30.057  31.986  1.00  0.00     0.049 A 
ATOM     60  H   UNL A   1      44.580  31.783  30.875  1.00  0.00     0.167 HD
ATOM     61  C   UNL A   1      41.939  31.262  32.232  1.00  0.00     0.074 A 
ATOM     62  C   UNL A   1      41.878  32.088  31.027  1.00  0.00     0.031 C 
ATOM     63  C   UNL A   1      42.890  30.398  32.696  1.00  0.00     0.037 A 
BRANCH  50  64
ATOM     64  C   UNL A   1      45.203  31.411  27.951  1.00  0.00     0.057 A 
ATOM     65  C   UNL A   1      46.536  31.688  27.587  1.00  0.00     0.134 A 
ATOM     66  C   UNL A   1      44.329  32.515  27.882  1.00  0.00     0.134 A 
ATOM     67  F   UNL A   1      47.470  30.725  27.605  1.00  0.00    -0.206 F 
ATOM     68  C   UNL A   1      46.981  32.981  27.286  1.00  0.00     0.040 A 
ATOM     69  C   UNL A   1      44.753  33.800  27.531  1.00  0.00     0.040 A 
ATOM     70  F   UNL A   1      43.044  32.444  28.244  1.00  0.00    -0.206 F 
ATOM     71  C   UNL A   1      46.090  34.046  27.270  1.00  0.00     0.006 A 
ENDBRANCH  50  64
BRANCH  51  72
ATOM     72  C   UNL A   1      37.370  31.835  31.175  1.00  0.00     0.057 A 
ATOM     73  C   UNL A   1      36.973  32.348  29.932  1.00  0.00     0.134 A 
ATOM     74  C   UNL A   1      36.410  31.888  32.201  1.00  0.00     0.134 A 
ATOM     75  F   UNL A   1      37.807  32.308  28.884  1.00  0.00    -0.206 F 
ATOM     76  C   UNL A   1      35.686  32.855  29.714  1.00  0.00     0.040 A 
ATOM     77  C   UNL A   1      35.123  32.397  31.999  1.00  0.00     0.040 A 
ATOM     78  F   UNL A   1      36.659  31.363  33.410  1.00  0.00    -0.206 F 
ATOM     79  C   UNL A   1      34.752  32.870  30.746  1.00  0.00     0.006 A 
ENDBRANCH  51  72
BRANCH  63  80
ATOM     80  C   UNL A   1      42.552  29.556  33.897  1.00  0.00     0.057 A 
ATOM     81  C   UNL A   1      41.982  28.275  33.831  1.00  0.00     0.134 A 
ATOM     82  C   UNL A   1      42.960  29.998  35.160  1.00  0.00     0.134 A 
ATOM     83  F   UNL A   1      41.651  27.722  32.659  1.00  0.00    -0.206 F 
ATOM     84  C   UNL A   1      41.789  27.490  34.972  1.00  0.00     0.040 A 
ATOM     85  C   UNL A   1      42.803  29.210  36.304  1.00  0.00     0.040 A 
ATOM     86  F   UNL A   1      43.566  31.188  35.297  1.00  0.00    -0.206 F 
ATOM     87  C   UNL A   1      42.207  27.955  36.214  1.00  0.00     0.006 A 
ENDBRANCH  63  80
ENDBRANCH  37  38
ENDBRANCH  29  32
ENDBRANCH  27  28
ENDBRANCH   1  27
TORSDOF 15
ENDMDL
MODEL 3
REMARK VINA RESULT:     -11.9      2.069      5.930
REMARK SMILES COc1ccc(/C=C(/Sc2nc(C)n[nH]2)C(=O)NCCCNC(=O)c2ccc(-c3c4nc(c(-c5c(F)cccc5F)c5ccc([nH]5)c(-c5c(F)cccc5F)c5nc(c(-c6c(F)cccc6F)c6ccc3[nH]6)C=C5)C=C4)cc2)cc1OC
REMARK SMILES IDX 20 1 19 2 18 3 16 4 17 5 8 7 7 8 6 9 3 10 4 11 80 12 5 13
REMARK SMILES IDX 79 14 2 15 1 16 81 17 82 18 9 19 10 20 11 21 15 22 12 23
REMARK SMILES IDX 14 24 13 26 21 27 22 28 23 29 24 31 25 32 26 33 78 34 27 35
REMARK SMILES IDX 77 36 28 37 29 38 30 39 71 40 31 41 76 42 70 43 72 44 32 45
REMARK SMILES IDX 75 46 69 47 68 48 33 50 59 51 42 52 58 53 43 54 46 55 57 56
REMARK SMILES IDX 73 57 44 58 45 59 56 61 74 62 47 63 34 64 35 65 40 66 36 67
REMARK SMILES IDX 37 68 39 69 41 70 38 71 60 72 61 73 66 74 62 75 63 76 65 77
REMARK SMILES IDX 67 78 64 79 48 80 49 81 54 82 50 83 51 84 53 85 55 86 52 87
REMARK H PARENT 18 6 15 25 22 30 72 49 46 60
REMARK Flexibility Score: inf
ROOT
ATOM      1  C   UNL A   1      33.941  28.578  27.205  1.00  0.00     0.042 C 
ENDROOT
BRANCH   1   2
ATOM      2  C   UNL A   1      32.825  29.439  26.606  1.00  0.00     0.118 C 
BRANCH   2   3
ATOM      3  N   UNL A   1      31.624  28.707  26.226  1.00  0.00    -0.352 N 
ATOM      4  C   UNL A   1      31.449  27.591  25.453  1.00  0.00     0.258 C 
ATOM      5  O   UNL A   1      30.588  26.815  25.875  1.00  0.00    -0.269 OA
ATOM      6  H   UNL A   1      30.789  29.083  26.590  1.00  0.00     0.163 HD
BRANCH   4   7
ATOM      7  C   UNL A   1      32.171  27.332  24.143  1.00  0.00     0.081 C 
ATOM      8  C   UNL A   1      32.850  26.181  23.913  1.00  0.00     0.029 C 
BRANCH   8   9
ATOM      9  C   UNL A   1      33.094  24.945  24.691  1.00  0.00    -0.020 A 
ATOM     10  C   UNL A   1      33.840  22.485  25.878  1.00  0.00     0.160 A 
ATOM     11  C   UNL A   1      32.545  22.679  25.384  1.00  0.00     0.051 A 
ATOM     12  C   UNL A   1      34.786  23.507  25.765  1.00  0.00     0.161 A 
ATOM     13  C   UNL A   1      32.184  23.889  24.777  1.00  0.00     0.012 A 
ATOM     14  C   UNL A   1      34.389  24.731  25.195  1.00  0.00     0.058 A 
BRANCH  10  15
ATOM     15  O   UNL A   1      34.152  21.234  26.336  1.00  0.00    -0.493 OA
ATOM     16  C   UNL A   1      33.674  20.215  25.460  1.00  0.00     0.278 C 
ENDBRANCH  10  15
BRANCH  12  17
ATOM     17  O   UNL A   1      36.110  23.493  26.110  1.00  0.00    -0.493 OA
ATOM     18  C   UNL A   1      37.093  23.473  25.088  1.00  0.00     0.278 C 
ENDBRANCH  12  17
ENDBRANCH   8   9
BRANCH   7  19
ATOM     19  S   UNL A   1      31.921  28.434  22.809  1.00  0.00    -0.045 SA
BRANCH  19  20
ATOM     20  C   UNL A   1      30.320  29.015  23.066  1.00  0.00     0.188 A 
ATOM     21  N   UNL A   1      29.902  30.175  23.508  1.00  0.00    -0.206 NA
ATOM     22  N   UNL A   1      29.262  28.298  22.597  1.00  0.00    -0.254 N 
ATOM     23  C   UNL A   1      28.552  30.131  23.259  1.00  0.00     0.148 A 
ATOM     24  N   UNL A   1      28.115  28.987  22.713  1.00  0.00    -0.158 NA
ATOM     25  H   UNL A   1      29.329  27.390  22.223  1.00  0.00     0.192 HD
ATOM     26  C   UNL A   1      27.666  31.289  23.500  1.00  0.00     0.092 C 
ENDBRANCH  19  20
ENDBRANCH   7  19
ENDBRANCH   4   7
ENDBRANCH   2   3
ENDBRANCH   1   2
BRANCH   1  27
ATOM     27  C   UNL A   1      35.223  29.357  27.447  1.00  0.00     0.118 C 
BRANCH  27  28
ATOM     28  N   UNL A   1      35.309  29.946  28.789  1.00  0.00    -0.352 N 
ATOM     29  C   UNL A   1      36.308  29.799  29.733  1.00  0.00     0.251 C 
ATOM     30  H   UNL A   1      34.556  30.522  29.050  1.00  0.00     0.163 HD
ATOM     31  O   UNL A   1      36.119  30.123  30.904  1.00  0.00    -0.269 OA
BRANCH  29  32
ATOM     32  C   UNL A   1      37.602  29.236  29.320  1.00  0.00     0.039 A 
ATOM     33  C   UNL A   1      38.304  29.721  28.212  1.00  0.00     0.014 A 
ATOM     34  C   UNL A   1      38.138  28.227  30.110  1.00  0.00     0.014 A 
ATOM     35  C   UNL A   1      39.585  29.235  27.964  1.00  0.00     0.010 A 
ATOM     36  C   UNL A   1      39.461  27.914  29.994  1.00  0.00     0.010 A 
ATOM     37  C   UNL A   1      40.164  28.342  28.877  1.00  0.00    -0.014 A 
BRANCH  37  38
ATOM     38  C   UNL A   1      41.542  27.890  28.742  1.00  0.00     0.031 A 
ATOM     39  C   UNL A   1      41.714  26.621  27.985  1.00  0.00     0.074 A 
ATOM     40  C   UNL A   1      42.587  28.696  29.038  1.00  0.00     0.049 A 
ATOM     41  N   UNL A   1      42.167  25.491  28.419  1.00  0.00    -0.248 NA
ATOM     42  C   UNL A   1      41.199  26.565  26.606  1.00  0.00     0.031 C 
ATOM     43  C   UNL A   1      42.562  30.101  29.473  1.00  0.00     0.029 A 
ATOM     44  N   UNL A   1      43.916  28.463  28.888  1.00  0.00    -0.354 N 
ATOM     45  C   UNL A   1      42.201  24.644  27.313  1.00  0.00     0.074 A 
ATOM     46  C   UNL A   1      41.417  25.286  26.291  1.00  0.00     0.031 C 
ATOM     47  C   UNL A   1      43.782  30.652  29.304  1.00  0.00     0.029 A 
ATOM     48  C   UNL A   1      44.711  29.602  28.938  1.00  0.00     0.049 A 
ATOM     49  H   UNL A   1      44.286  27.560  28.756  1.00  0.00     0.167 HD
ATOM     50  C   UNL A   1      43.090  23.614  27.247  1.00  0.00     0.037 A 
ATOM     51  C   UNL A   1      46.036  29.676  28.670  1.00  0.00     0.037 A 
ATOM     52  C   UNL A   1      43.635  23.318  28.551  1.00  0.00     0.049 A 
ATOM     53  C   UNL A   1      46.578  28.298  28.761  1.00  0.00     0.074 A 
ATOM     54  C   UNL A   1      43.101  22.953  29.772  1.00  0.00     0.029 A 
ATOM     55  N   UNL A   1      44.909  23.758  28.823  1.00  0.00    -0.354 N 
ATOM     56  N   UNL A   1      46.653  27.619  29.871  1.00  0.00    -0.248 NA
ATOM     57  C   UNL A   1      46.603  27.505  27.541  1.00  0.00     0.031 C 
ATOM     58  C   UNL A   1      43.879  23.658  30.738  1.00  0.00     0.029 A 
ATOM     59  C   UNL A   1      44.882  24.351  30.058  1.00  0.00     0.049 A 
ATOM     60  H   UNL A   1      45.695  23.664  28.239  1.00  0.00     0.167 HD
ATOM     61  C   UNL A   1      46.296  26.326  29.520  1.00  0.00     0.074 A 
ATOM     62  C   UNL A   1      46.368  26.296  28.059  1.00  0.00     0.031 C 
ATOM     63  C   UNL A   1      45.692  25.492  30.418  1.00  0.00     0.037 A 
BRANCH  50  64
ATOM     64  C   UNL A   1      43.773  23.150  25.977  1.00  0.00     0.057 A 
ATOM     65  C   UNL A   1      43.815  21.769  25.696  1.00  0.00     0.134 A 
ATOM     66  C   UNL A   1      44.641  23.940  25.196  1.00  0.00     0.134 A 
ATOM     67  F   UNL A   1      43.037  20.906  26.365  1.00  0.00    -0.206 F 
ATOM     68  C   UNL A   1      44.725  21.213  24.789  1.00  0.00     0.040 A 
ATOM     69  C   UNL A   1      45.516  23.399  24.249  1.00  0.00     0.040 A 
ATOM     70  F   UNL A   1      44.769  25.259  25.366  1.00  0.00    -0.206 F 
ATOM     71  C   UNL A   1      45.590  22.028  24.070  1.00  0.00     0.006 A 
ENDBRANCH  50  64
BRANCH  51  72
ATOM     72  C   UNL A   1      46.795  30.793  28.067  1.00  0.00     0.057 A 
ATOM     73  C   UNL A   1      46.333  31.445  26.915  1.00  0.00     0.134 A 
ATOM     74  C   UNL A   1      47.845  31.426  28.757  1.00  0.00     0.134 A 
ATOM     75  F   UNL A   1      45.312  30.938  26.211  1.00  0.00    -0.206 F 
ATOM     76  C   UNL A   1      46.863  32.671  26.492  1.00  0.00     0.040 A 
ATOM     77  C   UNL A   1      48.387  32.647  28.341  1.00  0.00     0.040 A 
ATOM     78  F   UNL A   1      48.318  30.926  29.909  1.00  0.00    -0.206 F 
ATOM     79  C   UNL A   1      47.885  33.282  27.212  1.00  0.00     0.006 A 
ENDBRANCH  51  72
BRANCH  63  80
ATOM     80  C   UNL A   1      45.654  25.919  31.861  1.00  0.00     0.057 A 
ATOM     81  C   UNL A   1      44.545  26.518  32.480  1.00  0.00     0.134 A 
ATOM     82  C   UNL A   1      46.725  25.571  32.691  1.00  0.00     0.134 A 
ATOM     83  F   UNL A   1      43.433  26.798  31.792  1.00  0.00    -0.206 F 
ATOM     84  C   UNL A   1      44.522  26.795  33.850  1.00  0.00     0.040 A 
ATOM     85  C   UNL A   1      46.701  25.812  34.067  1.00  0.00     0.040 A 
ATOM     86  F   UNL A   1      47.796  24.942  32.183  1.00  0.00    -0.206 F 
ATOM     87  C   UNL A   1      45.601  26.436  34.650  1.00  0.00     0.006 A 
ENDBRANCH  63  80
ENDBRANCH  37  38
ENDBRANCH  29  32
ENDBRANCH  27  28
ENDBRANCH   1  27
TORSDOF 15
ENDMDL
