MODEL 1
REMARK VINA RESULT:     -10.9      0.000      0.000
REMARK SMILES C[C@@H]([NH2+]C1(CO)CCCCC1)[C@@H](C)C(=O)NCCCNC(=O)c1ccc(-c2c3nc(c(-c4c(F)cccc4F)c4ccc([nH]4)c(-c4c(F)cccc4F)c4nc(c(-c5c(F)cccc5F)c5ccc2[nH]5)C=C4)C=C3)cc1
REMARK SMILES IDX 14 1 15 2 16 3 12 5 13 6 2 7 1 8 3 9 4 12 7 13 11 14 8 15
REMARK SMILES IDX 10 16 9 17 5 18 6 19 17 21 18 22 19 23 20 24 21 25 22 27
REMARK SMILES IDX 23 28 24 29 76 30 25 31 75 32 26 33 27 34 28 35 69 36 29 37
REMARK SMILES IDX 74 38 68 39 70 40 30 41 73 42 67 43 66 44 31 46 57 47 40 48
REMARK SMILES IDX 56 49 41 50 44 51 55 52 71 53 42 54 43 55 54 57 72 58 45 59
REMARK SMILES IDX 32 60 33 61 38 62 34 63 35 64 37 65 39 66 36 67 58 68 59 69
REMARK SMILES IDX 64 70 60 71 61 72 63 73 65 74 62 75 46 76 47 77 52 78 48 79
REMARK SMILES IDX 49 80 51 81 53 82 50 83
REMARK H PARENT 16 4 3 10 3 11 6 20 20 26 70 45 44 56
REMARK Flexibility Score: inf
ROOT
ATOM      1  C   UNL A   1      35.223  21.676  25.944  1.00  0.00     0.228 C 
ATOM      2  O   UNL A   1      34.788  21.759  27.099  1.00  0.00    -0.275 OA
ATOM      3  N   UNL A   1      36.572  21.768  25.841  1.00  0.00    -0.356 N 
ATOM      4  H   UNL A   1      37.001  22.086  26.667  1.00  0.00     0.163 HD
ENDROOT
BRANCH   1   5
ATOM      5  C   UNL A   1      34.270  21.402  24.776  1.00  0.00     0.133 C 
ATOM      6  C   UNL A   1      34.043  22.758  24.086  1.00  0.00     0.024 C 
BRANCH   5   7
ATOM      7  C   UNL A   1      32.985  20.566  25.094  1.00  0.00     0.192 C 
ATOM      8  C   UNL A   1      31.759  21.495  25.267  1.00  0.00     0.076 C 
BRANCH   7   9
ATOM      9  N   UNL A   1      32.541  19.575  24.071  1.00  0.00    -0.337 N 
ATOM     10  H   UNL A   1      32.713  20.004  23.161  1.00  0.00     0.347 HD
ATOM     11  H   UNL A   1      31.577  19.389  24.351  1.00  0.00     0.347 HD
BRANCH   9  12
ATOM     12  C   UNL A   1      33.122  18.204  24.005  1.00  0.00     0.120 C 
ATOM     13  C   UNL A   1      34.570  18.186  24.534  1.00  0.00     0.071 C 
ATOM     14  C   UNL A   1      32.306  17.287  24.971  1.00  0.00     0.071 C 
ATOM     15  C   UNL A   1      35.195  16.800  24.669  1.00  0.00     0.007 C 
ATOM     16  C   UNL A   1      32.874  15.861  25.046  1.00  0.00     0.007 C 
ATOM     17  C   UNL A   1      34.333  15.853  25.489  1.00  0.00     0.001 C 
BRANCH  12  18
ATOM     18  C   UNL A   1      32.995  17.640  22.553  1.00  0.00     0.224 C 
BRANCH  18  19
ATOM     19  O   UNL A   1      31.650  17.619  22.070  1.00  0.00    -0.390 OA
ATOM     20  H   UNL A   1      31.325  16.705  22.059  1.00  0.00     0.210 HD
ENDBRANCH  18  19
ENDBRANCH  12  18
ENDBRANCH   9  12
ENDBRANCH   7   9
ENDBRANCH   5   7
ENDBRANCH   1   5
BRANCH   3  21
ATOM     21  C   UNL A   1      37.517  21.500  24.775  1.00  0.00     0.117 C 
BRANCH  21  22
ATOM     22  C   UNL A   1      38.169  20.119  24.835  1.00  0.00     0.042 C 
BRANCH  22  23
ATOM     23  C   UNL A   1      38.992  19.815  26.085  1.00  0.00     0.118 C 
BRANCH  23  24
ATOM     24  N   UNL A   1      40.229  19.109  25.807  1.00  0.00    -0.352 N 
ATOM     25  C   UNL A   1      41.528  19.529  25.934  1.00  0.00     0.251 C 
ATOM     26  H   UNL A   1      40.118  18.188  25.479  1.00  0.00     0.163 HD
ATOM     27  O   UNL A   1      42.440  18.810  25.519  1.00  0.00    -0.269 OA
BRANCH  25  28
ATOM     28  C   UNL A   1      41.857  20.845  26.527  1.00  0.00     0.039 A 
ATOM     29  C   UNL A   1      42.254  21.876  25.669  1.00  0.00     0.014 A 
ATOM     30  C   UNL A   1      41.828  21.066  27.908  1.00  0.00     0.014 A 
ATOM     31  C   UNL A   1      42.568  23.135  26.187  1.00  0.00     0.010 A 
ATOM     32  C   UNL A   1      42.078  22.343  28.418  1.00  0.00     0.010 A 
ATOM     33  C   UNL A   1      42.457  23.390  27.564  1.00  0.00    -0.014 A 
BRANCH  33  34
ATOM     34  C   UNL A   1      42.742  24.746  28.107  1.00  0.00     0.031 A 
ATOM     35  C   UNL A   1      44.141  25.134  28.506  1.00  0.00     0.074 A 
ATOM     36  C   UNL A   1      41.735  25.627  28.264  1.00  0.00     0.049 A 
ATOM     37  N   UNL A   1      44.575  26.266  29.003  1.00  0.00    -0.248 NA
ATOM     38  C   UNL A   1      45.184  24.112  28.343  1.00  0.00     0.031 C 
ATOM     39  C   UNL A   1      40.329  25.369  27.950  1.00  0.00     0.029 A 
ATOM     40  N   UNL A   1      41.739  26.920  28.727  1.00  0.00    -0.354 N 
ATOM     41  C   UNL A   1      45.937  26.090  29.216  1.00  0.00     0.074 A 
ATOM     42  C   UNL A   1      46.247  24.725  28.845  1.00  0.00     0.031 C 
ATOM     43  C   UNL A   1      39.611  26.474  28.205  1.00  0.00     0.029 A 
ATOM     44  C   UNL A   1      40.497  27.509  28.733  1.00  0.00     0.049 A 
ATOM     45  H   UNL A   1      42.555  27.383  29.026  1.00  0.00     0.167 HD
ATOM     46  C   UNL A   1      46.851  26.988  29.658  1.00  0.00     0.037 A 
ATOM     47  C   UNL A   1      40.111  28.739  29.123  1.00  0.00     0.037 A 
ATOM     48  C   UNL A   1      46.547  28.350  30.013  1.00  0.00     0.049 A 
ATOM     49  C   UNL A   1      41.141  29.709  29.632  1.00  0.00     0.074 A 
ATOM     50  C   UNL A   1      47.416  29.348  30.421  1.00  0.00     0.029 A 
ATOM     51  N   UNL A   1      45.276  28.904  30.010  1.00  0.00    -0.354 N 
ATOM     52  N   UNL A   1      42.436  29.549  29.763  1.00  0.00    -0.248 NA
ATOM     53  C   UNL A   1      40.657  31.035  30.043  1.00  0.00     0.031 C 
ATOM     54  C   UNL A   1      46.664  30.491  30.714  1.00  0.00     0.029 A 
ATOM     55  C   UNL A   1      45.334  30.222  30.435  1.00  0.00     0.049 A 
ATOM     56  H   UNL A   1      44.454  28.431  29.745  1.00  0.00     0.167 HD
ATOM     57  C   UNL A   1      42.923  30.759  30.242  1.00  0.00     0.074 A 
ATOM     58  C   UNL A   1      41.787  31.648  30.364  1.00  0.00     0.031 C 
ATOM     59  C   UNL A   1      44.197  31.101  30.549  1.00  0.00     0.037 A 
BRANCH  46  60
ATOM     60  C   UNL A   1      48.273  26.522  29.787  1.00  0.00     0.057 A 
ATOM     61  C   UNL A   1      49.208  26.708  28.760  1.00  0.00     0.134 A 
ATOM     62  C   UNL A   1      48.725  25.915  30.966  1.00  0.00     0.134 A 
ATOM     63  F   UNL A   1      48.841  27.275  27.600  1.00  0.00    -0.206 F 
ATOM     64  C   UNL A   1      50.532  26.281  28.889  1.00  0.00     0.040 A 
ATOM     65  C   UNL A   1      50.052  25.511  31.118  1.00  0.00     0.040 A 
ATOM     66  F   UNL A   1      47.885  25.713  31.993  1.00  0.00    -0.206 F 
ATOM     67  C   UNL A   1      50.958  25.687  30.075  1.00  0.00     0.006 A 
ENDBRANCH  46  60
BRANCH  47  68
ATOM     68  C   UNL A   1      38.681  29.132  29.034  1.00  0.00     0.057 A 
ATOM     69  C   UNL A   1      38.130  29.589  27.832  1.00  0.00     0.134 A 
ATOM     70  C   UNL A   1      37.836  29.073  30.149  1.00  0.00     0.134 A 
ATOM     71  F   UNL A   1      38.894  29.687  26.733  1.00  0.00    -0.206 F 
ATOM     72  C   UNL A   1      36.796  29.991  27.743  1.00  0.00     0.040 A 
ATOM     73  C   UNL A   1      36.493  29.447  30.070  1.00  0.00     0.040 A 
ATOM     74  F   UNL A   1      38.301  28.639  31.329  1.00  0.00    -0.206 F 
ATOM     75  C   UNL A   1      35.973  29.916  28.866  1.00  0.00     0.006 A 
ENDBRANCH  47  68
BRANCH  59  76
ATOM     76  C   UNL A   1      44.440  32.508  31.017  1.00  0.00     0.057 A 
ATOM     77  C   UNL A   1      44.440  32.848  32.376  1.00  0.00     0.134 A 
ATOM     78  C   UNL A   1      44.713  33.527  30.096  1.00  0.00     0.134 A 
ATOM     79  F   UNL A   1      44.173  31.922  33.310  1.00  0.00    -0.206 F 
ATOM     80  C   UNL A   1      44.680  34.157  32.800  1.00  0.00     0.040 A 
ATOM     81  C   UNL A   1      44.983  34.832  30.509  1.00  0.00     0.040 A 
ATOM     82  F   UNL A   1      44.738  33.268  28.780  1.00  0.00    -0.206 F 
ATOM     83  C   UNL A   1      44.960  35.152  31.865  1.00  0.00     0.006 A 
ENDBRANCH  59  76
ENDBRANCH  33  34
ENDBRANCH  25  28
ENDBRANCH  23  24
ENDBRANCH  22  23
ENDBRANCH  21  22
ENDBRANCH   3  21
TORSDOF 15
ENDMDL
MODEL 2
REMARK VINA RESULT:     -10.7      1.861      6.912
REMARK SMILES C[C@@H]([NH2+]C1(CO)CCCCC1)[C@@H](C)C(=O)NCCCNC(=O)c1ccc(-c2c3nc(c(-c4c(F)cccc4F)c4ccc([nH]4)c(-c4c(F)cccc4F)c4nc(c(-c5c(F)cccc5F)c5ccc2[nH]5)C=C4)C=C3)cc1
REMARK SMILES IDX 14 1 15 2 16 3 12 5 13 6 2 7 1 8 3 9 4 12 7 13 11 14 8 15
REMARK SMILES IDX 10 16 9 17 5 18 6 19 17 21 18 22 19 23 20 24 21 25 22 27
REMARK SMILES IDX 23 28 24 29 76 30 25 31 75 32 26 33 27 34 28 35 69 36 29 37
REMARK SMILES IDX 74 38 68 39 70 40 30 41 73 42 67 43 66 44 31 46 57 47 40 48
REMARK SMILES IDX 56 49 41 50 44 51 55 52 71 53 42 54 43 55 54 57 72 58 45 59
REMARK SMILES IDX 32 60 33 61 38 62 34 63 35 64 37 65 39 66 36 67 58 68 59 69
REMARK SMILES IDX 64 70 60 71 61 72 63 73 65 74 62 75 46 76 47 77 52 78 48 79
REMARK SMILES IDX 49 80 51 81 53 82 50 83
REMARK H PARENT 16 4 3 10 3 11 6 20 20 26 70 45 44 56
REMARK Flexibility Score: inf
ROOT
ATOM      1  C   UNL A   1      35.073  21.527  25.748  1.00  0.00     0.228 C 
ATOM      2  O   UNL A   1      34.617  21.556  26.897  1.00  0.00    -0.275 OA
ATOM      3  N   UNL A   1      36.418  21.366  25.678  1.00  0.00    -0.356 N 
ATOM      4  H   UNL A   1      36.867  21.493  26.544  1.00  0.00     0.163 HD
ENDROOT
BRANCH   1   5
ATOM      5  C   UNL A   1      34.132  21.585  24.539  1.00  0.00     0.133 C 
ATOM      6  C   UNL A   1      34.416  22.928  23.844  1.00  0.00     0.024 C 
BRANCH   5   7
ATOM      7  C   UNL A   1      32.625  21.249  24.801  1.00  0.00     0.192 C 
ATOM      8  C   UNL A   1      32.431  19.726  24.992  1.00  0.00     0.076 C 
BRANCH   7   9
ATOM      9  N   UNL A   1      31.990  21.846  26.012  1.00  0.00    -0.337 N 
ATOM     10  H   UNL A   1      32.719  21.892  26.725  1.00  0.00     0.347 HD
ATOM     11  H   UNL A   1      31.192  21.229  26.166  1.00  0.00     0.347 HD
BRANCH   9  12
ATOM     12  C   UNL A   1      31.351  23.192  25.979  1.00  0.00     0.120 C 
ATOM     13  C   UNL A   1      32.339  24.290  26.421  1.00  0.00     0.071 C 
ATOM     14  C   UNL A   1      30.992  23.519  24.493  1.00  0.00     0.071 C 
ATOM     15  C   UNL A   1      31.835  25.721  26.257  1.00  0.00     0.007 C 
ATOM     16  C   UNL A   1      30.399  24.926  24.329  1.00  0.00     0.007 C 
ATOM     17  C   UNL A   1      31.345  26.005  24.845  1.00  0.00     0.001 C 
BRANCH  12  18
ATOM     18  C   UNL A   1      30.034  23.179  26.821  1.00  0.00     0.224 C 
BRANCH  18  19
ATOM     19  O   UNL A   1      29.306  21.954  26.712  1.00  0.00    -0.390 OA
ATOM     20  H   UNL A   1      28.798  21.952  25.885  1.00  0.00     0.210 HD
ENDBRANCH  18  19
ENDBRANCH  12  18
ENDBRANCH   9  12
ENDBRANCH   7   9
ENDBRANCH   5   7
ENDBRANCH   1   5
BRANCH   3  21
ATOM     21  C   UNL A   1      37.335  21.048  24.601  1.00  0.00     0.117 C 
BRANCH  21  22
ATOM     22  C   UNL A   1      38.243  19.848  24.872  1.00  0.00     0.042 C 
BRANCH  22  23
ATOM     23  C   UNL A   1      39.206  19.982  26.049  1.00  0.00     0.118 C 
BRANCH  23  24
ATOM     24  N   UNL A   1      40.377  19.133  25.940  1.00  0.00    -0.352 N 
ATOM     25  C   UNL A   1      41.706  19.448  26.059  1.00  0.00     0.251 C 
ATOM     26  H   UNL A   1      40.189  18.185  25.752  1.00  0.00     0.163 HD
ATOM     27  O   UNL A   1      42.557  18.594  25.802  1.00  0.00    -0.269 OA
BRANCH  25  28
ATOM     28  C   UNL A   1      42.142  20.806  26.458  1.00  0.00     0.039 A 
ATOM     29  C   UNL A   1      42.386  21.745  25.450  1.00  0.00     0.014 A 
ATOM     30  C   UNL A   1      42.359  21.154  27.796  1.00  0.00     0.014 A 
ATOM     31  C   UNL A   1      42.793  23.039  25.783  1.00  0.00     0.010 A 
ATOM     32  C   UNL A   1      42.701  22.467  28.131  1.00  0.00     0.010 A 
ATOM     33  C   UNL A   1      42.928  23.422  27.128  1.00  0.00    -0.014 A 
BRANCH  33  34
ATOM     34  C   UNL A   1      43.312  24.816  27.481  1.00  0.00     0.031 A 
ATOM     35  C   UNL A   1      42.274  25.802  27.946  1.00  0.00     0.074 A 
ATOM     36  C   UNL A   1      44.596  25.205  27.364  1.00  0.00     0.049 A 
ATOM     37  N   UNL A   1      42.423  27.058  28.291  1.00  0.00    -0.248 NA
ATOM     38  C   UNL A   1      40.887  25.322  28.016  1.00  0.00     0.031 C 
ATOM     39  C   UNL A   1      45.696  24.361  26.893  1.00  0.00     0.029 A 
ATOM     40  N   UNL A   1      45.196  26.412  27.631  1.00  0.00    -0.354 N 
ATOM     41  C   UNL A   1      41.151  27.517  28.611  1.00  0.00     0.074 A 
ATOM     42  C   UNL A   1      40.236  26.422  28.369  1.00  0.00     0.031 C 
ATOM     43  C   UNL A   1      46.837  25.065  26.929  1.00  0.00     0.029 A 
ATOM     44  C   UNL A   1      46.550  26.421  27.390  1.00  0.00     0.049 A 
ATOM     45  H   UNL A   1      44.704  27.196  27.965  1.00  0.00     0.167 HD
ATOM     46  C   UNL A   1      40.780  28.732  29.085  1.00  0.00     0.037 A 
ATOM     47  C   UNL A   1      47.457  27.408  27.521  1.00  0.00     0.037 A 
ATOM     48  C   UNL A   1      41.691  29.817  29.341  1.00  0.00     0.049 A 
ATOM     49  C   UNL A   1      47.016  28.753  28.027  1.00  0.00     0.074 A 
ATOM     50  C   UNL A   1      41.415  31.066  29.871  1.00  0.00     0.029 A 
ATOM     51  N   UNL A   1      43.052  29.788  29.079  1.00  0.00    -0.354 N 
ATOM     52  N   UNL A   1      45.820  29.150  28.391  1.00  0.00    -0.248 NA
ATOM     53  C   UNL A   1      48.053  29.788  28.147  1.00  0.00     0.031 C 
ATOM     54  C   UNL A   1      42.600  31.810  29.882  1.00  0.00     0.029 A 
ATOM     55  C   UNL A   1      43.624  31.005  29.410  1.00  0.00     0.049 A 
ATOM     56  H   UNL A   1      43.540  29.015  28.711  1.00  0.00     0.167 HD
ATOM     57  C   UNL A   1      45.966  30.467  28.809  1.00  0.00     0.074 A 
ATOM     58  C   UNL A   1      47.369  30.797  28.668  1.00  0.00     0.031 C 
ATOM     59  C   UNL A   1      45.023  31.323  29.270  1.00  0.00     0.037 A 
BRANCH  46  60
ATOM     60  C   UNL A   1      39.319  28.952  29.357  1.00  0.00     0.057 A 
ATOM     61  C   UNL A   1      38.754  28.700  30.614  1.00  0.00     0.134 A 
ATOM     62  C   UNL A   1      38.474  29.461  28.362  1.00  0.00     0.134 A 
ATOM     63  F   UNL A   1      39.504  28.204  31.610  1.00  0.00    -0.206 F 
ATOM     64  C   UNL A   1      37.397  28.916  30.863  1.00  0.00     0.040 A 
ATOM     65  C   UNL A   1      37.123  29.709  28.608  1.00  0.00     0.040 A 
ATOM     66  F   UNL A   1      38.950  29.733  27.138  1.00  0.00    -0.206 F 
ATOM     67  C   UNL A   1      36.579  29.430  29.859  1.00  0.00     0.006 A 
ENDBRANCH  46  60
BRANCH  47  68
ATOM     68  C   UNL A   1      48.881  27.157  27.180  1.00  0.00     0.057 A 
ATOM     69  C   UNL A   1      49.348  27.305  25.869  1.00  0.00     0.134 A 
ATOM     70  C   UNL A   1      49.805  26.752  28.151  1.00  0.00     0.134 A 
ATOM     71  F   UNL A   1      48.507  27.671  24.890  1.00  0.00    -0.206 F 
ATOM     72  C   UNL A   1      50.676  27.042  25.531  1.00  0.00     0.040 A 
ATOM     73  C   UNL A   1      51.142  26.511  27.833  1.00  0.00     0.040 A 
ATOM     74  F   UNL A   1      49.422  26.598  29.427  1.00  0.00    -0.206 F 
ATOM     75  C   UNL A   1      51.579  26.647  26.517  1.00  0.00     0.006 A 
ENDBRANCH  47  68
BRANCH  59  76
ATOM     76  C   UNL A   1      45.479  32.692  29.689  1.00  0.00     0.057 A 
ATOM     77  C   UNL A   1      45.941  32.956  30.986  1.00  0.00     0.134 A 
ATOM     78  C   UNL A   1      45.491  33.750  28.772  1.00  0.00     0.134 A 
ATOM     79  F   UNL A   1      45.944  31.989  31.916  1.00  0.00    -0.206 F 
ATOM     80  C   UNL A   1      46.375  34.229  31.360  1.00  0.00     0.040 A 
ATOM     81  C   UNL A   1      45.950  35.019  29.126  1.00  0.00     0.040 A 
ATOM     82  F   UNL A   1      45.071  33.564  27.511  1.00  0.00    -0.206 F 
ATOM     83  C   UNL A   1      46.387  35.263  30.427  1.00  0.00     0.006 A 
ENDBRANCH  59  76
ENDBRANCH  33  34
ENDBRANCH  25  28
ENDBRANCH  23  24
ENDBRANCH  22  23
ENDBRANCH  21  22
ENDBRANCH   3  21
TORSDOF 15
ENDMDL
MODEL 3
REMARK VINA RESULT:     -10.7      1.825      3.370
REMARK SMILES C[C@@H]([NH2+]C1(CO)CCCCC1)[C@@H](C)C(=O)NCCCNC(=O)c1ccc(-c2c3nc(c(-c4c(F)cccc4F)c4ccc([nH]4)c(-c4c(F)cccc4F)c4nc(c(-c5c(F)cccc5F)c5ccc2[nH]5)C=C4)C=C3)cc1
REMARK SMILES IDX 14 1 15 2 16 3 12 5 13 6 2 7 1 8 3 9 4 12 7 13 11 14 8 15
REMARK SMILES IDX 10 16 9 17 5 18 6 19 17 21 18 22 19 23 20 24 21 25 22 27
REMARK SMILES IDX 23 28 24 29 76 30 25 31 75 32 26 33 27 34 28 35 69 36 29 37
REMARK SMILES IDX 74 38 68 39 70 40 30 41 73 42 67 43 66 44 31 46 57 47 40 48
REMARK SMILES IDX 56 49 41 50 44 51 55 52 71 53 42 54 43 55 54 57 72 58 45 59
REMARK SMILES IDX 32 60 33 61 38 62 34 63 35 64 37 65 39 66 36 67 58 68 59 69
REMARK SMILES IDX 64 70 60 71 61 72 63 73 65 74 62 75 46 76 47 77 52 78 48 79
REMARK SMILES IDX 49 80 51 81 53 82 50 83
REMARK H PARENT 16 4 3 10 3 11 6 20 20 26 70 45 44 56
REMARK Flexibility Score: inf
ROOT
ATOM      1  C   UNL A   1      35.358  22.100  25.452  1.00  0.00     0.228 C 
ATOM      2  O   UNL A   1      34.933  22.743  26.419  1.00  0.00    -0.275 OA
ATOM      3  N   UNL A   1      35.948  20.922  25.772  1.00  0.00    -0.356 N 
ATOM      4  H   UNL A   1      36.134  20.832  26.734  1.00  0.00     0.163 HD
ENDROOT
BRANCH   1   5
ATOM      5  C   UNL A   1      35.128  22.606  24.024  1.00  0.00     0.133 C 
ATOM      6  C   UNL A   1      36.448  23.267  23.589  1.00  0.00     0.024 C 
BRANCH   5   7
ATOM      7  C   UNL A   1      33.825  23.437  23.770  1.00  0.00     0.192 C 
ATOM      8  C   UNL A   1      33.278  23.174  22.347  1.00  0.00     0.076 C 
BRANCH   7   9
ATOM      9  N   UNL A   1      32.657  23.168  24.659  1.00  0.00    -0.337 N 
ATOM     10  H   UNL A   1      32.969  22.480  25.344  1.00  0.00     0.347 HD
ATOM     11  H   UNL A   1      31.932  22.903  23.991  1.00  0.00     0.347 HD
BRANCH   9  12
ATOM     12  C   UNL A   1      31.994  24.256  25.431  1.00  0.00     0.120 C 
ATOM     13  C   UNL A   1      32.925  25.475  25.591  1.00  0.00     0.071 C 
ATOM     14  C   UNL A   1      30.772  24.764  24.599  1.00  0.00     0.071 C 
ATOM     15  C   UNL A   1      32.280  26.708  26.218  1.00  0.00     0.007 C 
ATOM     16  C   UNL A   1      30.060  25.950  25.266  1.00  0.00     0.007 C 
ATOM     17  C   UNL A   1      31.005  27.123  25.499  1.00  0.00     0.001 C 
BRANCH  12  18
ATOM     18  C   UNL A   1      31.473  23.702  26.796  1.00  0.00     0.224 C 
BRANCH  18  19
ATOM     19  O   UNL A   1      31.951  22.388  27.092  1.00  0.00    -0.390 OA
ATOM     20  H   UNL A   1      31.344  21.956  27.715  1.00  0.00     0.210 HD
ENDBRANCH  18  19
ENDBRANCH  12  18
ENDBRANCH   9  12
ENDBRANCH   7   9
ENDBRANCH   5   7
ENDBRANCH   1   5
BRANCH   3  21
ATOM     21  C   UNL A   1      36.363  19.766  25.002  1.00  0.00     0.117 C 
BRANCH  21  22
ATOM     22  C   UNL A   1      37.849  19.739  24.644  1.00  0.00     0.042 C 
BRANCH  22  23
ATOM     23  C   UNL A   1      38.824  19.978  25.795  1.00  0.00     0.118 C 
BRANCH  23  24
ATOM     24  N   UNL A   1      39.994  19.121  25.751  1.00  0.00    -0.352 N 
ATOM     25  C   UNL A   1      41.310  19.418  25.993  1.00  0.00     0.251 C 
ATOM     26  H   UNL A   1      39.815  18.183  25.511  1.00  0.00     0.163 HD
ATOM     27  O   UNL A   1      42.174  18.565  25.774  1.00  0.00    -0.269 OA
BRANCH  25  28
ATOM     28  C   UNL A   1      41.721  20.754  26.481  1.00  0.00     0.039 A 
ATOM     29  C   UNL A   1      42.051  21.730  25.535  1.00  0.00     0.014 A 
ATOM     30  C   UNL A   1      41.832  21.046  27.844  1.00  0.00     0.014 A 
ATOM     31  C   UNL A   1      42.438  23.006  25.951  1.00  0.00     0.010 A 
ATOM     32  C   UNL A   1      42.154  22.341  28.259  1.00  0.00     0.010 A 
ATOM     33  C   UNL A   1      42.467  23.334  27.316  1.00  0.00    -0.014 A 
BRANCH  33  34
ATOM     34  C   UNL A   1      42.830  24.709  27.756  1.00  0.00     0.031 A 
ATOM     35  C   UNL A   1      44.272  25.124  27.863  1.00  0.00     0.074 A 
ATOM     36  C   UNL A   1      41.858  25.583  28.083  1.00  0.00     0.049 A 
ATOM     37  N   UNL A   1      44.776  26.277  28.234  1.00  0.00    -0.248 NA
ATOM     38  C   UNL A   1      45.282  24.111  27.526  1.00  0.00     0.031 C 
ATOM     39  C   UNL A   1      40.422  25.300  28.058  1.00  0.00     0.029 A 
ATOM     40  N   UNL A   1      41.930  26.889  28.502  1.00  0.00    -0.354 N 
ATOM     41  C   UNL A   1      46.156  26.122  28.181  1.00  0.00     0.074 A 
ATOM     42  C   UNL A   1      46.411  24.751  27.794  1.00  0.00     0.031 C 
ATOM     43  C   UNL A   1      39.749  26.403  28.418  1.00  0.00     0.029 A 
ATOM     44  C   UNL A   1      40.703  27.463  28.735  1.00  0.00     0.049 A 
ATOM     45  H   UNL A   1      42.781  27.371  28.622  1.00  0.00     0.167 HD
ATOM     46  C   UNL A   1      47.123  27.043  28.411  1.00  0.00     0.037 A 
ATOM     47  C   UNL A   1      40.380  28.700  29.159  1.00  0.00     0.037 A 
ATOM     48  C   UNL A   1      46.871  28.412  28.781  1.00  0.00     0.049 A 
ATOM     49  C   UNL A   1      41.473  29.697  29.430  1.00  0.00     0.074 A 
ATOM     50  C   UNL A   1      47.786  29.432  28.984  1.00  0.00     0.029 A 
ATOM     51  N   UNL A   1      45.615  28.951  29.012  1.00  0.00    -0.354 N 
ATOM     52  N   UNL A   1      42.771  29.556  29.309  1.00  0.00    -0.248 NA
ATOM     53  C   UNL A   1      41.055  31.029  29.891  1.00  0.00     0.031 C 
ATOM     54  C   UNL A   1      47.086  30.574  29.387  1.00  0.00     0.029 A 
ATOM     55  C   UNL A   1      45.732  30.282  29.382  1.00  0.00     0.049 A 
ATOM     56  H   UNL A   1      44.765  28.461  28.926  1.00  0.00     0.167 HD
ATOM     57  C   UNL A   1      43.321  30.785  29.650  1.00  0.00     0.074 A 
ATOM     58  C   UNL A   1      42.216  31.665  29.967  1.00  0.00     0.031 C 
ATOM     59  C   UNL A   1      44.625  31.151  29.692  1.00  0.00     0.037 A 
BRANCH  46  60
ATOM     60  C   UNL A   1      48.551  26.598  28.271  1.00  0.00     0.057 A 
ATOM     61  C   UNL A   1      49.238  25.976  29.322  1.00  0.00     0.134 A 
ATOM     62  C   UNL A   1      49.236  26.757  27.060  1.00  0.00     0.134 A 
ATOM     63  F   UNL A   1      48.646  25.800  30.513  1.00  0.00    -0.206 F 
ATOM     64  C   UNL A   1      50.563  25.556  29.183  1.00  0.00     0.040 A 
ATOM     65  C   UNL A   1      50.550  26.315  26.899  1.00  0.00     0.040 A 
ATOM     66  F   UNL A   1      48.636  27.337  26.009  1.00  0.00    -0.206 F 
ATOM     67  C   UNL A   1      51.220  25.718  27.965  1.00  0.00     0.006 A 
ENDBRANCH  46  60
BRANCH  47  68
ATOM     68  C   UNL A   1      38.954  29.074  29.341  1.00  0.00     0.057 A 
ATOM     69  C   UNL A   1      38.190  29.556  28.272  1.00  0.00     0.134 A 
ATOM     70  C   UNL A   1      38.324  28.971  30.587  1.00  0.00     0.134 A 
ATOM     71  F   UNL A   1      38.742  29.696  27.057  1.00  0.00    -0.206 F 
ATOM     72  C   UNL A   1      36.858  29.940  28.437  1.00  0.00     0.040 A 
ATOM     73  C   UNL A   1      36.986  29.326  30.763  1.00  0.00     0.040 A 
ATOM     74  F   UNL A   1      38.999  28.511  31.651  1.00  0.00    -0.206 F 
ATOM     75  C   UNL A   1      36.252  29.821  29.687  1.00  0.00     0.006 A 
ENDBRANCH  47  68
BRANCH  59  76
ATOM     76  C   UNL A   1      44.930  32.574  30.065  1.00  0.00     0.057 A 
ATOM     77  C   UNL A   1      44.984  33.596  29.108  1.00  0.00     0.134 A 
ATOM     78  C   UNL A   1      45.136  32.931  31.404  1.00  0.00     0.134 A 
ATOM     79  F   UNL A   1      44.809  33.320  27.807  1.00  0.00    -0.206 F 
ATOM     80  C   UNL A   1      45.256  34.918  29.467  1.00  0.00     0.040 A 
ATOM     81  C   UNL A   1      45.379  34.253  31.778  1.00  0.00     0.040 A 
ATOM     82  F   UNL A   1      45.088  32.003  32.371  1.00  0.00    -0.206 F 
ATOM     83  C   UNL A   1      45.447  35.250  30.807  1.00  0.00     0.006 A 
ENDBRANCH  59  76
ENDBRANCH  33  34
ENDBRANCH  25  28
ENDBRANCH  23  24
ENDBRANCH  22  23
ENDBRANCH  21  22
ENDBRANCH   3  21
TORSDOF 15
ENDMDL
