MODEL 1
REMARK VINA RESULT:     -11.3      0.000      0.000
REMARK SMILES Cc1[nH]c2ccc(Br)cc2c(=O)c1CCC(=O)NCCCNC(=O)c1ccc(-c2c3nc(c(-c4c(F)cccc4F)c4ccc([nH]4)c(-c4c(F)cccc4F)c4nc(c(-c5c(F)cccc5F)c5ccc2[nH]5)C=C4)C=C3)cc1
REMARK SMILES IDX 20 1 19 2 18 3 16 4 17 5 15 7 14 8 13 9 1 10 2 11 3 12 4 13
REMARK SMILES IDX 11 15 5 16 10 17 12 18 6 19 9 20 7 21 8 22 21 23 22 24 23 25
REMARK SMILES IDX 24 27 25 28 26 29 78 30 27 31 77 32 28 33 29 34 30 35 71 36
REMARK SMILES IDX 31 37 76 38 70 39 72 40 32 41 75 42 69 43 68 44 33 46 59 47
REMARK SMILES IDX 42 48 58 49 43 50 46 51 57 52 73 53 44 54 45 55 56 57 74 58
REMARK SMILES IDX 47 59 34 60 35 61 40 62 36 63 37 64 39 65 41 66 38 67 60 68
REMARK SMILES IDX 61 69 66 70 62 71 63 72 65 73 67 74 64 75 48 76 49 77 54 78
REMARK SMILES IDX 50 79 51 80 53 81 55 82 52 83
REMARK H PARENT 18 6 3 14 22 26 72 45 46 56
REMARK Flexibility Score: inf
ROOT
ATOM      1  C   UNL A   1      37.710  22.877  25.288  1.00  0.00     0.042 C 
ENDROOT
BRANCH   1   2
ATOM      2  C   UNL A   1      36.687  21.730  25.304  1.00  0.00     0.117 C 
BRANCH   2   3
ATOM      3  N   UNL A   1      35.820  21.789  26.480  1.00  0.00    -0.356 N 
ATOM      4  C   UNL A   1      34.463  21.725  26.630  1.00  0.00     0.220 C 
ATOM      5  O   UNL A   1      34.004  21.855  27.768  1.00  0.00    -0.275 OA
ATOM      6  H   UNL A   1      36.307  21.897  27.328  1.00  0.00     0.163 HD
BRANCH   4   7
ATOM      7  C   UNL A   1      33.536  21.433  25.463  1.00  0.00     0.105 C 
BRANCH   7   8
ATOM      8  C   UNL A   1      33.292  22.646  24.551  1.00  0.00     0.051 C 
BRANCH   8   9
ATOM      9  C   UNL A   1      32.756  23.795  25.360  1.00  0.00     0.020 A 
ATOM     10  C   UNL A   1      30.652  22.666  26.146  1.00  0.00     0.064 C 
ATOM     11  C   UNL A   1      31.555  23.862  25.981  1.00  0.00     0.019 A 
ATOM     12  N   UNL A   1      31.061  25.050  26.488  1.00  0.00    -0.358 N 
ATOM     13  C   UNL A   1      31.813  26.223  26.501  1.00  0.00     0.050 A 
ATOM     14  H   UNL A   1      30.146  25.068  26.851  1.00  0.00     0.166 HD
ATOM     15  C   UNL A   1      33.664  24.972  25.467  1.00  0.00     0.192 A 
ATOM     16  C   UNL A   1      31.265  27.443  26.880  1.00  0.00     0.028 A 
ATOM     17  C   UNL A   1      33.152  26.195  26.093  1.00  0.00     0.047 A 
ATOM     18  O   UNL A   1      34.811  24.953  25.012  1.00  0.00    -0.289 OA
ATOM     19  C   UNL A   1      32.095  28.561  26.998  1.00  0.00     0.018 A 
ATOM     20  C   UNL A   1      33.989  27.299  26.231  1.00  0.00     0.030 A 
ATOM     21  C   UNL A   1      33.464  28.461  26.757  1.00  0.00     0.018 A 
ATOM     22  Br  UNL A   1      34.656  29.835  27.251  1.00  0.00    -0.051 Br
ENDBRANCH   8   9
ENDBRANCH   7   8
ENDBRANCH   4   7
ENDBRANCH   2   3
ENDBRANCH   1   2
BRANCH   1  23
ATOM     23  C   UNL A   1      38.633  23.006  26.508  1.00  0.00     0.118 C 
BRANCH  23  24
ATOM     24  N   UNL A   1      40.041  23.170  26.163  1.00  0.00    -0.352 N 
ATOM     25  C   UNL A   1      41.009  24.118  26.419  1.00  0.00     0.251 C 
ATOM     26  H   UNL A   1      40.382  22.425  25.618  1.00  0.00     0.163 HD
ATOM     27  O   UNL A   1      42.103  23.937  25.877  1.00  0.00    -0.269 OA
BRANCH  25  28
ATOM     28  C   UNL A   1      40.842  25.354  27.250  1.00  0.00     0.039 A 
ATOM     29  C   UNL A   1      41.550  26.538  27.089  1.00  0.00     0.014 A 
ATOM     30  C   UNL A   1      39.820  25.352  28.221  1.00  0.00     0.014 A 
ATOM     31  C   UNL A   1      41.364  27.611  27.988  1.00  0.00     0.010 A 
ATOM     32  C   UNL A   1      39.596  26.452  29.077  1.00  0.00     0.010 A 
ATOM     33  C   UNL A   1      40.431  27.572  29.047  1.00  0.00    -0.014 A 
BRANCH  33  34
ATOM     34  C   UNL A   1      40.408  28.641  30.122  1.00  0.00     0.031 A 
ATOM     35  C   UNL A   1      39.433  29.819  30.075  1.00  0.00     0.074 A 
ATOM     36  C   UNL A   1      41.164  28.537  31.238  1.00  0.00     0.049 A 
ATOM     37  N   UNL A   1      39.110  30.677  31.021  1.00  0.00    -0.248 NA
ATOM     38  C   UNL A   1      38.699  30.047  28.824  1.00  0.00     0.031 C 
ATOM     39  C   UNL A   1      42.158  27.497  31.495  1.00  0.00     0.029 A 
ATOM     40  N   UNL A   1      41.194  29.309  32.381  1.00  0.00    -0.354 N 
ATOM     41  C   UNL A   1      38.095  31.477  30.501  1.00  0.00     0.074 A 
ATOM     42  C   UNL A   1      37.870  31.027  29.147  1.00  0.00     0.031 C 
ATOM     43  C   UNL A   1      42.654  27.659  32.732  1.00  0.00     0.029 A 
ATOM     44  C   UNL A   1      42.067  28.853  33.340  1.00  0.00     0.049 A 
ATOM     45  H   UNL A   1      40.639  30.114  32.500  1.00  0.00     0.167 HD
ATOM     46  C   UNL A   1      37.412  32.509  31.059  1.00  0.00     0.037 A 
ATOM     47  C   UNL A   1      42.390  29.332  34.558  1.00  0.00     0.037 A 
ATOM     48  C   UNL A   1      37.691  33.099  32.342  1.00  0.00     0.049 A 
ATOM     49  C   UNL A   1      41.747  30.582  35.093  1.00  0.00     0.074 A 
ATOM     50  C   UNL A   1      37.090  34.198  32.937  1.00  0.00     0.029 A 
ATOM     51  N   UNL A   1      38.684  32.676  33.206  1.00  0.00    -0.354 N 
ATOM     52  N   UNL A   1      40.775  31.298  34.586  1.00  0.00    -0.248 NA
ATOM     53  C   UNL A   1      42.268  31.104  36.369  1.00  0.00     0.031 C 
ATOM     54  C   UNL A   1      37.766  34.481  34.129  1.00  0.00     0.029 A 
ATOM     55  C   UNL A   1      38.749  33.523  34.303  1.00  0.00     0.049 A 
ATOM     56  H   UNL A   1      39.261  31.892  33.064  1.00  0.00     0.167 HD
ATOM     57  C   UNL A   1      40.570  32.348  35.474  1.00  0.00     0.074 A 
ATOM     58  C   UNL A   1      41.498  32.165  36.568  1.00  0.00     0.031 C 
ATOM     59  C   UNL A   1      39.690  33.375  35.382  1.00  0.00     0.037 A 
BRANCH  46  60
ATOM     60  C   UNL A   1      36.315  33.124  30.237  1.00  0.00     0.057 A 
ATOM     61  C   UNL A   1      34.973  32.804  30.477  1.00  0.00     0.134 A 
ATOM     62  C   UNL A   1      36.591  34.015  29.192  1.00  0.00     0.134 A 
ATOM     63  F   UNL A   1      34.641  31.955  31.460  1.00  0.00    -0.206 F 
ATOM     64  C   UNL A   1      33.944  33.348  29.706  1.00  0.00     0.040 A 
ATOM     65  C   UNL A   1      35.569  34.579  28.425  1.00  0.00     0.040 A 
ATOM     66  F   UNL A   1      37.855  34.374  28.920  1.00  0.00    -0.206 F 
ATOM     67  C   UNL A   1      34.240  34.243  28.679  1.00  0.00     0.006 A 
ENDBRANCH  46  60
BRANCH  47  68
ATOM     68  C   UNL A   1      43.436  28.643  35.360  1.00  0.00     0.057 A 
ATOM     69  C   UNL A   1      43.089  27.694  36.331  1.00  0.00     0.134 A 
ATOM     70  C   UNL A   1      44.797  28.902  35.168  1.00  0.00     0.134 A 
ATOM     71  F   UNL A   1      41.801  27.391  36.551  1.00  0.00    -0.206 F 
ATOM     72  C   UNL A   1      44.055  27.055  37.107  1.00  0.00     0.040 A 
ATOM     73  C   UNL A   1      45.777  28.247  35.917  1.00  0.00     0.040 A 
ATOM     74  F   UNL A   1      45.193  29.769  34.224  1.00  0.00    -0.206 F 
ATOM     75  C   UNL A   1      45.405  27.329  36.898  1.00  0.00     0.006 A 
ENDBRANCH  47  68
BRANCH  59  76
ATOM     76  C   UNL A   1      39.696  34.396  36.482  1.00  0.00     0.057 A 
ATOM     77  C   UNL A   1      38.911  34.226  37.630  1.00  0.00     0.134 A 
ATOM     78  C   UNL A   1      40.473  35.561  36.401  1.00  0.00     0.134 A 
ATOM     79  F   UNL A   1      38.136  33.140  37.770  1.00  0.00    -0.206 F 
ATOM     80  C   UNL A   1      38.903  35.171  38.657  1.00  0.00     0.040 A 
ATOM     81  C   UNL A   1      40.489  36.503  37.432  1.00  0.00     0.040 A 
ATOM     82  F   UNL A   1      41.255  35.782  35.334  1.00  0.00    -0.206 F 
ATOM     83  C   UNL A   1      39.699  36.310  38.564  1.00  0.00     0.006 A 
ENDBRANCH  59  76
ENDBRANCH  33  34
ENDBRANCH  25  28
ENDBRANCH  23  24
ENDBRANCH   1  23
TORSDOF 12
ENDMDL
MODEL 2
REMARK VINA RESULT:     -11.3      4.708      9.136
REMARK SMILES Cc1[nH]c2ccc(Br)cc2c(=O)c1CCC(=O)NCCCNC(=O)c1ccc(-c2c3nc(c(-c4c(F)cccc4F)c4ccc([nH]4)c(-c4c(F)cccc4F)c4nc(c(-c5c(F)cccc5F)c5ccc2[nH]5)C=C4)C=C3)cc1
REMARK SMILES IDX 20 1 19 2 18 3 16 4 17 5 15 7 14 8 13 9 1 10 2 11 3 12 4 13
REMARK SMILES IDX 11 15 5 16 10 17 12 18 6 19 9 20 7 21 8 22 21 23 22 24 23 25
REMARK SMILES IDX 24 27 25 28 26 29 78 30 27 31 77 32 28 33 29 34 30 35 71 36
REMARK SMILES IDX 31 37 76 38 70 39 72 40 32 41 75 42 69 43 68 44 33 46 59 47
REMARK SMILES IDX 42 48 58 49 43 50 46 51 57 52 73 53 44 54 45 55 56 57 74 58
REMARK SMILES IDX 47 59 34 60 35 61 40 62 36 63 37 64 39 65 41 66 38 67 60 68
REMARK SMILES IDX 61 69 66 70 62 71 63 72 65 73 67 74 64 75 48 76 49 77 54 78
REMARK SMILES IDX 50 79 51 80 53 81 55 82 52 83
REMARK H PARENT 18 6 3 14 22 26 72 45 46 56
REMARK Flexibility Score: inf
ROOT
ATOM      1  C   UNL A   1      33.815  28.379  26.156  1.00  0.00     0.042 C 
ENDROOT
BRANCH   1   2
ATOM      2  C   UNL A   1      33.601  29.328  24.967  1.00  0.00     0.117 C 
BRANCH   2   3
ATOM      3  N   UNL A   1      32.182  29.539  24.686  1.00  0.00    -0.356 N 
ATOM      4  C   UNL A   1      31.402  29.247  23.603  1.00  0.00     0.220 C 
ATOM      5  O   UNL A   1      30.219  29.597  23.635  1.00  0.00    -0.275 OA
ATOM      6  H   UNL A   1      31.693  29.978  25.419  1.00  0.00     0.163 HD
BRANCH   4   7
ATOM      7  C   UNL A   1      31.931  28.456  22.419  1.00  0.00     0.105 C 
BRANCH   7   8
ATOM      8  C   UNL A   1      31.275  27.076  22.257  1.00  0.00     0.051 C 
BRANCH   8   9
ATOM      9  C   UNL A   1      31.800  26.132  23.303  1.00  0.00     0.020 A 
ATOM     10  C   UNL A   1      29.816  26.238  24.843  1.00  0.00     0.064 C 
ATOM     11  C   UNL A   1      31.225  25.831  24.491  1.00  0.00     0.019 A 
ATOM     12  N   UNL A   1      31.906  25.145  25.479  1.00  0.00    -0.358 N 
ATOM     13  C   UNL A   1      33.179  24.616  25.275  1.00  0.00     0.050 A 
ATOM     14  H   UNL A   1      31.478  25.027  26.357  1.00  0.00     0.166 HD
ATOM     15  C   UNL A   1      33.097  25.477  22.970  1.00  0.00     0.192 A 
ATOM     16  C   UNL A   1      33.916  24.054  26.311  1.00  0.00     0.028 A 
ATOM     17  C   UNL A   1      33.760  24.675  24.003  1.00  0.00     0.047 A 
ATOM     18  O   UNL A   1      33.637  25.624  21.870  1.00  0.00    -0.289 OA
ATOM     19  C   UNL A   1      35.130  23.424  26.026  1.00  0.00     0.018 A 
ATOM     20  C   UNL A   1      34.958  24.030  23.708  1.00  0.00     0.030 A 
ATOM     21  C   UNL A   1      35.600  23.341  24.716  1.00  0.00     0.018 A 
ATOM     22  Br  UNL A   1      37.028  22.202  24.250  1.00  0.00    -0.051 Br
ENDBRANCH   8   9
ENDBRANCH   7   8
ENDBRANCH   4   7
ENDBRANCH   2   3
ENDBRANCH   1   2
BRANCH   1  23
ATOM     23  C   UNL A   1      33.234  28.813  27.509  1.00  0.00     0.118 C 
BRANCH  23  24
ATOM     24  N   UNL A   1      33.594  30.175  27.893  1.00  0.00    -0.352 N 
ATOM     25  C   UNL A   1      34.733  30.793  28.361  1.00  0.00     0.251 C 
ATOM     26  H   UNL A   1      32.843  30.802  27.792  1.00  0.00     0.163 HD
ATOM     27  O   UNL A   1      34.623  31.987  28.651  1.00  0.00    -0.269 OA
BRANCH  25  28
ATOM     28  C   UNL A   1      36.065  30.143  28.589  1.00  0.00     0.039 A 
ATOM     29  C   UNL A   1      36.475  29.531  29.766  1.00  0.00     0.014 A 
ATOM     30  C   UNL A   1      36.946  30.064  27.492  1.00  0.00     0.014 A 
ATOM     31  C   UNL A   1      37.788  29.024  29.890  1.00  0.00     0.010 A 
ATOM     32  C   UNL A   1      38.236  29.501  27.604  1.00  0.00     0.010 A 
ATOM     33  C   UNL A   1      38.725  29.056  28.835  1.00  0.00    -0.014 A 
BRANCH  33  34
ATOM     34  C   UNL A   1      40.184  28.710  29.060  1.00  0.00     0.031 A 
ATOM     35  C   UNL A   1      40.759  27.341  28.697  1.00  0.00     0.074 A 
ATOM     36  C   UNL A   1      41.074  29.639  29.478  1.00  0.00     0.049 A 
ATOM     37  N   UNL A   1      42.016  26.961  28.593  1.00  0.00    -0.248 NA
ATOM     38  C   UNL A   1      39.811  26.266  28.377  1.00  0.00     0.031 C 
ATOM     39  C   UNL A   1      40.748  31.007  29.876  1.00  0.00     0.029 A 
ATOM     40  N   UNL A   1      42.445  29.575  29.613  1.00  0.00    -0.354 N 
ATOM     41  C   UNL A   1      41.996  25.648  28.125  1.00  0.00     0.074 A 
ATOM     42  C   UNL A   1      40.606  25.281  27.990  1.00  0.00     0.031 C 
ATOM     43  C   UNL A   1      41.884  31.666  30.153  1.00  0.00     0.029 A 
ATOM     44  C   UNL A   1      43.021  30.756  30.018  1.00  0.00     0.049 A 
ATOM     45  H   UNL A   1      42.965  28.757  29.436  1.00  0.00     0.167 HD
ATOM     46  C   UNL A   1      43.015  24.796  27.846  1.00  0.00     0.037 A 
ATOM     47  C   UNL A   1      44.304  31.085  30.277  1.00  0.00     0.037 A 
ATOM     48  C   UNL A   1      44.409  25.049  28.100  1.00  0.00     0.049 A 
ATOM     49  C   UNL A   1      45.407  30.073  30.129  1.00  0.00     0.074 A 
ATOM     50  C   UNL A   1      45.489  24.199  27.915  1.00  0.00     0.029 A 
ATOM     51  N   UNL A   1      44.914  26.216  28.642  1.00  0.00    -0.354 N 
ATOM     52  N   UNL A   1      45.355  28.851  29.661  1.00  0.00    -0.248 NA
ATOM     53  C   UNL A   1      46.750  30.485  30.571  1.00  0.00     0.031 C 
ATOM     54  C   UNL A   1      46.637  24.828  28.410  1.00  0.00     0.029 A 
ATOM     55  C   UNL A   1      46.280  26.091  28.849  1.00  0.00     0.049 A 
ATOM     56  H   UNL A   1      44.383  27.018  28.852  1.00  0.00     0.167 HD
ATOM     57  C   UNL A   1      46.650  28.352  29.752  1.00  0.00     0.074 A 
ATOM     58  C   UNL A   1      47.474  29.410  30.294  1.00  0.00     0.031 C 
ATOM     59  C   UNL A   1      47.107  27.120  29.419  1.00  0.00     0.037 A 
BRANCH  46  60
ATOM     60  C   UNL A   1      42.646  23.452  27.284  1.00  0.00     0.057 A 
ATOM     61  C   UNL A   1      42.303  22.390  28.131  1.00  0.00     0.134 A 
ATOM     62  C   UNL A   1      42.654  23.205  25.905  1.00  0.00     0.134 A 
ATOM     63  F   UNL A   1      42.279  22.561  29.460  1.00  0.00    -0.206 F 
ATOM     64  C   UNL A   1      41.981  21.129  27.625  1.00  0.00     0.040 A 
ATOM     65  C   UNL A   1      42.317  21.952  25.388  1.00  0.00     0.040 A 
ATOM     66  F   UNL A   1      42.959  24.183  25.040  1.00  0.00    -0.206 F 
ATOM     67  C   UNL A   1      41.982  20.908  26.249  1.00  0.00     0.006 A 
ENDBRANCH  46  60
BRANCH  47  68
ATOM     68  C   UNL A   1      44.621  32.453  30.765  1.00  0.00     0.057 A 
ATOM     69  C   UNL A   1      44.601  32.750  32.135  1.00  0.00     0.134 A 
ATOM     70  C   UNL A   1      44.963  33.485  29.885  1.00  0.00     0.134 A 
ATOM     71  F   UNL A   1      44.296  31.799  33.029  1.00  0.00    -0.206 F 
ATOM     72  C   UNL A   1      44.874  34.033  32.608  1.00  0.00     0.040 A 
ATOM     73  C   UNL A   1      45.268  34.767  30.348  1.00  0.00     0.040 A 
ATOM     74  F   UNL A   1      45.040  33.252  28.567  1.00  0.00    -0.206 F 
ATOM     75  C   UNL A   1      45.212  35.045  31.714  1.00  0.00     0.006 A 
ENDBRANCH  47  68
BRANCH  59  76
ATOM     76  C   UNL A   1      48.564  26.836  29.646  1.00  0.00     0.057 A 
ATOM     77  C   UNL A   1      49.005  26.220  30.824  1.00  0.00     0.134 A 
ATOM     78  C   UNL A   1      49.538  27.186  28.700  1.00  0.00     0.134 A 
ATOM     79  F   UNL A   1      48.129  25.865  31.776  1.00  0.00    -0.206 F 
ATOM     80  C   UNL A   1      50.357  25.956  31.049  1.00  0.00     0.040 A 
ATOM     81  C   UNL A   1      50.891  26.908  28.905  1.00  0.00     0.040 A 
ATOM     82  F   UNL A   1      49.184  27.771  27.546  1.00  0.00    -0.206 F 
ATOM     83  C   UNL A   1      51.304  26.293  30.085  1.00  0.00     0.006 A 
ENDBRANCH  59  76
ENDBRANCH  33  34
ENDBRANCH  25  28
ENDBRANCH  23  24
ENDBRANCH   1  23
TORSDOF 12
ENDMDL
MODEL 3
REMARK VINA RESULT:     -11.3      1.827      2.377
REMARK SMILES Cc1[nH]c2ccc(Br)cc2c(=O)c1CCC(=O)NCCCNC(=O)c1ccc(-c2c3nc(c(-c4c(F)cccc4F)c4ccc([nH]4)c(-c4c(F)cccc4F)c4nc(c(-c5c(F)cccc5F)c5ccc2[nH]5)C=C4)C=C3)cc1
REMARK SMILES IDX 20 1 19 2 18 3 16 4 17 5 15 7 14 8 13 9 1 10 2 11 3 12 4 13
REMARK SMILES IDX 11 15 5 16 10 17 12 18 6 19 9 20 7 21 8 22 21 23 22 24 23 25
REMARK SMILES IDX 24 27 25 28 26 29 78 30 27 31 77 32 28 33 29 34 30 35 71 36
REMARK SMILES IDX 31 37 76 38 70 39 72 40 32 41 75 42 69 43 68 44 33 46 59 47
REMARK SMILES IDX 42 48 58 49 43 50 46 51 57 52 73 53 44 54 45 55 56 57 74 58
REMARK SMILES IDX 47 59 34 60 35 61 40 62 36 63 37 64 39 65 41 66 38 67 60 68
REMARK SMILES IDX 61 69 66 70 62 71 63 72 65 73 67 74 64 75 48 76 49 77 54 78
REMARK SMILES IDX 50 79 51 80 53 81 55 82 52 83
REMARK H PARENT 18 6 3 14 22 26 72 45 46 56
REMARK Flexibility Score: inf
ROOT
ATOM      1  C   UNL A   1      36.622  22.025  24.358  1.00  0.00     0.042 C 
ENDROOT
BRANCH   1   2
ATOM      2  C   UNL A   1      36.050  20.770  25.035  1.00  0.00     0.117 C 
BRANCH   2   3
ATOM      3  N   UNL A   1      35.332  21.095  26.268  1.00  0.00    -0.356 N 
ATOM      4  C   UNL A   1      34.025  21.400  26.521  1.00  0.00     0.220 C 
ATOM      5  O   UNL A   1      33.715  21.683  27.681  1.00  0.00    -0.275 OA
ATOM      6  H   UNL A   1      35.901  21.095  27.070  1.00  0.00     0.163 HD
BRANCH   4   7
ATOM      7  C   UNL A   1      32.957  21.329  25.442  1.00  0.00     0.105 C 
BRANCH   7   8
ATOM      8  C   UNL A   1      32.879  22.592  24.570  1.00  0.00     0.051 C 
BRANCH   8   9
ATOM      9  C   UNL A   1      32.433  23.763  25.402  1.00  0.00     0.020 A 
ATOM     10  C   UNL A   1      30.322  22.729  26.291  1.00  0.00     0.064 C 
ATOM     11  C   UNL A   1      31.268  23.884  26.081  1.00  0.00     0.019 A 
ATOM     12  N   UNL A   1      30.853  25.092  26.609  1.00  0.00    -0.358 N 
ATOM     13  C   UNL A   1      31.656  26.230  26.584  1.00  0.00     0.050 A 
ATOM     14  H   UNL A   1      29.958  25.150  27.016  1.00  0.00     0.166 HD
ATOM     15  C   UNL A   1      33.397  24.898  25.463  1.00  0.00     0.192 A 
ATOM     16  C   UNL A   1      31.182  27.473  26.987  1.00  0.00     0.028 A 
ATOM     17  C   UNL A   1      32.971  26.142  26.112  1.00  0.00     0.047 A 
ATOM     18  O   UNL A   1      34.519  24.829  24.953  1.00  0.00    -0.289 OA
ATOM     19  C   UNL A   1      32.065  28.553  27.063  1.00  0.00     0.018 A 
ATOM     20  C   UNL A   1      33.862  27.208  26.207  1.00  0.00     0.030 A 
ATOM     21  C   UNL A   1      33.415  28.392  26.757  1.00  0.00     0.018 A 
ATOM     22  Br  UNL A   1      34.690  29.712  27.190  1.00  0.00    -0.051 Br
ENDBRANCH   8   9
ENDBRANCH   7   8
ENDBRANCH   4   7
ENDBRANCH   2   3
ENDBRANCH   1   2
BRANCH   1  23
ATOM     23  C   UNL A   1      37.470  22.963  25.229  1.00  0.00     0.118 C 
BRANCH  23  24
ATOM     24  N   UNL A   1      38.783  22.424  25.567  1.00  0.00    -0.352 N 
ATOM     25  C   UNL A   1      39.908  22.907  26.200  1.00  0.00     0.251 C 
ATOM     26  H   UNL A   1      38.891  21.491  25.272  1.00  0.00     0.163 HD
ATOM     27  O   UNL A   1      40.881  22.148  26.232  1.00  0.00    -0.269 OA
BRANCH  25  28
ATOM     28  C   UNL A   1      40.068  24.268  26.807  1.00  0.00     0.039 A 
ATOM     29  C   UNL A   1      40.788  25.319  26.255  1.00  0.00     0.014 A 
ATOM     30  C   UNL A   1      39.359  24.538  27.994  1.00  0.00     0.014 A 
ATOM     31  C   UNL A   1      40.937  26.533  26.961  1.00  0.00     0.010 A 
ATOM     32  C   UNL A   1      39.462  25.776  28.665  1.00  0.00     0.010 A 
ATOM     33  C   UNL A   1      40.335  26.770  28.215  1.00  0.00    -0.014 A 
BRANCH  33  34
ATOM     34  C   UNL A   1      40.689  27.988  29.047  1.00  0.00     0.031 A 
ATOM     35  C   UNL A   1      39.743  29.182  29.181  1.00  0.00     0.074 A 
ATOM     36  C   UNL A   1      41.804  28.021  29.811  1.00  0.00     0.049 A 
ATOM     37  N   UNL A   1      39.775  30.184  30.036  1.00  0.00    -0.248 NA
ATOM     38  C   UNL A   1      38.597  29.250  28.266  1.00  0.00     0.031 C 
ATOM     39  C   UNL A   1      42.842  26.993  29.843  1.00  0.00     0.029 A 
ATOM     40  N   UNL A   1      42.237  28.954  30.731  1.00  0.00    -0.354 N 
ATOM     41  C   UNL A   1      38.625  30.937  29.807  1.00  0.00     0.074 A 
ATOM     42  C   UNL A   1      37.926  30.299  28.716  1.00  0.00     0.031 C 
ATOM     43  C   UNL A   1      43.755  27.319  30.771  1.00  0.00     0.029 A 
ATOM     44  C   UNL A   1      43.411  28.612  31.361  1.00  0.00     0.049 A 
ATOM     45  H   UNL A   1      41.750  29.789  30.920  1.00  0.00     0.167 HD
ATOM     46  C   UNL A   1      38.176  32.066  30.411  1.00  0.00     0.037 A 
ATOM     47  C   UNL A   1      44.150  29.255  32.288  1.00  0.00     0.037 A 
ATOM     48  C   UNL A   1      38.896  32.830  31.396  1.00  0.00     0.049 A 
ATOM     49  C   UNL A   1      43.725  30.595  32.823  1.00  0.00     0.074 A 
ATOM     50  C   UNL A   1      38.535  34.028  31.994  1.00  0.00     0.029 A 
ATOM     51  N   UNL A   1      40.145  32.503  31.891  1.00  0.00    -0.354 N 
ATOM     52  N   UNL A   1      42.621  31.264  32.603  1.00  0.00    -0.248 NA
ATOM     53  C   UNL A   1      44.669  31.281  33.723  1.00  0.00     0.031 C 
ATOM     54  C   UNL A   1      39.597  34.459  32.798  1.00  0.00     0.029 A 
ATOM     55  C   UNL A   1      40.592  33.501  32.744  1.00  0.00     0.049 A 
ATOM     56  H   UNL A   1      40.643  31.684  31.669  1.00  0.00     0.167 HD
ATOM     57  C   UNL A   1      42.738  32.442  33.333  1.00  0.00     0.074 A 
ATOM     58  C   UNL A   1      44.006  32.388  34.026  1.00  0.00     0.031 C 
ATOM     59  C   UNL A   1      41.867  33.478  33.413  1.00  0.00     0.037 A 
BRANCH  46  60
ATOM     60  C   UNL A   1      36.841  32.595  29.964  1.00  0.00     0.057 A 
ATOM     61  C   UNL A   1      36.752  33.535  28.929  1.00  0.00     0.134 A 
ATOM     62  C   UNL A   1      35.648  32.189  30.576  1.00  0.00     0.134 A 
ATOM     63  F   UNL A   1      37.858  33.966  28.305  1.00  0.00    -0.206 F 
ATOM     64  C   UNL A   1      35.523  34.053  28.519  1.00  0.00     0.040 A 
ATOM     65  C   UNL A   1      34.411  32.689  30.162  1.00  0.00     0.040 A 
ATOM     66  F   UNL A   1      35.664  31.282  31.563  1.00  0.00    -0.206 F 
ATOM     67  C   UNL A   1      34.346  33.626  29.133  1.00  0.00     0.006 A 
ENDBRANCH  46  60
BRANCH  47  68
ATOM     68  C   UNL A   1      45.429  28.652  32.746  1.00  0.00     0.057 A 
ATOM     69  C   UNL A   1      45.469  27.815  33.869  1.00  0.00     0.134 A 
ATOM     70  C   UNL A   1      46.633  28.885  32.072  1.00  0.00     0.134 A 
ATOM     71  F   UNL A   1      44.345  27.541  34.548  1.00  0.00    -0.206 F 
ATOM     72  C   UNL A   1      46.663  27.260  34.326  1.00  0.00     0.040 A 
ATOM     73  C   UNL A   1      47.832  28.312  32.501  1.00  0.00     0.040 A 
ATOM     74  F   UNL A   1      46.653  29.645  30.967  1.00  0.00    -0.206 F 
ATOM     75  C   UNL A   1      47.850  27.505  33.639  1.00  0.00     0.006 A 
ENDBRANCH  47  68
BRANCH  59  76
ATOM     76  C   UNL A   1      42.258  34.650  34.264  1.00  0.00     0.057 A 
ATOM     77  C   UNL A   1      42.015  34.655  35.644  1.00  0.00     0.134 A 
ATOM     78  C   UNL A   1      42.866  35.789  33.715  1.00  0.00     0.134 A 
ATOM     79  F   UNL A   1      41.429  33.603  36.235  1.00  0.00    -0.206 F 
ATOM     80  C   UNL A   1      42.368  35.742  36.446  1.00  0.00     0.040 A 
ATOM     81  C   UNL A   1      43.243  36.873  34.510  1.00  0.00     0.040 A 
ATOM     82  F   UNL A   1      43.135  35.848  32.402  1.00  0.00    -0.206 F 
ATOM     83  C   UNL A   1      42.991  36.853  35.881  1.00  0.00     0.006 A 
ENDBRANCH  59  76
ENDBRANCH  33  34
ENDBRANCH  25  28
ENDBRANCH  23  24
ENDBRANCH   1  23
TORSDOF 12
ENDMDL
