MODEL 1
REMARK VINA RESULT:     -14.6      0.000      0.000
REMARK SMILES Cc1c(C(=O)NCCCNC(=O)c2ccc(-c3c4nc(c(-c5c(F)cccc5F)c5ccc([nH]5)c(-c5c(F)cccc5F)c5nc(c(-c6c(F)cccc6F)c6ccc3[nH]6)C=C5)C=C4)cc2)cccc1-n1c(C)cc(/C=C2/C(=O)NC(=S)N=C2O)c1C
REMARK SMILES IDX 7 1 6 2 4 3 5 4 3 6 1 7 2 8 70 9 67 10 69 11 68 12 71 13
REMARK SMILES IDX 72 14 86 15 73 16 74 17 75 18 87 19 76 20 77 21 78 22 84 23
REMARK SMILES IDX 79 24 80 25 83 26 81 27 82 29 85 30 8 32 9 33 10 34 11 35
REMARK SMILES IDX 12 37 13 38 14 39 66 40 15 41 65 42 16 43 17 44 18 45 59 46
REMARK SMILES IDX 19 47 64 48 58 49 60 50 20 51 63 52 57 53 56 54 21 56 47 57
REMARK SMILES IDX 30 58 46 59 31 60 34 61 45 62 61 63 32 64 33 65 44 67 62 68
REMARK SMILES IDX 35 69 22 70 23 71 28 72 24 73 25 74 27 75 29 76 26 77 48 78
REMARK SMILES IDX 49 79 54 80 50 81 51 82 53 83 55 84 52 85 36 86 37 87 42 88
REMARK SMILES IDX 38 89 39 90 41 91 43 92 40 93
REMARK H PARENT 6 5 80 28 85 31 10 36 60 55 34 66
REMARK Flexibility Score: inf
ROOT
ATOM      1  C   UNL A   1      31.472  30.151  25.958  1.00  0.00     0.118 C 
ENDROOT
BRANCH   1   2
ATOM      2  N   UNL A   1      31.531  29.826  24.538  1.00  0.00    -0.352 N 
ATOM      3  C   UNL A   1      32.011  28.783  23.786  1.00  0.00     0.251 C 
ATOM      4  O   UNL A   1      31.892  28.917  22.564  1.00  0.00    -0.269 OA
ATOM      5  H   UNL A   1      31.127  30.530  23.980  1.00  0.00     0.163 HD
BRANCH   3   6
ATOM      6  C   UNL A   1      32.597  27.494  24.286  1.00  0.00     0.044 A 
ATOM      7  C   UNL A   1      30.828  25.887  23.400  1.00  0.00     0.047 C 
ATOM      8  C   UNL A   1      32.089  26.190  24.131  1.00  0.00    -0.014 A 
ATOM      9  C   UNL A   1      32.769  25.113  24.753  1.00  0.00     0.049 A 
ATOM     10  C   UNL A   1      33.699  27.671  25.157  1.00  0.00     0.014 A 
ATOM     11  C   UNL A   1      33.858  25.308  25.602  1.00  0.00     0.027 A 
ATOM     12  C   UNL A   1      34.311  26.600  25.816  1.00  0.00     0.003 A 
BRANCH   9  13
ATOM     13  N   UNL A   1      32.270  23.795  24.621  1.00  0.00    -0.318 N 
ATOM     14  C   UNL A   1      31.364  23.203  25.486  1.00  0.00     0.020 A 
ATOM     15  C   UNL A   1      32.858  22.805  23.832  1.00  0.00     0.027 A 
ATOM     16  C   UNL A   1      30.749  23.901  26.649  1.00  0.00     0.065 C 
ATOM     17  C   UNL A   1      31.207  21.895  25.076  1.00  0.00     0.031 A 
ATOM     18  C   UNL A   1      32.130  21.641  24.025  1.00  0.00    -0.003 A 
ATOM     19  C   UNL A   1      34.107  23.089  23.056  1.00  0.00     0.065 C 
BRANCH  18  20
ATOM     20  C   UNL A   1      32.343  20.332  23.491  1.00  0.00     0.029 C 
ATOM     21  C   UNL A   1      32.644  19.153  24.063  1.00  0.00     0.102 C 
ATOM     22  C   UNL A   1      32.633  17.973  23.160  1.00  0.00     0.262 C 
ATOM     23  C   UNL A   1      32.907  18.813  25.461  1.00  0.00     0.226 C 
ATOM     24  O   UNL A   1      32.654  18.036  21.937  1.00  0.00    -0.269 OA
ATOM     25  N   UNL A   1      32.551  16.774  23.816  1.00  0.00    -0.297 N 
ATOM     26  N   UNL A   1      32.863  17.646  25.990  1.00  0.00    -0.184 NA
ATOM     27  C   UNL A   1      32.580  16.582  25.175  1.00  0.00     0.203 C 
ATOM     28  H   UNL A   1      32.463  15.968  23.257  1.00  0.00     0.172 HD
ATOM     29  S   UNL A   1      32.324  15.027  25.746  1.00  0.00    -0.038 S 
BRANCH  23  30
ATOM     30  O   UNL A   1      33.299  19.812  26.254  1.00  0.00    -0.493 OA
ATOM     31  H   UNL A   1      32.992  19.856  27.138  1.00  0.00     0.295 HD
ENDBRANCH  23  30
ENDBRANCH  18  20
ENDBRANCH   9  13
ENDBRANCH   3   6
ENDBRANCH   1   2
BRANCH   1  32
ATOM     32  C   UNL A   1      32.716  30.942  26.373  1.00  0.00     0.042 C 
BRANCH  32  33
ATOM     33  C   UNL A   1      33.448  30.481  27.607  1.00  0.00     0.118 C 
BRANCH  33  34
ATOM     34  N   UNL A   1      34.139  31.556  28.320  1.00  0.00    -0.352 N 
ATOM     35  C   UNL A   1      35.372  31.510  28.960  1.00  0.00     0.251 C 
ATOM     36  H   UNL A   1      33.671  32.421  28.351  1.00  0.00     0.163 HD
ATOM     37  O   UNL A   1      35.845  32.492  29.495  1.00  0.00    -0.269 OA
BRANCH  35  38
ATOM     38  C   UNL A   1      36.154  30.257  28.838  1.00  0.00     0.039 A 
ATOM     39  C   UNL A   1      36.329  29.504  30.002  1.00  0.00     0.014 A 
ATOM     40  C   UNL A   1      36.996  30.097  27.746  1.00  0.00     0.014 A 
ATOM     41  C   UNL A   1      37.524  28.815  30.179  1.00  0.00     0.010 A 
ATOM     42  C   UNL A   1      38.241  29.563  27.990  1.00  0.00     0.010 A 
ATOM     43  C   UNL A   1      38.529  28.966  29.228  1.00  0.00    -0.014 A 
BRANCH  43  44
ATOM     44  C   UNL A   1      39.927  28.593  29.427  1.00  0.00     0.031 A 
ATOM     45  C   UNL A   1      40.390  27.278  28.926  1.00  0.00     0.074 A 
ATOM     46  C   UNL A   1      40.821  29.484  29.915  1.00  0.00     0.049 A 
ATOM     47  N   UNL A   1      41.561  26.782  29.133  1.00  0.00    -0.248 NA
ATOM     48  C   UNL A   1      39.516  26.374  28.187  1.00  0.00     0.031 C 
ATOM     49  C   UNL A   1      42.276  29.425  29.794  1.00  0.00     0.029 A 
ATOM     50  N   UNL A   1      40.595  30.535  30.817  1.00  0.00    -0.354 N 
ATOM     51  C   UNL A   1      41.686  25.640  28.378  1.00  0.00     0.074 A 
ATOM     52  C   UNL A   1      40.364  25.395  27.865  1.00  0.00     0.031 C 
ATOM     53  C   UNL A   1      42.827  30.160  30.770  1.00  0.00     0.029 A 
ATOM     54  C   UNL A   1      41.750  30.582  31.643  1.00  0.00     0.049 A 
ATOM     55  H   UNL A   1      39.802  31.117  30.868  1.00  0.00     0.167 HD
ATOM     56  C   UNL A   1      42.927  25.097  28.222  1.00  0.00     0.037 A 
ATOM     57  C   UNL A   1      41.679  30.310  32.980  1.00  0.00     0.037 A 
ATOM     58  C   UNL A   1      43.868  25.691  29.177  1.00  0.00     0.049 A 
ATOM     59  C   UNL A   1      42.500  29.121  33.441  1.00  0.00     0.074 A 
ATOM     60  C   UNL A   1      44.859  26.657  29.122  1.00  0.00     0.029 A 
ATOM     61  N   UNL A   1      43.651  25.448  30.520  1.00  0.00    -0.354 N 
ATOM     62  N   UNL A   1      43.182  28.343  32.647  1.00  0.00    -0.248 NA
ATOM     63  C   UNL A   1      42.528  28.656  34.830  1.00  0.00     0.031 C 
ATOM     64  C   UNL A   1      45.201  27.014  30.462  1.00  0.00     0.029 A 
ATOM     65  C   UNL A   1      44.427  26.255  31.322  1.00  0.00     0.049 A 
ATOM     66  H   UNL A   1      43.018  24.776  30.863  1.00  0.00     0.167 HD
ATOM     67  C   UNL A   1      43.628  27.258  33.353  1.00  0.00     0.074 A 
ATOM     68  C   UNL A   1      43.222  27.511  34.722  1.00  0.00     0.031 C 
ATOM     69  C   UNL A   1      44.236  26.193  32.762  1.00  0.00     0.037 A 
BRANCH  56  70
ATOM     70  C   UNL A   1      43.357  24.121  27.144  1.00  0.00     0.057 A 
ATOM     71  C   UNL A   1      44.104  24.582  26.039  1.00  0.00     0.134 A 
ATOM     72  C   UNL A   1      43.016  22.757  27.060  1.00  0.00     0.134 A 
ATOM     73  F   UNL A   1      44.552  25.843  25.967  1.00  0.00    -0.206 F 
ATOM     74  C   UNL A   1      44.424  23.778  24.933  1.00  0.00     0.040 A 
ATOM     75  C   UNL A   1      43.326  21.943  25.962  1.00  0.00     0.040 A 
ATOM     76  F   UNL A   1      42.376  22.107  28.031  1.00  0.00    -0.206 F 
ATOM     77  C   UNL A   1      44.021  22.455  24.885  1.00  0.00     0.006 A 
ENDBRANCH  56  70
BRANCH  57  78
ATOM     78  C   UNL A   1      40.382  30.720  33.573  1.00  0.00     0.057 A 
ATOM     79  C   UNL A   1      40.188  32.074  33.896  1.00  0.00     0.134 A 
ATOM     80  C   UNL A   1      39.243  29.920  33.444  1.00  0.00     0.134 A 
ATOM     81  F   UNL A   1      41.242  32.893  34.034  1.00  0.00    -0.206 F 
ATOM     82  C   UNL A   1      38.912  32.636  33.961  1.00  0.00     0.040 A 
ATOM     83  C   UNL A   1      37.960  30.471  33.521  1.00  0.00     0.040 A 
ATOM     84  F   UNL A   1      39.353  28.626  33.111  1.00  0.00    -0.206 F 
ATOM     85  C   UNL A   1      37.794  31.839  33.735  1.00  0.00     0.006 A 
ENDBRANCH  57  78
BRANCH  69  86
ATOM     86  C   UNL A   1      44.672  24.978  33.520  1.00  0.00     0.057 A 
ATOM     87  C   UNL A   1      46.005  24.554  33.542  1.00  0.00     0.134 A 
ATOM     88  C   UNL A   1      43.738  24.123  34.137  1.00  0.00     0.134 A 
ATOM     89  F   UNL A   1      46.969  25.292  32.973  1.00  0.00    -0.206 F 
ATOM     90  C   UNL A   1      46.387  23.346  34.138  1.00  0.00     0.040 A 
ATOM     91  C   UNL A   1      44.099  22.895  34.694  1.00  0.00     0.040 A 
ATOM     92  F   UNL A   1      42.443  24.460  34.237  1.00  0.00    -0.206 F 
ATOM     93  C   UNL A   1      45.431  22.503  34.697  1.00  0.00     0.006 A 
ENDBRANCH  69  86
ENDBRANCH  43  44
ENDBRANCH  35  38
ENDBRANCH  33  34
ENDBRANCH  32  33
ENDBRANCH   1  32
TORSDOF 13
ENDMDL
MODEL 2
REMARK VINA RESULT:     -14.0      4.096      9.567
REMARK SMILES Cc1c(C(=O)NCCCNC(=O)c2ccc(-c3c4nc(c(-c5c(F)cccc5F)c5ccc([nH]5)c(-c5c(F)cccc5F)c5nc(c(-c6c(F)cccc6F)c6ccc3[nH]6)C=C5)C=C4)cc2)cccc1-n1c(C)cc(/C=C2/C(=O)NC(=S)N=C2O)c1C
REMARK SMILES IDX 7 1 6 2 4 3 5 4 3 6 1 7 2 8 70 9 67 10 69 11 68 12 71 13
REMARK SMILES IDX 72 14 86 15 73 16 74 17 75 18 87 19 76 20 77 21 78 22 84 23
REMARK SMILES IDX 79 24 80 25 83 26 81 27 82 29 85 30 8 32 9 33 10 34 11 35
REMARK SMILES IDX 12 37 13 38 14 39 66 40 15 41 65 42 16 43 17 44 18 45 59 46
REMARK SMILES IDX 19 47 64 48 58 49 60 50 20 51 63 52 57 53 56 54 21 56 47 57
REMARK SMILES IDX 30 58 46 59 31 60 34 61 45 62 61 63 32 64 33 65 44 67 62 68
REMARK SMILES IDX 35 69 22 70 23 71 28 72 24 73 25 74 27 75 29 76 26 77 48 78
REMARK SMILES IDX 49 79 54 80 50 81 51 82 53 83 55 84 52 85 36 86 37 87 42 88
REMARK SMILES IDX 38 89 39 90 41 91 43 92 40 93
REMARK H PARENT 6 5 80 28 85 31 10 36 60 55 34 66
REMARK Flexibility Score: inf
ROOT
ATOM      1  C   UNL A   1      37.137  21.519  24.583  1.00  0.00     0.118 C 
ENDROOT
BRANCH   1   2
ATOM      2  N   UNL A   1      36.197  20.462  24.937  1.00  0.00    -0.352 N 
ATOM      3  C   UNL A   1      34.832  20.327  24.964  1.00  0.00     0.251 C 
ATOM      4  O   UNL A   1      34.418  19.238  25.377  1.00  0.00    -0.269 OA
ATOM      5  H   UNL A   1      36.657  19.642  25.230  1.00  0.00     0.163 HD
BRANCH   3   6
ATOM      6  C   UNL A   1      33.809  21.321  24.494  1.00  0.00     0.044 A 
ATOM      7  C   UNL A   1      33.988  23.002  26.402  1.00  0.00     0.047 C 
ATOM      8  C   UNL A   1      33.412  22.520  25.116  1.00  0.00    -0.014 A 
ATOM      9  C   UNL A   1      32.367  23.279  24.533  1.00  0.00     0.049 A 
ATOM     10  C   UNL A   1      33.059  20.879  23.378  1.00  0.00     0.014 A 
ATOM     11  C   UNL A   1      31.643  22.830  23.429  1.00  0.00     0.027 A 
ATOM     12  C   UNL A   1      31.984  21.612  22.862  1.00  0.00     0.003 A 
BRANCH   9  13
ATOM     13  N   UNL A   1      31.941  24.481  25.149  1.00  0.00    -0.318 N 
ATOM     14  C   UNL A   1      30.881  24.583  26.033  1.00  0.00     0.020 A 
ATOM     15  C   UNL A   1      32.287  25.759  24.704  1.00  0.00     0.027 A 
ATOM     16  C   UNL A   1      30.074  23.422  26.501  1.00  0.00     0.065 C 
ATOM     17  C   UNL A   1      30.726  25.922  26.329  1.00  0.00     0.031 A 
ATOM     18  C   UNL A   1      31.619  26.667  25.510  1.00  0.00    -0.003 A 
ATOM     19  C   UNL A   1      33.155  25.938  23.497  1.00  0.00     0.065 C 
BRANCH  18  20
ATOM     20  C   UNL A   1      31.590  28.096  25.447  1.00  0.00     0.029 C 
ATOM     21  C   UNL A   1      30.951  28.958  24.638  1.00  0.00     0.102 C 
ATOM     22  C   UNL A   1      31.068  30.395  25.001  1.00  0.00     0.262 C 
ATOM     23  C   UNL A   1      30.079  28.718  23.488  1.00  0.00     0.226 C 
ATOM     24  O   UNL A   1      31.902  30.849  25.775  1.00  0.00    -0.269 OA
ATOM     25  N   UNL A   1      30.117  31.192  24.422  1.00  0.00    -0.297 N 
ATOM     26  N   UNL A   1      29.248  29.544  22.968  1.00  0.00    -0.184 NA
ATOM     27  C   UNL A   1      29.176  30.805  23.501  1.00  0.00     0.203 C 
ATOM     28  H   UNL A   1      30.107  32.138  24.694  1.00  0.00     0.172 HD
ATOM     29  S   UNL A   1      28.028  31.935  23.040  1.00  0.00    -0.038 S 
BRANCH  23  30
ATOM     30  O   UNL A   1      30.210  27.540  22.877  1.00  0.00    -0.493 OA
ATOM     31  H   UNL A   1      29.835  26.770  23.258  1.00  0.00     0.295 HD
ENDBRANCH  23  30
ENDBRANCH  18  20
ENDBRANCH   9  13
ENDBRANCH   3   6
ENDBRANCH   1   2
BRANCH   1  32
ATOM     32  C   UNL A   1      38.334  21.506  25.538  1.00  0.00     0.042 C 
BRANCH  32  33
ATOM     33  C   UNL A   1      38.696  22.805  26.211  1.00  0.00     0.118 C 
BRANCH  33  34
ATOM     34  N   UNL A   1      40.078  22.859  26.687  1.00  0.00    -0.352 N 
ATOM     35  C   UNL A   1      40.800  23.969  27.111  1.00  0.00     0.251 C 
ATOM     36  H   UNL A   1      40.558  22.000  26.710  1.00  0.00     0.163 HD
ATOM     37  O   UNL A   1      41.942  23.867  27.510  1.00  0.00    -0.269 OA
BRANCH  35  38
ATOM     38  C   UNL A   1      40.074  25.258  27.195  1.00  0.00     0.039 A 
ATOM     39  C   UNL A   1      40.543  26.302  26.392  1.00  0.00     0.014 A 
ATOM     40  C   UNL A   1      39.278  25.508  28.303  1.00  0.00     0.014 A 
ATOM     41  C   UNL A   1      40.465  27.603  26.876  1.00  0.00     0.010 A 
ATOM     42  C   UNL A   1      39.355  26.765  28.858  1.00  0.00     0.010 A 
ATOM     43  C   UNL A   1      39.996  27.808  28.170  1.00  0.00    -0.014 A 
BRANCH  43  44
ATOM     44  C   UNL A   1      40.163  29.044  28.931  1.00  0.00     0.031 A 
ATOM     45  C   UNL A   1      39.104  30.077  28.849  1.00  0.00     0.074 A 
ATOM     46  C   UNL A   1      41.178  29.184  29.814  1.00  0.00     0.049 A 
ATOM     47  N   UNL A   1      39.178  31.250  29.377  1.00  0.00    -0.248 NA
ATOM     48  C   UNL A   1      37.876  29.876  28.088  1.00  0.00     0.031 C 
ATOM     49  C   UNL A   1      41.257  30.138  30.918  1.00  0.00     0.029 A 
ATOM     50  N   UNL A   1      42.461  28.618  29.759  1.00  0.00    -0.354 N 
ATOM     51  C   UNL A   1      37.953  31.861  29.246  1.00  0.00     0.074 A 
ATOM     52  C   UNL A   1      37.204  30.992  28.377  1.00  0.00     0.031 C 
ATOM     53  C   UNL A   1      42.544  30.321  31.249  1.00  0.00     0.029 A 
ATOM     54  C   UNL A   1      43.339  29.614  30.264  1.00  0.00     0.049 A 
ATOM     55  H   UNL A   1      42.702  27.719  29.437  1.00  0.00     0.167 HD
ATOM     56  C   UNL A   1      37.711  32.992  29.968  1.00  0.00     0.037 A 
ATOM     57  C   UNL A   1      44.289  30.192  29.471  1.00  0.00     0.037 A 
ATOM     58  C   UNL A   1      38.960  33.518  30.526  1.00  0.00     0.049 A 
ATOM     59  C   UNL A   1      44.149  31.689  29.281  1.00  0.00     0.074 A 
ATOM     60  C   UNL A   1      39.580  33.493  31.764  1.00  0.00     0.029 A 
ATOM     61  N   UNL A   1      39.910  33.983  29.637  1.00  0.00    -0.354 N 
ATOM     62  N   UNL A   1      43.169  32.405  29.760  1.00  0.00    -0.248 NA
ATOM     63  C   UNL A   1      45.053  32.480  28.442  1.00  0.00     0.031 C 
ATOM     64  C   UNL A   1      40.934  33.914  31.587  1.00  0.00     0.029 A 
ATOM     65  C   UNL A   1      41.124  34.206  30.248  1.00  0.00     0.049 A 
ATOM     66  H   UNL A   1      39.739  34.137  28.679  1.00  0.00     0.167 HD
ATOM     67  C   UNL A   1      43.233  33.667  29.233  1.00  0.00     0.074 A 
ATOM     68  C   UNL A   1      44.445  33.679  28.437  1.00  0.00     0.031 C 
ATOM     69  C   UNL A   1      42.256  34.596  29.424  1.00  0.00     0.037 A 
BRANCH  56  70
ATOM     70  C   UNL A   1      36.352  33.583  30.291  1.00  0.00     0.057 A 
ATOM     71  C   UNL A   1      35.519  34.036  29.246  1.00  0.00     0.134 A 
ATOM     72  C   UNL A   1      35.825  33.827  31.574  1.00  0.00     0.134 A 
ATOM     73  F   UNL A   1      35.839  33.851  27.958  1.00  0.00    -0.206 F 
ATOM     74  C   UNL A   1      34.311  34.718  29.461  1.00  0.00     0.040 A 
ATOM     75  C   UNL A   1      34.623  34.509  31.804  1.00  0.00     0.040 A 
ATOM     76  F   UNL A   1      36.417  33.415  32.693  1.00  0.00    -0.206 F 
ATOM     77  C   UNL A   1      33.865  34.971  30.747  1.00  0.00     0.006 A 
ENDBRANCH  56  70
BRANCH  57  78
ATOM     78  C   UNL A   1      44.814  29.257  28.444  1.00  0.00     0.057 A 
ATOM     79  C   UNL A   1      45.777  28.308  28.828  1.00  0.00     0.134 A 
ATOM     80  C   UNL A   1      44.115  29.020  27.257  1.00  0.00     0.134 A 
ATOM     81  F   UNL A   1      46.482  28.480  29.957  1.00  0.00    -0.206 F 
ATOM     82  C   UNL A   1      45.946  27.112  28.129  1.00  0.00     0.040 A 
ATOM     83  C   UNL A   1      44.286  27.831  26.542  1.00  0.00     0.040 A 
ATOM     84  F   UNL A   1      43.163  29.870  26.845  1.00  0.00    -0.206 F 
ATOM     85  C   UNL A   1      45.170  26.855  27.002  1.00  0.00     0.006 A 
ENDBRANCH  57  78
BRANCH  69  86
ATOM     86  C   UNL A   1      42.291  35.957  28.801  1.00  0.00     0.057 A 
ATOM     87  C   UNL A   1      41.750  36.209  27.535  1.00  0.00     0.134 A 
ATOM     88  C   UNL A   1      42.991  37.021  29.400  1.00  0.00     0.134 A 
ATOM     89  F   UNL A   1      41.074  35.256  26.876  1.00  0.00    -0.206 F 
ATOM     90  C   UNL A   1      41.903  37.446  26.899  1.00  0.00     0.040 A 
ATOM     91  C   UNL A   1      43.189  38.244  28.758  1.00  0.00     0.040 A 
ATOM     92  F   UNL A   1      43.491  36.917  30.641  1.00  0.00    -0.206 F 
ATOM     93  C   UNL A   1      42.643  38.461  27.500  1.00  0.00     0.006 A 
ENDBRANCH  69  86
ENDBRANCH  43  44
ENDBRANCH  35  38
ENDBRANCH  33  34
ENDBRANCH  32  33
ENDBRANCH   1  32
TORSDOF 13
ENDMDL
MODEL 3
REMARK VINA RESULT:     -13.9      2.201      2.857
REMARK SMILES Cc1c(C(=O)NCCCNC(=O)c2ccc(-c3c4nc(c(-c5c(F)cccc5F)c5ccc([nH]5)c(-c5c(F)cccc5F)c5nc(c(-c6c(F)cccc6F)c6ccc3[nH]6)C=C5)C=C4)cc2)cccc1-n1c(C)cc(/C=C2/C(=O)NC(=S)N=C2O)c1C
REMARK SMILES IDX 7 1 6 2 4 3 5 4 3 6 1 7 2 8 70 9 67 10 69 11 68 12 71 13
REMARK SMILES IDX 72 14 86 15 73 16 74 17 75 18 87 19 76 20 77 21 78 22 84 23
REMARK SMILES IDX 79 24 80 25 83 26 81 27 82 29 85 30 8 32 9 33 10 34 11 35
REMARK SMILES IDX 12 37 13 38 14 39 66 40 15 41 65 42 16 43 17 44 18 45 59 46
REMARK SMILES IDX 19 47 64 48 58 49 60 50 20 51 63 52 57 53 56 54 21 56 47 57
REMARK SMILES IDX 30 58 46 59 31 60 34 61 45 62 61 63 32 64 33 65 44 67 62 68
REMARK SMILES IDX 35 69 22 70 23 71 28 72 24 73 25 74 27 75 29 76 26 77 48 78
REMARK SMILES IDX 49 79 54 80 50 81 51 82 53 83 55 84 52 85 36 86 37 87 42 88
REMARK SMILES IDX 38 89 39 90 41 91 43 92 40 93
REMARK H PARENT 6 5 80 28 85 31 10 36 60 55 34 66
REMARK Flexibility Score: inf
ROOT
ATOM      1  C   UNL A   1      31.892  28.798  26.531  1.00  0.00     0.118 C 
ENDROOT
BRANCH   1   2
ATOM      2  N   UNL A   1      32.094  28.921  25.093  1.00  0.00    -0.352 N 
ATOM      3  C   UNL A   1      32.154  28.055  24.030  1.00  0.00     0.251 C 
ATOM      4  O   UNL A   1      32.387  28.580  22.936  1.00  0.00    -0.269 OA
ATOM      5  H   UNL A   1      32.219  29.858  24.816  1.00  0.00     0.163 HD
BRANCH   3   6
ATOM      6  C   UNL A   1      31.909  26.574  24.047  1.00  0.00     0.044 A 
ATOM      7  C   UNL A   1      34.025  25.839  25.263  1.00  0.00     0.047 C 
ATOM      8  C   UNL A   1      32.727  25.563  24.587  1.00  0.00    -0.014 A 
ATOM      9  C   UNL A   1      32.337  24.211  24.427  1.00  0.00     0.049 A 
ATOM     10  C   UNL A   1      30.796  26.174  23.268  1.00  0.00     0.014 A 
ATOM     11  C   UNL A   1      31.233  23.836  23.661  1.00  0.00     0.027 A 
ATOM     12  C   UNL A   1      30.471  24.828  23.066  1.00  0.00     0.003 A 
BRANCH   9  13
ATOM     13  N   UNL A   1      33.150  23.176  24.950  1.00  0.00    -0.318 N 
ATOM     14  C   UNL A   1      33.099  22.714  26.255  1.00  0.00     0.020 A 
ATOM     15  C   UNL A   1      34.327  22.721  24.353  1.00  0.00     0.027 A 
ATOM     16  C   UNL A   1      32.136  23.212  27.275  1.00  0.00     0.065 C 
ATOM     17  C   UNL A   1      34.106  21.781  26.395  1.00  0.00     0.031 A 
ATOM     18  C   UNL A   1      34.873  21.767  25.197  1.00  0.00    -0.003 A 
ATOM     19  C   UNL A   1      34.822  23.333  23.079  1.00  0.00     0.065 C 
BRANCH  18  20
ATOM     20  C   UNL A   1      36.093  21.031  25.077  1.00  0.00     0.029 C 
ATOM     21  C   UNL A   1      37.373  21.342  25.347  1.00  0.00     0.102 C 
ATOM     22  C   UNL A   1      38.349  20.227  25.224  1.00  0.00     0.262 C 
ATOM     23  C   UNL A   1      37.970  22.588  25.825  1.00  0.00     0.226 C 
ATOM     24  O   UNL A   1      38.128  19.172  24.642  1.00  0.00    -0.269 OA
ATOM     25  N   UNL A   1      39.536  20.457  25.866  1.00  0.00    -0.297 N 
ATOM     26  N   UNL A   1      39.122  22.728  26.371  1.00  0.00    -0.184 NA
ATOM     27  C   UNL A   1      39.914  21.617  26.495  1.00  0.00     0.203 C 
ATOM     28  H   UNL A   1      40.184  19.716  25.877  1.00  0.00     0.172 HD
ATOM     29  S   UNL A   1      41.366  21.610  27.332  1.00  0.00    -0.038 S 
BRANCH  23  30
ATOM     30  O   UNL A   1      37.271  23.704  25.612  1.00  0.00    -0.493 OA
ATOM     31  H   UNL A   1      36.444  23.663  25.174  1.00  0.00     0.295 HD
ENDBRANCH  23  30
ENDBRANCH  18  20
ENDBRANCH   9  13
ENDBRANCH   3   6
ENDBRANCH   1   2
BRANCH   1  32
ATOM     32  C   UNL A   1      32.436  30.036  27.251  1.00  0.00     0.042 C 
BRANCH  32  33
ATOM     33  C   UNL A   1      33.859  30.436  26.957  1.00  0.00     0.118 C 
BRANCH  33  34
ATOM     34  N   UNL A   1      34.385  31.457  27.863  1.00  0.00    -0.352 N 
ATOM     35  C   UNL A   1      35.499  31.380  28.691  1.00  0.00     0.251 C 
ATOM     36  H   UNL A   1      33.887  32.305  27.890  1.00  0.00     0.163 HD
ATOM     37  O   UNL A   1      35.843  32.320  29.379  1.00  0.00    -0.269 OA
BRANCH  35  38
ATOM     38  C   UNL A   1      36.335  30.161  28.594  1.00  0.00     0.039 A 
ATOM     39  C   UNL A   1      36.462  29.386  29.750  1.00  0.00     0.014 A 
ATOM     40  C   UNL A   1      37.252  30.059  27.558  1.00  0.00     0.014 A 
ATOM     41  C   UNL A   1      37.669  28.738  29.991  1.00  0.00     0.010 A 
ATOM     42  C   UNL A   1      38.498  29.566  27.872  1.00  0.00     0.010 A 
ATOM     43  C   UNL A   1      38.727  28.950  29.112  1.00  0.00    -0.014 A 
BRANCH  43  44
ATOM     44  C   UNL A   1      40.123  28.624  29.396  1.00  0.00     0.031 A 
ATOM     45  C   UNL A   1      40.682  27.364  28.855  1.00  0.00     0.074 A 
ATOM     46  C   UNL A   1      40.936  29.520  30.002  1.00  0.00     0.049 A 
ATOM     47  N   UNL A   1      41.857  26.906  29.121  1.00  0.00    -0.248 NA
ATOM     48  C   UNL A   1      39.909  26.472  27.999  1.00  0.00     0.031 C 
ATOM     49  C   UNL A   1      42.397  29.530  29.990  1.00  0.00     0.029 A 
ATOM     50  N   UNL A   1      40.595  30.502  30.945  1.00  0.00    -0.354 N 
ATOM     51  C   UNL A   1      42.091  25.819  28.312  1.00  0.00     0.074 A 
ATOM     52  C   UNL A   1      40.823  25.551  27.686  1.00  0.00     0.031 C 
ATOM     53  C   UNL A   1      42.840  30.225  31.047  1.00  0.00     0.029 A 
ATOM     54  C   UNL A   1      41.682  30.546  31.858  1.00  0.00     0.049 A 
ATOM     55  H   UNL A   1      39.774  31.046  30.969  1.00  0.00     0.167 HD
ATOM     56  C   UNL A   1      43.364  25.340  28.219  1.00  0.00     0.037 A 
ATOM     57  C   UNL A   1      41.526  30.188  33.167  1.00  0.00     0.037 A 
ATOM     58  C   UNL A   1      44.203  25.912  29.277  1.00  0.00     0.049 A 
ATOM     59  C   UNL A   1      42.365  29.009  33.619  1.00  0.00     0.074 A 
ATOM     60  C   UNL A   1      45.149  26.920  29.355  1.00  0.00     0.029 A 
ATOM     61  N   UNL A   1      43.899  25.576  30.583  1.00  0.00    -0.354 N 
ATOM     62  N   UNL A   1      43.139  28.311  32.835  1.00  0.00    -0.248 NA
ATOM     63  C   UNL A   1      42.312  28.459  34.976  1.00  0.00     0.031 C 
ATOM     64  C   UNL A   1      45.374  27.208  30.737  1.00  0.00     0.029 A 
ATOM     65  C   UNL A   1      44.574  26.364  31.488  1.00  0.00     0.049 A 
ATOM     66  H   UNL A   1      43.274  24.858  30.836  1.00  0.00     0.167 HD
ATOM     67  C   UNL A   1      43.582  27.204  33.508  1.00  0.00     0.074 A 
ATOM     68  C   UNL A   1      43.064  27.353  34.855  1.00  0.00     0.031 C 
ATOM     69  C   UNL A   1      44.281  26.204  32.903  1.00  0.00     0.037 A 
BRANCH  56  70
ATOM     70  C   UNL A   1      43.917  24.452  27.122  1.00  0.00     0.057 A 
ATOM     71  C   UNL A   1      44.708  23.333  27.458  1.00  0.00     0.134 A 
ATOM     72  C   UNL A   1      43.804  24.662  25.733  1.00  0.00     0.134 A 
ATOM     73  F   UNL A   1      44.892  22.955  28.731  1.00  0.00    -0.206 F 
ATOM     74  C   UNL A   1      45.370  22.541  26.506  1.00  0.00     0.040 A 
ATOM     75  C   UNL A   1      44.461  23.882  24.773  1.00  0.00     0.040 A 
ATOM     76  F   UNL A   1      43.046  25.619  25.203  1.00  0.00    -0.206 F 
ATOM     77  C   UNL A   1      45.261  22.824  25.156  1.00  0.00     0.006 A 
ENDBRANCH  56  70
BRANCH  57  78
ATOM     78  C   UNL A   1      40.170  30.505  33.683  1.00  0.00     0.057 A 
ATOM     79  C   UNL A   1      39.911  31.811  34.133  1.00  0.00     0.134 A 
ATOM     80  C   UNL A   1      39.070  29.704  33.365  1.00  0.00     0.134 A 
ATOM     81  F   UNL A   1      40.925  32.629  34.454  1.00  0.00    -0.206 F 
ATOM     82  C   UNL A   1      38.618  32.339  34.143  1.00  0.00     0.040 A 
ATOM     83  C   UNL A   1      37.770  30.219  33.386  1.00  0.00     0.040 A 
ATOM     84  F   UNL A   1      39.246  28.457  32.904  1.00  0.00    -0.206 F 
ATOM     85  C   UNL A   1      37.547  31.551  33.732  1.00  0.00     0.006 A 
ENDBRANCH  57  78
BRANCH  69  86
ATOM     86  C   UNL A   1      44.716  24.963  33.619  1.00  0.00     0.057 A 
ATOM     87  C   UNL A   1      46.065  24.625  33.768  1.00  0.00     0.134 A 
ATOM     88  C   UNL A   1      43.783  24.005  34.060  1.00  0.00     0.134 A 
ATOM     89  F   UNL A   1      47.031  25.466  33.369  1.00  0.00    -0.206 F 
ATOM     90  C   UNL A   1      46.464  23.401  34.318  1.00  0.00     0.040 A 
ATOM     91  C   UNL A   1      44.167  22.763  34.568  1.00  0.00     0.040 A 
ATOM     92  F   UNL A   1      42.464  24.249  34.031  1.00  0.00    -0.206 F 
ATOM     93  C   UNL A   1      45.515  22.457  34.699  1.00  0.00     0.006 A 
ENDBRANCH  69  86
ENDBRANCH  43  44
ENDBRANCH  35  38
ENDBRANCH  33  34
ENDBRANCH  32  33
ENDBRANCH   1  32
TORSDOF 13
ENDMDL
