MODEL 1
REMARK VINA RESULT:     -10.4      0.000      0.000
REMARK SMILES C[C@@H](CC(=O)NCCCNC(=O)c1ccc(-c2c3nc(c(-c4c(F)cccc4F)c4ccc([nH]4)c(-c4c(F)cccc4F)c4nc(c(-c5c(F)cccc5F)c5ccc2[nH]5)C=C4)C=C3)cc1)CC(=O)N(C)C[C@H]1CCC[N@H+]1C
REMARK SMILES IDX 4 1 5 2 6 3 3 5 2 6 1 7 67 8 68 9 69 10 70 11 71 12 72 13
REMARK SMILES IDX 73 14 74 15 77 16 75 17 76 18 78 19 7 21 8 22 9 23 10 24
REMARK SMILES IDX 11 25 12 27 13 28 14 29 66 30 15 31 65 32 16 33 17 34 18 35
REMARK SMILES IDX 59 36 19 37 64 38 58 39 60 40 20 41 63 42 57 43 56 44 21 46
REMARK SMILES IDX 47 47 30 48 46 49 31 50 34 51 45 52 61 53 32 54 33 55 44 57
REMARK SMILES IDX 62 58 35 59 22 60 23 61 28 62 24 63 25 64 27 65 29 66 26 67
REMARK SMILES IDX 48 68 49 69 54 70 50 71 51 72 53 73 55 74 52 75 36 76 37 77
REMARK SMILES IDX 42 78 38 79 39 80 41 81 43 82 40 83
REMARK H PARENT 6 4 77 20 10 26 60 45 34 56
REMARK Flexibility Score: inf
ROOT
ATOM      1  C   UNL A   1      33.979  19.884  24.819  1.00  0.00     0.220 C 
ATOM      2  O   UNL A   1      33.147  18.992  24.999  1.00  0.00    -0.275 OA
ATOM      3  N   UNL A   1      35.290  19.559  24.972  1.00  0.00    -0.356 N 
ATOM      4  H   UNL A   1      35.455  18.607  25.157  1.00  0.00     0.163 HD
ENDROOT
BRANCH   1   5
ATOM      5  C   UNL A   1      33.541  21.290  24.449  1.00  0.00     0.103 C 
BRANCH   5   6
ATOM      6  C   UNL A   1      32.905  22.146  25.568  1.00  0.00     0.004 C 
ATOM      7  C   UNL A   1      33.517  21.832  26.934  1.00  0.00     0.009 C 
BRANCH   6   8
ATOM      8  C   UNL A   1      31.364  22.130  25.546  1.00  0.00     0.104 C 
BRANCH   8   9
ATOM      9  C   UNL A   1      30.732  23.422  26.046  1.00  0.00     0.222 C 
ATOM     10  O   UNL A   1      30.234  23.446  27.174  1.00  0.00    -0.275 OA
BRANCH   9  11
ATOM     11  N   UNL A   1      30.673  24.526  25.200  1.00  0.00    -0.340 N 
ATOM     12  C   UNL A   1      30.585  24.495  23.749  1.00  0.00     0.147 C 
BRANCH  11  13
ATOM     13  C   UNL A   1      30.862  25.853  25.804  1.00  0.00     0.184 C 
BRANCH  13  14
ATOM     14  C   UNL A   1      32.288  26.105  26.382  1.00  0.00     0.203 C 
ATOM     15  C   UNL A   1      33.357  25.764  25.340  1.00  0.00     0.073 C 
ATOM     16  N   UNL A   1      32.666  27.503  26.671  1.00  0.00    -0.333 N 
ATOM     17  C   UNL A   1      33.561  27.049  24.546  1.00  0.00     0.068 C 
ATOM     18  C   UNL A   1      32.930  28.151  25.390  1.00  0.00     0.262 C 
ATOM     19  C   UNL A   1      31.764  28.241  27.529  1.00  0.00     0.333 C 
ATOM     20  H   UNL A   1      33.506  27.494  27.248  1.00  0.00     0.348 HD
ENDBRANCH  13  14
ENDBRANCH  11  13
ENDBRANCH   9  11
ENDBRANCH   8   9
ENDBRANCH   6   8
ENDBRANCH   5   6
ENDBRANCH   1   5
BRANCH   3  21
ATOM     21  C   UNL A   1      36.487  20.378  24.909  1.00  0.00     0.117 C 
BRANCH  21  22
ATOM     22  C   UNL A   1      37.752  19.525  24.945  1.00  0.00     0.042 C 
BRANCH  22  23
ATOM     23  C   UNL A   1      38.968  20.195  25.579  1.00  0.00     0.118 C 
BRANCH  23  24
ATOM     24  N   UNL A   1      40.081  19.279  25.746  1.00  0.00    -0.352 N 
ATOM     25  C   UNL A   1      41.389  19.519  26.091  1.00  0.00     0.251 C 
ATOM     26  H   UNL A   1      39.863  18.333  25.585  1.00  0.00     0.163 HD
ATOM     27  O   UNL A   1      42.207  18.611  25.978  1.00  0.00    -0.269 OA
BRANCH  25  28
ATOM     28  C   UNL A   1      41.843  20.846  26.583  1.00  0.00     0.039 A 
ATOM     29  C   UNL A   1      41.510  21.216  27.892  1.00  0.00     0.014 A 
ATOM     30  C   UNL A   1      42.508  21.763  25.764  1.00  0.00     0.014 A 
ATOM     31  C   UNL A   1      41.870  22.476  28.386  1.00  0.00     0.010 A 
ATOM     32  C   UNL A   1      42.926  22.995  26.277  1.00  0.00     0.010 A 
ATOM     33  C   UNL A   1      42.598  23.371  27.589  1.00  0.00    -0.014 A 
BRANCH  33  34
ATOM     34  C   UNL A   1      42.988  24.714  28.104  1.00  0.00     0.031 A 
ATOM     35  C   UNL A   1      41.938  25.763  28.364  1.00  0.00     0.074 A 
ATOM     36  C   UNL A   1      44.288  25.007  28.312  1.00  0.00     0.049 A 
ATOM     37  N   UNL A   1      42.087  27.007  28.745  1.00  0.00    -0.248 NA
ATOM     38  C   UNL A   1      40.538  25.365  28.153  1.00  0.00     0.031 C 
ATOM     39  C   UNL A   1      45.410  24.096  28.086  1.00  0.00     0.029 A 
ATOM     40  N   UNL A   1      44.883  26.163  28.758  1.00  0.00    -0.354 N 
ATOM     41  C   UNL A   1      40.806  27.542  28.807  1.00  0.00     0.074 A 
ATOM     42  C   UNL A   1      39.895  26.501  28.384  1.00  0.00     0.031 C 
ATOM     43  C   UNL A   1      46.555  24.720  28.410  1.00  0.00     0.029 A 
ATOM     44  C   UNL A   1      46.253  26.084  28.833  1.00  0.00     0.049 A 
ATOM     45  H   UNL A   1      44.376  26.970  29.000  1.00  0.00     0.167 HD
ATOM     46  C   UNL A   1      40.419  28.780  29.200  1.00  0.00     0.037 A 
ATOM     47  C   UNL A   1      47.164  27.008  29.194  1.00  0.00     0.037 A 
ATOM     48  C   UNL A   1      41.315  29.812  29.652  1.00  0.00     0.049 A 
ATOM     49  C   UNL A   1      46.707  28.378  29.616  1.00  0.00     0.074 A 
ATOM     50  C   UNL A   1      41.007  31.086  30.097  1.00  0.00     0.029 A 
ATOM     51  N   UNL A   1      42.692  29.684  29.729  1.00  0.00    -0.354 N 
ATOM     52  N   UNL A   1      45.489  28.855  29.697  1.00  0.00    -0.248 NA
ATOM     53  C   UNL A   1      47.754  29.337  30.002  1.00  0.00     0.031 C 
ATOM     54  C   UNL A   1      42.202  31.740  30.418  1.00  0.00     0.029 A 
ATOM     55  C   UNL A   1      43.249  30.859  30.206  1.00  0.00     0.049 A 
ATOM     56  H   UNL A   1      43.200  28.878  29.480  1.00  0.00     0.167 HD
ATOM     57  C   UNL A   1      45.621  30.154  30.172  1.00  0.00     0.074 A 
ATOM     58  C   UNL A   1      47.035  30.388  30.370  1.00  0.00     0.031 C 
ATOM     59  C   UNL A   1      44.656  31.072  30.419  1.00  0.00     0.037 A 
BRANCH  46  60
ATOM     60  C   UNL A   1      38.952  29.088  29.174  1.00  0.00     0.057 A 
ATOM     61  C   UNL A   1      38.148  28.923  30.309  1.00  0.00     0.134 A 
ATOM     62  C   UNL A   1      38.347  29.609  28.024  1.00  0.00     0.134 A 
ATOM     63  F   UNL A   1      38.665  28.418  31.440  1.00  0.00    -0.206 F 
ATOM     64  C   UNL A   1      36.792  29.251  30.297  1.00  0.00     0.040 A 
ATOM     65  C   UNL A   1      36.997  29.962  28.005  1.00  0.00     0.040 A 
ATOM     66  F   UNL A   1      39.063  29.800  26.905  1.00  0.00    -0.206 F 
ATOM     67  C   UNL A   1      36.215  29.780  29.145  1.00  0.00     0.006 A 
ENDBRANCH  46  60
BRANCH  47  68
ATOM     68  C   UNL A   1      48.610  26.674  29.188  1.00  0.00     0.057 A 
ATOM     69  C   UNL A   1      49.391  26.875  28.043  1.00  0.00     0.134 A 
ATOM     70  C   UNL A   1      49.236  26.115  30.307  1.00  0.00     0.134 A 
ATOM     71  F   UNL A   1      48.840  27.387  26.932  1.00  0.00    -0.206 F 
ATOM     72  C   UNL A   1      50.737  26.508  28.003  1.00  0.00     0.040 A 
ATOM     73  C   UNL A   1      50.588  25.764  30.288  1.00  0.00     0.040 A 
ATOM     74  F   UNL A   1      48.544  25.905  31.437  1.00  0.00    -0.206 F 
ATOM     75  C   UNL A   1      51.339  25.953  29.130  1.00  0.00     0.006 A 
ENDBRANCH  47  68
BRANCH  59  76
ATOM     76  C   UNL A   1      45.090  32.395  30.974  1.00  0.00     0.057 A 
ATOM     77  C   UNL A   1      45.337  33.496  30.146  1.00  0.00     0.134 A 
ATOM     78  C   UNL A   1      45.227  32.578  32.356  1.00  0.00     0.134 A 
ATOM     79  F   UNL A   1      45.236  33.381  28.812  1.00  0.00    -0.206 F 
ATOM     80  C   UNL A   1      45.724  34.731  30.672  1.00  0.00     0.040 A 
ATOM     81  C   UNL A   1      45.592  33.812  32.895  1.00  0.00     0.040 A 
ATOM     82  F   UNL A   1      44.998  31.563  33.203  1.00  0.00    -0.206 F 
ATOM     83  C   UNL A   1      45.846  34.892  32.051  1.00  0.00     0.006 A 
ENDBRANCH  59  76
ENDBRANCH  33  34
ENDBRANCH  25  28
ENDBRANCH  23  24
ENDBRANCH  22  23
ENDBRANCH  21  22
ENDBRANCH   3  21
TORSDOF 16
ENDMDL
MODEL 2
REMARK VINA RESULT:     -10.4      1.150      2.006
REMARK SMILES C[C@@H](CC(=O)NCCCNC(=O)c1ccc(-c2c3nc(c(-c4c(F)cccc4F)c4ccc([nH]4)c(-c4c(F)cccc4F)c4nc(c(-c5c(F)cccc5F)c5ccc2[nH]5)C=C4)C=C3)cc1)CC(=O)N(C)C[C@H]1CCC[N@H+]1C
REMARK SMILES IDX 4 1 5 2 6 3 3 5 2 6 1 7 67 8 68 9 69 10 70 11 71 12 72 13
REMARK SMILES IDX 73 14 74 15 77 16 75 17 76 18 78 19 7 21 8 22 9 23 10 24
REMARK SMILES IDX 11 25 12 27 13 28 14 29 66 30 15 31 65 32 16 33 17 34 18 35
REMARK SMILES IDX 59 36 19 37 64 38 58 39 60 40 20 41 63 42 57 43 56 44 21 46
REMARK SMILES IDX 47 47 30 48 46 49 31 50 34 51 45 52 61 53 32 54 33 55 44 57
REMARK SMILES IDX 62 58 35 59 22 60 23 61 28 62 24 63 25 64 27 65 29 66 26 67
REMARK SMILES IDX 48 68 49 69 54 70 50 71 51 72 53 73 55 74 52 75 36 76 37 77
REMARK SMILES IDX 42 78 38 79 39 80 41 81 43 82 40 83
REMARK H PARENT 6 4 77 20 10 26 60 45 34 56
REMARK Flexibility Score: inf
ROOT
ATOM      1  C   UNL A   1      33.477  20.126  25.117  1.00  0.00     0.220 C 
ATOM      2  O   UNL A   1      32.638  19.230  25.235  1.00  0.00    -0.275 OA
ATOM      3  N   UNL A   1      34.782  19.757  25.033  1.00  0.00    -0.356 N 
ATOM      4  H   UNL A   1      34.930  18.785  25.014  1.00  0.00     0.163 HD
ENDROOT
BRANCH   1   5
ATOM      5  C   UNL A   1      33.054  21.584  25.076  1.00  0.00     0.103 C 
BRANCH   5   6
ATOM      6  C   UNL A   1      32.803  22.206  23.683  1.00  0.00     0.004 C 
ATOM      7  C   UNL A   1      32.141  21.206  22.732  1.00  0.00     0.009 C 
BRANCH   6   8
ATOM      8  C   UNL A   1      34.042  22.911  23.097  1.00  0.00     0.104 C 
BRANCH   8   9
ATOM      9  C   UNL A   1      34.241  24.328  23.619  1.00  0.00     0.222 C 
ATOM     10  O   UNL A   1      35.030  24.518  24.548  1.00  0.00    -0.275 OA
BRANCH   9  11
ATOM     11  N   UNL A   1      33.487  25.368  23.080  1.00  0.00    -0.340 N 
ATOM     12  C   UNL A   1      33.052  25.488  21.699  1.00  0.00     0.147 C 
BRANCH  11  13
ATOM     13  C   UNL A   1      33.223  26.529  23.941  1.00  0.00     0.184 C 
BRANCH  13  14
ATOM     14  C   UNL A   1      31.726  26.963  24.004  1.00  0.00     0.203 C 
ATOM     15  C   UNL A   1      30.858  25.818  24.532  1.00  0.00     0.073 C 
ATOM     16  N   UNL A   1      31.365  28.013  24.976  1.00  0.00    -0.333 N 
ATOM     17  C   UNL A   1      30.865  25.983  26.048  1.00  0.00     0.068 C 
ATOM     18  C   UNL A   1      31.375  27.398  26.298  1.00  0.00     0.262 C 
ATOM     19  C   UNL A   1      32.121  29.245  24.894  1.00  0.00     0.333 C 
ATOM     20  H   UNL A   1      30.431  28.353  24.747  1.00  0.00     0.348 HD
ENDBRANCH  13  14
ENDBRANCH  11  13
ENDBRANCH   9  11
ENDBRANCH   8   9
ENDBRANCH   6   8
ENDBRANCH   5   6
ENDBRANCH   1   5
BRANCH   3  21
ATOM     21  C   UNL A   1      35.995  20.554  24.967  1.00  0.00     0.117 C 
BRANCH  21  22
ATOM     22  C   UNL A   1      37.242  19.674  24.932  1.00  0.00     0.042 C 
BRANCH  22  23
ATOM     23  C   UNL A   1      38.518  20.339  25.439  1.00  0.00     0.118 C 
BRANCH  23  24
ATOM     24  N   UNL A   1      39.596  19.388  25.638  1.00  0.00    -0.352 N 
ATOM     25  C   UNL A   1      40.898  19.586  26.030  1.00  0.00     0.251 C 
ATOM     26  H   UNL A   1      39.356  18.450  25.462  1.00  0.00     0.163 HD
ATOM     27  O   UNL A   1      41.692  18.654  25.939  1.00  0.00    -0.269 OA
BRANCH  25  28
ATOM     28  C   UNL A   1      41.375  20.895  26.547  1.00  0.00     0.039 A 
ATOM     29  C   UNL A   1      41.225  21.161  27.915  1.00  0.00     0.014 A 
ATOM     30  C   UNL A   1      41.881  21.894  25.711  1.00  0.00     0.014 A 
ATOM     31  C   UNL A   1      41.611  22.399  28.443  1.00  0.00     0.010 A 
ATOM     32  C   UNL A   1      42.327  23.106  26.248  1.00  0.00     0.010 A 
ATOM     33  C   UNL A   1      42.184  23.377  27.617  1.00  0.00    -0.014 A 
BRANCH  33  34
ATOM     34  C   UNL A   1      42.600  24.697  28.167  1.00  0.00     0.031 A 
ATOM     35  C   UNL A   1      41.583  25.790  28.374  1.00  0.00     0.074 A 
ATOM     36  C   UNL A   1      43.896  24.932  28.456  1.00  0.00     0.049 A 
ATOM     37  N   UNL A   1      41.762  27.024  28.775  1.00  0.00    -0.248 NA
ATOM     38  C   UNL A   1      40.182  25.456  28.075  1.00  0.00     0.031 C 
ATOM     39  C   UNL A   1      44.989  23.974  28.289  1.00  0.00     0.029 A 
ATOM     40  N   UNL A   1      44.513  26.057  28.948  1.00  0.00    -0.354 N 
ATOM     41  C   UNL A   1      40.504  27.614  28.766  1.00  0.00     0.074 A 
ATOM     42  C   UNL A   1      39.576  26.617  28.278  1.00  0.00     0.031 C 
ATOM     43  C   UNL A   1      46.139  24.545  28.687  1.00  0.00     0.029 A 
ATOM     44  C   UNL A   1      45.871  25.918  29.105  1.00  0.00     0.049 A 
ATOM     45  H   UNL A   1      44.028  26.885  29.167  1.00  0.00     0.167 HD
ATOM     46  C   UNL A   1      40.148  28.864  29.147  1.00  0.00     0.037 A 
ATOM     47  C   UNL A   1      46.798  26.799  29.529  1.00  0.00     0.037 A 
ATOM     48  C   UNL A   1      41.060  29.853  29.662  1.00  0.00     0.049 A 
ATOM     49  C   UNL A   1      46.377  28.184  29.936  1.00  0.00     0.074 A 
ATOM     50  C   UNL A   1      40.781  31.136  30.099  1.00  0.00     0.029 A 
ATOM     51  N   UNL A   1      42.422  29.664  29.820  1.00  0.00    -0.354 N 
ATOM     52  N   UNL A   1      45.178  28.713  29.948  1.00  0.00    -0.248 NA
ATOM     53  C   UNL A   1      47.438  29.094  30.393  1.00  0.00     0.031 C 
ATOM     54  C   UNL A   1      41.981  31.735  30.498  1.00  0.00     0.029 A 
ATOM     55  C   UNL A   1      43.000  30.810  30.341  1.00  0.00     0.049 A 
ATOM     56  H   UNL A   1      42.909  28.838  29.594  1.00  0.00     0.167 HD
ATOM     57  C   UNL A   1      45.336  30.002  30.443  1.00  0.00     0.074 A 
ATOM     58  C   UNL A   1      46.745  30.172  30.728  1.00  0.00     0.031 C 
ATOM     59  C   UNL A   1      44.400  30.960  30.641  1.00  0.00     0.037 A 
BRANCH  46  60
ATOM     60  C   UNL A   1      38.700  29.237  29.036  1.00  0.00     0.057 A 
ATOM     61  C   UNL A   1      38.134  29.628  27.816  1.00  0.00     0.134 A 
ATOM     62  C   UNL A   1      37.849  29.148  30.145  1.00  0.00     0.134 A 
ATOM     63  F   UNL A   1      38.899  29.743  26.719  1.00  0.00    -0.206 F 
ATOM     64  C   UNL A   1      36.777  29.932  27.705  1.00  0.00     0.040 A 
ATOM     65  C   UNL A   1      36.485  29.427  30.042  1.00  0.00     0.040 A 
ATOM     66  F   UNL A   1      38.326  28.771  31.341  1.00  0.00    -0.206 F 
ATOM     67  C   UNL A   1      35.947  29.825  28.819  1.00  0.00     0.006 A 
ENDBRANCH  46  60
BRANCH  47  68
ATOM     68  C   UNL A   1      48.226  26.401  29.606  1.00  0.00     0.057 A 
ATOM     69  C   UNL A   1      48.744  25.795  30.757  1.00  0.00     0.134 A 
ATOM     70  C   UNL A   1      49.112  26.649  28.552  1.00  0.00     0.134 A 
ATOM     71  F   UNL A   1      47.946  25.552  31.809  1.00  0.00    -0.206 F 
ATOM     72  C   UNL A   1      50.097  25.473  30.868  1.00  0.00     0.040 A 
ATOM     73  C   UNL A   1      50.464  26.311  28.641  1.00  0.00     0.040 A 
ATOM     74  F   UNL A   1      48.676  27.221  27.420  1.00  0.00    -0.206 F 
ATOM     75  C   UNL A   1      50.961  25.729  29.805  1.00  0.00     0.006 A 
ENDBRANCH  47  68
BRANCH  59  76
ATOM     76  C   UNL A   1      44.856  32.258  31.233  1.00  0.00     0.057 A 
ATOM     77  C   UNL A   1      45.333  33.306  30.436  1.00  0.00     0.134 A 
ATOM     78  C   UNL A   1      44.783  32.476  32.614  1.00  0.00     0.134 A 
ATOM     79  F   UNL A   1      45.440  33.154  29.106  1.00  0.00    -0.206 F 
ATOM     80  C   UNL A   1      45.740  34.519  30.994  1.00  0.00     0.040 A 
ATOM     81  C   UNL A   1      45.166  33.691  33.182  1.00  0.00     0.040 A 
ATOM     82  F   UNL A   1      44.328  31.514  33.432  1.00  0.00    -0.206 F 
ATOM     83  C   UNL A   1      45.651  34.716  32.371  1.00  0.00     0.006 A 
ENDBRANCH  59  76
ENDBRANCH  33  34
ENDBRANCH  25  28
ENDBRANCH  23  24
ENDBRANCH  22  23
ENDBRANCH  21  22
ENDBRANCH   3  21
TORSDOF 16
ENDMDL
MODEL 3
REMARK VINA RESULT:     -10.4      1.179      1.912
REMARK SMILES C[C@@H](CC(=O)NCCCNC(=O)c1ccc(-c2c3nc(c(-c4c(F)cccc4F)c4ccc([nH]4)c(-c4c(F)cccc4F)c4nc(c(-c5c(F)cccc5F)c5ccc2[nH]5)C=C4)C=C3)cc1)CC(=O)N(C)C[C@H]1CCC[N@H+]1C
REMARK SMILES IDX 4 1 5 2 6 3 3 5 2 6 1 7 67 8 68 9 69 10 70 11 71 12 72 13
REMARK SMILES IDX 73 14 74 15 77 16 75 17 76 18 78 19 7 21 8 22 9 23 10 24
REMARK SMILES IDX 11 25 12 27 13 28 14 29 66 30 15 31 65 32 16 33 17 34 18 35
REMARK SMILES IDX 59 36 19 37 64 38 58 39 60 40 20 41 63 42 57 43 56 44 21 46
REMARK SMILES IDX 47 47 30 48 46 49 31 50 34 51 45 52 61 53 32 54 33 55 44 57
REMARK SMILES IDX 62 58 35 59 22 60 23 61 28 62 24 63 25 64 27 65 29 66 26 67
REMARK SMILES IDX 48 68 49 69 54 70 50 71 51 72 53 73 55 74 52 75 36 76 37 77
REMARK SMILES IDX 42 78 38 79 39 80 41 81 43 82 40 83
REMARK H PARENT 6 4 77 20 10 26 60 45 34 56
REMARK Flexibility Score: inf
ROOT
ATOM      1  C   UNL A   1      36.919  23.332  25.771  1.00  0.00     0.220 C 
ATOM      2  O   UNL A   1      37.530  24.135  26.481  1.00  0.00    -0.275 OA
ATOM      3  N   UNL A   1      37.545  22.166  25.463  1.00  0.00    -0.356 N 
ATOM      4  H   UNL A   1      38.420  22.046  25.894  1.00  0.00     0.163 HD
ENDROOT
BRANCH   1   5
ATOM      5  C   UNL A   1      35.525  23.652  25.262  1.00  0.00     0.103 C 
BRANCH   5   6
ATOM      6  C   UNL A   1      34.351  23.443  26.246  1.00  0.00     0.004 C 
ATOM      7  C   UNL A   1      34.640  22.314  27.236  1.00  0.00     0.009 C 
BRANCH   6   8
ATOM      8  C   UNL A   1      32.981  23.336  25.546  1.00  0.00     0.104 C 
BRANCH   8   9
ATOM      9  C   UNL A   1      31.926  24.270  26.123  1.00  0.00     0.222 C 
ATOM     10  O   UNL A   1      31.582  24.129  27.300  1.00  0.00    -0.275 OA
BRANCH   9  11
ATOM     11  N   UNL A   1      31.327  25.219  25.299  1.00  0.00    -0.340 N 
ATOM     12  C   UNL A   1      30.571  24.950  24.087  1.00  0.00     0.147 C 
BRANCH  11  13
ATOM     13  C   UNL A   1      31.599  26.634  25.586  1.00  0.00     0.184 C 
BRANCH  13  14
ATOM     14  C   UNL A   1      33.112  26.998  25.687  1.00  0.00     0.203 C 
ATOM     15  C   UNL A   1      33.770  26.938  24.306  1.00  0.00     0.073 C 
ATOM     16  N   UNL A   1      33.454  28.384  26.061  1.00  0.00    -0.333 N 
ATOM     17  C   UNL A   1      33.579  28.331  23.715  1.00  0.00     0.068 C 
ATOM     18  C   UNL A   1      33.199  29.220  24.894  1.00  0.00     0.262 C 
ATOM     19  C   UNL A   1      32.856  28.879  27.283  1.00  0.00     0.333 C 
ATOM     20  H   UNL A   1      34.441  28.413  26.314  1.00  0.00     0.348 HD
ENDBRANCH  13  14
ENDBRANCH  11  13
ENDBRANCH   9  11
ENDBRANCH   8   9
ENDBRANCH   6   8
ENDBRANCH   5   6
ENDBRANCH   1   5
BRANCH   3  21
ATOM     21  C   UNL A   1      37.140  21.067  24.604  1.00  0.00     0.117 C 
BRANCH  21  22
ATOM     22  C   UNL A   1      38.122  19.901  24.685  1.00  0.00     0.042 C 
BRANCH  22  23
ATOM     23  C   UNL A   1      38.903  19.801  25.992  1.00  0.00     0.118 C 
BRANCH  23  24
ATOM     24  N   UNL A   1      40.162  19.097  25.832  1.00  0.00    -0.352 N 
ATOM     25  C   UNL A   1      41.455  19.540  25.974  1.00  0.00     0.251 C 
ATOM     26  H   UNL A   1      40.075  18.151  25.579  1.00  0.00     0.163 HD
ATOM     27  O   UNL A   1      42.373  18.820  25.593  1.00  0.00    -0.269 OA
BRANCH  25  28
ATOM     28  C   UNL A   1      41.773  20.868  26.561  1.00  0.00     0.039 A 
ATOM     29  C   UNL A   1      42.089  21.919  25.689  1.00  0.00     0.014 A 
ATOM     30  C   UNL A   1      41.852  21.081  27.940  1.00  0.00     0.014 A 
ATOM     31  C   UNL A   1      42.446  23.175  26.193  1.00  0.00     0.010 A 
ATOM     32  C   UNL A   1      42.143  22.352  28.443  1.00  0.00     0.010 A 
ATOM     33  C   UNL A   1      42.458  23.410  27.576  1.00  0.00    -0.014 A 
BRANCH  33  34
ATOM     34  C   UNL A   1      42.834  24.743  28.124  1.00  0.00     0.031 A 
ATOM     35  C   UNL A   1      41.782  25.798  28.347  1.00  0.00     0.074 A 
ATOM     36  C   UNL A   1      44.125  25.022  28.398  1.00  0.00     0.049 A 
ATOM     37  N   UNL A   1      41.923  27.037  28.750  1.00  0.00    -0.248 NA
ATOM     38  C   UNL A   1      40.390  25.416  28.065  1.00  0.00     0.031 C 
ATOM     39  C   UNL A   1      45.249  24.103  28.215  1.00  0.00     0.029 A 
ATOM     40  N   UNL A   1      44.708  26.167  28.885  1.00  0.00    -0.354 N 
ATOM     41  C   UNL A   1      40.646  27.583  28.757  1.00  0.00     0.074 A 
ATOM     42  C   UNL A   1      39.747  26.555  28.279  1.00  0.00     0.031 C 
ATOM     43  C   UNL A   1      46.383  24.713  28.600  1.00  0.00     0.029 A 
ATOM     44  C   UNL A   1      46.072  26.075  29.024  1.00  0.00     0.049 A 
ATOM     45  H   UNL A   1      44.197  26.976  29.113  1.00  0.00     0.167 HD
ATOM     46  C   UNL A   1      40.251  28.819  29.146  1.00  0.00     0.037 A 
ATOM     47  C   UNL A   1      46.973  26.986  29.439  1.00  0.00     0.037 A 
ATOM     48  C   UNL A   1      41.134  29.837  29.653  1.00  0.00     0.049 A 
ATOM     49  C   UNL A   1      46.509  28.355  29.856  1.00  0.00     0.074 A 
ATOM     50  C   UNL A   1      40.816  31.109  30.098  1.00  0.00     0.029 A 
ATOM     51  N   UNL A   1      42.504  29.696  29.793  1.00  0.00    -0.354 N 
ATOM     52  N   UNL A   1      45.293  28.842  29.885  1.00  0.00    -0.248 NA
ATOM     53  C   UNL A   1      47.544  29.300  30.303  1.00  0.00     0.031 C 
ATOM     54  C   UNL A   1      42.000  31.748  30.483  1.00  0.00     0.029 A 
ATOM     55  C   UNL A   1      43.048  30.860  30.311  1.00  0.00     0.049 A 
ATOM     56  H   UNL A   1      43.016  28.888  29.560  1.00  0.00     0.167 HD
ATOM     57  C   UNL A   1      45.412  30.135  30.381  1.00  0.00     0.074 A 
ATOM     58  C   UNL A   1      46.818  30.353  30.649  1.00  0.00     0.031 C 
ATOM     59  C   UNL A   1      44.445  31.058  30.593  1.00  0.00     0.037 A 
BRANCH  46  60
ATOM     60  C   UNL A   1      38.790  29.141  29.055  1.00  0.00     0.057 A 
ATOM     61  C   UNL A   1      37.950  29.063  30.173  1.00  0.00     0.134 A 
ATOM     62  C   UNL A   1      38.226  29.589  27.854  1.00  0.00     0.134 A 
ATOM     63  F   UNL A   1      38.427  28.630  31.351  1.00  0.00    -0.206 F 
ATOM     64  C   UNL A   1      36.599  29.404  30.098  1.00  0.00     0.040 A 
ATOM     65  C   UNL A   1      36.882  29.955  27.770  1.00  0.00     0.040 A 
ATOM     66  F   UNL A   1      38.978  29.694  26.747  1.00  0.00    -0.206 F 
ATOM     67  C   UNL A   1      36.064  29.859  28.894  1.00  0.00     0.006 A 
ENDBRANCH  46  60
BRANCH  47  68
ATOM     68  C   UNL A   1      48.415  26.639  29.498  1.00  0.00     0.057 A 
ATOM     69  C   UNL A   1      48.966  26.038  30.637  1.00  0.00     0.134 A 
ATOM     70  C   UNL A   1      49.281  26.929  28.438  1.00  0.00     0.134 A 
ATOM     71  F   UNL A   1      48.189  25.756  31.693  1.00  0.00    -0.206 F 
ATOM     72  C   UNL A   1      50.331  25.763  30.730  1.00  0.00     0.040 A 
ATOM     73  C   UNL A   1      50.645  26.639  28.509  1.00  0.00     0.040 A 
ATOM     74  F   UNL A   1      48.813  27.498  27.317  1.00  0.00    -0.206 F 
ATOM     75  C   UNL A   1      51.174  26.061  29.661  1.00  0.00     0.006 A 
ENDBRANCH  47  68
BRANCH  59  76
ATOM     76  C   UNL A   1      44.863  32.370  31.183  1.00  0.00     0.057 A 
ATOM     77  C   UNL A   1      44.902  32.578  32.567  1.00  0.00     0.134 A 
ATOM     78  C   UNL A   1      45.267  33.427  30.357  1.00  0.00     0.134 A 
ATOM     79  F   UNL A   1      44.516  31.609  33.411  1.00  0.00    -0.206 F 
ATOM     80  C   UNL A   1      45.311  33.799  33.110  1.00  0.00     0.040 A 
ATOM     81  C   UNL A   1      45.697  34.644  30.887  1.00  0.00     0.040 A 
ATOM     82  F   UNL A   1      45.258  33.289  29.022  1.00  0.00    -0.206 F 
ATOM     83  C   UNL A   1      45.715  34.833  32.268  1.00  0.00     0.006 A 
ENDBRANCH  59  76
ENDBRANCH  33  34
ENDBRANCH  25  28
ENDBRANCH  23  24
ENDBRANCH  22  23
ENDBRANCH  21  22
ENDBRANCH   3  21
TORSDOF 16
ENDMDL
