MODEL 1
REMARK VINA RESULT:     -10.9      0.000      0.000
REMARK SMILES O=C(NCCCNC(=O)C1CCN(S(=O)(=O)C2CC2)CC1)c1ccc(-c2c3nc(c(-c4c(F)cccc4F)c4ccc([nH]4)c(-c4c(F)cccc4F)c4nc(c(-c5c(F)cccc5F)c5ccc2[nH]5)C=C4)C=C3)cc1
REMARK SMILES IDX 5 1 4 2 3 3 1 4 2 5 22 7 23 8 75 9 24 10 74 11 25 12 26 13
REMARK SMILES IDX 27 14 68 15 28 16 73 17 67 18 69 19 29 20 72 21 66 22 65 23
REMARK SMILES IDX 30 25 56 26 39 27 55 28 40 29 43 30 54 31 70 32 41 33 42 34
REMARK SMILES IDX 53 36 71 37 44 38 31 39 32 40 37 41 33 42 34 43 36 44 38 45
REMARK SMILES IDX 35 46 57 47 58 48 63 49 59 50 60 51 62 52 64 53 61 54 45 55
REMARK SMILES IDX 46 56 51 57 47 58 48 59 50 60 52 61 49 62 6 63 7 64 8 65
REMARK SMILES IDX 9 67 10 68 11 69 21 70 12 71 20 72 13 73 14 74 15 75 16 76
REMARK SMILES IDX 17 77 18 78 19 79
REMARK H PARENT 3 6 69 24 43 35 7 66
REMARK Flexibility Score: inf
ROOT
ATOM      1  C   UNL A   1      38.102  19.838  24.911  1.00  0.00     0.042 C 
ENDROOT
BRANCH   1   2
ATOM      2  C   UNL A   1      39.123  20.055  26.023  1.00  0.00     0.118 C 
BRANCH   2   3
ATOM      3  N   UNL A   1      40.326  19.249  25.846  1.00  0.00    -0.352 N 
ATOM      4  O   UNL A   1      42.525  18.836  25.575  1.00  0.00    -0.269 OA
ATOM      5  C   UNL A   1      41.647  19.606  25.951  1.00  0.00     0.251 C 
ATOM      6  H   UNL A   1      40.166  18.305  25.618  1.00  0.00     0.163 HD
BRANCH   5   7
ATOM      7  C   UNL A   1      42.007  20.930  26.497  1.00  0.00     0.039 A 
ATOM      8  C   UNL A   1      42.003  21.148  27.876  1.00  0.00     0.014 A 
ATOM      9  C   UNL A   1      42.361  21.960  25.623  1.00  0.00     0.014 A 
ATOM     10  C   UNL A   1      42.183  22.431  28.370  1.00  0.00     0.010 A 
ATOM     11  C   UNL A   1      42.652  23.229  26.132  1.00  0.00     0.010 A 
ATOM     12  C   UNL A   1      42.535  23.481  27.508  1.00  0.00    -0.014 A 
BRANCH  12  13
ATOM     13  C   UNL A   1      42.850  24.812  28.083  1.00  0.00     0.031 A 
ATOM     14  C   UNL A   1      44.256  25.193  28.448  1.00  0.00     0.074 A 
ATOM     15  C   UNL A   1      41.842  25.691  28.249  1.00  0.00     0.049 A 
ATOM     16  N   UNL A   1      44.696  26.316  28.957  1.00  0.00    -0.248 NA
ATOM     17  C   UNL A   1      45.302  24.186  28.223  1.00  0.00     0.031 C 
ATOM     18  C   UNL A   1      40.435  25.428  27.935  1.00  0.00     0.029 A 
ATOM     19  N   UNL A   1      41.842  26.983  28.707  1.00  0.00    -0.354 N 
ATOM     20  C   UNL A   1      46.064  26.148  29.128  1.00  0.00     0.074 A 
ATOM     21  C   UNL A   1      46.378  24.801  28.698  1.00  0.00     0.031 C 
ATOM     22  C   UNL A   1      39.717  26.535  28.166  1.00  0.00     0.029 A 
ATOM     23  C   UNL A   1      40.596  27.559  28.715  1.00  0.00     0.049 A 
ATOM     24  H   UNL A   1      42.656  27.451  29.002  1.00  0.00     0.167 HD
ATOM     25  C   UNL A   1      46.973  27.038  29.595  1.00  0.00     0.037 A 
ATOM     26  C   UNL A   1      40.196  28.770  29.143  1.00  0.00     0.037 A 
ATOM     27  C   UNL A   1      46.650  28.377  30.018  1.00  0.00     0.049 A 
ATOM     28  C   UNL A   1      41.218  29.716  29.701  1.00  0.00     0.074 A 
ATOM     29  C   UNL A   1      47.504  29.366  30.476  1.00  0.00     0.029 A 
ATOM     30  N   UNL A   1      45.370  28.913  30.047  1.00  0.00    -0.354 N 
ATOM     31  N   UNL A   1      42.513  29.556  29.821  1.00  0.00    -0.248 NA
ATOM     32  C   UNL A   1      40.722  31.011  30.184  1.00  0.00     0.031 C 
ATOM     33  C   UNL A   1      46.735  30.477  30.838  1.00  0.00     0.029 A 
ATOM     34  C   UNL A   1      45.408  30.207  30.543  1.00  0.00     0.049 A 
ATOM     35  H   UNL A   1      44.555  28.444  29.756  1.00  0.00     0.167 HD
ATOM     36  C   UNL A   1      42.991  30.736  30.372  1.00  0.00     0.074 A 
ATOM     37  C   UNL A   1      41.848  31.610  30.541  1.00  0.00     0.031 C 
ATOM     38  C   UNL A   1      44.263  31.066  30.707  1.00  0.00     0.037 A 
BRANCH  25  39
ATOM     39  C   UNL A   1      48.404  26.588  29.696  1.00  0.00     0.057 A 
ATOM     40  C   UNL A   1      48.905  25.947  30.837  1.00  0.00     0.134 A 
ATOM     41  C   UNL A   1      49.283  26.757  28.617  1.00  0.00     0.134 A 
ATOM     42  F   UNL A   1      48.122  25.760  31.911  1.00  0.00    -0.206 F 
ATOM     43  C   UNL A   1      50.230  25.511  30.910  1.00  0.00     0.040 A 
ATOM     44  C   UNL A   1      50.601  26.301  28.667  1.00  0.00     0.040 A 
ATOM     45  F   UNL A   1      48.870  27.355  27.490  1.00  0.00    -0.206 F 
ATOM     46  C   UNL A   1      51.080  25.682  29.819  1.00  0.00     0.006 A 
ENDBRANCH  25  39
BRANCH  26  47
ATOM     47  C   UNL A   1      38.760  29.141  29.074  1.00  0.00     0.057 A 
ATOM     48  C   UNL A   1      38.194  29.637  27.894  1.00  0.00     0.134 A 
ATOM     49  C   UNL A   1      37.918  29.006  30.186  1.00  0.00     0.134 A 
ATOM     50  F   UNL A   1      38.952  29.802  26.800  1.00  0.00    -0.206 F 
ATOM     51  C   UNL A   1      36.850  30.004  27.828  1.00  0.00     0.040 A 
ATOM     52  C   UNL A   1      36.566  29.339  30.124  1.00  0.00     0.040 A 
ATOM     53  F   UNL A   1      38.397  28.526  31.344  1.00  0.00    -0.206 F 
ATOM     54  C   UNL A   1      36.030  29.850  28.944  1.00  0.00     0.006 A 
ENDBRANCH  26  47
BRANCH  38  55
ATOM     55  C   UNL A   1      44.486  32.446  31.255  1.00  0.00     0.057 A 
ATOM     56  C   UNL A   1      44.481  32.708  32.632  1.00  0.00     0.134 A 
ATOM     57  C   UNL A   1      44.736  33.522  30.394  1.00  0.00     0.134 A 
ATOM     58  F   UNL A   1      44.233  31.726  33.510  1.00  0.00    -0.206 F 
ATOM     59  C   UNL A   1      44.687  33.997  33.129  1.00  0.00     0.040 A 
ATOM     60  C   UNL A   1      44.974  34.808  30.880  1.00  0.00     0.040 A 
ATOM     61  F   UNL A   1      44.762  33.339  29.065  1.00  0.00    -0.206 F 
ATOM     62  C   UNL A   1      44.942  35.049  32.252  1.00  0.00     0.006 A 
ENDBRANCH  38  55
ENDBRANCH  12  13
ENDBRANCH   5   7
ENDBRANCH   2   3
ENDBRANCH   1   2
BRANCH   1  63
ATOM     63  C   UNL A   1      37.181  21.031  24.696  1.00  0.00     0.117 C 
BRANCH  63  64
ATOM     64  N   UNL A   1      35.791  20.632  24.799  1.00  0.00    -0.356 N 
ATOM     65  C   UNL A   1      34.810  21.041  25.640  1.00  0.00     0.223 C 
ATOM     66  H   UNL A   1      35.513  19.948  24.148  1.00  0.00     0.163 HD
ATOM     67  O   UNL A   1      33.783  20.364  25.669  1.00  0.00    -0.275 OA
BRANCH  65  68
ATOM     68  C   UNL A   1      34.975  22.309  26.465  1.00  0.00     0.081 C 
ATOM     69  C   UNL A   1      33.983  22.361  27.625  1.00  0.00     0.030 C 
ATOM     70  C   UNL A   1      34.826  23.527  25.554  1.00  0.00     0.030 C 
ATOM     71  C   UNL A   1      32.559  22.696  27.187  1.00  0.00     0.103 C 
ATOM     72  C   UNL A   1      33.377  23.784  25.148  1.00  0.00     0.103 C 
ATOM     73  N   UNL A   1      32.538  23.954  26.368  1.00  0.00    -0.202 NA
BRANCH  73  74
ATOM     74  S   UNL A   1      30.911  24.451  26.056  1.00  0.00     0.216 S 
ATOM     75  O   UNL A   1      30.615  24.128  24.674  1.00  0.00    -0.212 OA
ATOM     76  O   UNL A   1      30.098  23.908  27.124  1.00  0.00    -0.212 OA
BRANCH  74  77
ATOM     77  C   UNL A   1      30.693  26.246  26.220  1.00  0.00     0.124 C 
ATOM     78  C   UNL A   1      31.921  27.104  26.153  1.00  0.00     0.022 C 
ATOM     79  C   UNL A   1      30.971  27.053  24.982  1.00  0.00     0.022 C 
ENDBRANCH  74  77
ENDBRANCH  73  74
ENDBRANCH  65  68
ENDBRANCH  63  64
ENDBRANCH   1  63
TORSDOF 12
ENDMDL
MODEL 2
REMARK VINA RESULT:     -10.9      5.217     10.830
REMARK SMILES O=C(NCCCNC(=O)C1CCN(S(=O)(=O)C2CC2)CC1)c1ccc(-c2c3nc(c(-c4c(F)cccc4F)c4ccc([nH]4)c(-c4c(F)cccc4F)c4nc(c(-c5c(F)cccc5F)c5ccc2[nH]5)C=C4)C=C3)cc1
REMARK SMILES IDX 5 1 4 2 3 3 1 4 2 5 22 7 23 8 75 9 24 10 74 11 25 12 26 13
REMARK SMILES IDX 27 14 68 15 28 16 73 17 67 18 69 19 29 20 72 21 66 22 65 23
REMARK SMILES IDX 30 25 56 26 39 27 55 28 40 29 43 30 54 31 70 32 41 33 42 34
REMARK SMILES IDX 53 36 71 37 44 38 31 39 32 40 37 41 33 42 34 43 36 44 38 45
REMARK SMILES IDX 35 46 57 47 58 48 63 49 59 50 60 51 62 52 64 53 61 54 45 55
REMARK SMILES IDX 46 56 51 57 47 58 48 59 50 60 52 61 49 62 6 63 7 64 8 65
REMARK SMILES IDX 9 67 10 68 11 69 21 70 12 71 20 72 13 73 14 74 15 75 16 76
REMARK SMILES IDX 17 77 18 78 19 79
REMARK H PARENT 3 6 69 24 43 35 7 66
REMARK Flexibility Score: inf
ROOT
ATOM      1  C   UNL A   1      33.431  35.417  32.018  1.00  0.00     0.042 C 
ENDROOT
BRANCH   1   2
ATOM      2  C   UNL A   1      33.457  36.034  30.623  1.00  0.00     0.118 C 
BRANCH   2   3
ATOM      3  N   UNL A   1      32.719  35.243  29.645  1.00  0.00    -0.352 N 
ATOM      4  O   UNL A   1      32.428  33.815  27.926  1.00  0.00    -0.269 OA
ATOM      5  C   UNL A   1      33.152  34.231  28.825  1.00  0.00     0.251 C 
ATOM      6  H   UNL A   1      31.765  35.469  29.560  1.00  0.00     0.163 HD
BRANCH   5   7
ATOM      7  C   UNL A   1      34.500  33.659  29.015  1.00  0.00     0.039 A 
ATOM      8  C   UNL A   1      34.725  32.699  30.003  1.00  0.00     0.014 A 
ATOM      9  C   UNL A   1      35.547  34.082  28.193  1.00  0.00     0.014 A 
ATOM     10  C   UNL A   1      36.021  32.290  30.281  1.00  0.00     0.010 A 
ATOM     11  C   UNL A   1      36.835  33.583  28.403  1.00  0.00     0.010 A 
ATOM     12  C   UNL A   1      37.087  32.705  29.469  1.00  0.00    -0.014 A 
BRANCH  12  13
ATOM     13  C   UNL A   1      38.440  32.146  29.712  1.00  0.00     0.031 A 
ATOM     14  C   UNL A   1      39.483  32.921  30.465  1.00  0.00     0.074 A 
ATOM     15  C   UNL A   1      38.709  30.906  29.260  1.00  0.00     0.049 A 
ATOM     16  N   UNL A   1      40.710  32.573  30.762  1.00  0.00    -0.248 NA
ATOM     17  C   UNL A   1      39.109  34.262  30.939  1.00  0.00     0.031 C 
ATOM     18  C   UNL A   1      37.774  30.062  28.510  1.00  0.00     0.029 A 
ATOM     19  N   UNL A   1      39.834  30.132  29.374  1.00  0.00    -0.354 N 
ATOM     20  C   UNL A   1      41.259  33.652  31.442  1.00  0.00     0.074 A 
ATOM     21  C   UNL A   1      40.242  34.682  31.487  1.00  0.00     0.031 C 
ATOM     22  C   UNL A   1      38.346  28.875  28.271  1.00  0.00     0.029 A 
ATOM     23  C   UNL A   1      39.711  28.899  28.782  1.00  0.00     0.049 A 
ATOM     24  H   UNL A   1      40.651  30.431  29.835  1.00  0.00     0.167 HD
ATOM     25  C   UNL A   1      42.496  33.768  31.984  1.00  0.00     0.037 A 
ATOM     26  C   UNL A   1      40.606  27.905  28.639  1.00  0.00     0.037 A 
ATOM     27  C   UNL A   1      43.500  32.735  31.936  1.00  0.00     0.049 A 
ATOM     28  C   UNL A   1      41.983  28.082  29.207  1.00  0.00     0.074 A 
ATOM     29  C   UNL A   1      44.772  32.743  32.483  1.00  0.00     0.029 A 
ATOM     30  N   UNL A   1      43.351  31.513  31.294  1.00  0.00    -0.354 N 
ATOM     31  N   UNL A   1      42.475  29.093  29.880  1.00  0.00    -0.248 NA
ATOM     32  C   UNL A   1      42.930  26.980  28.993  1.00  0.00     0.031 C 
ATOM     33  C   UNL A   1      45.412  31.554  32.122  1.00  0.00     0.029 A 
ATOM     34  C   UNL A   1      44.518  30.774  31.407  1.00  0.00     0.049 A 
ATOM     35  H   UNL A   1      42.536  31.216  30.830  1.00  0.00     0.167 HD
ATOM     36  C   UNL A   1      43.781  28.741  30.190  1.00  0.00     0.074 A 
ATOM     37  C   UNL A   1      43.995  27.414  29.649  1.00  0.00     0.031 C 
ATOM     38  C   UNL A   1      44.718  29.453  30.863  1.00  0.00     0.037 A 
BRANCH  25  39
ATOM     39  C   UNL A   1      42.845  35.066  32.658  1.00  0.00     0.057 A 
ATOM     40  C   UNL A   1      43.526  36.093  31.990  1.00  0.00     0.134 A 
ATOM     41  C   UNL A   1      42.452  35.310  33.981  1.00  0.00     0.134 A 
ATOM     42  F   UNL A   1      43.940  35.923  30.726  1.00  0.00    -0.206 F 
ATOM     43  C   UNL A   1      43.823  37.303  32.620  1.00  0.00     0.040 A 
ATOM     44  C   UNL A   1      42.718  36.527  34.611  1.00  0.00     0.040 A 
ATOM     45  F   UNL A   1      41.789  34.376  34.679  1.00  0.00    -0.206 F 
ATOM     46  C   UNL A   1      43.412  37.525  33.933  1.00  0.00     0.006 A 
ENDBRANCH  25  39
BRANCH  26  47
ATOM     47  C   UNL A   1      40.226  26.667  27.913  1.00  0.00     0.057 A 
ATOM     48  C   UNL A   1      40.663  26.428  26.606  1.00  0.00     0.134 A 
ATOM     49  C   UNL A   1      39.417  25.691  28.512  1.00  0.00     0.134 A 
ATOM     50  F   UNL A   1      41.428  27.330  25.974  1.00  0.00    -0.206 F 
ATOM     51  C   UNL A   1      40.294  25.275  25.913  1.00  0.00     0.040 A 
ATOM     52  C   UNL A   1      39.068  24.520  27.842  1.00  0.00     0.040 A 
ATOM     53  F   UNL A   1      38.974  25.855  29.768  1.00  0.00    -0.206 F 
ATOM     54  C   UNL A   1      39.499  24.313  26.533  1.00  0.00     0.006 A 
ENDBRANCH  26  47
BRANCH  38  55
ATOM     55  C   UNL A   1      46.048  28.792  31.084  1.00  0.00     0.057 A 
ATOM     56  C   UNL A   1      46.303  27.993  32.206  1.00  0.00     0.134 A 
ATOM     57  C   UNL A   1      47.079  28.938  30.147  1.00  0.00     0.134 A 
ATOM     58  F   UNL A   1      45.364  27.825  33.149  1.00  0.00    -0.206 F 
ATOM     59  C   UNL A   1      47.545  27.386  32.402  1.00  0.00     0.040 A 
ATOM     60  C   UNL A   1      48.314  28.310  30.316  1.00  0.00     0.040 A 
ATOM     61  F   UNL A   1      46.899  29.684  29.046  1.00  0.00    -0.206 F 
ATOM     62  C   UNL A   1      48.552  27.539  31.451  1.00  0.00     0.006 A 
ENDBRANCH  38  55
ENDBRANCH  12  13
ENDBRANCH   5   7
ENDBRANCH   2   3
ENDBRANCH   1   2
BRANCH   1  63
ATOM     63  C   UNL A   1      34.420  36.057  32.981  1.00  0.00     0.117 C 
BRANCH  63  64
ATOM     64  N   UNL A   1      34.591  35.236  34.163  1.00  0.00    -0.356 N 
ATOM     65  C   UNL A   1      35.500  34.272  34.450  1.00  0.00     0.223 C 
ATOM     66  H   UNL A   1      33.937  35.408  34.878  1.00  0.00     0.163 HD
ATOM     67  O   UNL A   1      35.270  33.564  35.431  1.00  0.00    -0.275 OA
BRANCH  65  68
ATOM     68  C   UNL A   1      36.761  34.122  33.613  1.00  0.00     0.081 C 
ATOM     69  C   UNL A   1      36.988  32.672  33.187  1.00  0.00     0.030 C 
ATOM     70  C   UNL A   1      37.956  34.661  34.399  1.00  0.00     0.030 C 
ATOM     71  C   UNL A   1      37.497  31.783  34.320  1.00  0.00     0.103 C 
ATOM     72  C   UNL A   1      38.393  33.724  35.522  1.00  0.00     0.103 C 
ATOM     73  N   UNL A   1      38.717  32.383  34.957  1.00  0.00    -0.202 NA
BRANCH  73  74
ATOM     74  S   UNL A   1      39.419  31.280  36.088  1.00  0.00     0.216 S 
ATOM     75  O   UNL A   1      40.013  32.065  37.152  1.00  0.00    -0.212 OA
ATOM     76  O   UNL A   1      38.405  30.290  36.388  1.00  0.00    -0.212 OA
BRANCH  74  77
ATOM     77  C   UNL A   1      40.767  30.305  35.360  1.00  0.00     0.124 C 
ATOM     78  C   UNL A   1      41.129  30.581  33.930  1.00  0.00     0.022 C 
ATOM     79  C   UNL A   1      42.025  31.066  35.043  1.00  0.00     0.022 C 
ENDBRANCH  74  77
ENDBRANCH  73  74
ENDBRANCH  65  68
ENDBRANCH  63  64
ENDBRANCH   1  63
TORSDOF 12
ENDMDL
MODEL 3
REMARK VINA RESULT:     -10.9      1.518      2.228
REMARK SMILES O=C(NCCCNC(=O)C1CCN(S(=O)(=O)C2CC2)CC1)c1ccc(-c2c3nc(c(-c4c(F)cccc4F)c4ccc([nH]4)c(-c4c(F)cccc4F)c4nc(c(-c5c(F)cccc5F)c5ccc2[nH]5)C=C4)C=C3)cc1
REMARK SMILES IDX 5 1 4 2 3 3 1 4 2 5 22 7 23 8 75 9 24 10 74 11 25 12 26 13
REMARK SMILES IDX 27 14 68 15 28 16 73 17 67 18 69 19 29 20 72 21 66 22 65 23
REMARK SMILES IDX 30 25 56 26 39 27 55 28 40 29 43 30 54 31 70 32 41 33 42 34
REMARK SMILES IDX 53 36 71 37 44 38 31 39 32 40 37 41 33 42 34 43 36 44 38 45
REMARK SMILES IDX 35 46 57 47 58 48 63 49 59 50 60 51 62 52 64 53 61 54 45 55
REMARK SMILES IDX 46 56 51 57 47 58 48 59 50 60 52 61 49 62 6 63 7 64 8 65
REMARK SMILES IDX 9 67 10 68 11 69 21 70 12 71 20 72 13 73 14 74 15 75 16 76
REMARK SMILES IDX 17 77 18 78 19 79
REMARK H PARENT 3 6 69 24 43 35 7 66
REMARK Flexibility Score: inf
ROOT
ATOM      1  C   UNL A   1      37.619  19.531  25.001  1.00  0.00     0.042 C 
ENDROOT
BRANCH   1   2
ATOM      2  C   UNL A   1      38.906  20.185  25.493  1.00  0.00     0.118 C 
BRANCH   2   3
ATOM      3  N   UNL A   1      39.976  19.219  25.720  1.00  0.00    -0.352 N 
ATOM      4  O   UNL A   1      42.082  18.504  26.085  1.00  0.00    -0.269 OA
ATOM      5  C   UNL A   1      41.267  19.420  26.140  1.00  0.00     0.251 C 
ATOM      6  H   UNL A   1      39.735  18.281  25.546  1.00  0.00     0.163 HD
BRANCH   5   7
ATOM      7  C   UNL A   1      41.678  20.747  26.638  1.00  0.00     0.039 A 
ATOM      8  C   UNL A   1      41.581  21.051  27.997  1.00  0.00     0.014 A 
ATOM      9  C   UNL A   1      42.173  21.695  25.739  1.00  0.00     0.014 A 
ATOM     10  C   UNL A   1      41.814  22.348  28.431  1.00  0.00     0.010 A 
ATOM     11  C   UNL A   1      42.514  22.970  26.198  1.00  0.00     0.010 A 
ATOM     12  C   UNL A   1      42.308  23.316  27.542  1.00  0.00    -0.014 A 
BRANCH  12  13
ATOM     13  C   UNL A   1      42.672  24.656  28.064  1.00  0.00     0.031 A 
ATOM     14  C   UNL A   1      44.098  25.014  28.371  1.00  0.00     0.074 A 
ATOM     15  C   UNL A   1      41.691  25.563  28.236  1.00  0.00     0.049 A 
ATOM     16  N   UNL A   1      44.581  26.142  28.830  1.00  0.00    -0.248 NA
ATOM     17  C   UNL A   1      45.113  23.975  28.144  1.00  0.00     0.031 C 
ATOM     18  C   UNL A   1      40.268  25.324  27.976  1.00  0.00     0.029 A 
ATOM     19  N   UNL A   1      41.736  26.868  28.653  1.00  0.00    -0.354 N 
ATOM     20  C   UNL A   1      45.949  25.946  28.962  1.00  0.00     0.074 A 
ATOM     21  C   UNL A   1      46.218  24.579  28.564  1.00  0.00     0.031 C 
ATOM     22  C   UNL A   1      39.584  26.454  28.196  1.00  0.00     0.029 A 
ATOM     23  C   UNL A   1      40.504  27.473  28.683  1.00  0.00     0.049 A 
ATOM     24  H   UNL A   1      42.570  27.326  28.906  1.00  0.00     0.167 HD
ATOM     25  C   UNL A   1      46.894  26.828  29.370  1.00  0.00     0.037 A 
ATOM     26  C   UNL A   1      40.146  28.706  29.086  1.00  0.00     0.037 A 
ATOM     27  C   UNL A   1      46.615  28.187  29.762  1.00  0.00     0.049 A 
ATOM     28  C   UNL A   1      41.207  29.645  29.580  1.00  0.00     0.074 A 
ATOM     29  C   UNL A   1      47.506  29.169  30.161  1.00  0.00     0.029 A 
ATOM     30  N   UNL A   1      45.349  28.754  29.815  1.00  0.00    -0.354 N 
ATOM     31  N   UNL A   1      42.502  29.458  29.663  1.00  0.00    -0.248 NA
ATOM     32  C   UNL A   1      40.758  30.964  30.039  1.00  0.00     0.031 C 
ATOM     33  C   UNL A   1      46.775  30.308  30.512  1.00  0.00     0.029 A 
ATOM     34  C   UNL A   1      45.434  30.061  30.269  1.00  0.00     0.049 A 
ATOM     35  H   UNL A   1      44.515  28.295  29.567  1.00  0.00     0.167 HD
ATOM     36  C   UNL A   1      43.024  30.642  30.160  1.00  0.00     0.074 A 
ATOM     37  C   UNL A   1      41.908  31.547  30.340  1.00  0.00     0.031 C 
ATOM     38  C   UNL A   1      44.314  30.952  30.444  1.00  0.00     0.037 A 
BRANCH  25  39
ATOM     39  C   UNL A   1      48.316  26.347  29.439  1.00  0.00     0.057 A 
ATOM     40  C   UNL A   1      49.209  26.506  28.371  1.00  0.00     0.134 A 
ATOM     41  C   UNL A   1      48.814  25.759  30.610  1.00  0.00     0.134 A 
ATOM     42  F   UNL A   1      48.798  27.052  27.217  1.00  0.00    -0.206 F 
ATOM     43  C   UNL A   1      50.536  26.078  28.456  1.00  0.00     0.040 A 
ATOM     44  C   UNL A   1      50.145  25.353  30.717  1.00  0.00     0.040 A 
ATOM     45  F   UNL A   1      48.018  25.583  31.675  1.00  0.00    -0.206 F 
ATOM     46  C   UNL A   1      51.009  25.505  29.636  1.00  0.00     0.006 A 
ENDBRANCH  25  39
BRANCH  26  47
ATOM     47  C   UNL A   1      38.718  29.109  29.052  1.00  0.00     0.057 A 
ATOM     48  C   UNL A   1      37.905  29.002  30.186  1.00  0.00     0.134 A 
ATOM     49  C   UNL A   1      38.132  29.614  27.883  1.00  0.00     0.134 A 
ATOM     50  F   UNL A   1      38.405  28.513  31.330  1.00  0.00    -0.206 F 
ATOM     51  C   UNL A   1      36.558  29.362  30.154  1.00  0.00     0.040 A 
ATOM     52  C   UNL A   1      36.795  30.009  27.847  1.00  0.00     0.040 A 
ATOM     53  F   UNL A   1      38.859  29.753  26.765  1.00  0.00    -0.206 F 
ATOM     54  C   UNL A   1      36.000  29.874  28.984  1.00  0.00     0.006 A 
ENDBRANCH  26  47
BRANCH  38  55
ATOM     55  C   UNL A   1      44.587  32.342  30.940  1.00  0.00     0.057 A 
ATOM     56  C   UNL A   1      44.627  32.648  32.307  1.00  0.00     0.134 A 
ATOM     57  C   UNL A   1      44.840  33.383  30.038  1.00  0.00     0.134 A 
ATOM     58  F   UNL A   1      44.378  31.701  33.224  1.00  0.00    -0.206 F 
ATOM     59  C   UNL A   1      44.879  33.946  32.757  1.00  0.00     0.040 A 
ATOM     60  C   UNL A   1      45.124  34.677  30.476  1.00  0.00     0.040 A 
ATOM     61  F   UNL A   1      44.824  33.157  28.716  1.00  0.00    -0.206 F 
ATOM     62  C   UNL A   1      45.135  34.963  31.840  1.00  0.00     0.006 A 
ENDBRANCH  38  55
ENDBRANCH  12  13
ENDBRANCH   5   7
ENDBRANCH   2   3
ENDBRANCH   1   2
BRANCH   1  63
ATOM     63  C   UNL A   1      36.420  20.468  25.023  1.00  0.00     0.117 C 
BRANCH  63  64
ATOM     64  N   UNL A   1      36.666  21.638  24.203  1.00  0.00    -0.356 N 
ATOM     65  C   UNL A   1      35.814  22.563  23.697  1.00  0.00     0.223 C 
ATOM     66  H   UNL A   1      37.613  21.785  23.976  1.00  0.00     0.163 HD
ATOM     67  O   UNL A   1      36.261  23.317  22.832  1.00  0.00    -0.275 OA
BRANCH  65  68
ATOM     68  C   UNL A   1      34.391  22.676  24.222  1.00  0.00     0.081 C 
ATOM     69  C   UNL A   1      33.361  22.481  23.111  1.00  0.00     0.030 C 
ATOM     70  C   UNL A   1      34.213  24.027  24.912  1.00  0.00     0.030 C 
ATOM     71  C   UNL A   1      33.237  23.691  22.186  1.00  0.00     0.103 C 
ATOM     72  C   UNL A   1      34.113  25.184  23.922  1.00  0.00     0.103 C 
ATOM     73  N   UNL A   1      32.984  24.940  22.979  1.00  0.00    -0.202 NA
BRANCH  73  74
ATOM     74  S   UNL A   1      32.629  26.267  21.928  1.00  0.00     0.216 S 
ATOM     75  O   UNL A   1      33.892  26.819  21.481  1.00  0.00    -0.212 OA
ATOM     76  O   UNL A   1      31.658  25.787  20.966  1.00  0.00    -0.212 OA
BRANCH  74  77
ATOM     77  C   UNL A   1      31.757  27.612  22.783  1.00  0.00     0.124 C 
ATOM     78  C   UNL A   1      30.259  27.627  22.708  1.00  0.00     0.022 C 
ATOM     79  C   UNL A   1      30.946  27.205  23.983  1.00  0.00     0.022 C 
ENDBRANCH  74  77
ENDBRANCH  73  74
ENDBRANCH  65  68
ENDBRANCH  63  64
ENDBRANCH   1  63
TORSDOF 12
ENDMDL
