MODEL 1
REMARK VINA RESULT:     -11.4      0.000      0.000
REMARK SMILES CCC1(CC)CCN(C(=O)NC(CC)(CC)C(=O)NCCCNC(=O)c2ccc(-c3c4nc(c(-c5c(F)cccc5F)c5ccc([nH]5)c(-c5c(F)cccc5F)c5nc(c(-c6c(F)cccc6F)c6ccc3[nH]6)C=C5)C=C4)cc2)CC1
REMARK SMILES IDX 21 1 20 2 19 3 17 4 18 5 12 7 11 8 3 9 6 10 81 11 7 12 80 13
REMARK SMILES IDX 8 14 9 15 10 16 2 18 1 19 4 20 5 21 13 22 14 23 15 24 16 25
REMARK SMILES IDX 22 26 23 27 24 28 25 30 26 31 27 32 79 33 28 34 78 35 29 36
REMARK SMILES IDX 30 37 31 38 72 39 32 40 77 41 71 42 73 43 33 44 76 45 70 46
REMARK SMILES IDX 69 47 34 49 60 50 43 51 59 52 44 53 47 54 58 55 74 56 45 57
REMARK SMILES IDX 46 58 57 60 75 61 48 62 35 63 36 64 41 65 37 66 38 67 40 68
REMARK SMILES IDX 42 69 39 70 61 71 62 72 67 73 63 74 64 75 66 76 68 77 65 78
REMARK SMILES IDX 49 79 50 80 55 81 51 82 52 83 54 84 56 85 53 86
REMARK H PARENT 19 6 11 17 23 29 73 48 47 59
REMARK Flexibility Score: inf
ROOT
ATOM      1  C   UNL A   1      37.694  19.470  24.923  1.00  0.00     0.042 C 
ENDROOT
BRANCH   1   2
ATOM      2  C   UNL A   1      36.505  20.392  24.661  1.00  0.00     0.117 C 
BRANCH   2   3
ATOM      3  N   UNL A   1      35.272  19.900  25.254  1.00  0.00    -0.354 N 
ATOM      4  C   UNL A   1      34.312  20.799  25.664  1.00  0.00     0.245 C 
ATOM      5  O   UNL A   1      34.444  21.309  26.773  1.00  0.00    -0.272 OA
ATOM      6  H   UNL A   1      35.125  18.931  25.361  1.00  0.00     0.163 HD
BRANCH   4   7
ATOM      7  C   UNL A   1      33.143  21.113  24.680  1.00  0.00     0.120 C 
BRANCH   7   8
ATOM      8  N   UNL A   1      31.936  21.776  25.265  1.00  0.00    -0.323 N 
ATOM      9  C   UNL A   1      33.012  26.571  25.150  1.00  0.00    -0.027 C 
ATOM     10  C   UNL A   1      31.532  26.199  25.465  1.00  0.00     0.028 C 
ATOM     11  C   UNL A   1      33.828  25.240  25.042  1.00  0.00     0.028 C 
ATOM     12  C   UNL A   1      31.375  25.149  26.580  1.00  0.00     0.122 C 
ATOM     13  C   UNL A   1      33.571  24.236  26.168  1.00  0.00     0.122 C 
ATOM     14  N   UNL A   1      32.159  23.950  26.258  1.00  0.00    -0.325 N 
ATOM     15  C   UNL A   1      31.487  22.801  25.994  1.00  0.00     0.318 C 
ATOM     16  O   UNL A   1      30.309  22.660  26.350  1.00  0.00    -0.249 OA
ATOM     17  H   UNL A   1      31.154  21.236  25.008  1.00  0.00     0.166 HD
BRANCH   9  18
ATOM     18  C   UNL A   1      33.664  27.427  26.274  1.00  0.00     0.004 C 
ATOM     19  C   UNL A   1      32.796  28.454  26.986  1.00  0.00     0.004 C 
ENDBRANCH   9  18
BRANCH   9  20
ATOM     20  C   UNL A   1      33.120  27.240  23.738  1.00  0.00     0.004 C 
ATOM     21  C   UNL A   1      34.112  28.377  23.538  1.00  0.00     0.004 C 
ENDBRANCH   9  20
ENDBRANCH   7   8
BRANCH   7  22
ATOM     22  C   UNL A   1      32.683  19.844  23.889  1.00  0.00     0.035 C 
ATOM     23  C   UNL A   1      32.390  18.595  24.716  1.00  0.00     0.007 C 
ENDBRANCH   7  22
BRANCH   7  24
ATOM     24  C   UNL A   1      33.782  22.185  23.713  1.00  0.00     0.035 C 
ATOM     25  C   UNL A   1      32.898  22.632  22.538  1.00  0.00     0.007 C 
ENDBRANCH   7  24
ENDBRANCH   4   7
ENDBRANCH   2   3
ENDBRANCH   1   2
BRANCH   1  26
ATOM     26  C   UNL A   1      38.859  20.154  25.631  1.00  0.00     0.118 C 
BRANCH  26  27
ATOM     27  N   UNL A   1      40.025  19.288  25.729  1.00  0.00    -0.352 N 
ATOM     28  C   UNL A   1      41.324  19.598  26.043  1.00  0.00     0.251 C 
ATOM     29  H   UNL A   1      39.857  18.336  25.543  1.00  0.00     0.163 HD
ATOM     30  O   UNL A   1      42.212  18.778  25.835  1.00  0.00    -0.269 OA
BRANCH  28  31
ATOM     31  C   UNL A   1      41.658  20.920  26.613  1.00  0.00     0.039 A 
ATOM     32  C   UNL A   1      42.073  21.938  25.752  1.00  0.00     0.014 A 
ATOM     33  C   UNL A   1      41.603  21.147  27.991  1.00  0.00     0.014 A 
ATOM     34  C   UNL A   1      42.387  23.197  26.269  1.00  0.00     0.010 A 
ATOM     35  C   UNL A   1      41.830  22.424  28.495  1.00  0.00     0.010 A 
ATOM     36  C   UNL A   1      42.243  23.457  27.642  1.00  0.00    -0.014 A 
BRANCH  36  37
ATOM     37  C   UNL A   1      42.549  24.798  28.199  1.00  0.00     0.031 A 
ATOM     38  C   UNL A   1      43.959  25.162  28.573  1.00  0.00     0.074 A 
ATOM     39  C   UNL A   1      41.549  25.678  28.400  1.00  0.00     0.049 A 
ATOM     40  N   UNL A   1      44.422  26.283  29.066  1.00  0.00    -0.248 NA
ATOM     41  C   UNL A   1      44.981  24.119  28.395  1.00  0.00     0.031 C 
ATOM     42  C   UNL A   1      40.134  25.429  28.126  1.00  0.00     0.029 A 
ATOM     43  N   UNL A   1      41.575  26.964  28.877  1.00  0.00    -0.354 N 
ATOM     44  C   UNL A   1      45.781  26.076  29.266  1.00  0.00     0.074 A 
ATOM     45  C   UNL A   1      46.056  24.703  28.901  1.00  0.00     0.031 C 
ATOM     46  C   UNL A   1      39.432  26.542  28.395  1.00  0.00     0.029 A 
ATOM     47  C   UNL A   1      40.343  27.569  28.890  1.00  0.00     0.049 A 
ATOM     48  H   UNL A   1      42.399  27.410  29.181  1.00  0.00     0.167 HD
ATOM     49  C   UNL A   1      46.721  26.954  29.689  1.00  0.00     0.037 A 
ATOM     50  C   UNL A   1      39.991  28.818  29.249  1.00  0.00     0.037 A 
ATOM     51  C   UNL A   1      46.450  28.326  30.034  1.00  0.00     0.049 A 
ATOM     52  C   UNL A   1      41.050  29.774  29.718  1.00  0.00     0.074 A 
ATOM     53  C   UNL A   1      47.338  29.312  30.422  1.00  0.00     0.029 A 
ATOM     54  N   UNL A   1      45.187  28.901  30.037  1.00  0.00    -0.354 N 
ATOM     55  N   UNL A   1      42.343  29.588  29.834  1.00  0.00    -0.248 NA
ATOM     56  C   UNL A   1      40.600  31.120  30.097  1.00  0.00     0.031 C 
ATOM     57  C   UNL A   1      46.609  30.475  30.698  1.00  0.00     0.029 A 
ATOM     58  C   UNL A   1      45.272  30.225  30.437  1.00  0.00     0.049 A 
ATOM     59  H   UNL A   1      44.355  28.438  29.790  1.00  0.00     0.167 HD
ATOM     60  C   UNL A   1      42.864  30.800  30.266  1.00  0.00     0.074 A 
ATOM     61  C   UNL A   1      41.748  31.717  30.380  1.00  0.00     0.031 C 
ATOM     62  C   UNL A   1      44.152  31.126  30.542  1.00  0.00     0.037 A 
BRANCH  49  63
ATOM     63  C   UNL A   1      48.131  26.447  29.800  1.00  0.00     0.057 A 
ATOM     64  C   UNL A   1      49.042  26.557  28.740  1.00  0.00     0.134 A 
ATOM     65  C   UNL A   1      48.585  25.840  30.978  1.00  0.00     0.134 A 
ATOM     66  F   UNL A   1      48.669  27.114  27.577  1.00  0.00    -0.206 F 
ATOM     67  C   UNL A   1      50.338  26.046  28.833  1.00  0.00     0.040 A 
ATOM     68  C   UNL A   1      49.888  25.353  31.093  1.00  0.00     0.040 A 
ATOM     69  F   UNL A   1      47.769  25.707  32.034  1.00  0.00    -0.206 F 
ATOM     70  C   UNL A   1      50.765  25.445  30.015  1.00  0.00     0.006 A 
ENDBRANCH  49  63
BRANCH  50  71
ATOM     71  C   UNL A   1      38.579  29.255  29.122  1.00  0.00     0.057 A 
ATOM     72  C   UNL A   1      38.071  29.682  27.888  1.00  0.00     0.134 A 
ATOM     73  C   UNL A   1      37.707  29.259  30.216  1.00  0.00     0.134 A 
ATOM     74  F   UNL A   1      38.865  29.716  26.808  1.00  0.00    -0.206 F 
ATOM     75  C   UNL A   1      36.751  30.114  27.751  1.00  0.00     0.040 A 
ATOM     76  C   UNL A   1      36.378  29.667  30.088  1.00  0.00     0.040 A 
ATOM     77  F   UNL A   1      38.132  28.854  31.421  1.00  0.00    -0.206 F 
ATOM     78  C   UNL A   1      35.899  30.102  28.853  1.00  0.00     0.006 A 
ENDBRANCH  50  71
BRANCH  62  79
ATOM     79  C   UNL A   1      44.420  32.545  30.952  1.00  0.00     0.057 A 
ATOM     80  C   UNL A   1      44.424  32.940  32.296  1.00  0.00     0.134 A 
ATOM     81  C   UNL A   1      44.685  33.525  29.988  1.00  0.00     0.134 A 
ATOM     82  F   UNL A   1      44.163  32.053  33.267  1.00  0.00    -0.206 F 
ATOM     83  C   UNL A   1      44.648  34.269  32.664  1.00  0.00     0.040 A 
ATOM     84  C   UNL A   1      44.938  34.850  30.346  1.00  0.00     0.040 A 
ATOM     85  F   UNL A   1      44.705  33.212  28.684  1.00  0.00    -0.206 F 
ATOM     86  C   UNL A   1      44.910  35.227  31.686  1.00  0.00     0.006 A 
ENDBRANCH  62  79
ENDBRANCH  36  37
ENDBRANCH  28  31
ENDBRANCH  26  27
ENDBRANCH   1  26
TORSDOF 15
ENDMDL
MODEL 2
REMARK VINA RESULT:     -11.2      1.188      6.455
REMARK SMILES CCC1(CC)CCN(C(=O)NC(CC)(CC)C(=O)NCCCNC(=O)c2ccc(-c3c4nc(c(-c5c(F)cccc5F)c5ccc([nH]5)c(-c5c(F)cccc5F)c5nc(c(-c6c(F)cccc6F)c6ccc3[nH]6)C=C5)C=C4)cc2)CC1
REMARK SMILES IDX 21 1 20 2 19 3 17 4 18 5 12 7 11 8 3 9 6 10 81 11 7 12 80 13
REMARK SMILES IDX 8 14 9 15 10 16 2 18 1 19 4 20 5 21 13 22 14 23 15 24 16 25
REMARK SMILES IDX 22 26 23 27 24 28 25 30 26 31 27 32 79 33 28 34 78 35 29 36
REMARK SMILES IDX 30 37 31 38 72 39 32 40 77 41 71 42 73 43 33 44 76 45 70 46
REMARK SMILES IDX 69 47 34 49 60 50 43 51 59 52 44 53 47 54 58 55 74 56 45 57
REMARK SMILES IDX 46 58 57 60 75 61 48 62 35 63 36 64 41 65 37 66 38 67 40 68
REMARK SMILES IDX 42 69 39 70 61 71 62 72 67 73 63 74 64 75 66 76 68 77 65 78
REMARK SMILES IDX 49 79 50 80 55 81 51 82 52 83 54 84 56 85 53 86
REMARK H PARENT 19 6 11 17 23 29 73 48 47 59
REMARK Flexibility Score: inf
ROOT
ATOM      1  C   UNL A   1      37.278  19.780  25.003  1.00  0.00     0.042 C 
ENDROOT
BRANCH   1   2
ATOM      2  C   UNL A   1      36.157  20.715  25.453  1.00  0.00     0.117 C 
BRANCH   2   3
ATOM      3  N   UNL A   1      34.940  20.547  24.675  1.00  0.00    -0.354 N 
ATOM      4  C   UNL A   1      33.737  20.966  25.202  1.00  0.00     0.245 C 
ATOM      5  O   UNL A   1      33.152  20.204  25.967  1.00  0.00    -0.272 OA
ATOM      6  H   UNL A   1      34.976  20.138  23.780  1.00  0.00     0.163 HD
BRANCH   4   7
ATOM      7  C   UNL A   1      33.222  22.382  24.799  1.00  0.00     0.120 C 
BRANCH   7   8
ATOM      8  N   UNL A   1      33.513  22.827  23.400  1.00  0.00    -0.323 N 
ATOM      9  C   UNL A   1      32.767  27.684  23.497  1.00  0.00    -0.027 C 
ATOM     10  C   UNL A   1      33.472  27.116  22.230  1.00  0.00     0.028 C 
ATOM     11  C   UNL A   1      32.376  26.476  24.411  1.00  0.00     0.028 C 
ATOM     12  C   UNL A   1      32.743  25.919  21.593  1.00  0.00     0.122 C 
ATOM     13  C   UNL A   1      31.701  25.312  23.683  1.00  0.00     0.122 C 
ATOM     14  N   UNL A   1      32.534  24.865  22.593  1.00  0.00    -0.325 N 
ATOM     15  C   UNL A   1      33.200  23.694  22.433  1.00  0.00     0.318 C 
ATOM     16  O   UNL A   1      33.676  23.380  21.333  1.00  0.00    -0.249 OA
ATOM     17  H   UNL A   1      34.224  22.243  23.051  1.00  0.00     0.166 HD
BRANCH   9  18
ATOM     18  C   UNL A   1      31.458  28.453  23.157  1.00  0.00     0.004 C 
ATOM     19  C   UNL A   1      30.806  29.278  24.257  1.00  0.00     0.004 C 
ENDBRANCH   9  18
BRANCH   9  20
ATOM     20  C   UNL A   1      33.769  28.540  24.345  1.00  0.00     0.004 C 
ATOM     21  C   UNL A   1      33.980  28.186  25.810  1.00  0.00     0.004 C 
ENDBRANCH   9  20
ENDBRANCH   7   8
BRANCH   7  22
ATOM     22  C   UNL A   1      33.713  23.490  25.789  1.00  0.00     0.035 C 
ATOM     23  C   UNL A   1      35.013  24.201  25.424  1.00  0.00     0.007 C 
ENDBRANCH   7  22
BRANCH   7  24
ATOM     24  C   UNL A   1      31.654  22.213  24.868  1.00  0.00     0.035 C 
ATOM     25  C   UNL A   1      30.979  22.767  26.132  1.00  0.00     0.007 C 
ENDBRANCH   7  24
ENDBRANCH   4   7
ENDBRANCH   2   3
ENDBRANCH   1   2
BRANCH   1  26
ATOM     26  C   UNL A   1      38.670  20.395  25.104  1.00  0.00     0.118 C 
BRANCH  26  27
ATOM     27  N   UNL A   1      39.672  19.418  25.507  1.00  0.00    -0.352 N 
ATOM     28  C   UNL A   1      40.913  19.611  26.058  1.00  0.00     0.251 C 
ATOM     29  H   UNL A   1      39.421  18.477  25.362  1.00  0.00     0.163 HD
ATOM     30  O   UNL A   1      41.711  18.681  26.101  1.00  0.00    -0.269 OA
BRANCH  28  31
ATOM     31  C   UNL A   1      41.297  20.938  26.584  1.00  0.00     0.039 A 
ATOM     32  C   UNL A   1      41.123  21.197  27.945  1.00  0.00     0.014 A 
ATOM     33  C   UNL A   1      41.789  21.936  25.738  1.00  0.00     0.014 A 
ATOM     34  C   UNL A   1      41.486  22.441  28.465  1.00  0.00     0.010 A 
ATOM     35  C   UNL A   1      42.233  23.142  26.271  1.00  0.00     0.010 A 
ATOM     36  C   UNL A   1      42.068  23.415  27.636  1.00  0.00    -0.014 A 
BRANCH  36  37
ATOM     37  C   UNL A   1      42.481  24.732  28.182  1.00  0.00     0.031 A 
ATOM     38  C   UNL A   1      41.466  25.822  28.388  1.00  0.00     0.074 A 
ATOM     39  C   UNL A   1      43.779  24.957  28.462  1.00  0.00     0.049 A 
ATOM     40  N   UNL A   1      41.634  27.031  28.859  1.00  0.00    -0.248 NA
ATOM     41  C   UNL A   1      40.082  25.522  27.986  1.00  0.00     0.031 C 
ATOM     42  C   UNL A   1      44.868  24.001  28.260  1.00  0.00     0.029 A 
ATOM     43  N   UNL A   1      44.400  26.064  28.983  1.00  0.00    -0.354 N 
ATOM     44  C   UNL A   1      40.386  27.637  28.800  1.00  0.00     0.074 A 
ATOM     45  C   UNL A   1      39.483  26.685  28.189  1.00  0.00     0.031 C 
ATOM     46  C   UNL A   1      46.015  24.544  28.696  1.00  0.00     0.029 A 
ATOM     47  C   UNL A   1      45.749  25.896  29.176  1.00  0.00     0.049 A 
ATOM     48  H   UNL A   1      43.924  26.898  29.198  1.00  0.00     0.167 HD
ATOM     49  C   UNL A   1      40.015  28.865  29.237  1.00  0.00     0.037 A 
ATOM     50  C   UNL A   1      46.664  26.735  29.695  1.00  0.00     0.037 A 
ATOM     51  C   UNL A   1      40.909  29.805  29.862  1.00  0.00     0.049 A 
ATOM     52  C   UNL A   1      46.231  28.092  30.172  1.00  0.00     0.074 A 
ATOM     53  C   UNL A   1      40.623  31.051  30.388  1.00  0.00     0.029 A 
ATOM     54  N   UNL A   1      42.269  29.598  30.037  1.00  0.00    -0.354 N 
ATOM     55  N   UNL A   1      45.033  28.626  30.176  1.00  0.00    -0.248 NA
ATOM     56  C   UNL A   1      47.279  28.961  30.725  1.00  0.00     0.031 C 
ATOM     57  C   UNL A   1      41.818  31.617  30.848  1.00  0.00     0.029 A 
ATOM     58  C   UNL A   1      42.840  30.703  30.650  1.00  0.00     0.049 A 
ATOM     59  H   UNL A   1      42.757  28.787  29.769  1.00  0.00     0.167 HD
ATOM     60  C   UNL A   1      45.177  29.877  30.762  1.00  0.00     0.074 A 
ATOM     61  C   UNL A   1      46.576  30.016  31.110  1.00  0.00     0.031 C 
ATOM     62  C   UNL A   1      44.234  30.825  30.993  1.00  0.00     0.037 A 
BRANCH  49  63
ATOM     63  C   UNL A   1      38.575  29.252  29.049  1.00  0.00     0.057 A 
ATOM     64  C   UNL A   1      37.652  29.202  30.103  1.00  0.00     0.134 A 
ATOM     65  C   UNL A   1      38.104  29.680  27.801  1.00  0.00     0.134 A 
ATOM     66  F   UNL A   1      38.032  28.787  31.322  1.00  0.00    -0.206 F 
ATOM     67  C   UNL A   1      36.306  29.522  29.913  1.00  0.00     0.040 A 
ATOM     68  C   UNL A   1      36.767  30.032  27.607  1.00  0.00     0.040 A 
ATOM     69  F   UNL A   1      38.933  29.758  26.750  1.00  0.00    -0.206 F 
ATOM     70  C   UNL A   1      35.862  29.943  28.662  1.00  0.00     0.006 A 
ENDBRANCH  49  63
BRANCH  50  71
ATOM     71  C   UNL A   1      48.072  26.293  29.848  1.00  0.00     0.057 A 
ATOM     72  C   UNL A   1      48.995  26.474  28.809  1.00  0.00     0.134 A 
ATOM     73  C   UNL A   1      48.531  25.684  31.020  1.00  0.00     0.134 A 
ATOM     74  F   UNL A   1      48.608  27.037  27.655  1.00  0.00    -0.206 F 
ATOM     75  C   UNL A   1      50.319  26.050  28.925  1.00  0.00     0.040 A 
ATOM     76  C   UNL A   1      49.859  25.276  31.159  1.00  0.00     0.040 A 
ATOM     77  F   UNL A   1      47.698  25.490  32.053  1.00  0.00    -0.206 F 
ATOM     78  C   UNL A   1      50.755  25.453  30.106  1.00  0.00     0.006 A 
ENDBRANCH  50  71
BRANCH  62  79
ATOM     79  C   UNL A   1      44.685  32.075  31.691  1.00  0.00     0.057 A 
ATOM     80  C   UNL A   1      44.677  32.190  33.088  1.00  0.00     0.134 A 
ATOM     81  C   UNL A   1      45.139  33.176  30.954  1.00  0.00     0.134 A 
ATOM     82  F   UNL A   1      44.240  31.177  33.850  1.00  0.00    -0.206 F 
ATOM     83  C   UNL A   1      45.072  33.368  33.724  1.00  0.00     0.040 A 
ATOM     84  C   UNL A   1      45.563  34.348  31.581  1.00  0.00     0.040 A 
ATOM     85  F   UNL A   1      45.181  33.129  29.614  1.00  0.00    -0.206 F 
ATOM     86  C   UNL A   1      45.521  34.450  32.969  1.00  0.00     0.006 A 
ENDBRANCH  62  79
ENDBRANCH  36  37
ENDBRANCH  28  31
ENDBRANCH  26  27
ENDBRANCH   1  26
TORSDOF 15
ENDMDL
MODEL 3
REMARK VINA RESULT:     -11.2      3.637      8.816
REMARK SMILES CCC1(CC)CCN(C(=O)NC(CC)(CC)C(=O)NCCCNC(=O)c2ccc(-c3c4nc(c(-c5c(F)cccc5F)c5ccc([nH]5)c(-c5c(F)cccc5F)c5nc(c(-c6c(F)cccc6F)c6ccc3[nH]6)C=C5)C=C4)cc2)CC1
REMARK SMILES IDX 21 1 20 2 19 3 17 4 18 5 12 7 11 8 3 9 6 10 81 11 7 12 80 13
REMARK SMILES IDX 8 14 9 15 10 16 2 18 1 19 4 20 5 21 13 22 14 23 15 24 16 25
REMARK SMILES IDX 22 26 23 27 24 28 25 30 26 31 27 32 79 33 28 34 78 35 29 36
REMARK SMILES IDX 30 37 31 38 72 39 32 40 77 41 71 42 73 43 33 44 76 45 70 46
REMARK SMILES IDX 69 47 34 49 60 50 43 51 59 52 44 53 47 54 58 55 74 56 45 57
REMARK SMILES IDX 46 58 57 60 75 61 48 62 35 63 36 64 41 65 37 66 38 67 40 68
REMARK SMILES IDX 42 69 39 70 61 71 62 72 67 73 63 74 64 75 66 76 68 77 65 78
REMARK SMILES IDX 49 79 50 80 55 81 51 82 52 83 54 84 56 85 53 86
REMARK H PARENT 19 6 11 17 23 29 73 48 47 59
REMARK Flexibility Score: inf
ROOT
ATOM      1  C   UNL A   1      31.090  31.339  26.073  1.00  0.00     0.042 C 
ENDROOT
BRANCH   1   2
ATOM      2  C   UNL A   1      31.379  30.092  25.241  1.00  0.00     0.117 C 
BRANCH   2   3
ATOM      3  N   UNL A   1      32.153  29.099  25.967  1.00  0.00    -0.354 N 
ATOM      4  C   UNL A   1      31.508  28.026  26.543  1.00  0.00     0.245 C 
ATOM      5  O   UNL A   1      30.998  28.192  27.649  1.00  0.00    -0.272 OA
ATOM      6  H   UNL A   1      33.130  29.193  26.047  1.00  0.00     0.163 HD
BRANCH   4   7
ATOM      7  C   UNL A   1      31.458  26.691  25.739  1.00  0.00     0.120 C 
BRANCH   7   8
ATOM      8  N   UNL A   1      31.111  25.457  26.511  1.00  0.00    -0.323 N 
ATOM      9  C   UNL A   1      33.093  21.796  23.899  1.00  0.00    -0.027 C 
ATOM     10  C   UNL A   1      32.588  21.435  25.328  1.00  0.00     0.028 C 
ATOM     11  C   UNL A   1      32.727  23.292  23.626  1.00  0.00     0.028 C 
ATOM     12  C   UNL A   1      31.152  21.904  25.620  1.00  0.00     0.122 C 
ATOM     13  C   UNL A   1      31.293  23.680  23.992  1.00  0.00     0.122 C 
ATOM     14  N   UNL A   1      31.032  23.346  25.372  1.00  0.00    -0.325 N 
ATOM     15  C   UNL A   1      30.805  24.159  26.434  1.00  0.00     0.318 C 
ATOM     16  O   UNL A   1      30.365  23.703  27.499  1.00  0.00    -0.249 OA
ATOM     17  H   UNL A   1      31.104  25.702  27.464  1.00  0.00     0.166 HD
BRANCH   9  18
ATOM     18  C   UNL A   1      32.414  20.940  22.792  1.00  0.00     0.004 C 
ATOM     19  C   UNL A   1      32.253  19.447  23.039  1.00  0.00     0.004 C 
ENDBRANCH   9  18
BRANCH   9  20
ATOM     20  C   UNL A   1      34.658  21.733  23.838  1.00  0.00     0.004 C 
ATOM     21  C   UNL A   1      35.425  22.967  23.386  1.00  0.00     0.004 C 
ENDBRANCH   9  20
ENDBRANCH   7   8
BRANCH   7  22
ATOM     22  C   UNL A   1      32.784  26.430  24.949  1.00  0.00     0.035 C 
ATOM     23  C   UNL A   1      33.979  25.946  25.766  1.00  0.00     0.007 C 
ENDBRANCH   7  22
BRANCH   7  24
ATOM     24  C   UNL A   1      30.246  26.923  24.754  1.00  0.00     0.035 C 
ATOM     25  C   UNL A   1      30.618  27.123  23.276  1.00  0.00     0.007 C 
ENDBRANCH   7  24
ENDBRANCH   4   7
ENDBRANCH   2   3
ENDBRANCH   1   2
BRANCH   1  26
ATOM     26  C   UNL A   1      32.286  31.830  26.882  1.00  0.00     0.118 C 
BRANCH  26  27
ATOM     27  N   UNL A   1      32.186  33.246  27.205  1.00  0.00    -0.352 N 
ATOM     28  C   UNL A   1      32.949  34.009  28.052  1.00  0.00     0.251 C 
ATOM     29  H   UNL A   1      31.462  33.729  26.745  1.00  0.00     0.163 HD
ATOM     30  O   UNL A   1      32.560  35.125  28.381  1.00  0.00    -0.269 OA
BRANCH  28  31
ATOM     31  C   UNL A   1      34.225  33.486  28.581  1.00  0.00     0.039 A 
ATOM     32  C   UNL A   1      34.201  32.683  29.724  1.00  0.00     0.014 A 
ATOM     33  C   UNL A   1      35.444  33.814  27.981  1.00  0.00     0.014 A 
ATOM     34  C   UNL A   1      35.395  32.172  30.236  1.00  0.00     0.010 A 
ATOM     35  C   UNL A   1      36.623  33.233  28.439  1.00  0.00     0.010 A 
ATOM     36  C   UNL A   1      36.613  32.422  29.583  1.00  0.00    -0.014 A 
BRANCH  36  37
ATOM     37  C   UNL A   1      37.886  31.863  30.104  1.00  0.00     0.031 A 
ATOM     38  C   UNL A   1      38.568  32.498  31.284  1.00  0.00     0.074 A 
ATOM     39  C   UNL A   1      38.446  30.802  29.492  1.00  0.00     0.049 A 
ATOM     40  N   UNL A   1      39.677  32.150  31.885  1.00  0.00    -0.248 NA
ATOM     41  C   UNL A   1      37.933  33.699  31.849  1.00  0.00     0.031 C 
ATOM     42  C   UNL A   1      37.911  30.128  28.309  1.00  0.00     0.029 A 
ATOM     43  N   UNL A   1      39.588  30.102  29.786  1.00  0.00    -0.354 N 
ATOM     44  C   UNL A   1      39.877  33.092  32.886  1.00  0.00     0.074 A 
ATOM     45  C   UNL A   1      38.810  34.061  32.772  1.00  0.00     0.031 C 
ATOM     46  C   UNL A   1      38.698  29.083  28.006  1.00  0.00     0.029 A 
ATOM     47  C   UNL A   1      39.808  29.035  28.952  1.00  0.00     0.049 A 
ATOM     48  H   UNL A   1      40.192  30.343  30.526  1.00  0.00     0.167 HD
ATOM     49  C   UNL A   1      40.846  33.134  33.832  1.00  0.00     0.037 A 
ATOM     50  C   UNL A   1      40.789  28.113  28.959  1.00  0.00     0.037 A 
ATOM     51  C   UNL A   1      41.898  32.158  33.957  1.00  0.00     0.049 A 
ATOM     52  C   UNL A   1      41.854  28.181  30.016  1.00  0.00     0.074 A 
ATOM     53  C   UNL A   1      42.895  32.079  34.911  1.00  0.00     0.029 A 
ATOM     54  N   UNL A   1      42.088  31.092  33.090  1.00  0.00    -0.354 N 
ATOM     55  N   UNL A   1      41.991  29.036  31.001  1.00  0.00    -0.248 NA
ATOM     56  C   UNL A   1      42.897  27.147  29.966  1.00  0.00     0.031 C 
ATOM     57  C   UNL A   1      43.714  30.987  34.601  1.00  0.00     0.029 A 
ATOM     58  C   UNL A   1      43.198  30.359  33.479  1.00  0.00     0.049 A 
ATOM     59  H   UNL A   1      41.518  30.885  32.315  1.00  0.00     0.167 HD
ATOM     60  C   UNL A   1      43.113  28.623  31.708  1.00  0.00     0.074 A 
ATOM     61  C   UNL A   1      43.611  27.436  31.044  1.00  0.00     0.031 C 
ATOM     62  C   UNL A   1      43.679  29.177  32.809  1.00  0.00     0.037 A 
BRANCH  49  63
ATOM     63  C   UNL A   1      40.804  34.279  34.804  1.00  0.00     0.057 A 
ATOM     64  C   UNL A   1      41.455  35.494  34.544  1.00  0.00     0.134 A 
ATOM     65  C   UNL A   1      40.108  34.169  36.014  1.00  0.00     0.134 A 
ATOM     66  F   UNL A   1      42.152  35.663  33.410  1.00  0.00    -0.206 F 
ATOM     67  C   UNL A   1      41.448  36.540  35.468  1.00  0.00     0.040 A 
ATOM     68  C   UNL A   1      40.070  35.219  36.933  1.00  0.00     0.040 A 
ATOM     69  F   UNL A   1      39.458  33.038  36.326  1.00  0.00    -0.206 F 
ATOM     70  C   UNL A   1      40.751  36.405  36.666  1.00  0.00     0.006 A 
ENDBRANCH  49  63
BRANCH  50  71
ATOM     71  C   UNL A   1      40.776  27.011  27.966  1.00  0.00     0.057 A 
ATOM     72  C   UNL A   1      40.003  25.863  28.183  1.00  0.00     0.134 A 
ATOM     73  C   UNL A   1      41.527  27.071  26.788  1.00  0.00     0.134 A 
ATOM     74  F   UNL A   1      39.276  25.741  29.303  1.00  0.00    -0.206 F 
ATOM     75  C   UNL A   1      39.991  24.806  27.271  1.00  0.00     0.040 A 
ATOM     76  C   UNL A   1      41.507  26.032  25.856  1.00  0.00     0.040 A 
ATOM     77  F   UNL A   1      42.281  28.147  26.520  1.00  0.00    -0.206 F 
ATOM     78  C   UNL A   1      40.742  24.893  26.100  1.00  0.00     0.006 A 
ENDBRANCH  50  71
BRANCH  62  79
ATOM     79  C   UNL A   1      44.876  28.476  33.383  1.00  0.00     0.057 A 
ATOM     80  C   UNL A   1      44.752  27.450  34.330  1.00  0.00     0.134 A 
ATOM     81  C   UNL A   1      46.169  28.829  32.977  1.00  0.00     0.134 A 
ATOM     82  F   UNL A   1      43.543  27.075  34.772  1.00  0.00    -0.206 F 
ATOM     83  C   UNL A   1      45.874  26.824  34.877  1.00  0.00     0.040 A 
ATOM     84  C   UNL A   1      47.296  28.191  33.496  1.00  0.00     0.040 A 
ATOM     85  F   UNL A   1      46.357  29.796  32.067  1.00  0.00    -0.206 F 
ATOM     86  C   UNL A   1      47.150  27.193  34.456  1.00  0.00     0.006 A 
ENDBRANCH  62  79
ENDBRANCH  36  37
ENDBRANCH  28  31
ENDBRANCH  26  27
ENDBRANCH   1  26
TORSDOF 15
ENDMDL
