MODEL 1
REMARK VINA RESULT:     -11.6      0.000      0.000
REMARK SMILES Cc1ccc([C@@H](C)[N@@H+]2CCO[C@H](CC(=O)NCCCNC(=O)c3ccc(-c4c5nc(c(-c6c(F)cccc6F)c6ccc([nH]6)c(-c6c(F)cccc6F)c6nc(c(-c7c(F)cccc7F)c7ccc4[nH]7)C=C6)C=C5)cc3)C2)o1
REMARK SMILES IDX 17 1 16 2 14 3 15 4 13 6 12 7 8 8 9 9 77 10 10 12 11 13 6 14
REMARK SMILES IDX 7 15 5 16 1 17 2 18 3 19 78 20 4 21 18 22 19 23 20 24 21 25
REMARK SMILES IDX 22 27 23 28 24 29 76 30 25 31 75 32 26 33 27 34 28 35 69 36
REMARK SMILES IDX 29 37 74 38 68 39 70 40 30 41 73 42 67 43 66 44 31 46 57 47
REMARK SMILES IDX 40 48 56 49 41 50 44 51 55 52 71 53 42 54 43 55 54 57 72 58
REMARK SMILES IDX 45 59 32 60 33 61 38 62 34 63 35 64 37 65 39 66 36 67 58 68
REMARK SMILES IDX 59 69 64 70 60 71 61 72 63 73 65 74 62 75 46 76 47 77 52 78
REMARK SMILES IDX 48 79 49 80 51 81 53 82 50 83
REMARK H PARENT 16 5 8 11 20 26 70 45 44 56
REMARK Flexibility Score: inf
ROOT
ATOM      1  C   UNL A   1      31.733  30.714  26.326  1.00  0.00     0.117 C 
ENDROOT
BRANCH   1   2
ATOM      2  N   UNL A   1      33.125  30.388  26.537  1.00  0.00    -0.356 N 
ATOM      3  C   UNL A   1      33.705  29.154  26.452  1.00  0.00     0.222 C 
ATOM      4  O   UNL A   1      34.863  29.023  26.853  1.00  0.00    -0.275 OA
ATOM      5  H   UNL A   1      33.722  31.137  26.766  1.00  0.00     0.163 HD
BRANCH   3   6
ATOM      6  C   UNL A   1      32.991  28.034  25.732  1.00  0.00     0.138 C 
BRANCH   6   7
ATOM      7  C   UNL A   1      33.277  27.732  24.259  1.00  0.00     0.182 C 
ATOM      8  N   UNL A   1      31.288  28.463  22.792  1.00  0.00    -0.322 N 
ATOM      9  C   UNL A   1      31.353  27.160  22.152  1.00  0.00     0.291 C 
ATOM     10  C   UNL A   1      32.591  28.802  23.364  1.00  0.00     0.295 C 
ATOM     11  H   UNL A   1      31.155  29.196  22.094  1.00  0.00     0.348 HD
ATOM     12  C   UNL A   1      31.875  26.083  23.089  1.00  0.00     0.222 C 
ATOM     13  O   UNL A   1      33.071  26.386  23.813  1.00  0.00    -0.366 OA
BRANCH   8  14
ATOM     14  C   UNL A   1      30.018  28.857  23.425  1.00  0.00     0.248 C 
ATOM     15  C   UNL A   1      28.972  27.742  23.302  1.00  0.00     0.084 C 
BRANCH  14  16
ATOM     16  C   UNL A   1      29.404  30.196  23.093  1.00  0.00     0.161 A 
ATOM     17  C   UNL A   1      28.026  32.104  20.385  1.00  0.00     0.087 C 
ATOM     18  C   UNL A   1      28.417  31.638  21.734  1.00  0.00     0.101 A 
ATOM     19  C   UNL A   1      28.404  32.217  22.983  1.00  0.00     0.046 A 
ATOM     20  O   UNL A   1      28.962  30.392  21.811  1.00  0.00    -0.460 OA
ATOM     21  C   UNL A   1      29.040  31.293  23.856  1.00  0.00     0.052 A 
ENDBRANCH  14  16
ENDBRANCH   8  14
ENDBRANCH   6   7
ENDBRANCH   3   6
ENDBRANCH   1   2
BRANCH   1  22
ATOM     22  C   UNL A   1      31.455  32.144  26.760  1.00  0.00     0.042 C 
BRANCH  22  23
ATOM     23  C   UNL A   1      32.710  32.827  27.247  1.00  0.00     0.118 C 
BRANCH  23  24
ATOM     24  N   UNL A   1      32.453  34.214  27.626  1.00  0.00    -0.352 N 
ATOM     25  C   UNL A   1      33.048  34.949  28.630  1.00  0.00     0.251 C 
ATOM     26  H   UNL A   1      31.768  34.683  27.097  1.00  0.00     0.163 HD
ATOM     27  O   UNL A   1      32.583  36.025  28.970  1.00  0.00    -0.269 OA
BRANCH  25  28
ATOM     28  C   UNL A   1      34.239  34.392  29.314  1.00  0.00     0.039 A 
ATOM     29  C   UNL A   1      34.077  33.643  30.480  1.00  0.00     0.014 A 
ATOM     30  C   UNL A   1      35.508  34.561  28.759  1.00  0.00     0.014 A 
ATOM     31  C   UNL A   1      35.184  33.002  31.045  1.00  0.00     0.010 A 
ATOM     32  C   UNL A   1      36.573  33.815  29.238  1.00  0.00     0.010 A 
ATOM     33  C   UNL A   1      36.433  33.049  30.402  1.00  0.00    -0.014 A 
BRANCH  33  34
ATOM     34  C   UNL A   1      37.623  32.342  30.939  1.00  0.00     0.031 A 
ATOM     35  C   UNL A   1      38.286  32.848  32.193  1.00  0.00     0.074 A 
ATOM     36  C   UNL A   1      38.167  31.319  30.255  1.00  0.00     0.049 A 
ATOM     37  N   UNL A   1      39.392  32.446  32.768  1.00  0.00    -0.248 NA
ATOM     38  C   UNL A   1      37.647  33.993  32.863  1.00  0.00     0.031 C 
ATOM     39  C   UNL A   1      37.673  30.786  28.984  1.00  0.00     0.029 A 
ATOM     40  N   UNL A   1      39.271  30.550  30.529  1.00  0.00    -0.354 N 
ATOM     41  C   UNL A   1      39.596  33.313  33.835  1.00  0.00     0.074 A 
ATOM     42  C   UNL A   1      38.544  34.302  33.785  1.00  0.00     0.031 C 
ATOM     43  C   UNL A   1      38.452  29.761  28.604  1.00  0.00     0.029 A 
ATOM     44  C   UNL A   1      39.519  29.586  29.583  1.00  0.00     0.049 A 
ATOM     45  H   UNL A   1      39.832  30.677  31.328  1.00  0.00     0.167 HD
ATOM     46  C   UNL A   1      40.552  33.270  34.792  1.00  0.00     0.037 A 
ATOM     47  C   UNL A   1      40.501  28.667  29.513  1.00  0.00     0.037 A 
ATOM     48  C   UNL A   1      41.565  32.253  34.866  1.00  0.00     0.049 A 
ATOM     49  C   UNL A   1      41.525  28.601  30.610  1.00  0.00     0.074 A 
ATOM     50  C   UNL A   1      42.522  32.057  35.846  1.00  0.00     0.029 A 
ATOM     51  N   UNL A   1      41.750  31.256  33.919  1.00  0.00    -0.354 N 
ATOM     52  N   UNL A   1      41.654  29.368  31.665  1.00  0.00    -0.248 NA
ATOM     53  C   UNL A   1      42.530  27.534  30.515  1.00  0.00     0.031 C 
ATOM     54  C   UNL A   1      43.313  30.967  35.468  1.00  0.00     0.029 A 
ATOM     55  C   UNL A   1      42.819  30.454  34.280  1.00  0.00     0.049 A 
ATOM     56  H   UNL A   1      41.202  31.137  33.110  1.00  0.00     0.167 HD
ATOM     57  C   UNL A   1      42.740  28.868  32.371  1.00  0.00     0.074 A 
ATOM     58  C   UNL A   1      43.223  27.720  31.630  1.00  0.00     0.031 C 
ATOM     59  C   UNL A   1      43.286  29.316  33.528  1.00  0.00     0.037 A 
BRANCH  46  60
ATOM     60  C   UNL A   1      40.533  34.357  35.830  1.00  0.00     0.057 A 
ATOM     61  C   UNL A   1      39.767  34.254  37.000  1.00  0.00     0.134 A 
ATOM     62  C   UNL A   1      41.278  35.528  35.650  1.00  0.00     0.134 A 
ATOM     63  F   UNL A   1      39.018  33.165  37.229  1.00  0.00    -0.206 F 
ATOM     64  C   UNL A   1      39.706  35.295  37.929  1.00  0.00     0.040 A 
ATOM     65  C   UNL A   1      41.251  36.562  36.587  1.00  0.00     0.040 A 
ATOM     66  F   UNL A   1      42.038  35.692  34.557  1.00  0.00    -0.206 F 
ATOM     67  C   UNL A   1      40.453  36.452  37.725  1.00  0.00     0.006 A 
ENDBRANCH  46  60
BRANCH  47  68
ATOM     68  C   UNL A   1      40.528  27.710  28.379  1.00  0.00     0.057 A 
ATOM     69  C   UNL A   1      39.809  26.510  28.431  1.00  0.00     0.134 A 
ATOM     70  C   UNL A   1      41.240  27.985  27.205  1.00  0.00     0.134 A 
ATOM     71  F   UNL A   1      39.121  26.183  29.535  1.00  0.00    -0.206 F 
ATOM     72  C   UNL A   1      39.804  25.612  27.362  1.00  0.00     0.040 A 
ATOM     73  C   UNL A   1      41.226  27.108  26.119  1.00  0.00     0.040 A 
ATOM     74  F   UNL A   1      41.939  29.124  27.088  1.00  0.00    -0.206 F 
ATOM     75  C   UNL A   1      40.508  25.916  26.198  1.00  0.00     0.006 A 
ENDBRANCH  47  68
BRANCH  59  76
ATOM     76  C   UNL A   1      44.453  28.550  34.078  1.00  0.00     0.057 A 
ATOM     77  C   UNL A   1      45.776  28.902  33.783  1.00  0.00     0.134 A 
ATOM     78  C   UNL A   1      44.249  27.472  34.951  1.00  0.00     0.134 A 
ATOM     79  F   UNL A   1      46.038  29.916  32.944  1.00  0.00    -0.206 F 
ATOM     80  C   UNL A   1      46.854  28.197  34.318  1.00  0.00     0.040 A 
ATOM     81  C   UNL A   1      45.319  26.777  35.513  1.00  0.00     0.040 A 
ATOM     82  F   UNL A   1      43.007  27.090  35.282  1.00  0.00    -0.206 F 
ATOM     83  C   UNL A   1      46.627  27.135  35.193  1.00  0.00     0.006 A 
ENDBRANCH  59  76
ENDBRANCH  33  34
ENDBRANCH  25  28
ENDBRANCH  23  24
ENDBRANCH  22  23
ENDBRANCH   1  22
TORSDOF 13
ENDMDL
MODEL 2
REMARK VINA RESULT:     -11.6      0.793      6.329
REMARK SMILES Cc1ccc([C@@H](C)[N@@H+]2CCO[C@H](CC(=O)NCCCNC(=O)c3ccc(-c4c5nc(c(-c6c(F)cccc6F)c6ccc([nH]6)c(-c6c(F)cccc6F)c6nc(c(-c7c(F)cccc7F)c7ccc4[nH]7)C=C6)C=C5)cc3)C2)o1
REMARK SMILES IDX 17 1 16 2 14 3 15 4 13 6 12 7 8 8 9 9 77 10 10 12 11 13 6 14
REMARK SMILES IDX 7 15 5 16 1 17 2 18 3 19 78 20 4 21 18 22 19 23 20 24 21 25
REMARK SMILES IDX 22 27 23 28 24 29 76 30 25 31 75 32 26 33 27 34 28 35 69 36
REMARK SMILES IDX 29 37 74 38 68 39 70 40 30 41 73 42 67 43 66 44 31 46 57 47
REMARK SMILES IDX 40 48 56 49 41 50 44 51 55 52 71 53 42 54 43 55 54 57 72 58
REMARK SMILES IDX 45 59 32 60 33 61 38 62 34 63 35 64 37 65 39 66 36 67 58 68
REMARK SMILES IDX 59 69 64 70 60 71 61 72 63 73 65 74 62 75 46 76 47 77 52 78
REMARK SMILES IDX 48 79 49 80 51 81 53 82 50 83
REMARK H PARENT 16 5 8 11 20 26 70 45 44 56
REMARK Flexibility Score: inf
ROOT
ATOM      1  C   UNL A   1      31.825  30.625  26.501  1.00  0.00     0.117 C 
ENDROOT
BRANCH   1   2
ATOM      2  N   UNL A   1      33.235  30.374  26.695  1.00  0.00    -0.356 N 
ATOM      3  C   UNL A   1      33.888  29.182  26.559  1.00  0.00     0.222 C 
ATOM      4  O   UNL A   1      35.053  29.106  26.952  1.00  0.00    -0.275 OA
ATOM      5  H   UNL A   1      33.786  31.149  26.952  1.00  0.00     0.163 HD
BRANCH   3   6
ATOM      6  C   UNL A   1      33.238  28.050  25.797  1.00  0.00     0.138 C 
BRANCH   6   7
ATOM      7  C   UNL A   1      33.550  27.812  24.318  1.00  0.00     0.182 C 
ATOM      8  N   UNL A   1      31.543  28.510  22.857  1.00  0.00    -0.322 N 
ATOM      9  C   UNL A   1      31.669  27.234  22.173  1.00  0.00     0.291 C 
ATOM     10  C   UNL A   1      32.826  28.883  23.453  1.00  0.00     0.295 C 
ATOM     11  H   UNL A   1      31.385  29.260  22.184  1.00  0.00     0.348 HD
ATOM     12  C   UNL A   1      32.229  26.148  23.078  1.00  0.00     0.222 C 
ATOM     13  O   UNL A   1      33.405  26.476  23.824  1.00  0.00    -0.366 OA
BRANCH   8  14
ATOM     14  C   UNL A   1      30.252  28.826  23.491  1.00  0.00     0.248 C 
ATOM     15  C   UNL A   1      29.265  27.662  23.343  1.00  0.00     0.084 C 
BRANCH  14  16
ATOM     16  C   UNL A   1      29.571  30.138  23.180  1.00  0.00     0.161 A 
ATOM     17  C   UNL A   1      28.059  31.998  20.512  1.00  0.00     0.087 C 
ATOM     18  C   UNL A   1      28.495  31.542  21.850  1.00  0.00     0.101 A 
ATOM     19  C   UNL A   1      28.479  32.112  23.103  1.00  0.00     0.046 A 
ATOM     20  O   UNL A   1      29.098  30.322  21.907  1.00  0.00    -0.460 OA
ATOM     21  C   UNL A   1      29.172  31.213  23.958  1.00  0.00     0.052 A 
ENDBRANCH  14  16
ENDBRANCH   8  14
ENDBRANCH   6   7
ENDBRANCH   3   6
ENDBRANCH   1   2
BRANCH   1  22
ATOM     22  C   UNL A   1      31.487  32.058  26.876  1.00  0.00     0.042 C 
BRANCH  22  23
ATOM     23  C   UNL A   1      32.693  32.786  27.419  1.00  0.00     0.118 C 
BRANCH  23  24
ATOM     24  N   UNL A   1      32.422  34.209  27.605  1.00  0.00    -0.352 N 
ATOM     25  C   UNL A   1      32.977  35.070  28.529  1.00  0.00     0.251 C 
ATOM     26  H   UNL A   1      31.758  34.603  26.994  1.00  0.00     0.163 HD
ATOM     27  O   UNL A   1      32.500  36.179  28.709  1.00  0.00    -0.269 OA
BRANCH  25  28
ATOM     28  C   UNL A   1      34.140  34.611  29.324  1.00  0.00     0.039 A 
ATOM     29  C   UNL A   1      33.937  34.063  30.591  1.00  0.00     0.014 A 
ATOM     30  C   UNL A   1      35.425  34.668  28.782  1.00  0.00     0.014 A 
ATOM     31  C   UNL A   1      35.017  33.504  31.280  1.00  0.00     0.010 A 
ATOM     32  C   UNL A   1      36.464  33.992  29.403  1.00  0.00     0.010 A 
ATOM     33  C   UNL A   1      36.281  33.426  30.671  1.00  0.00    -0.014 A 
BRANCH  33  34
ATOM     34  C   UNL A   1      37.444  32.796  31.345  1.00  0.00     0.031 A 
ATOM     35  C   UNL A   1      38.135  31.625  30.697  1.00  0.00     0.074 A 
ATOM     36  C   UNL A   1      37.816  33.202  32.573  1.00  0.00     0.049 A 
ATOM     37  N   UNL A   1      39.095  30.866  31.162  1.00  0.00    -0.248 NA
ATOM     38  C   UNL A   1      37.646  31.222  29.368  1.00  0.00     0.031 C 
ATOM     39  C   UNL A   1      37.177  34.268  33.347  1.00  0.00     0.029 A 
ATOM     40  N   UNL A   1      38.819  32.752  33.395  1.00  0.00    -0.354 N 
ATOM     41  C   UNL A   1      39.290  29.879  30.203  1.00  0.00     0.074 A 
ATOM     42  C   UNL A   1      38.305  30.092  29.168  1.00  0.00     0.031 C 
ATOM     43  C   UNL A   1      37.821  34.409  34.517  1.00  0.00     0.029 A 
ATOM     44  C   UNL A   1      38.892  33.422  34.592  1.00  0.00     0.049 A 
ATOM     45  H   UNL A   1      39.428  32.018  33.151  1.00  0.00     0.167 HD
ATOM     46  C   UNL A   1      40.228  28.903  30.168  1.00  0.00     0.037 A 
ATOM     47  C   UNL A   1      39.729  33.256  35.633  1.00  0.00     0.037 A 
ATOM     48  C   UNL A   1      41.239  28.729  31.175  1.00  0.00     0.049 A 
ATOM     49  C   UNL A   1      40.797  32.201  35.556  1.00  0.00     0.074 A 
ATOM     50  C   UNL A   1      42.296  27.837  31.191  1.00  0.00     0.029 A 
ATOM     51  N   UNL A   1      41.317  29.466  32.348  1.00  0.00    -0.354 N 
ATOM     52  N   UNL A   1      41.032  31.333  34.602  1.00  0.00    -0.248 NA
ATOM     53  C   UNL A   1      41.724  32.112  36.692  1.00  0.00     0.031 C 
ATOM     54  C   UNL A   1      42.988  28.006  32.395  1.00  0.00     0.029 A 
ATOM     55  C   UNL A   1      42.392  29.035  33.105  1.00  0.00     0.049 A 
ATOM     56  H   UNL A   1      40.698  30.188  32.603  1.00  0.00     0.167 HD
ATOM     57  C   UNL A   1      42.143  30.608  35.010  1.00  0.00     0.074 A 
ATOM     58  C   UNL A   1      42.544  31.150  36.293  1.00  0.00     0.031 C 
ATOM     59  C   UNL A   1      42.775  29.587  34.381  1.00  0.00     0.037 A 
BRANCH  46  60
ATOM     60  C   UNL A   1      40.194  27.962  28.997  1.00  0.00     0.057 A 
ATOM     61  C   UNL A   1      39.485  26.753  29.035  1.00  0.00     0.134 A 
ATOM     62  C   UNL A   1      40.893  28.261  27.821  1.00  0.00     0.134 A 
ATOM     63  F   UNL A   1      38.806  26.397  30.137  1.00  0.00    -0.206 F 
ATOM     64  C   UNL A   1      39.510  25.855  27.966  1.00  0.00     0.040 A 
ATOM     65  C   UNL A   1      40.898  27.386  26.733  1.00  0.00     0.040 A 
ATOM     66  F   UNL A   1      41.588  29.403  27.712  1.00  0.00    -0.206 F 
ATOM     67  C   UNL A   1      40.216  26.174  26.809  1.00  0.00     0.006 A 
ENDBRANCH  46  60
BRANCH  47  68
ATOM     68  C   UNL A   1      39.611  34.143  36.817  1.00  0.00     0.057 A 
ATOM     69  C   UNL A   1      38.856  33.761  37.931  1.00  0.00     0.134 A 
ATOM     70  C   UNL A   1      40.276  35.373  36.879  1.00  0.00     0.134 A 
ATOM     71  F   UNL A   1      38.183  32.601  37.925  1.00  0.00    -0.206 F 
ATOM     72  C   UNL A   1      38.757  34.574  39.062  1.00  0.00     0.040 A 
ATOM     73  C   UNL A   1      40.206  36.186  38.012  1.00  0.00     0.040 A 
ATOM     74  F   UNL A   1      41.026  35.791  35.848  1.00  0.00    -0.206 F 
ATOM     75  C   UNL A   1      39.441  35.787  39.107  1.00  0.00     0.006 A 
ENDBRANCH  47  68
BRANCH  59  76
ATOM     76  C   UNL A   1      43.982  29.005  35.057  1.00  0.00     0.057 A 
ATOM     77  C   UNL A   1      43.882  27.948  35.969  1.00  0.00     0.134 A 
ATOM     78  C   UNL A   1      45.265  29.483  34.757  1.00  0.00     0.134 A 
ATOM     79  F   UNL A   1      42.680  27.454  36.308  1.00  0.00    -0.206 F 
ATOM     80  C   UNL A   1      45.012  27.399  36.575  1.00  0.00     0.040 A 
ATOM     81  C   UNL A   1      46.404  28.924  35.336  1.00  0.00     0.040 A 
ATOM     82  F   UNL A   1      45.430  30.488  33.884  1.00  0.00    -0.206 F 
ATOM     83  C   UNL A   1      46.280  27.882  36.252  1.00  0.00     0.006 A 
ENDBRANCH  59  76
ENDBRANCH  33  34
ENDBRANCH  25  28
ENDBRANCH  23  24
ENDBRANCH  22  23
ENDBRANCH   1  22
TORSDOF 13
ENDMDL
MODEL 3
REMARK VINA RESULT:     -11.6      0.728      6.380
REMARK SMILES Cc1ccc([C@@H](C)[N@@H+]2CCO[C@H](CC(=O)NCCCNC(=O)c3ccc(-c4c5nc(c(-c6c(F)cccc6F)c6ccc([nH]6)c(-c6c(F)cccc6F)c6nc(c(-c7c(F)cccc7F)c7ccc4[nH]7)C=C6)C=C5)cc3)C2)o1
REMARK SMILES IDX 17 1 16 2 14 3 15 4 13 6 12 7 8 8 9 9 77 10 10 12 11 13 6 14
REMARK SMILES IDX 7 15 5 16 1 17 2 18 3 19 78 20 4 21 18 22 19 23 20 24 21 25
REMARK SMILES IDX 22 27 23 28 24 29 76 30 25 31 75 32 26 33 27 34 28 35 69 36
REMARK SMILES IDX 29 37 74 38 68 39 70 40 30 41 73 42 67 43 66 44 31 46 57 47
REMARK SMILES IDX 40 48 56 49 41 50 44 51 55 52 71 53 42 54 43 55 54 57 72 58
REMARK SMILES IDX 45 59 32 60 33 61 38 62 34 63 35 64 37 65 39 66 36 67 58 68
REMARK SMILES IDX 59 69 64 70 60 71 61 72 63 73 65 74 62 75 46 76 47 77 52 78
REMARK SMILES IDX 48 79 49 80 51 81 53 82 50 83
REMARK H PARENT 16 5 8 11 20 26 70 45 44 56
REMARK Flexibility Score: inf
ROOT
ATOM      1  C   UNL A   1      31.767  30.602  26.717  1.00  0.00     0.117 C 
ENDROOT
BRANCH   1   2
ATOM      2  N   UNL A   1      33.191  30.404  26.860  1.00  0.00    -0.356 N 
ATOM      3  C   UNL A   1      33.885  29.241  26.680  1.00  0.00     0.222 C 
ATOM      4  O   UNL A   1      35.064  29.204  27.034  1.00  0.00    -0.275 OA
ATOM      5  H   UNL A   1      33.720  31.194  27.116  1.00  0.00     0.163 HD
BRANCH   3   6
ATOM      6  C   UNL A   1      33.255  28.099  25.917  1.00  0.00     0.138 C 
BRANCH   6   7
ATOM      7  C   UNL A   1      33.592  27.851  24.445  1.00  0.00     0.182 C 
ATOM      8  N   UNL A   1      31.597  28.504  22.948  1.00  0.00    -0.322 N 
ATOM      9  C   UNL A   1      31.753  27.224  22.279  1.00  0.00     0.291 C 
ATOM     10  C   UNL A   1      32.865  28.903  23.559  1.00  0.00     0.295 C 
ATOM     11  H   UNL A   1      31.438  29.245  22.265  1.00  0.00     0.348 HD
ATOM     12  C   UNL A   1      32.315  26.155  23.202  1.00  0.00     0.222 C 
ATOM     13  O   UNL A   1      33.475  26.508  23.962  1.00  0.00    -0.366 OA
BRANCH   8  14
ATOM     14  C   UNL A   1      30.292  28.807  23.560  1.00  0.00     0.248 C 
ATOM     15  C   UNL A   1      29.321  27.632  23.397  1.00  0.00     0.084 C 
BRANCH  14  16
ATOM     16  C   UNL A   1      29.602  30.111  23.234  1.00  0.00     0.161 A 
ATOM     17  C   UNL A   1      28.097  31.941  20.541  1.00  0.00     0.087 C 
ATOM     18  C   UNL A   1      28.525  31.497  21.886  1.00  0.00     0.101 A 
ATOM     19  C   UNL A   1      28.492  32.073  23.136  1.00  0.00     0.046 A 
ATOM     20  O   UNL A   1      29.139  30.283  21.957  1.00  0.00    -0.460 OA
ATOM     21  C   UNL A   1      29.185  31.186  24.002  1.00  0.00     0.052 A 
ENDBRANCH  14  16
ENDBRANCH   8  14
ENDBRANCH   6   7
ENDBRANCH   3   6
ENDBRANCH   1   2
BRANCH   1  22
ATOM     22  C   UNL A   1      31.421  32.075  26.858  1.00  0.00     0.042 C 
BRANCH  22  23
ATOM     23  C   UNL A   1      32.661  32.936  26.847  1.00  0.00     0.118 C 
BRANCH  23  24
ATOM     24  N   UNL A   1      32.457  34.181  27.583  1.00  0.00    -0.352 N 
ATOM     25  C   UNL A   1      33.117  34.626  28.710  1.00  0.00     0.251 C 
ATOM     26  H   UNL A   1      31.759  34.778  27.230  1.00  0.00     0.163 HD
ATOM     27  O   UNL A   1      32.695  35.582  29.339  1.00  0.00    -0.269 OA
BRANCH  25  28
ATOM     28  C   UNL A   1      34.326  33.898  29.163  1.00  0.00     0.039 A 
ATOM     29  C   UNL A   1      35.590  34.407  28.865  1.00  0.00     0.014 A 
ATOM     30  C   UNL A   1      34.198  32.745  29.939  1.00  0.00     0.014 A 
ATOM     31  C   UNL A   1      36.723  33.797  29.412  1.00  0.00     0.010 A 
ATOM     32  C   UNL A   1      35.308  32.228  30.590  1.00  0.00     0.010 A 
ATOM     33  C   UNL A   1      36.587  32.728  30.314  1.00  0.00    -0.014 A 
BRANCH  33  34
ATOM     34  C   UNL A   1      37.759  32.083  30.956  1.00  0.00     0.031 A 
ATOM     35  C   UNL A   1      38.502  30.994  30.228  1.00  0.00     0.074 A 
ATOM     36  C   UNL A   1      38.094  32.397  32.221  1.00  0.00     0.049 A 
ATOM     37  N   UNL A   1      39.480  30.232  30.647  1.00  0.00    -0.248 NA
ATOM     38  C   UNL A   1      38.051  30.688  28.860  1.00  0.00     0.031 C 
ATOM     39  C   UNL A   1      37.404  33.372  33.068  1.00  0.00     0.029 A 
ATOM     40  N   UNL A   1      39.097  31.914  33.023  1.00  0.00    -0.354 N 
ATOM     41  C   UNL A   1      39.727  29.336  29.614  1.00  0.00     0.074 A 
ATOM     42  C   UNL A   1      38.753  29.602  28.580  1.00  0.00     0.031 C 
ATOM     43  C   UNL A   1      38.022  33.436  34.258  1.00  0.00     0.029 A 
ATOM     44  C   UNL A   1      39.126  32.483  34.273  1.00  0.00     0.049 A 
ATOM     45  H   UNL A   1      39.736  31.224  32.731  1.00  0.00     0.167 HD
ATOM     46  C   UNL A   1      40.699  28.399  29.517  1.00  0.00     0.037 A 
ATOM     47  C   UNL A   1      39.950  32.258  35.314  1.00  0.00     0.037 A 
ATOM     48  C   UNL A   1      41.697  28.175  30.527  1.00  0.00     0.049 A 
ATOM     49  C   UNL A   1      41.055  31.251  35.172  1.00  0.00     0.074 A 
ATOM     50  C   UNL A   1      42.784  27.321  30.491  1.00  0.00     0.029 A 
ATOM     51  N   UNL A   1      41.728  28.813  31.758  1.00  0.00    -0.354 N 
ATOM     52  N   UNL A   1      41.337  30.474  34.154  1.00  0.00    -0.248 NA
ATOM     53  C   UNL A   1      41.964  31.098  36.316  1.00  0.00     0.031 C 
ATOM     54  C   UNL A   1      43.449  27.411  31.718  1.00  0.00     0.029 A 
ATOM     55  C   UNL A   1      42.805  28.356  32.500  1.00  0.00     0.049 A 
ATOM     56  H   UNL A   1      41.080  29.490  32.060  1.00  0.00     0.167 HD
ATOM     57  C   UNL A   1      42.466  29.755  34.523  1.00  0.00     0.074 A 
ATOM     58  C   UNL A   1      42.825  30.200  35.855  1.00  0.00     0.031 C 
ATOM     59  C   UNL A   1      43.145  28.812  33.824  1.00  0.00     0.037 A 
BRANCH  46  60
ATOM     60  C   UNL A   1      40.719  27.558  28.272  1.00  0.00     0.057 A 
ATOM     61  C   UNL A   1      40.020  26.347  28.181  1.00  0.00     0.134 A 
ATOM     62  C   UNL A   1      41.460  27.958  27.153  1.00  0.00     0.134 A 
ATOM     63  F   UNL A   1      39.301  25.896  29.221  1.00  0.00    -0.206 F 
ATOM     64  C   UNL A   1      40.095  25.541  27.043  1.00  0.00     0.040 A 
ATOM     65  C   UNL A   1      41.516  27.178  25.997  1.00  0.00     0.040 A 
ATOM     66  F   UNL A   1      42.149  29.109  27.167  1.00  0.00    -0.206 F 
ATOM     67  C   UNL A   1      40.842  25.959  25.945  1.00  0.00     0.006 A 
ENDBRANCH  46  60
BRANCH  47  68
ATOM     68  C   UNL A   1      39.779  33.039  36.565  1.00  0.00     0.057 A 
ATOM     69  C   UNL A   1      40.502  34.217  36.783  1.00  0.00     0.134 A 
ATOM     70  C   UNL A   1      38.867  32.649  37.552  1.00  0.00     0.134 A 
ATOM     71  F   UNL A   1      41.403  34.633  35.881  1.00  0.00    -0.206 F 
ATOM     72  C   UNL A   1      40.333  34.976  37.943  1.00  0.00     0.040 A 
ATOM     73  C   UNL A   1      38.670  33.410  38.706  1.00  0.00     0.040 A 
ATOM     74  F   UNL A   1      38.134  31.537  37.397  1.00  0.00    -0.206 F 
ATOM     75  C   UNL A   1      39.408  34.576  38.905  1.00  0.00     0.006 A 
ENDBRANCH  47  68
BRANCH  59  76
ATOM     76  C   UNL A   1      44.359  28.217  34.475  1.00  0.00     0.057 A 
ATOM     77  C   UNL A   1      44.288  27.054  35.250  1.00  0.00     0.134 A 
ATOM     78  C   UNL A   1      45.623  28.793  34.284  1.00  0.00     0.134 A 
ATOM     79  F   UNL A   1      43.106  26.461  35.480  1.00  0.00    -0.206 F 
ATOM     80  C   UNL A   1      45.427  26.496  35.831  1.00  0.00     0.040 A 
ATOM     81  C   UNL A   1      46.772  28.229  34.838  1.00  0.00     0.040 A 
ATOM     82  F   UNL A   1      45.760  29.903  33.544  1.00  0.00    -0.206 F 
ATOM     83  C   UNL A   1      46.675  27.079  35.619  1.00  0.00     0.006 A 
ENDBRANCH  59  76
ENDBRANCH  33  34
ENDBRANCH  25  28
ENDBRANCH  23  24
ENDBRANCH  22  23
ENDBRANCH   1  22
TORSDOF 13
ENDMDL
