MODEL 1
REMARK VINA RESULT:     -11.3      0.000      0.000
REMARK SMILES CC1(C)OC(=O)C(/C=N/[C@@H](CCC(N)=O)C(=O)NCCCNC(=O)c2ccc(-c3c4nc(c(-c5c(F)cccc5F)c5ccc([nH]5)c(-c5c(F)cccc5F)c5nc(c(-c6c(F)cccc6F)c6ccc3[nH]6)C=C5)C=C4)cc2)C(=O)O1
REMARK SMILES IDX 19 1 18 2 16 3 17 4 10 6 9 7 8 8 7 9 1 10 2 11 3 12 4 13
REMARK SMILES IDX 81 14 5 15 79 16 6 17 80 18 11 19 12 20 13 21 14 22 15 23
REMARK SMILES IDX 20 26 21 27 22 28 23 29 24 31 25 32 26 33 78 34 27 35 77 36
REMARK SMILES IDX 28 37 29 38 30 39 71 40 31 41 76 42 70 43 72 44 32 45 75 46
REMARK SMILES IDX 69 47 68 48 33 50 59 51 42 52 58 53 43 54 46 55 57 56 73 57
REMARK SMILES IDX 44 58 45 59 56 61 74 62 47 63 34 64 35 65 40 66 36 67 37 68
REMARK SMILES IDX 39 69 41 70 38 71 60 72 61 73 66 74 62 75 63 76 65 77 67 78
REMARK SMILES IDX 64 79 48 80 49 81 54 82 50 83 51 84 53 85 55 86 52 87
REMARK H PARENT 18 5 14 24 14 25 22 30 72 49 46 60
REMARK Flexibility Score: inf
ROOT
ATOM      1  C   UNL A   1      31.869  28.532  27.266  1.00  0.00     0.117 C 
ENDROOT
BRANCH   1   2
ATOM      2  N   UNL A   1      31.048  27.361  27.189  1.00  0.00    -0.354 N 
ATOM      3  C   UNL A   1      31.007  26.414  26.210  1.00  0.00     0.244 C 
ATOM      4  O   UNL A   1      30.342  25.397  26.439  1.00  0.00    -0.273 OA
ATOM      5  H   UNL A   1      30.431  27.221  27.944  1.00  0.00     0.163 HD
BRANCH   3   6
ATOM      6  C   UNL A   1      31.722  26.608  24.858  1.00  0.00     0.194 C 
BRANCH   6   7
ATOM      7  N   UNL A   1      32.632  25.475  24.569  1.00  0.00    -0.283 NA
ATOM      8  C   UNL A   1      33.786  25.548  24.034  1.00  0.00     0.105 C 
BRANCH   8   9
ATOM      9  C   UNL A   1      34.613  24.301  23.808  1.00  0.00     0.250 C 
ATOM     10  C   UNL A   1      32.350  21.558  25.565  1.00  0.00     0.106 C 
ATOM     11  C   UNL A   1      33.666  21.839  24.841  1.00  0.00     0.252 C 
ATOM     12  C   UNL A   1      34.488  20.555  24.735  1.00  0.00     0.106 C 
ATOM     13  O   UNL A   1      34.383  22.764  25.648  1.00  0.00    -0.422 OA
ATOM     14  O   UNL A   1      33.333  22.260  23.518  1.00  0.00    -0.422 OA
ATOM     15  C   UNL A   1      35.129  23.720  25.074  1.00  0.00     0.329 C 
ATOM     16  C   UNL A   1      33.868  23.349  22.950  1.00  0.00     0.329 C 
ATOM     17  O   UNL A   1      36.112  24.162  25.660  1.00  0.00    -0.251 OA
ATOM     18  O   UNL A   1      33.634  23.602  21.772  1.00  0.00    -0.251 OA
ENDBRANCH   8   9
ENDBRANCH   6   7
BRANCH   6  19
ATOM     19  C   UNL A   1      30.987  27.298  23.692  1.00  0.00     0.047 C 
BRANCH  19  20
ATOM     20  C   UNL A   1      30.627  28.787  23.680  1.00  0.00     0.102 C 
BRANCH  20  21
ATOM     21  C   UNL A   1      30.080  29.316  22.370  1.00  0.00     0.217 C 
ATOM     22  N   UNL A   1      30.982  30.028  21.629  1.00  0.00    -0.370 N 
ATOM     23  O   UNL A   1      28.941  29.136  21.965  1.00  0.00    -0.275 OA
ATOM     24  H   UNL A   1      31.897  30.165  21.965  1.00  0.00     0.159 HD
ATOM     25  H   UNL A   1      30.716  30.402  20.758  1.00  0.00     0.159 HD
ENDBRANCH  20  21
ENDBRANCH  19  20
ENDBRANCH   6  19
ENDBRANCH   3   6
ENDBRANCH   1   2
BRANCH   1  26
ATOM     26  C   UNL A   1      33.351  28.248  27.193  1.00  0.00     0.042 C 
BRANCH  26  27
ATOM     27  C   UNL A   1      34.119  29.314  26.447  1.00  0.00     0.118 C 
BRANCH  27  28
ATOM     28  N   UNL A   1      33.919  30.649  27.006  1.00  0.00    -0.352 N 
ATOM     29  C   UNL A   1      34.626  31.339  27.962  1.00  0.00     0.251 C 
ATOM     30  H   UNL A   1      33.149  31.137  26.634  1.00  0.00     0.163 HD
ATOM     31  O   UNL A   1      34.194  32.406  28.374  1.00  0.00    -0.269 OA
BRANCH  29  32
ATOM     32  C   UNL A   1      35.876  30.774  28.516  1.00  0.00     0.039 A 
ATOM     33  C   UNL A   1      35.796  29.784  29.499  1.00  0.00     0.014 A 
ATOM     34  C   UNL A   1      37.124  31.212  28.073  1.00  0.00     0.014 A 
ATOM     35  C   UNL A   1      36.965  29.198  29.985  1.00  0.00     0.010 A 
ATOM     36  C   UNL A   1      38.270  30.531  28.445  1.00  0.00     0.010 A 
ATOM     37  C   UNL A   1      38.209  29.545  29.436  1.00  0.00    -0.014 A 
BRANCH  37  38
ATOM     38  C   UNL A   1      39.476  28.955  29.929  1.00  0.00     0.031 A 
ATOM     39  C   UNL A   1      40.125  29.527  31.163  1.00  0.00     0.074 A 
ATOM     40  C   UNL A   1      40.074  27.970  29.233  1.00  0.00     0.049 A 
ATOM     41  N   UNL A   1      41.279  29.232  31.704  1.00  0.00    -0.248 NA
ATOM     42  C   UNL A   1      39.404  30.611  31.852  1.00  0.00     0.031 C 
ATOM     43  C   UNL A   1      39.577  27.385  27.986  1.00  0.00     0.029 A 
ATOM     44  N   UNL A   1      41.238  27.290  29.477  1.00  0.00    -0.354 N 
ATOM     45  C   UNL A   1      41.432  30.117  32.765  1.00  0.00     0.074 A 
ATOM     46  C   UNL A   1      40.294  31.006  32.748  1.00  0.00     0.031 C 
ATOM     47  C   UNL A   1      40.410  26.406  27.597  1.00  0.00     0.029 A 
ATOM     48  C   UNL A   1      41.515  26.320  28.545  1.00  0.00     0.049 A 
ATOM     49  H   UNL A   1      41.822  27.480  30.247  1.00  0.00     0.167 HD
ATOM     50  C   UNL A   1      42.414  30.161  33.696  1.00  0.00     0.037 A 
ATOM     51  C   UNL A   1      42.543  25.455  28.476  1.00  0.00     0.037 A 
ATOM     52  C   UNL A   1      43.508  29.232  33.744  1.00  0.00     0.049 A 
ATOM     53  C   UNL A   1      43.589  25.482  29.557  1.00  0.00     0.074 A 
ATOM     54  C   UNL A   1      44.522  29.139  34.679  1.00  0.00     0.029 A 
ATOM     55  N   UNL A   1      43.717  28.221  32.818  1.00  0.00    -0.354 N 
ATOM     56  N   UNL A   1      43.690  26.283  30.591  1.00  0.00    -0.248 NA
ATOM     57  C   UNL A   1      44.656  24.476  29.469  1.00  0.00     0.031 C 
ATOM     58  C   UNL A   1      45.361  28.084  34.304  1.00  0.00     0.029 A 
ATOM     59  C   UNL A   1      44.845  27.496  33.160  1.00  0.00     0.049 A 
ATOM     60  H   UNL A   1      43.148  28.044  32.035  1.00  0.00     0.167 HD
ATOM     61  C   UNL A   1      44.806  25.855  31.296  1.00  0.00     0.074 A 
ATOM     62  C   UNL A   1      45.342  24.717  30.576  1.00  0.00     0.031 C 
ATOM     63  C   UNL A   1      45.341  26.354  32.437  1.00  0.00     0.037 A 
BRANCH  50  64
ATOM     64  C   UNL A   1      42.324  31.235  34.743  1.00  0.00     0.057 A 
ATOM     65  C   UNL A   1      41.625  31.042  35.943  1.00  0.00     0.134 A 
ATOM     66  C   UNL A   1      42.948  32.474  34.553  1.00  0.00     0.134 A 
ATOM     67  F   UNL A   1      40.989  29.886  36.181  1.00  0.00    -0.206 F 
ATOM     68  C   UNL A   1      41.521  32.053  36.899  1.00  0.00     0.040 A 
ATOM     69  C   UNL A   1      42.876  33.482  35.516  1.00  0.00     0.040 A 
ATOM     70  F   UNL A   1      43.637  32.726  33.429  1.00  0.00    -0.206 F 
ATOM     71  C   UNL A   1      42.153  33.277  36.689  1.00  0.00     0.006 A 
ENDBRANCH  50  64
BRANCH  51  72
ATOM     72  C   UNL A   1      42.602  24.455  27.381  1.00  0.00     0.057 A 
ATOM     73  C   UNL A   1      42.060  23.174  27.548  1.00  0.00     0.134 A 
ATOM     74  C   UNL A   1      43.200  24.745  26.150  1.00  0.00     0.134 A 
ATOM     75  F   UNL A   1      41.484  22.832  28.710  1.00  0.00    -0.206 F 
ATOM     76  C   UNL A   1      42.132  22.212  26.541  1.00  0.00     0.040 A 
ATOM     77  C   UNL A   1      43.257  23.800  25.124  1.00  0.00     0.040 A 
ATOM     78  F   UNL A   1      43.722  25.959  25.920  1.00  0.00    -0.206 F 
ATOM     79  C   UNL A   1      42.730  22.525  25.323  1.00  0.00     0.006 A 
ENDBRANCH  51  72
BRANCH  63  80
ATOM     80  C   UNL A   1      46.530  25.639  33.004  1.00  0.00     0.057 A 
ATOM     81  C   UNL A   1      46.398  24.602  33.934  1.00  0.00     0.134 A 
ATOM     82  C   UNL A   1      47.823  25.972  32.581  1.00  0.00     0.134 A 
ATOM     83  F   UNL A   1      45.186  24.244  34.386  1.00  0.00    -0.206 F 
ATOM     84  C   UNL A   1      47.513  23.936  34.444  1.00  0.00     0.040 A 
ATOM     85  C   UNL A   1      48.944  25.297  33.063  1.00  0.00     0.040 A 
ATOM     86  F   UNL A   1      48.016  26.950  31.682  1.00  0.00    -0.206 F 
ATOM     87  C   UNL A   1      48.790  24.279  34.003  1.00  0.00     0.006 A 
ENDBRANCH  63  80
ENDBRANCH  37  38
ENDBRANCH  29  32
ENDBRANCH  27  28
ENDBRANCH  26  27
ENDBRANCH   1  26
TORSDOF 15
ENDMDL
MODEL 2
REMARK VINA RESULT:     -11.3      3.350      8.473
REMARK SMILES CC1(C)OC(=O)C(/C=N/[C@@H](CCC(N)=O)C(=O)NCCCNC(=O)c2ccc(-c3c4nc(c(-c5c(F)cccc5F)c5ccc([nH]5)c(-c5c(F)cccc5F)c5nc(c(-c6c(F)cccc6F)c6ccc3[nH]6)C=C5)C=C4)cc2)C(=O)O1
REMARK SMILES IDX 19 1 18 2 16 3 17 4 10 6 9 7 8 8 7 9 1 10 2 11 3 12 4 13
REMARK SMILES IDX 81 14 5 15 79 16 6 17 80 18 11 19 12 20 13 21 14 22 15 23
REMARK SMILES IDX 20 26 21 27 22 28 23 29 24 31 25 32 26 33 78 34 27 35 77 36
REMARK SMILES IDX 28 37 29 38 30 39 71 40 31 41 76 42 70 43 72 44 32 45 75 46
REMARK SMILES IDX 69 47 68 48 33 50 59 51 42 52 58 53 43 54 46 55 57 56 73 57
REMARK SMILES IDX 44 58 45 59 56 61 74 62 47 63 34 64 35 65 40 66 36 67 37 68
REMARK SMILES IDX 39 69 41 70 38 71 60 72 61 73 66 74 62 75 63 76 65 77 67 78
REMARK SMILES IDX 64 79 48 80 49 81 54 82 50 83 51 84 53 85 55 86 52 87
REMARK H PARENT 18 5 14 24 14 25 22 30 72 49 46 60
REMARK Flexibility Score: inf
ROOT
ATOM      1  C   UNL A   1      36.715  22.288  25.411  1.00  0.00     0.117 C 
ENDROOT
BRANCH   1   2
ATOM      2  N   UNL A   1      35.871  22.075  26.548  1.00  0.00    -0.354 N 
ATOM      3  C   UNL A   1      34.517  21.923  26.586  1.00  0.00     0.244 C 
ATOM      4  O   UNL A   1      34.021  21.577  27.664  1.00  0.00    -0.273 OA
ATOM      5  H   UNL A   1      36.330  22.034  27.419  1.00  0.00     0.163 HD
BRANCH   3   6
ATOM      6  C   UNL A   1      33.631  22.204  25.356  1.00  0.00     0.194 C 
BRANCH   6   7
ATOM      7  N   UNL A   1      33.822  23.590  24.868  1.00  0.00    -0.283 NA
ATOM      8  C   UNL A   1      32.971  24.292  24.231  1.00  0.00     0.105 C 
BRANCH   8   9
ATOM      9  C   UNL A   1      33.301  25.705  23.802  1.00  0.00     0.250 C 
ATOM     10  C   UNL A   1      29.668  27.239  23.375  1.00  0.00     0.106 C 
ATOM     11  C   UNL A   1      31.170  27.484  23.237  1.00  0.00     0.252 C 
ATOM     12  C   UNL A   1      31.421  28.896  22.710  1.00  0.00     0.106 C 
ATOM     13  O   UNL A   1      31.646  26.555  22.272  1.00  0.00    -0.422 OA
ATOM     14  O   UNL A   1      31.729  27.397  24.548  1.00  0.00    -0.422 OA
ATOM     15  C   UNL A   1      32.860  26.000  22.415  1.00  0.00     0.329 C 
ATOM     16  C   UNL A   1      32.820  26.668  24.821  1.00  0.00     0.329 C 
ATOM     17  O   UNL A   1      33.488  25.644  21.424  1.00  0.00    -0.251 OA
ATOM     18  O   UNL A   1      33.324  26.717  25.939  1.00  0.00    -0.251 OA
ENDBRANCH   8   9
ENDBRANCH   6   7
BRANCH   6  19
ATOM     19  C   UNL A   1      33.351  21.081  24.338  1.00  0.00     0.047 C 
BRANCH  19  20
ATOM     20  C   UNL A   1      33.771  19.623  24.549  1.00  0.00     0.102 C 
BRANCH  20  21
ATOM     21  C   UNL A   1      32.780  18.762  25.307  1.00  0.00     0.217 C 
ATOM     22  N   UNL A   1      32.921  18.803  26.666  1.00  0.00    -0.370 N 
ATOM     23  O   UNL A   1      31.907  18.082  24.789  1.00  0.00    -0.275 OA
ATOM     24  H   UNL A   1      33.628  19.356  27.071  1.00  0.00     0.159 HD
ATOM     25  H   UNL A   1      32.315  18.281  27.240  1.00  0.00     0.159 HD
ENDBRANCH  20  21
ENDBRANCH  19  20
ENDBRANCH   6  19
ENDBRANCH   3   6
ENDBRANCH   1   2
BRANCH   1  26
ATOM     26  C   UNL A   1      37.286  23.683  25.323  1.00  0.00     0.042 C 
BRANCH  26  27
ATOM     27  C   UNL A   1      38.223  24.010  26.462  1.00  0.00     0.118 C 
BRANCH  27  28
ATOM     28  N   UNL A   1      39.628  23.995  26.061  1.00  0.00    -0.352 N 
ATOM     29  C   UNL A   1      40.676  24.806  26.427  1.00  0.00     0.251 C 
ATOM     30  H   UNL A   1      39.864  23.284  25.422  1.00  0.00     0.163 HD
ATOM     31  O   UNL A   1      41.751  24.690  25.857  1.00  0.00    -0.269 OA
BRANCH  29  32
ATOM     32  C   UNL A   1      40.490  25.837  27.472  1.00  0.00     0.039 A 
ATOM     33  C   UNL A   1      39.617  25.577  28.532  1.00  0.00     0.014 A 
ATOM     34  C   UNL A   1      41.171  27.052  27.416  1.00  0.00     0.014 A 
ATOM     35  C   UNL A   1      39.480  26.513  29.558  1.00  0.00     0.010 A 
ATOM     36  C   UNL A   1      41.148  27.911  28.502  1.00  0.00     0.010 A 
ATOM     37  C   UNL A   1      40.271  27.673  29.566  1.00  0.00    -0.014 A 
BRANCH  37  38
ATOM     38  C   UNL A   1      40.150  28.697  30.629  1.00  0.00     0.031 A 
ATOM     39  C   UNL A   1      41.034  28.605  31.846  1.00  0.00     0.074 A 
ATOM     40  C   UNL A   1      39.206  29.652  30.539  1.00  0.00     0.049 A 
ATOM     41  N   UNL A   1      41.024  29.330  32.934  1.00  0.00    -0.248 NA
ATOM     42  C   UNL A   1      42.030  27.519  31.864  1.00  0.00     0.031 C 
ATOM     43  C   UNL A   1      38.246  29.799  29.442  1.00  0.00     0.029 A 
ATOM     44  N   UNL A   1      38.897  30.680  31.390  1.00  0.00    -0.354 N 
ATOM     45  C   UNL A   1      41.979  28.764  33.771  1.00  0.00     0.074 A 
ATOM     46  C   UNL A   1      42.496  27.595  33.101  1.00  0.00     0.031 C 
ATOM     47  C   UNL A   1      37.483  30.880  29.669  1.00  0.00     0.029 A 
ATOM     48  C   UNL A   1      37.875  31.479  30.941  1.00  0.00     0.049 A 
ATOM     49  H   UNL A   1      39.364  30.831  32.244  1.00  0.00     0.167 HD
ATOM     50  C   UNL A   1      42.415  29.201  34.976  1.00  0.00     0.037 A 
ATOM     51  C   UNL A   1      37.327  32.576  31.494  1.00  0.00     0.037 A 
ATOM     52  C   UNL A   1      41.942  30.401  35.607  1.00  0.00     0.049 A 
ATOM     53  C   UNL A   1      37.871  33.078  32.803  1.00  0.00     0.074 A 
ATOM     54  C   UNL A   1      42.359  30.977  36.792  1.00  0.00     0.029 A 
ATOM     55  N   UNL A   1      40.950  31.220  35.087  1.00  0.00    -0.354 N 
ATOM     56  N   UNL A   1      38.817  32.570  33.555  1.00  0.00    -0.248 NA
ATOM     57  C   UNL A   1      37.280  34.315  33.333  1.00  0.00     0.031 C 
ATOM     58  C   UNL A   1      41.600  32.134  37.003  1.00  0.00     0.029 A 
ATOM     59  C   UNL A   1      40.742  32.298  35.928  1.00  0.00     0.049 A 
ATOM     60  H   UNL A   1      40.467  31.058  34.245  1.00  0.00     0.167 HD
ATOM     61  C   UNL A   1      38.963  33.442  34.625  1.00  0.00     0.074 A 
ATOM     62  C   UNL A   1      38.013  34.517  34.418  1.00  0.00     0.031 C 
ATOM     63  C   UNL A   1      39.806  33.365  35.684  1.00  0.00     0.037 A 
BRANCH  50  64
ATOM     64  C   UNL A   1      43.470  28.384  35.666  1.00  0.00     0.057 A 
ATOM     65  C   UNL A   1      44.838  28.596  35.437  1.00  0.00     0.134 A 
ATOM     66  C   UNL A   1      43.118  27.378  36.573  1.00  0.00     0.134 A 
ATOM     67  F   UNL A   1      45.244  29.531  34.566  1.00  0.00    -0.206 F 
ATOM     68  C   UNL A   1      45.813  27.814  36.058  1.00  0.00     0.040 A 
ATOM     69  C   UNL A   1      44.086  26.610  37.223  1.00  0.00     0.040 A 
ATOM     70  F   UNL A   1      41.828  27.123  36.842  1.00  0.00    -0.206 F 
ATOM     71  C   UNL A   1      45.438  26.821  36.959  1.00  0.00     0.006 A 
ENDBRANCH  50  64
BRANCH  51  72
ATOM     72  C   UNL A   1      36.245  33.306  30.786  1.00  0.00     0.057 A 
ATOM     73  C   UNL A   1      36.522  34.074  29.648  1.00  0.00     0.134 A 
ATOM     74  C   UNL A   1      34.917  33.260  31.225  1.00  0.00     0.134 A 
ATOM     75  F   UNL A   1      37.777  34.165  29.186  1.00  0.00    -0.206 F 
ATOM     76  C   UNL A   1      35.523  34.790  28.987  1.00  0.00     0.040 A 
ATOM     77  C   UNL A   1      33.904  33.952  30.558  1.00  0.00     0.040 A 
ATOM     78  F   UNL A   1      34.583  32.529  32.298  1.00  0.00    -0.206 F 
ATOM     79  C   UNL A   1      34.208  34.727  29.441  1.00  0.00     0.006 A 
ENDBRANCH  51  72
BRANCH  63  80
ATOM     80  C   UNL A   1      39.776  34.498  36.664  1.00  0.00     0.057 A 
ATOM     81  C   UNL A   1      38.987  34.459  37.819  1.00  0.00     0.134 A 
ATOM     82  C   UNL A   1      40.580  35.628  36.464  1.00  0.00     0.134 A 
ATOM     83  F   UNL A   1      38.188  33.410  38.062  1.00  0.00    -0.206 F 
ATOM     84  C   UNL A   1      38.979  35.516  38.730  1.00  0.00     0.040 A 
ATOM     85  C   UNL A   1      40.601  36.679  37.379  1.00  0.00     0.040 A 
ATOM     86  F   UNL A   1      41.367  35.721  35.380  1.00  0.00    -0.206 F 
ATOM     87  C   UNL A   1      39.793  36.628  38.514  1.00  0.00     0.006 A 
ENDBRANCH  63  80
ENDBRANCH  37  38
ENDBRANCH  29  32
ENDBRANCH  27  28
ENDBRANCH  26  27
ENDBRANCH   1  26
TORSDOF 15
ENDMDL
MODEL 3
REMARK VINA RESULT:     -11.3      1.252      2.235
REMARK SMILES CC1(C)OC(=O)C(/C=N/[C@@H](CCC(N)=O)C(=O)NCCCNC(=O)c2ccc(-c3c4nc(c(-c5c(F)cccc5F)c5ccc([nH]5)c(-c5c(F)cccc5F)c5nc(c(-c6c(F)cccc6F)c6ccc3[nH]6)C=C5)C=C4)cc2)C(=O)O1
REMARK SMILES IDX 19 1 18 2 16 3 17 4 10 6 9 7 8 8 7 9 1 10 2 11 3 12 4 13
REMARK SMILES IDX 81 14 5 15 79 16 6 17 80 18 11 19 12 20 13 21 14 22 15 23
REMARK SMILES IDX 20 26 21 27 22 28 23 29 24 31 25 32 26 33 78 34 27 35 77 36
REMARK SMILES IDX 28 37 29 38 30 39 71 40 31 41 76 42 70 43 72 44 32 45 75 46
REMARK SMILES IDX 69 47 68 48 33 50 59 51 42 52 58 53 43 54 46 55 57 56 73 57
REMARK SMILES IDX 44 58 45 59 56 61 74 62 47 63 34 64 35 65 40 66 36 67 37 68
REMARK SMILES IDX 39 69 41 70 38 71 60 72 61 73 66 74 62 75 63 76 65 77 67 78
REMARK SMILES IDX 64 79 48 80 49 81 54 82 50 83 51 84 53 85 55 86 52 87
REMARK H PARENT 18 5 14 24 14 25 22 30 72 49 46 60
REMARK Flexibility Score: inf
ROOT
ATOM      1  C   UNL A   1      31.725  28.037  26.619  1.00  0.00     0.117 C 
ENDROOT
BRANCH   1   2
ATOM      2  N   UNL A   1      31.015  26.813  26.839  1.00  0.00    -0.354 N 
ATOM      3  C   UNL A   1      31.004  25.686  26.072  1.00  0.00     0.244 C 
ATOM      4  O   UNL A   1      30.453  24.688  26.548  1.00  0.00    -0.273 OA
ATOM      5  H   UNL A   1      30.459  26.781  27.651  1.00  0.00     0.163 HD
BRANCH   3   6
ATOM      6  C   UNL A   1      31.617  25.658  24.657  1.00  0.00     0.194 C 
BRANCH   6   7
ATOM      7  N   UNL A   1      32.463  24.456  24.467  1.00  0.00    -0.283 NA
ATOM      8  C   UNL A   1      33.620  24.259  24.962  1.00  0.00     0.105 C 
BRANCH   8   9
ATOM      9  C   UNL A   1      34.367  22.972  24.690  1.00  0.00     0.250 C 
ATOM     10  C   UNL A   1      37.956  23.858  26.128  1.00  0.00     0.106 C 
ATOM     11  C   UNL A   1      37.103  22.813  25.410  1.00  0.00     0.252 C 
ATOM     12  C   UNL A   1      37.949  21.583  25.085  1.00  0.00     0.106 C 
ATOM     13  O   UNL A   1      36.683  23.404  24.187  1.00  0.00    -0.422 OA
ATOM     14  O   UNL A   1      36.077  22.416  26.320  1.00  0.00    -0.422 OA
ATOM     15  C   UNL A   1      35.460  23.143  23.699  1.00  0.00     0.329 C 
ATOM     16  C   UNL A   1      34.786  22.351  25.970  1.00  0.00     0.329 C 
ATOM     17  O   UNL A   1      35.265  23.184  22.489  1.00  0.00    -0.251 OA
ATOM     18  O   UNL A   1      33.961  21.896  26.757  1.00  0.00    -0.251 OA
ENDBRANCH   8   9
ENDBRANCH   6   7
BRANCH   6  19
ATOM     19  C   UNL A   1      30.815  26.209  23.462  1.00  0.00     0.047 C 
BRANCH  19  20
ATOM     20  C   UNL A   1      31.457  26.642  22.140  1.00  0.00     0.102 C 
BRANCH  20  21
ATOM     21  C   UNL A   1      32.711  25.889  21.746  1.00  0.00     0.217 C 
ATOM     22  N   UNL A   1      32.498  24.588  21.385  1.00  0.00    -0.370 N 
ATOM     23  O   UNL A   1      33.836  26.367  21.727  1.00  0.00    -0.275 OA
ATOM     24  H   UNL A   1      31.587  24.215  21.403  1.00  0.00     0.159 HD
ATOM     25  H   UNL A   1      33.255  24.024  21.106  1.00  0.00     0.159 HD
ENDBRANCH  20  21
ENDBRANCH  19  20
ENDBRANCH   6  19
ENDBRANCH   3   6
ENDBRANCH   1   2
BRANCH   1  26
ATOM     26  C   UNL A   1      33.221  27.916  26.789  1.00  0.00     0.042 C 
BRANCH  26  27
ATOM     27  C   UNL A   1      33.985  29.011  26.082  1.00  0.00     0.118 C 
BRANCH  27  28
ATOM     28  N   UNL A   1      33.822  30.316  26.719  1.00  0.00    -0.352 N 
ATOM     29  C   UNL A   1      34.565  30.940  27.693  1.00  0.00     0.251 C 
ATOM     30  H   UNL A   1      33.051  30.836  26.396  1.00  0.00     0.163 HD
ATOM     31  O   UNL A   1      34.162  31.988  28.176  1.00  0.00    -0.269 OA
BRANCH  29  32
ATOM     32  C   UNL A   1      35.819  30.326  28.181  1.00  0.00     0.039 A 
ATOM     33  C   UNL A   1      36.995  30.516  27.450  1.00  0.00     0.014 A 
ATOM     34  C   UNL A   1      35.845  29.568  29.351  1.00  0.00     0.014 A 
ATOM     35  C   UNL A   1      38.198  29.995  27.930  1.00  0.00     0.010 A 
ATOM     36  C   UNL A   1      37.055  29.181  29.900  1.00  0.00     0.010 A 
ATOM     37  C   UNL A   1      38.241  29.353  29.177  1.00  0.00    -0.014 A 
BRANCH  37  38
ATOM     38  C   UNL A   1      39.493  28.777  29.720  1.00  0.00     0.031 A 
ATOM     39  C   UNL A   1      40.102  29.375  30.962  1.00  0.00     0.074 A 
ATOM     40  C   UNL A   1      40.116  27.781  29.062  1.00  0.00     0.049 A 
ATOM     41  N   UNL A   1      41.240  29.094  31.544  1.00  0.00    -0.248 NA
ATOM     42  C   UNL A   1      39.358  30.470  31.607  1.00  0.00     0.031 C 
ATOM     43  C   UNL A   1      39.658  27.170  27.812  1.00  0.00     0.029 A 
ATOM     44  N   UNL A   1      41.274  27.110  29.354  1.00  0.00    -0.354 N 
ATOM     45  C   UNL A   1      41.358  30.000  32.592  1.00  0.00     0.074 A 
ATOM     46  C   UNL A   1      40.219  30.885  32.523  1.00  0.00     0.031 C 
ATOM     47  C   UNL A   1      40.506  26.187  27.468  1.00  0.00     0.029 A 
ATOM     48  C   UNL A   1      41.582  26.123  28.451  1.00  0.00     0.049 A 
ATOM     49  H   UNL A   1      41.832  27.317  30.139  1.00  0.00     0.167 HD
ATOM     50  C   UNL A   1      42.310  30.067  33.551  1.00  0.00     0.037 A 
ATOM     51  C   UNL A   1      42.614  25.261  28.430  1.00  0.00     0.037 A 
ATOM     52  C   UNL A   1      43.405  29.142  33.651  1.00  0.00     0.049 A 
ATOM     53  C   UNL A   1      43.626  25.312  29.541  1.00  0.00     0.074 A 
ATOM     54  C   UNL A   1      44.390  29.071  34.618  1.00  0.00     0.029 A 
ATOM     55  N   UNL A   1      43.646  28.114  32.751  1.00  0.00    -0.354 N 
ATOM     56  N   UNL A   1      43.693  26.133  30.562  1.00  0.00    -0.248 NA
ATOM     57  C   UNL A   1      44.698  24.309  29.506  1.00  0.00     0.031 C 
ATOM     58  C   UNL A   1      45.244  28.011  34.289  1.00  0.00     0.029 A 
ATOM     59  C   UNL A   1      44.765  27.400  33.142  1.00  0.00     0.049 A 
ATOM     60  H   UNL A   1      43.101  27.920  31.955  1.00  0.00     0.167 HD
ATOM     61  C   UNL A   1      44.788  25.723  31.310  1.00  0.00     0.074 A 
ATOM     62  C   UNL A   1      45.350  24.573  30.629  1.00  0.00     0.031 C 
ATOM     63  C   UNL A   1      45.287  26.246  32.457  1.00  0.00     0.037 A 
BRANCH  50  64
ATOM     64  C   UNL A   1      42.186  31.160  34.573  1.00  0.00     0.057 A 
ATOM     65  C   UNL A   1      42.812  32.404  34.407  1.00  0.00     0.134 A 
ATOM     66  C   UNL A   1      41.428  30.971  35.735  1.00  0.00     0.134 A 
ATOM     67  F   UNL A   1      43.568  32.645  33.326  1.00  0.00    -0.206 F 
ATOM     68  C   UNL A   1      42.718  33.405  35.374  1.00  0.00     0.040 A 
ATOM     69  C   UNL A   1      41.301  31.977  36.695  1.00  0.00     0.040 A 
ATOM     70  F   UNL A   1      40.799  29.807  35.957  1.00  0.00    -0.206 F 
ATOM     71  C   UNL A   1      41.955  33.195  36.521  1.00  0.00     0.006 A 
ENDBRANCH  50  64
BRANCH  51  72
ATOM     72  C   UNL A   1      42.710  24.239  27.357  1.00  0.00     0.057 A 
ATOM     73  C   UNL A   1      43.340  24.532  26.141  1.00  0.00     0.134 A 
ATOM     74  C   UNL A   1      42.176  22.956  27.513  1.00  0.00     0.134 A 
ATOM     75  F   UNL A   1      43.862  25.749  25.928  1.00  0.00    -0.206 F 
ATOM     76  C   UNL A   1      43.414  23.594  25.111  1.00  0.00     0.040 A 
ATOM     77  C   UNL A   1      42.264  22.000  26.499  1.00  0.00     0.040 A 
ATOM     78  F   UNL A   1      41.574  22.607  28.660  1.00  0.00    -0.206 F 
ATOM     79  C   UNL A   1      42.877  22.322  25.290  1.00  0.00     0.006 A 
ENDBRANCH  51  72
BRANCH  63  80
ATOM     80  C   UNL A   1      46.459  25.546  33.073  1.00  0.00     0.057 A 
ATOM     81  C   UNL A   1      46.301  24.506  33.997  1.00  0.00     0.134 A 
ATOM     82  C   UNL A   1      47.765  25.897  32.706  1.00  0.00     0.134 A 
ATOM     83  F   UNL A   1      45.076  24.132  34.396  1.00  0.00    -0.206 F 
ATOM     84  C   UNL A   1      47.403  23.855  34.554  1.00  0.00     0.040 A 
ATOM     85  C   UNL A   1      48.873  25.236  33.235  1.00  0.00     0.040 A 
ATOM     86  F   UNL A   1      47.983  26.879  31.817  1.00  0.00    -0.206 F 
ATOM     87  C   UNL A   1      48.693  24.216  34.168  1.00  0.00     0.006 A 
ENDBRANCH  63  80
ENDBRANCH  37  38
ENDBRANCH  29  32
ENDBRANCH  27  28
ENDBRANCH  26  27
ENDBRANCH   1  26
TORSDOF 15
ENDMDL
