MODEL 1
REMARK VINA RESULT:     -13.2      0.000      0.000
REMARK SMILES Cc1ccc(S(=O)(=O)n2cc(C(=O)C(=O)NCC(=O)N[C@@H](Cc3c[nH]c4ccccc34)C(=O)NCCCNC(=O)c3ccc(-c4c5nc(c(-c6c(F)cccc6F)c6ccc([nH]6)c(-c6c(F)cccc6F)c6nc(c(-c7c(F)cccc7F)c7ccc4[nH]7)C=C6)C=C5)cc3)c3ccccc32)cc1
REMARK SMILES IDX 32 1 33 2 34 3 21 5 20 6 18 7 19 8 17 10 16 11 14 12 15 13
REMARK SMILES IDX 12 15 13 16 11 17 9 18 10 19 100 20 95 21 99 22 96 23 98 24
REMARK SMILES IDX 97 25 6 26 7 27 8 28 5 29 1 30 2 31 3 32 102 33 4 34 101 35
REMARK SMILES IDX 22 36 23 37 24 38 31 39 25 40 26 41 30 42 27 44 29 45 28 46
REMARK SMILES IDX 35 47 36 48 37 49 38 50 39 51 40 53 41 54 42 55 94 56 43 57
REMARK SMILES IDX 93 58 44 59 45 60 46 61 87 62 47 63 92 64 86 65 88 66 48 67
REMARK SMILES IDX 91 68 85 69 84 70 49 72 75 73 58 74 74 75 59 76 62 77 73 78
REMARK SMILES IDX 89 79 60 80 61 81 72 83 90 84 63 85 50 86 51 87 56 88 52 89
REMARK SMILES IDX 53 90 55 91 57 92 54 93 76 94 77 95 82 96 78 97 79 98 81 99
REMARK SMILES IDX 83 100 80 101 64 102 65 103 70 104 66 105 67 106 69 107
REMARK SMILES IDX 71 108 68 109
REMARK H PARENT 34 4 20 9 16 14 25 43 38 52 88 71 62 82
REMARK Flexibility Score: inf
ROOT
ATOM      1  C   UNL A   1      36.506  22.678  23.744  1.00  0.00     0.242 C 
ATOM      2  O   UNL A   1      36.504  22.950  22.539  1.00  0.00    -0.273 OA
ATOM      3  N   UNL A   1      37.504  21.863  24.201  1.00  0.00    -0.354 N 
ATOM      4  H   UNL A   1      37.878  21.230  23.545  1.00  0.00     0.163 HD
ENDROOT
BRANCH   1   5
ATOM      5  C   UNL A   1      35.441  23.300  24.674  1.00  0.00     0.175 C 
BRANCH   5   6
ATOM      6  N   UNL A   1      34.388  23.992  23.919  1.00  0.00    -0.342 N 
ATOM      7  C   UNL A   1      33.977  25.290  24.085  1.00  0.00     0.240 C 
ATOM      8  O   UNL A   1      33.447  25.858  23.130  1.00  0.00    -0.273 OA
ATOM      9  H   UNL A   1      33.930  23.471  23.221  1.00  0.00     0.164 HD
BRANCH   7  10
ATOM     10  C   UNL A   1      34.260  26.018  25.413  1.00  0.00     0.216 C 
BRANCH  10  11
ATOM     11  N   UNL A   1      33.006  26.272  26.131  1.00  0.00    -0.340 N 
ATOM     12  C   UNL A   1      32.441  27.488  26.473  1.00  0.00     0.292 C 
ATOM     13  O   UNL A   1      31.457  27.544  27.200  1.00  0.00    -0.265 OA
ATOM     14  H   UNL A   1      32.501  25.473  26.406  1.00  0.00     0.164 HD
BRANCH  12  15
ATOM     15  C   UNL A   1      33.073  28.776  25.938  1.00  0.00     0.252 C 
ATOM     16  O   UNL A   1      33.443  28.750  24.764  1.00  0.00    -0.283 OA
BRANCH  15  17
ATOM     17  C   UNL A   1      33.377  29.906  26.826  1.00  0.00     0.054 A 
ATOM     18  N   UNL A   1      33.323  31.743  28.142  1.00  0.00    -0.240 N 
ATOM     19  C   UNL A   1      32.556  30.933  27.308  1.00  0.00     0.117 A 
ATOM     20  C   UNL A   1      34.554  31.104  28.348  1.00  0.00     0.065 A 
ATOM     21  C   UNL A   1      34.692  30.190  27.306  1.00  0.00     0.012 A 
ATOM     22  C   UNL A   1      35.638  31.439  29.182  1.00  0.00     0.028 A 
ATOM     23  C   UNL A   1      35.987  29.737  26.976  1.00  0.00     0.011 A 
ATOM     24  C   UNL A   1      36.913  31.029  28.798  1.00  0.00     0.002 A 
ATOM     25  C   UNL A   1      37.092  30.221  27.684  1.00  0.00     0.001 A 
BRANCH  18  26
ATOM     26  S   UNL A   1      33.513  33.469  28.002  1.00  0.00     0.268 S 
ATOM     27  O   UNL A   1      32.325  33.871  27.266  1.00  0.00    -0.201 OA
ATOM     28  O   UNL A   1      34.843  33.601  27.422  1.00  0.00    -0.201 OA
BRANCH  26  29
ATOM     29  C   UNL A   1      33.608  34.584  29.354  1.00  0.00     0.088 A 
ATOM     30  C   UNL A   1      33.997  36.449  33.229  1.00  0.00     0.044 C 
ATOM     31  C   UNL A   1      33.886  35.851  31.855  1.00  0.00    -0.051 A 
ATOM     32  C   UNL A   1      34.452  34.600  31.657  1.00  0.00     0.005 A 
ATOM     33  C   UNL A   1      33.195  36.468  30.788  1.00  0.00     0.005 A 
ATOM     34  C   UNL A   1      34.321  33.989  30.423  1.00  0.00     0.022 A 
ATOM     35  C   UNL A   1      33.045  35.837  29.526  1.00  0.00     0.022 A 
ENDBRANCH  26  29
ENDBRANCH  18  26
ENDBRANCH  15  17
ENDBRANCH  12  15
ENDBRANCH  10  11
ENDBRANCH   7  10
ENDBRANCH   5   6
BRANCH   5  36
ATOM     36  C   UNL A   1      34.934  22.414  25.830  1.00  0.00     0.072 C 
BRANCH  36  37
ATOM     37  C   UNL A   1      33.849  21.427  25.522  1.00  0.00    -0.020 A 
ATOM     38  C   UNL A   1      32.491  21.667  25.625  1.00  0.00     0.087 A 
ATOM     39  C   UNL A   1      33.989  20.079  25.049  1.00  0.00     0.003 A 
ATOM     40  N   UNL A   1      31.823  20.501  25.372  1.00  0.00    -0.361 N 
ATOM     41  C   UNL A   1      32.712  19.514  25.024  1.00  0.00     0.046 A 
ATOM     42  C   UNL A   1      35.081  19.274  24.661  1.00  0.00     0.010 A 
ATOM     43  H   UNL A   1      30.847  20.385  25.432  1.00  0.00     0.166 HD
ATOM     44  C   UNL A   1      32.476  18.176  24.683  1.00  0.00     0.026 A 
ATOM     45  C   UNL A   1      34.856  17.947  24.270  1.00  0.00     0.001 A 
ATOM     46  C   UNL A   1      33.575  17.404  24.296  1.00  0.00     0.002 A 
ENDBRANCH  36  37
ENDBRANCH   5  36
ENDBRANCH   1   5
BRANCH   3  47
ATOM     47  C   UNL A   1      38.079  21.813  25.531  1.00  0.00     0.117 C 
BRANCH  47  48
ATOM     48  C   UNL A   1      39.171  20.779  25.713  1.00  0.00     0.042 C 
BRANCH  48  49
ATOM     49  C   UNL A   1      40.236  21.262  26.682  1.00  0.00     0.118 C 
BRANCH  49  50
ATOM     50  N   UNL A   1      41.458  21.778  26.058  1.00  0.00    -0.352 N 
ATOM     51  C   UNL A   1      41.999  23.059  26.092  1.00  0.00     0.251 C 
ATOM     52  H   UNL A   1      41.972  21.120  25.536  1.00  0.00     0.163 HD
ATOM     53  O   UNL A   1      43.058  23.291  25.536  1.00  0.00    -0.269 OA
BRANCH  51  54
ATOM     54  C   UNL A   1      41.354  24.101  26.938  1.00  0.00     0.039 A 
ATOM     55  C   UNL A   1      40.927  25.285  26.325  1.00  0.00     0.014 A 
ATOM     56  C   UNL A   1      41.440  24.030  28.320  1.00  0.00     0.014 A 
ATOM     57  C   UNL A   1      40.897  26.461  27.072  1.00  0.00     0.010 A 
ATOM     58  C   UNL A   1      41.578  25.207  29.020  1.00  0.00     0.010 A 
ATOM     59  C   UNL A   1      41.367  26.432  28.382  1.00  0.00    -0.014 A 
BRANCH  59  60
ATOM     60  C   UNL A   1      41.800  27.616  29.114  1.00  0.00     0.031 A 
ATOM     61  C   UNL A   1      40.810  28.550  29.688  1.00  0.00     0.074 A 
ATOM     62  C   UNL A   1      43.115  27.790  29.384  1.00  0.00     0.049 A 
ATOM     63  N   UNL A   1      41.048  29.797  29.918  1.00  0.00    -0.248 NA
ATOM     64  C   UNL A   1      39.453  28.149  30.045  1.00  0.00     0.031 C 
ATOM     65  C   UNL A   1      43.703  28.735  30.332  1.00  0.00     0.029 A 
ATOM     66  N   UNL A   1      44.218  27.252  28.703  1.00  0.00    -0.354 N 
ATOM     67  C   UNL A   1      40.021  30.276  30.696  1.00  0.00     0.074 A 
ATOM     68  C   UNL A   1      39.025  29.230  30.702  1.00  0.00     0.031 C 
ATOM     69  C   UNL A   1      44.986  28.941  29.998  1.00  0.00     0.029 A 
ATOM     70  C   UNL A   1      45.226  28.242  28.750  1.00  0.00     0.049 A 
ATOM     71  H   UNL A   1      44.278  26.365  28.279  1.00  0.00     0.167 HD
ATOM     72  C   UNL A   1      40.169  31.444  31.380  1.00  0.00     0.037 A 
ATOM     73  C   UNL A   1      45.707  28.820  27.612  1.00  0.00     0.037 A 
ATOM     74  C   UNL A   1      41.480  32.039  31.150  1.00  0.00     0.049 A 
ATOM     75  C   UNL A   1      45.482  30.312  27.538  1.00  0.00     0.074 A 
ATOM     76  C   UNL A   1      42.657  32.014  31.881  1.00  0.00     0.029 A 
ATOM     77  N   UNL A   1      41.817  32.495  29.881  1.00  0.00    -0.354 N 
ATOM     78  N   UNL A   1      44.647  30.960  28.302  1.00  0.00    -0.248 NA
ATOM     79  C   UNL A   1      46.153  31.190  26.582  1.00  0.00     0.031 C 
ATOM     80  C   UNL A   1      43.715  32.414  31.030  1.00  0.00     0.029 A 
ATOM     81  C   UNL A   1      43.181  32.699  29.786  1.00  0.00     0.049 A 
ATOM     82  H   UNL A   1      41.175  32.651  29.151  1.00  0.00     0.167 HD
ATOM     83  C   UNL A   1      44.625  32.285  27.945  1.00  0.00     0.074 A 
ATOM     84  C   UNL A   1      45.607  32.382  26.882  1.00  0.00     0.031 C 
ATOM     85  C   UNL A   1      43.785  33.177  28.551  1.00  0.00     0.037 A 
BRANCH  72  86
ATOM     86  C   UNL A   1      39.226  31.837  32.490  1.00  0.00     0.057 A 
ATOM     87  C   UNL A   1      39.422  31.403  33.813  1.00  0.00     0.134 A 
ATOM     88  C   UNL A   1      38.063  32.599  32.288  1.00  0.00     0.134 A 
ATOM     89  F   UNL A   1      40.533  30.756  34.186  1.00  0.00    -0.206 F 
ATOM     90  C   UNL A   1      38.475  31.601  34.824  1.00  0.00     0.040 A 
ATOM     91  C   UNL A   1      37.080  32.760  33.275  1.00  0.00     0.040 A 
ATOM     92  F   UNL A   1      37.843  33.234  31.127  1.00  0.00    -0.206 F 
ATOM     93  C   UNL A   1      37.279  32.244  34.547  1.00  0.00     0.006 A 
ENDBRANCH  72  86
BRANCH  73  94
ATOM     94  C   UNL A   1      45.743  27.891  26.455  1.00  0.00     0.057 A 
ATOM     95  C   UNL A   1      46.835  27.014  26.339  1.00  0.00     0.134 A 
ATOM     96  C   UNL A   1      44.590  27.570  25.734  1.00  0.00     0.134 A 
ATOM     97  F   UNL A   1      47.974  27.264  27.004  1.00  0.00    -0.206 F 
ATOM     98  C   UNL A   1      46.746  25.810  25.633  1.00  0.00     0.040 A 
ATOM     99  C   UNL A   1      44.491  26.369  25.020  1.00  0.00     0.040 A 
ATOM    100  F   UNL A   1      43.499  28.345  25.813  1.00  0.00    -0.206 F 
ATOM    101  C   UNL A   1      45.556  25.467  25.001  1.00  0.00     0.006 A 
ENDBRANCH  73  94
BRANCH  85 102
ATOM    102  C   UNL A   1      43.503  34.598  28.117  1.00  0.00     0.057 A 
ATOM    103  C   UNL A   1      43.130  34.975  26.819  1.00  0.00     0.134 A 
ATOM    104  C   UNL A   1      43.461  35.641  29.074  1.00  0.00     0.134 A 
ATOM    105  F   UNL A   1      43.016  34.078  25.832  1.00  0.00    -0.206 F 
ATOM    106  C   UNL A   1      42.790  36.295  26.487  1.00  0.00     0.040 A 
ATOM    107  C   UNL A   1      43.071  36.947  28.765  1.00  0.00     0.040 A 
ATOM    108  F   UNL A   1      43.774  35.434  30.362  1.00  0.00    -0.206 F 
ATOM    109  C   UNL A   1      42.746  37.284  27.462  1.00  0.00     0.006 A 
ENDBRANCH  85 102
ENDBRANCH  59  60
ENDBRANCH  51  54
ENDBRANCH  49  50
ENDBRANCH  48  49
ENDBRANCH  47  48
ENDBRANCH   3  47
TORSDOF 19
ENDMDL
MODEL 2
REMARK VINA RESULT:     -13.2      3.394     10.416
REMARK SMILES Cc1ccc(S(=O)(=O)n2cc(C(=O)C(=O)NCC(=O)N[C@@H](Cc3c[nH]c4ccccc34)C(=O)NCCCNC(=O)c3ccc(-c4c5nc(c(-c6c(F)cccc6F)c6ccc([nH]6)c(-c6c(F)cccc6F)c6nc(c(-c7c(F)cccc7F)c7ccc4[nH]7)C=C6)C=C5)cc3)c3ccccc32)cc1
REMARK SMILES IDX 32 1 33 2 34 3 21 5 20 6 18 7 19 8 17 10 16 11 14 12 15 13
REMARK SMILES IDX 12 15 13 16 11 17 9 18 10 19 100 20 95 21 99 22 96 23 98 24
REMARK SMILES IDX 97 25 6 26 7 27 8 28 5 29 1 30 2 31 3 32 102 33 4 34 101 35
REMARK SMILES IDX 22 36 23 37 24 38 31 39 25 40 26 41 30 42 27 44 29 45 28 46
REMARK SMILES IDX 35 47 36 48 37 49 38 50 39 51 40 53 41 54 42 55 94 56 43 57
REMARK SMILES IDX 93 58 44 59 45 60 46 61 87 62 47 63 92 64 86 65 88 66 48 67
REMARK SMILES IDX 91 68 85 69 84 70 49 72 75 73 58 74 74 75 59 76 62 77 73 78
REMARK SMILES IDX 89 79 60 80 61 81 72 83 90 84 63 85 50 86 51 87 56 88 52 89
REMARK SMILES IDX 53 90 55 91 57 92 54 93 76 94 77 95 82 96 78 97 79 98 81 99
REMARK SMILES IDX 83 100 80 101 64 102 65 103 70 104 66 105 67 106 69 107
REMARK SMILES IDX 71 108 68 109
REMARK H PARENT 34 4 20 9 16 14 25 43 38 52 88 71 62 82
REMARK Flexibility Score: inf
ROOT
ATOM      1  C   UNL A   1      32.360  28.658  27.238  1.00  0.00     0.242 C 
ATOM      2  O   UNL A   1      31.638  27.976  27.971  1.00  0.00    -0.273 OA
ATOM      3  N   UNL A   1      33.306  29.441  27.840  1.00  0.00    -0.354 N 
ATOM      4  H   UNL A   1      33.098  29.740  28.756  1.00  0.00     0.163 HD
ENDROOT
BRANCH   1   5
ATOM      5  C   UNL A   1      32.208  28.561  25.703  1.00  0.00     0.175 C 
BRANCH   5   6
ATOM      6  N   UNL A   1      33.021  27.476  25.139  1.00  0.00    -0.342 N 
ATOM      7  C   UNL A   1      32.566  26.275  24.658  1.00  0.00     0.240 C 
ATOM      8  O   UNL A   1      33.257  25.682  23.828  1.00  0.00    -0.273 OA
ATOM      9  H   UNL A   1      33.993  27.626  25.102  1.00  0.00     0.164 HD
BRANCH   7  10
ATOM     10  C   UNL A   1      31.187  25.747  25.098  1.00  0.00     0.216 C 
BRANCH  10  11
ATOM     11  N   UNL A   1      31.289  25.079  26.400  1.00  0.00    -0.340 N 
ATOM     12  C   UNL A   1      31.453  23.731  26.665  1.00  0.00     0.292 C 
ATOM     13  O   UNL A   1      31.379  23.301  27.810  1.00  0.00    -0.265 OA
ATOM     14  H   UNL A   1      31.233  25.667  27.187  1.00  0.00     0.164 HD
BRANCH  12  15
ATOM     15  C   UNL A   1      31.718  22.773  25.501  1.00  0.00     0.252 C 
ATOM     16  O   UNL A   1      30.798  22.635  24.694  1.00  0.00    -0.283 OA
BRANCH  15  17
ATOM     17  C   UNL A   1      32.927  21.938  25.456  1.00  0.00     0.054 A 
ATOM     18  N   UNL A   1      34.977  21.025  25.720  1.00  0.00    -0.240 N 
ATOM     19  C   UNL A   1      34.181  22.119  26.053  1.00  0.00     0.117 A 
ATOM     20  C   UNL A   1      34.157  20.070  25.102  1.00  0.00     0.065 A 
ATOM     21  C   UNL A   1      33.031  20.757  24.660  1.00  0.00     0.012 A 
ATOM     22  C   UNL A   1      34.435  18.757  24.672  1.00  0.00     0.028 A 
ATOM     23  C   UNL A   1      32.259  20.189  23.624  1.00  0.00     0.011 A 
ATOM     24  C   UNL A   1      33.697  18.245  23.608  1.00  0.00     0.002 A 
ATOM     25  C   UNL A   1      32.647  18.969  23.060  1.00  0.00     0.001 A 
BRANCH  18  26
ATOM     26  S   UNL A   1      36.554  21.091  24.983  1.00  0.00     0.268 S 
ATOM     27  O   UNL A   1      36.300  21.783  23.729  1.00  0.00    -0.201 OA
ATOM     28  O   UNL A   1      36.978  19.698  25.006  1.00  0.00    -0.201 OA
BRANCH  26  29
ATOM     29  C   UNL A   1      37.953  21.897  25.670  1.00  0.00     0.088 A 
ATOM     30  C   UNL A   1      41.666  22.904  27.631  1.00  0.00     0.044 C 
ATOM     31  C   UNL A   1      40.383  22.602  26.910  1.00  0.00    -0.051 A 
ATOM     32  C   UNL A   1      40.214  21.314  26.421  1.00  0.00     0.005 A 
ATOM     33  C   UNL A   1      39.333  23.535  26.758  1.00  0.00     0.005 A 
ATOM     34  C   UNL A   1      39.023  20.978  25.804  1.00  0.00     0.022 A 
ATOM     35  C   UNL A   1      38.104  23.190  26.140  1.00  0.00     0.022 A 
ENDBRANCH  26  29
ENDBRANCH  18  26
ENDBRANCH  15  17
ENDBRANCH  12  15
ENDBRANCH  10  11
ENDBRANCH   7  10
ENDBRANCH   5   6
BRANCH   5  36
ATOM     36  C   UNL A   1      30.773  28.654  25.146  1.00  0.00     0.072 C 
BRANCH  36  37
ATOM     37  C   UNL A   1      30.600  29.220  23.770  1.00  0.00    -0.020 A 
ATOM     38  C   UNL A   1      31.429  28.976  22.690  1.00  0.00     0.087 A 
ATOM     39  C   UNL A   1      29.559  30.088  23.296  1.00  0.00     0.003 A 
ATOM     40  N   UNL A   1      31.018  29.754  21.642  1.00  0.00    -0.361 N 
ATOM     41  C   UNL A   1      29.883  30.447  21.985  1.00  0.00     0.046 A 
ATOM     42  C   UNL A   1      28.382  30.623  23.860  1.00  0.00     0.010 A 
ATOM     43  H   UNL A   1      31.471  29.809  20.770  1.00  0.00     0.166 HD
ATOM     44  C   UNL A   1      29.124  31.350  21.231  1.00  0.00     0.026 A 
ATOM     45  C   UNL A   1      27.585  31.491  23.101  1.00  0.00     0.001 A 
ATOM     46  C   UNL A   1      27.960  31.860  21.813  1.00  0.00     0.002 A 
ENDBRANCH  36  37
ENDBRANCH   5  36
ENDBRANCH   1   5
BRANCH   3  47
ATOM     47  C   UNL A   1      34.575  29.886  27.300  1.00  0.00     0.117 C 
BRANCH  47  48
ATOM     48  C   UNL A   1      34.948  31.313  27.643  1.00  0.00     0.042 C 
BRANCH  48  49
ATOM     49  C   UNL A   1      35.170  31.485  29.135  1.00  0.00     0.118 C 
BRANCH  49  50
ATOM     50  N   UNL A   1      34.268  32.436  29.793  1.00  0.00    -0.352 N 
ATOM     51  C   UNL A   1      34.472  33.209  30.931  1.00  0.00     0.251 C 
ATOM     52  H   UNL A   1      33.387  32.542  29.366  1.00  0.00     0.163 HD
ATOM     53  O   UNL A   1      33.607  33.981  31.310  1.00  0.00    -0.269 OA
BRANCH  51  54
ATOM     54  C   UNL A   1      35.806  33.200  31.591  1.00  0.00     0.039 A 
ATOM     55  C   UNL A   1      36.804  34.044  31.089  1.00  0.00     0.014 A 
ATOM     56  C   UNL A   1      36.140  32.186  32.477  1.00  0.00     0.014 A 
ATOM     57  C   UNL A   1      38.139  33.671  31.227  1.00  0.00     0.010 A 
ATOM     58  C   UNL A   1      37.437  31.722  32.469  1.00  0.00     0.010 A 
ATOM     59  C   UNL A   1      38.431  32.431  31.792  1.00  0.00    -0.014 A 
BRANCH  59  60
ATOM     60  C   UNL A   1      39.698  31.735  31.605  1.00  0.00     0.031 A 
ATOM     61  C   UNL A   1      39.823  30.655  30.605  1.00  0.00     0.074 A 
ATOM     62  C   UNL A   1      40.801  32.170  32.257  1.00  0.00     0.049 A 
ATOM     63  N   UNL A   1      40.691  29.702  30.681  1.00  0.00    -0.248 NA
ATOM     64  C   UNL A   1      38.963  30.556  29.430  1.00  0.00     0.031 C 
ATOM     65  C   UNL A   1      42.189  31.800  31.987  1.00  0.00     0.029 A 
ATOM     66  N   UNL A   1      40.868  32.919  33.443  1.00  0.00    -0.354 N 
ATOM     67  C   UNL A   1      40.705  29.060  29.466  1.00  0.00     0.074 A 
ATOM     68  C   UNL A   1      39.574  29.590  28.739  1.00  0.00     0.031 C 
ATOM     69  C   UNL A   1      42.925  32.047  33.081  1.00  0.00     0.029 A 
ATOM     70  C   UNL A   1      42.012  32.456  34.132  1.00  0.00     0.049 A 
ATOM     71  H   UNL A   1      40.245  33.623  33.734  1.00  0.00     0.167 HD
ATOM     72  C   UNL A   1      41.749  28.252  29.131  1.00  0.00     0.037 A 
ATOM     73  C   UNL A   1      41.912  31.858  35.354  1.00  0.00     0.037 A 
ATOM     74  C   UNL A   1      42.744  28.192  30.195  1.00  0.00     0.049 A 
ATOM     75  C   UNL A   1      42.406  30.431  35.383  1.00  0.00     0.074 A 
ATOM     76  C   UNL A   1      43.941  28.861  30.392  1.00  0.00     0.029 A 
ATOM     77  N   UNL A   1      42.414  27.614  31.416  1.00  0.00    -0.354 N 
ATOM     78  N   UNL A   1      42.615  29.712  34.316  1.00  0.00    -0.248 NA
ATOM     79  C   UNL A   1      42.677  29.690  36.612  1.00  0.00     0.031 C 
ATOM     80  C   UNL A   1      44.309  28.721  31.751  1.00  0.00     0.029 A 
ATOM     81  C   UNL A   1      43.344  27.954  32.380  1.00  0.00     0.049 A 
ATOM     82  H   UNL A   1      41.628  27.042  31.572  1.00  0.00     0.167 HD
ATOM     83  C   UNL A   1      42.997  28.445  34.678  1.00  0.00     0.074 A 
ATOM     84  C   UNL A   1      43.048  28.490  36.127  1.00  0.00     0.031 C 
ATOM     85  C   UNL A   1      43.220  27.470  33.747  1.00  0.00     0.037 A 
BRANCH  72  86
ATOM     86  C   UNL A   1      41.977  27.801  27.711  1.00  0.00     0.057 A 
ATOM     87  C   UNL A   1      41.208  26.777  27.129  1.00  0.00     0.134 A 
ATOM     88  C   UNL A   1      42.996  28.310  26.887  1.00  0.00     0.134 A 
ATOM     89  F   UNL A   1      40.137  26.262  27.745  1.00  0.00    -0.206 F 
ATOM     90  C   UNL A   1      41.510  26.217  25.882  1.00  0.00     0.040 A 
ATOM     91  C   UNL A   1      43.345  27.726  25.662  1.00  0.00     0.040 A 
ATOM     92  F   UNL A   1      43.684  29.409  27.234  1.00  0.00    -0.206 F 
ATOM     93  C   UNL A   1      42.608  26.661  25.162  1.00  0.00     0.006 A 
ENDBRANCH  72  86
BRANCH  73  94
ATOM     94  C   UNL A   1      40.814  32.412  36.186  1.00  0.00     0.057 A 
ATOM     95  C   UNL A   1      41.018  33.651  36.820  1.00  0.00     0.134 A 
ATOM     96  C   UNL A   1      39.493  31.983  36.040  1.00  0.00     0.134 A 
ATOM     97  F   UNL A   1      42.263  34.121  36.993  1.00  0.00    -0.206 F 
ATOM     98  C   UNL A   1      39.954  34.479  37.185  1.00  0.00     0.040 A 
ATOM     99  C   UNL A   1      38.418  32.803  36.407  1.00  0.00     0.040 A 
ATOM    100  F   UNL A   1      39.217  30.824  35.425  1.00  0.00    -0.206 F 
ATOM    101  C   UNL A   1      38.646  34.071  36.944  1.00  0.00     0.006 A 
ENDBRANCH  73  94
BRANCH  85 102
ATOM    102  C   UNL A   1      43.429  25.995  34.009  1.00  0.00     0.057 A 
ATOM    103  C   UNL A   1      44.604  25.292  33.711  1.00  0.00     0.134 A 
ATOM    104  C   UNL A   1      42.461  25.254  34.730  1.00  0.00     0.134 A 
ATOM    105  F   UNL A   1      45.652  25.888  33.129  1.00  0.00    -0.206 F 
ATOM    106  C   UNL A   1      44.783  23.944  34.056  1.00  0.00     0.040 A 
ATOM    107  C   UNL A   1      42.652  23.928  35.129  1.00  0.00     0.040 A 
ATOM    108  F   UNL A   1      41.291  25.794  35.105  1.00  0.00    -0.206 F 
ATOM    109  C   UNL A   1      43.813  23.261  34.779  1.00  0.00     0.006 A 
ENDBRANCH  85 102
ENDBRANCH  59  60
ENDBRANCH  51  54
ENDBRANCH  49  50
ENDBRANCH  48  49
ENDBRANCH  47  48
ENDBRANCH   3  47
TORSDOF 19
ENDMDL
MODEL 3
REMARK VINA RESULT:     -13.1      2.305      4.349
REMARK SMILES Cc1ccc(S(=O)(=O)n2cc(C(=O)C(=O)NCC(=O)N[C@@H](Cc3c[nH]c4ccccc34)C(=O)NCCCNC(=O)c3ccc(-c4c5nc(c(-c6c(F)cccc6F)c6ccc([nH]6)c(-c6c(F)cccc6F)c6nc(c(-c7c(F)cccc7F)c7ccc4[nH]7)C=C6)C=C5)cc3)c3ccccc32)cc1
REMARK SMILES IDX 32 1 33 2 34 3 21 5 20 6 18 7 19 8 17 10 16 11 14 12 15 13
REMARK SMILES IDX 12 15 13 16 11 17 9 18 10 19 100 20 95 21 99 22 96 23 98 24
REMARK SMILES IDX 97 25 6 26 7 27 8 28 5 29 1 30 2 31 3 32 102 33 4 34 101 35
REMARK SMILES IDX 22 36 23 37 24 38 31 39 25 40 26 41 30 42 27 44 29 45 28 46
REMARK SMILES IDX 35 47 36 48 37 49 38 50 39 51 40 53 41 54 42 55 94 56 43 57
REMARK SMILES IDX 93 58 44 59 45 60 46 61 87 62 47 63 92 64 86 65 88 66 48 67
REMARK SMILES IDX 91 68 85 69 84 70 49 72 75 73 58 74 74 75 59 76 62 77 73 78
REMARK SMILES IDX 89 79 60 80 61 81 72 83 90 84 63 85 50 86 51 87 56 88 52 89
REMARK SMILES IDX 53 90 55 91 57 92 54 93 76 94 77 95 82 96 78 97 79 98 81 99
REMARK SMILES IDX 83 100 80 101 64 102 65 103 70 104 66 105 67 106 69 107
REMARK SMILES IDX 71 108 68 109
REMARK H PARENT 34 4 20 9 16 14 25 43 38 52 88 71 62 82
REMARK Flexibility Score: inf
ROOT
ATOM      1  C   UNL A   1      36.247  22.733  24.164  1.00  0.00     0.242 C 
ATOM      2  O   UNL A   1      36.414  23.859  23.685  1.00  0.00    -0.273 OA
ATOM      3  N   UNL A   1      37.327  21.895  24.190  1.00  0.00    -0.354 N 
ATOM      4  H   UNL A   1      38.006  22.045  23.492  1.00  0.00     0.163 HD
ENDROOT
BRANCH   1   5
ATOM      5  C   UNL A   1      34.872  22.344  24.753  1.00  0.00     0.175 C 
BRANCH   5   6
ATOM      6  N   UNL A   1      34.679  22.891  26.102  1.00  0.00    -0.342 N 
ATOM      7  C   UNL A   1      33.734  22.503  27.018  1.00  0.00     0.240 C 
ATOM      8  O   UNL A   1      33.966  22.699  28.211  1.00  0.00    -0.273 OA
ATOM      9  H   UNL A   1      35.290  23.611  26.379  1.00  0.00     0.164 HD
BRANCH   7  10
ATOM     10  C   UNL A   1      32.466  21.767  26.543  1.00  0.00     0.216 C 
BRANCH  10  11
ATOM     11  N   UNL A   1      31.274  22.356  27.163  1.00  0.00    -0.340 N 
ATOM     12  C   UNL A   1      30.486  23.394  26.698  1.00  0.00     0.292 C 
ATOM     13  O   UNL A   1      29.601  23.875  27.395  1.00  0.00    -0.265 OA
ATOM     14  H   UNL A   1      30.999  21.961  28.021  1.00  0.00     0.164 HD
BRANCH  12  15
ATOM     15  C   UNL A   1      30.743  23.949  25.294  1.00  0.00     0.252 C 
ATOM     16  O   UNL A   1      30.441  23.210  24.356  1.00  0.00    -0.283 OA
BRANCH  15  17
ATOM     17  C   UNL A   1      31.469  25.210  25.091  1.00  0.00     0.054 A 
ATOM     18  N   UNL A   1      32.503  27.209  25.303  1.00  0.00    -0.240 N 
ATOM     19  C   UNL A   1      31.769  26.243  25.988  1.00  0.00     0.117 A 
ATOM     20  C   UNL A   1      32.841  26.681  24.048  1.00  0.00     0.065 A 
ATOM     21  C   UNL A   1      31.947  25.639  23.815  1.00  0.00     0.012 A 
ATOM     22  C   UNL A   1      33.654  27.197  23.020  1.00  0.00     0.028 A 
ATOM     23  C   UNL A   1      31.730  25.223  22.484  1.00  0.00     0.011 A 
ATOM     24  C   UNL A   1      33.377  26.815  21.710  1.00  0.00     0.002 A 
ATOM     25  C   UNL A   1      32.398  25.870  21.439  1.00  0.00     0.001 A 
BRANCH  18  26
ATOM     26  S   UNL A   1      32.122  28.906  25.203  1.00  0.00     0.268 S 
ATOM     27  O   UNL A   1      33.407  29.513  24.895  1.00  0.00    -0.201 OA
ATOM     28  O   UNL A   1      31.450  29.159  26.470  1.00  0.00    -0.201 OA
BRANCH  26  29
ATOM     29  C   UNL A   1      30.998  29.620  24.060  1.00  0.00     0.088 A 
ATOM     30  C   UNL A   1      27.790  31.757  22.115  1.00  0.00     0.044 C 
ATOM     31  C   UNL A   1      28.942  31.024  22.742  1.00  0.00    -0.051 A 
ATOM     32  C   UNL A   1      29.339  31.425  24.009  1.00  0.00     0.005 A 
ATOM     33  C   UNL A   1      29.593  29.926  22.135  1.00  0.00     0.005 A 
ATOM     34  C   UNL A   1      30.356  30.738  24.646  1.00  0.00     0.022 A 
ATOM     35  C   UNL A   1      30.626  29.210  22.791  1.00  0.00     0.022 A 
ENDBRANCH  26  29
ENDBRANCH  18  26
ENDBRANCH  15  17
ENDBRANCH  12  15
ENDBRANCH  10  11
ENDBRANCH   7  10
ENDBRANCH   5   6
BRANCH   5  36
ATOM     36  C   UNL A   1      33.657  22.485  23.815  1.00  0.00     0.072 C 
BRANCH  36  37
ATOM     37  C   UNL A   1      33.083  21.229  23.233  1.00  0.00    -0.020 A 
ATOM     38  C   UNL A   1      32.182  21.167  22.185  1.00  0.00     0.087 A 
ATOM     39  C   UNL A   1      33.359  19.872  23.613  1.00  0.00     0.003 A 
ATOM     40  N   UNL A   1      31.805  19.863  22.013  1.00  0.00    -0.361 N 
ATOM     41  C   UNL A   1      32.503  19.052  22.875  1.00  0.00     0.046 A 
ATOM     42  C   UNL A   1      34.238  19.260  24.532  1.00  0.00     0.010 A 
ATOM     43  H   UNL A   1      31.131  19.551  21.367  1.00  0.00     0.166 HD
ATOM     44  C   UNL A   1      32.442  17.663  23.043  1.00  0.00     0.026 A 
ATOM     45  C   UNL A   1      34.224  17.866  24.677  1.00  0.00     0.001 A 
ATOM     46  C   UNL A   1      33.328  17.083  23.955  1.00  0.00     0.002 A 
ENDBRANCH  36  37
ENDBRANCH   5  36
ENDBRANCH   1   5
BRANCH   3  47
ATOM     47  C   UNL A   1      37.599  20.814  25.117  1.00  0.00     0.117 C 
BRANCH  47  48
ATOM     48  C   UNL A   1      38.974  20.849  25.750  1.00  0.00     0.042 C 
BRANCH  48  49
ATOM     49  C   UNL A   1      39.313  22.236  26.265  1.00  0.00     0.118 C 
BRANCH  49  50
ATOM     50  N   UNL A   1      40.743  22.562  26.284  1.00  0.00    -0.352 N 
ATOM     51  C   UNL A   1      41.372  23.786  26.484  1.00  0.00     0.251 C 
ATOM     52  H   UNL A   1      41.348  21.800  26.131  1.00  0.00     0.163 HD
ATOM     53  O   UNL A   1      42.589  23.853  26.503  1.00  0.00    -0.269 OA
BRANCH  51  54
ATOM     54  C   UNL A   1      40.551  24.981  26.826  1.00  0.00     0.039 A 
ATOM     55  C   UNL A   1      40.792  26.174  26.134  1.00  0.00     0.014 A 
ATOM     56  C   UNL A   1      39.786  24.994  27.983  1.00  0.00     0.014 A 
ATOM     57  C   UNL A   1      40.537  27.388  26.769  1.00  0.00     0.010 A 
ATOM     58  C   UNL A   1      39.691  26.178  28.680  1.00  0.00     0.010 A 
ATOM     59  C   UNL A   1      40.123  27.372  28.099  1.00  0.00    -0.014 A 
BRANCH  59  60
ATOM     60  C   UNL A   1      40.242  28.513  28.997  1.00  0.00     0.031 A 
ATOM     61  C   UNL A   1      39.162  29.516  29.087  1.00  0.00     0.074 A 
ATOM     62  C   UNL A   1      41.289  28.584  29.852  1.00  0.00     0.049 A 
ATOM     63  N   UNL A   1      39.345  30.740  29.454  1.00  0.00    -0.248 NA
ATOM     64  C   UNL A   1      37.771  29.218  28.757  1.00  0.00     0.031 C 
ATOM     65  C   UNL A   1      41.428  29.473  31.004  1.00  0.00     0.029 A 
ATOM     66  N   UNL A   1      42.545  27.968  29.738  1.00  0.00    -0.354 N 
ATOM     67  C   UNL A   1      38.108  31.290  29.687  1.00  0.00     0.074 A 
ATOM     68  C   UNL A   1      37.158  30.324  29.187  1.00  0.00     0.031 C 
ATOM     69  C   UNL A   1      42.730  29.582  31.312  1.00  0.00     0.029 A 
ATOM     70  C   UNL A   1      43.477  28.876  30.288  1.00  0.00     0.049 A 
ATOM     71  H   UNL A   1      42.737  27.082  29.352  1.00  0.00     0.167 HD
ATOM     72  C   UNL A   1      37.995  32.439  30.411  1.00  0.00     0.037 A 
ATOM     73  C   UNL A   1      44.468  29.425  29.528  1.00  0.00     0.037 A 
ATOM     74  C   UNL A   1      39.299  32.933  30.839  1.00  0.00     0.049 A 
ATOM     75  C   UNL A   1      44.400  30.930  29.421  1.00  0.00     0.074 A 
ATOM     76  C   UNL A   1      39.997  32.811  32.031  1.00  0.00     0.029 A 
ATOM     77  N   UNL A   1      40.216  33.371  29.891  1.00  0.00    -0.354 N 
ATOM     78  N   UNL A   1      43.349  31.635  29.739  1.00  0.00    -0.248 NA
ATOM     79  C   UNL A   1      45.494  31.760  28.923  1.00  0.00     0.031 C 
ATOM     80  C   UNL A   1      41.352  33.135  31.784  1.00  0.00     0.029 A 
ATOM     81  C   UNL A   1      41.478  33.469  30.448  1.00  0.00     0.049 A 
ATOM     82  H   UNL A   1      39.998  33.582  28.955  1.00  0.00     0.167 HD
ATOM     83  C   UNL A   1      43.582  32.960  29.469  1.00  0.00     0.074 A 
ATOM     84  C   UNL A   1      44.949  32.989  28.986  1.00  0.00     0.031 C 
ATOM     85  C   UNL A   1      42.616  33.909  29.654  1.00  0.00     0.037 A 
BRANCH  72  86
ATOM     86  C   UNL A   1      36.673  32.894  30.974  1.00  0.00     0.057 A 
ATOM     87  C   UNL A   1      35.824  33.756  30.258  1.00  0.00     0.134 A 
ATOM     88  C   UNL A   1      36.216  32.554  32.259  1.00  0.00     0.134 A 
ATOM     89  F   UNL A   1      36.066  34.089  28.984  1.00  0.00    -0.206 F 
ATOM     90  C   UNL A   1      34.680  34.335  30.822  1.00  0.00     0.040 A 
ATOM     91  C   UNL A   1      35.105  33.165  32.856  1.00  0.00     0.040 A 
ATOM     92  F   UNL A   1      36.823  31.599  32.980  1.00  0.00    -0.206 F 
ATOM     93  C   UNL A   1      34.340  34.074  32.140  1.00  0.00     0.006 A 
ENDBRANCH  72  86
BRANCH  73  94
ATOM     94  C   UNL A   1      44.977  28.504  28.481  1.00  0.00     0.057 A 
ATOM     95  C   UNL A   1      45.796  27.432  28.877  1.00  0.00     0.134 A 
ATOM     96  C   UNL A   1      44.370  28.411  27.226  1.00  0.00     0.134 A 
ATOM     97  F   UNL A   1      46.410  27.459  30.070  1.00  0.00    -0.206 F 
ATOM     98  C   UNL A   1      45.912  26.268  28.112  1.00  0.00     0.040 A 
ATOM     99  C   UNL A   1      44.483  27.250  26.449  1.00  0.00     0.040 A 
ATOM    100  F   UNL A   1      43.556  29.382  26.789  1.00  0.00    -0.206 F 
ATOM    101  C   UNL A   1      45.223  26.160  26.910  1.00  0.00     0.006 A 
ENDBRANCH  73  94
BRANCH  85 102
ATOM    102  C   UNL A   1      42.661  35.351  29.199  1.00  0.00     0.057 A 
ATOM    103  C   UNL A   1      41.784  35.919  28.266  1.00  0.00     0.134 A 
ATOM    104  C   UNL A   1      43.536  36.270  29.828  1.00  0.00     0.134 A 
ATOM    105  F   UNL A   1      40.827  35.197  27.670  1.00  0.00    -0.206 F 
ATOM    106  C   UNL A   1      41.808  37.285  27.944  1.00  0.00     0.040 A 
ATOM    107  C   UNL A   1      43.530  37.641  29.556  1.00  0.00     0.040 A 
ATOM    108  F   UNL A   1      44.423  35.882  30.758  1.00  0.00    -0.206 F 
ATOM    109  C   UNL A   1      42.672  38.153  28.598  1.00  0.00     0.006 A 
ENDBRANCH  85 102
ENDBRANCH  59  60
ENDBRANCH  51  54
ENDBRANCH  49  50
ENDBRANCH  48  49
ENDBRANCH  47  48
ENDBRANCH   3  47
TORSDOF 19
ENDMDL
