MODEL 1
REMARK VINA RESULT:      -8.9      0.000      0.000
REMARK SMILES COCCCC(=O)N[C@H]1CC[C@@H](C(=O)NCCCNC(=O)c2ccc(-c3c4nc(c(-c5c(F)cccc5F)c5ccc([nH]5)c(-c5c(F)cccc5F)c5nc(c(-c6c(F)cccc6F)c6ccc3[nH]6)C=C5)C=C4)cc2)CC1
REMARK SMILES IDX 13 1 14 2 15 3 12 5 9 6 10 7 77 8 11 9 76 10 8 11 6 12 7 13
REMARK SMILES IDX 5 15 4 16 3 17 2 18 1 19 16 20 17 21 18 22 19 23 20 24 21 26
REMARK SMILES IDX 22 27 23 28 75 29 24 30 74 31 25 32 26 33 27 34 68 35 28 36
REMARK SMILES IDX 73 37 67 38 69 39 29 40 72 41 66 42 65 43 30 45 56 46 39 47
REMARK SMILES IDX 55 48 40 49 43 50 54 51 70 52 41 53 42 54 53 56 71 57 44 58
REMARK SMILES IDX 31 59 32 60 37 61 33 62 34 63 36 64 38 65 35 66 57 67 58 68
REMARK SMILES IDX 63 69 59 70 60 71 62 72 64 73 61 74 45 75 46 76 51 77 47 78
REMARK SMILES IDX 48 79 50 80 52 81 49 82
REMARK H PARENT 15 4 8 14 19 25 69 44 43 55
REMARK Flexibility Score: inf
ROOT
ATOM      1  C   UNL A   1      35.618  34.327  34.729  1.00  0.00     0.223 C 
ATOM      2  O   UNL A   1      35.680  33.850  35.868  1.00  0.00    -0.275 OA
ATOM      3  N   UNL A   1      34.497  35.037  34.459  1.00  0.00    -0.356 N 
ATOM      4  H   UNL A   1      33.806  34.956  35.155  1.00  0.00     0.163 HD
ENDROOT
BRANCH   1   5
ATOM      5  C   UNL A   1      36.762  34.046  33.741  1.00  0.00     0.078 C 
ATOM      6  C   UNL A   1      38.963  32.122  34.392  1.00  0.00     0.082 C 
ATOM      7  C   UNL A   1      37.682  31.617  33.707  1.00  0.00     0.026 C 
ATOM      8  C   UNL A   1      38.933  33.531  34.989  1.00  0.00     0.026 C 
ATOM      9  C   UNL A   1      36.806  32.679  33.063  1.00  0.00     0.015 C 
ATOM     10  C   UNL A   1      38.134  34.537  34.184  1.00  0.00     0.015 C 
BRANCH   6  11
ATOM     11  N   UNL A   1      39.384  31.129  35.375  1.00  0.00    -0.353 N 
ATOM     12  C   UNL A   1      40.387  30.219  35.400  1.00  0.00     0.220 C 
ATOM     13  O   UNL A   1      40.379  29.413  36.334  1.00  0.00    -0.275 OA
ATOM     14  H   UNL A   1      38.824  31.116  36.185  1.00  0.00     0.163 HD
BRANCH  12  15
ATOM     15  C   UNL A   1      41.542  30.236  34.421  1.00  0.00     0.102 C 
BRANCH  15  16
ATOM     16  C   UNL A   1      41.654  29.148  33.355  1.00  0.00     0.038 C 
BRANCH  16  17
ATOM     17  C   UNL A   1      40.450  28.318  32.904  1.00  0.00     0.160 C 
BRANCH  17  18
ATOM     18  O   UNL A   1      39.355  28.882  32.189  1.00  0.00    -0.385 OA
ATOM     19  C   UNL A   1      38.220  28.105  31.874  1.00  0.00     0.194 C 
ENDBRANCH  17  18
ENDBRANCH  16  17
ENDBRANCH  15  16
ENDBRANCH  12  15
ENDBRANCH   6  11
ENDBRANCH   1   5
BRANCH   3  20
ATOM     20  C   UNL A   1      34.107  35.887  33.361  1.00  0.00     0.117 C 
BRANCH  20  21
ATOM     21  C   UNL A   1      33.620  35.125  32.142  1.00  0.00     0.042 C 
BRANCH  21  22
ATOM     22  C   UNL A   1      33.525  35.973  30.899  1.00  0.00     0.118 C 
BRANCH  22  23
ATOM     23  N   UNL A   1      32.816  35.306  29.810  1.00  0.00    -0.352 N 
ATOM     24  C   UNL A   1      33.223  34.321  28.944  1.00  0.00     0.251 C 
ATOM     25  H   UNL A   1      31.891  35.615  29.674  1.00  0.00     0.163 HD
ATOM     26  O   UNL A   1      32.475  33.975  28.031  1.00  0.00    -0.269 OA
BRANCH  24  27
ATOM     27  C   UNL A   1      34.555  33.693  29.085  1.00  0.00     0.039 A 
ATOM     28  C   UNL A   1      35.650  34.236  28.409  1.00  0.00     0.014 A 
ATOM     29  C   UNL A   1      34.731  32.568  29.888  1.00  0.00     0.014 A 
ATOM     30  C   UNL A   1      36.920  33.681  28.591  1.00  0.00     0.010 A 
ATOM     31  C   UNL A   1      36.006  32.135  30.206  1.00  0.00     0.010 A 
ATOM     32  C   UNL A   1      37.113  32.647  29.520  1.00  0.00    -0.014 A 
BRANCH  32  33
ATOM     33  C   UNL A   1      38.435  32.014  29.741  1.00  0.00     0.031 A 
ATOM     34  C   UNL A   1      39.510  32.783  30.471  1.00  0.00     0.074 A 
ATOM     35  C   UNL A   1      38.696  30.796  29.230  1.00  0.00     0.049 A 
ATOM     36  N   UNL A   1      40.762  32.464  30.681  1.00  0.00    -0.248 NA
ATOM     37  C   UNL A   1      39.144  34.114  30.988  1.00  0.00     0.031 C 
ATOM     38  C   UNL A   1      37.760  29.984  28.450  1.00  0.00     0.029 A 
ATOM     39  N   UNL A   1      39.831  30.030  29.289  1.00  0.00    -0.354 N 
ATOM     40  C   UNL A   1      41.326  33.562  31.321  1.00  0.00     0.074 A 
ATOM     41  C   UNL A   1      40.314  34.588  31.383  1.00  0.00     0.031 C 
ATOM     42  C   UNL A   1      38.344  28.814  28.143  1.00  0.00     0.029 A 
ATOM     43  C   UNL A   1      39.706  28.812  28.665  1.00  0.00     0.049 A 
ATOM     44  H   UNL A   1      40.656  30.324  29.737  1.00  0.00     0.167 HD
ATOM     45  C   UNL A   1      42.564  33.690  31.851  1.00  0.00     0.037 A 
ATOM     46  C   UNL A   1      40.596  27.811  28.533  1.00  0.00     0.037 A 
ATOM     47  C   UNL A   1      43.547  32.643  31.835  1.00  0.00     0.049 A 
ATOM     48  C   UNL A   1      41.960  27.967  29.148  1.00  0.00     0.074 A 
ATOM     49  C   UNL A   1      44.808  32.634  32.403  1.00  0.00     0.029 A 
ATOM     50  N   UNL A   1      43.370  31.411  31.223  1.00  0.00    -0.354 N 
ATOM     51  N   UNL A   1      42.458  28.982  29.811  1.00  0.00    -0.248 NA
ATOM     52  C   UNL A   1      42.882  26.833  29.004  1.00  0.00     0.031 C 
ATOM     53  C   UNL A   1      45.412  31.411  32.093  1.00  0.00     0.029 A 
ATOM     54  C   UNL A   1      44.507  30.639  31.383  1.00  0.00     0.049 A 
ATOM     55  H   UNL A   1      42.557  31.128  30.747  1.00  0.00     0.167 HD
ATOM     56  C   UNL A   1      43.737  28.599  30.193  1.00  0.00     0.074 A 
ATOM     57  C   UNL A   1      43.931  27.250  29.698  1.00  0.00     0.031 C 
ATOM     58  C   UNL A   1      44.668  29.295  30.889  1.00  0.00     0.037 A 
BRANCH  45  59
ATOM     59  C   UNL A   1      42.907  35.000  32.503  1.00  0.00     0.057 A 
ATOM     60  C   UNL A   1      43.513  36.048  31.795  1.00  0.00     0.134 A 
ATOM     61  C   UNL A   1      42.620  35.223  33.856  1.00  0.00     0.134 A 
ATOM     62  F   UNL A   1      43.832  35.898  30.500  1.00  0.00    -0.206 F 
ATOM     63  C   UNL A   1      43.854  37.252  32.415  1.00  0.00     0.040 A 
ATOM     64  C   UNL A   1      42.924  36.434  34.479  1.00  0.00     0.040 A 
ATOM     65  F   UNL A   1      42.038  34.266  34.595  1.00  0.00    -0.206 F 
ATOM     66  C   UNL A   1      43.552  37.450  33.760  1.00  0.00     0.006 A 
ENDBRANCH  45  59
BRANCH  46  67
ATOM     67  C   UNL A   1      40.213  26.561  27.827  1.00  0.00     0.057 A 
ATOM     68  C   UNL A   1      39.427  25.588  28.458  1.00  0.00     0.134 A 
ATOM     69  C   UNL A   1      40.621  26.303  26.513  1.00  0.00     0.134 A 
ATOM     70  F   UNL A   1      39.015  25.770  29.722  1.00  0.00    -0.206 F 
ATOM     71  C   UNL A   1      39.082  24.396  27.819  1.00  0.00     0.040 A 
ATOM     72  C   UNL A   1      40.261  25.128  25.852  1.00  0.00     0.040 A 
ATOM     73  F   UNL A   1      41.366  27.198  25.847  1.00  0.00    -0.206 F 
ATOM     74  C   UNL A   1      39.497  24.166  26.510  1.00  0.00     0.006 A 
ENDBRANCH  46  67
BRANCH  58  75
ATOM     75  C   UNL A   1      45.960  28.596  31.194  1.00  0.00     0.057 A 
ATOM     76  C   UNL A   1      47.072  28.690  30.349  1.00  0.00     0.134 A 
ATOM     77  C   UNL A   1      46.105  27.856  32.376  1.00  0.00     0.134 A 
ATOM     78  F   UNL A   1      46.996  29.375  29.198  1.00  0.00    -0.206 F 
ATOM     79  C   UNL A   1      48.274  28.051  30.654  1.00  0.00     0.040 A 
ATOM     80  C   UNL A   1      47.311  27.239  32.707  1.00  0.00     0.040 A 
ATOM     81  F   UNL A   1      45.081  27.738  33.235  1.00  0.00    -0.206 F 
ATOM     82  C   UNL A   1      48.398  27.329  31.840  1.00  0.00     0.006 A 
ENDBRANCH  58  75
ENDBRANCH  32  33
ENDBRANCH  24  27
ENDBRANCH  22  23
ENDBRANCH  21  22
ENDBRANCH  20  21
ENDBRANCH   3  20
TORSDOF 15
ENDMDL
MODEL 2
REMARK VINA RESULT:      -8.6      5.698     11.520
REMARK SMILES COCCCC(=O)N[C@H]1CC[C@@H](C(=O)NCCCNC(=O)c2ccc(-c3c4nc(c(-c5c(F)cccc5F)c5ccc([nH]5)c(-c5c(F)cccc5F)c5nc(c(-c6c(F)cccc6F)c6ccc3[nH]6)C=C5)C=C4)cc2)CC1
REMARK SMILES IDX 13 1 14 2 15 3 12 5 9 6 10 7 77 8 11 9 76 10 8 11 6 12 7 13
REMARK SMILES IDX 5 15 4 16 3 17 2 18 1 19 16 20 17 21 18 22 19 23 20 24 21 26
REMARK SMILES IDX 22 27 23 28 75 29 24 30 74 31 25 32 26 33 27 34 68 35 28 36
REMARK SMILES IDX 73 37 67 38 69 39 29 40 72 41 66 42 65 43 30 45 56 46 39 47
REMARK SMILES IDX 55 48 40 49 43 50 54 51 70 52 41 53 42 54 53 56 71 57 44 58
REMARK SMILES IDX 31 59 32 60 37 61 33 62 34 63 36 64 38 65 35 66 57 67 58 68
REMARK SMILES IDX 63 69 59 70 60 71 62 72 64 73 61 74 45 75 46 76 51 77 47 78
REMARK SMILES IDX 48 79 50 80 52 81 49 82
REMARK H PARENT 15 4 8 14 19 25 69 44 43 55
REMARK Flexibility Score: inf
ROOT
ATOM      1  C   UNL A   1      36.400  22.700  23.933  1.00  0.00     0.223 C 
ATOM      2  O   UNL A   1      37.027  23.481  23.205  1.00  0.00    -0.275 OA
ATOM      3  N   UNL A   1      36.923  21.455  24.028  1.00  0.00    -0.356 N 
ATOM      4  H   UNL A   1      37.650  21.286  23.388  1.00  0.00     0.163 HD
ENDROOT
BRANCH   1   5
ATOM      5  C   UNL A   1      35.107  23.186  24.606  1.00  0.00     0.078 C 
ATOM      6  C   UNL A   1      33.137  21.267  25.794  1.00  0.00     0.082 C 
ATOM      7  C   UNL A   1      34.290  21.811  26.654  1.00  0.00     0.026 C 
ATOM      8  C   UNL A   1      33.222  21.490  24.282  1.00  0.00     0.026 C 
ATOM      9  C   UNL A   1      34.992  23.051  26.123  1.00  0.00     0.015 C 
ATOM     10  C   UNL A   1      33.821  22.821  23.876  1.00  0.00     0.015 C 
BRANCH   6  11
ATOM     11  N   UNL A   1      32.941  19.858  26.121  1.00  0.00    -0.353 N 
ATOM     12  C   UNL A   1      32.665  18.764  25.373  1.00  0.00     0.220 C 
ATOM     13  O   UNL A   1      32.410  17.724  25.987  1.00  0.00    -0.275 OA
ATOM     14  H   UNL A   1      33.025  19.664  27.083  1.00  0.00     0.163 HD
BRANCH  12  15
ATOM     15  C   UNL A   1      32.774  18.746  23.863  1.00  0.00     0.102 C 
BRANCH  15  16
ATOM     16  C   UNL A   1      33.001  17.425  23.131  1.00  0.00     0.038 C 
BRANCH  16  17
ATOM     17  C   UNL A   1      34.276  16.599  23.312  1.00  0.00     0.160 C 
BRANCH  17  18
ATOM     18  O   UNL A   1      34.439  15.662  24.372  1.00  0.00    -0.385 OA
ATOM     19  C   UNL A   1      35.449  15.835  25.342  1.00  0.00     0.194 C 
ENDBRANCH  17  18
ENDBRANCH  16  17
ENDBRANCH  15  16
ENDBRANCH  12  15
ENDBRANCH   6  11
ENDBRANCH   1   5
BRANCH   3  20
ATOM     20  C   UNL A   1      36.631  20.324  24.876  1.00  0.00     0.117 C 
BRANCH  20  21
ATOM     21  C   UNL A   1      37.793  19.361  25.030  1.00  0.00     0.042 C 
BRANCH  21  22
ATOM     22  C   UNL A   1      38.941  19.924  25.830  1.00  0.00     0.118 C 
BRANCH  22  23
ATOM     23  N   UNL A   1      40.111  19.049  25.836  1.00  0.00    -0.352 N 
ATOM     24  C   UNL A   1      41.435  19.324  26.075  1.00  0.00     0.251 C 
ATOM     25  H   UNL A   1      39.917  18.105  25.634  1.00  0.00     0.163 HD
ATOM     26  O   UNL A   1      42.271  18.433  25.929  1.00  0.00    -0.269 OA
BRANCH  24  27
ATOM     27  C   UNL A   1      41.866  20.679  26.481  1.00  0.00     0.039 A 
ATOM     28  C   UNL A   1      42.119  20.949  27.829  1.00  0.00     0.014 A 
ATOM     29  C   UNL A   1      42.026  21.690  25.536  1.00  0.00     0.014 A 
ATOM     30  C   UNL A   1      42.586  22.212  28.205  1.00  0.00     0.010 A 
ATOM     31  C   UNL A   1      42.656  22.872  25.883  1.00  0.00     0.010 A 
ATOM     32  C   UNL A   1      42.892  23.172  27.229  1.00  0.00    -0.014 A 
BRANCH  32  33
ATOM     33  C   UNL A   1      43.377  24.530  27.575  1.00  0.00     0.031 A 
ATOM     34  C   UNL A   1      42.385  25.577  28.021  1.00  0.00     0.074 A 
ATOM     35  C   UNL A   1      44.677  24.844  27.422  1.00  0.00     0.049 A 
ATOM     36  N   UNL A   1      42.575  26.848  28.271  1.00  0.00    -0.248 NA
ATOM     37  C   UNL A   1      40.980  25.152  28.154  1.00  0.00     0.031 C 
ATOM     38  C   UNL A   1      45.718  23.937  26.934  1.00  0.00     0.029 A 
ATOM     39  N   UNL A   1      45.343  26.018  27.656  1.00  0.00    -0.354 N 
ATOM     40  C   UNL A   1      41.317  27.367  28.554  1.00  0.00     0.074 A 
ATOM     41  C   UNL A   1      40.361  26.303  28.358  1.00  0.00     0.031 C 
ATOM     42  C   UNL A   1      46.900  24.575  26.951  1.00  0.00     0.029 A 
ATOM     43  C   UNL A   1      46.693  25.945  27.406  1.00  0.00     0.049 A 
ATOM     44  H   UNL A   1      44.898  26.836  27.974  1.00  0.00     0.167 HD
ATOM     45  C   UNL A   1      40.988  28.606  28.984  1.00  0.00     0.037 A 
ATOM     46  C   UNL A   1      47.649  26.883  27.532  1.00  0.00     0.037 A 
ATOM     47  C   UNL A   1      41.951  29.642  29.232  1.00  0.00     0.049 A 
ATOM     48  C   UNL A   1      47.264  28.250  28.032  1.00  0.00     0.074 A 
ATOM     49  C   UNL A   1      41.743  30.913  29.736  1.00  0.00     0.029 A 
ATOM     50  N   UNL A   1      43.313  29.518  29.000  1.00  0.00    -0.354 N 
ATOM     51  N   UNL A   1      46.081  28.707  28.364  1.00  0.00    -0.248 NA
ATOM     52  C   UNL A   1      48.350  29.227  28.183  1.00  0.00     0.031 C 
ATOM     53  C   UNL A   1      42.975  31.574  29.765  1.00  0.00     0.029 A 
ATOM     54  C   UNL A   1      43.956  30.697  29.332  1.00  0.00     0.049 A 
ATOM     55  H   UNL A   1      43.756  28.711  28.651  1.00  0.00     0.167 HD
ATOM     56  C   UNL A   1      46.283  30.011  28.795  1.00  0.00     0.074 A 
ATOM     57  C   UNL A   1      47.706  30.266  28.694  1.00  0.00     0.031 C 
ATOM     58  C   UNL A   1      45.377  30.918  29.234  1.00  0.00     0.037 A 
BRANCH  45  59
ATOM     59  C   UNL A   1      39.533  28.893  29.228  1.00  0.00     0.057 A 
ATOM     60  C   UNL A   1      38.685  29.356  28.211  1.00  0.00     0.134 A 
ATOM     61  C   UNL A   1      38.967  28.696  30.494  1.00  0.00     0.134 A 
ATOM     62  F   UNL A   1      39.164  29.583  26.978  1.00  0.00    -0.206 F 
ATOM     63  C   UNL A   1      37.341  29.646  28.452  1.00  0.00     0.040 A 
ATOM     64  C   UNL A   1      37.616  28.949  30.739  1.00  0.00     0.040 A 
ATOM     65  F   UNL A   1      39.717  28.252  31.514  1.00  0.00    -0.206 F 
ATOM     66  C   UNL A   1      36.801  29.435  29.718  1.00  0.00     0.006 A 
ENDBRANCH  45  59
BRANCH  46  67
ATOM     67  C   UNL A   1      49.064  26.552  27.222  1.00  0.00     0.057 A 
ATOM     68  C   UNL A   1      49.603  26.806  25.955  1.00  0.00     0.134 A 
ATOM     69  C   UNL A   1      49.910  25.974  28.176  1.00  0.00     0.134 A 
ATOM     70  F   UNL A   1      48.839  27.346  24.993  1.00  0.00    -0.206 F 
ATOM     71  C   UNL A   1      50.922  26.475  25.639  1.00  0.00     0.040 A 
ATOM     72  C   UNL A   1      51.239  25.662  27.882  1.00  0.00     0.040 A 
ATOM     73  F   UNL A   1      49.460  25.715  29.413  1.00  0.00    -0.206 F 
ATOM     74  C   UNL A   1      51.745  25.904  26.607  1.00  0.00     0.006 A 
ENDBRANCH  46  67
BRANCH  58  75
ATOM     75  C   UNL A   1      45.902  32.251  29.680  1.00  0.00     0.057 A 
ATOM     76  C   UNL A   1      45.989  33.343  28.809  1.00  0.00     0.134 A 
ATOM     77  C   UNL A   1      46.282  32.453  31.014  1.00  0.00     0.134 A 
ATOM     78  F   UNL A   1      45.651  33.213  27.518  1.00  0.00    -0.206 F 
ATOM     79  C   UNL A   1      46.462  34.583  29.241  1.00  0.00     0.040 A 
ATOM     80  C   UNL A   1      46.726  33.696  31.465  1.00  0.00     0.040 A 
ATOM     81  F   UNL A   1      46.210  31.451  31.902  1.00  0.00    -0.206 F 
ATOM     82  C   UNL A   1      46.824  34.764  30.575  1.00  0.00     0.006 A 
ENDBRANCH  58  75
ENDBRANCH  32  33
ENDBRANCH  24  27
ENDBRANCH  22  23
ENDBRANCH  21  22
ENDBRANCH  20  21
ENDBRANCH   3  20
TORSDOF 15
ENDMDL
MODEL 3
REMARK VINA RESULT:      -8.5      3.557     10.030
REMARK SMILES COCCCC(=O)N[C@H]1CC[C@@H](C(=O)NCCCNC(=O)c2ccc(-c3c4nc(c(-c5c(F)cccc5F)c5ccc([nH]5)c(-c5c(F)cccc5F)c5nc(c(-c6c(F)cccc6F)c6ccc3[nH]6)C=C5)C=C4)cc2)CC1
REMARK SMILES IDX 13 1 14 2 15 3 12 5 9 6 10 7 77 8 11 9 76 10 8 11 6 12 7 13
REMARK SMILES IDX 5 15 4 16 3 17 2 18 1 19 16 20 17 21 18 22 19 23 20 24 21 26
REMARK SMILES IDX 22 27 23 28 75 29 24 30 74 31 25 32 26 33 27 34 68 35 28 36
REMARK SMILES IDX 73 37 67 38 69 39 29 40 72 41 66 42 65 43 30 45 56 46 39 47
REMARK SMILES IDX 55 48 40 49 43 50 54 51 70 52 41 53 42 54 53 56 71 57 44 58
REMARK SMILES IDX 31 59 32 60 37 61 33 62 34 63 36 64 38 65 35 66 57 67 58 68
REMARK SMILES IDX 63 69 59 70 60 71 62 72 64 73 61 74 45 75 46 76 51 77 47 78
REMARK SMILES IDX 48 79 50 80 52 81 49 82
REMARK H PARENT 15 4 8 14 19 25 69 44 43 55
REMARK Flexibility Score: inf
ROOT
ATOM      1  C   UNL A   1      44.186  21.064  25.004  1.00  0.00     0.223 C 
ATOM      2  O   UNL A   1      44.568  21.042  23.828  1.00  0.00    -0.275 OA
ATOM      3  N   UNL A   1      43.163  20.227  25.295  1.00  0.00    -0.356 N 
ATOM      4  H   UNL A   1      42.754  19.818  24.499  1.00  0.00     0.163 HD
ENDROOT
BRANCH   1   5
ATOM      5  C   UNL A   1      44.857  22.037  25.987  1.00  0.00     0.078 C 
ATOM      6  C   UNL A   1      44.550  25.004  25.717  1.00  0.00     0.082 C 
ATOM      7  C   UNL A   1      43.534  24.202  26.547  1.00  0.00     0.026 C 
ATOM      8  C   UNL A   1      45.499  24.215  24.812  1.00  0.00     0.026 C 
ATOM      9  C   UNL A   1      43.966  22.803  26.961  1.00  0.00     0.015 C 
ATOM     10  C   UNL A   1      45.967  22.894  25.391  1.00  0.00     0.015 C 
BRANCH   6  11
ATOM     11  N   UNL A   1      43.830  26.035  24.976  1.00  0.00    -0.353 N 
ATOM     12  C   UNL A   1      43.392  27.273  25.302  1.00  0.00     0.220 C 
ATOM     13  O   UNL A   1      42.673  27.841  24.475  1.00  0.00    -0.275 OA
ATOM     14  H   UNL A   1      43.618  25.776  24.050  1.00  0.00     0.163 HD
BRANCH  12  15
ATOM     15  C   UNL A   1      43.839  28.006  26.549  1.00  0.00     0.102 C 
BRANCH  15  16
ATOM     16  C   UNL A   1      43.234  29.366  26.891  1.00  0.00     0.038 C 
BRANCH  16  17
ATOM     17  C   UNL A   1      44.088  30.548  27.356  1.00  0.00     0.160 C 
BRANCH  17  18
ATOM     18  O   UNL A   1      44.322  30.830  28.732  1.00  0.00    -0.385 OA
ATOM     19  C   UNL A   1      45.180  31.881  29.119  1.00  0.00     0.194 C 
ENDBRANCH  17  18
ENDBRANCH  16  17
ENDBRANCH  15  16
ENDBRANCH  12  15
ENDBRANCH   6  11
ENDBRANCH   1   5
BRANCH   3  20
ATOM     20  C   UNL A   1      42.547  19.812  26.533  1.00  0.00     0.117 C 
BRANCH  20  21
ATOM     21  C   UNL A   1      41.077  20.172  26.634  1.00  0.00     0.042 C 
BRANCH  21  22
ATOM     22  C   UNL A   1      40.818  21.658  26.626  1.00  0.00     0.118 C 
BRANCH  22  23
ATOM     23  N   UNL A   1      39.579  22.015  25.939  1.00  0.00    -0.352 N 
ATOM     24  C   UNL A   1      38.821  23.158  25.992  1.00  0.00     0.251 C 
ATOM     25  H   UNL A   1      39.230  21.318  25.337  1.00  0.00     0.163 HD
ATOM     26  O   UNL A   1      37.748  23.197  25.390  1.00  0.00    -0.269 OA
BRANCH  24  27
ATOM     27  C   UNL A   1      39.267  24.326  26.781  1.00  0.00     0.039 A 
ATOM     28  C   UNL A   1      40.033  25.322  26.170  1.00  0.00     0.014 A 
ATOM     29  C   UNL A   1      38.928  24.449  28.127  1.00  0.00     0.014 A 
ATOM     30  C   UNL A   1      40.402  26.456  26.898  1.00  0.00     0.010 A 
ATOM     31  C   UNL A   1      39.138  25.646  28.790  1.00  0.00     0.010 A 
ATOM     32  C   UNL A   1      39.926  26.643  28.204  1.00  0.00    -0.014 A 
BRANCH  32  33
ATOM     33  C   UNL A   1      40.298  27.821  29.025  1.00  0.00     0.031 A 
ATOM     34  C   UNL A   1      41.645  27.851  29.706  1.00  0.00     0.074 A 
ATOM     35  C   UNL A   1      39.413  28.817  29.219  1.00  0.00     0.049 A 
ATOM     36  N   UNL A   1      42.130  28.729  30.547  1.00  0.00    -0.248 NA
ATOM     37  C   UNL A   1      42.549  26.716  29.447  1.00  0.00     0.031 C 
ATOM     38  C   UNL A   1      38.057  28.868  28.669  1.00  0.00     0.029 A 
ATOM     39  N   UNL A   1      39.523  29.978  29.939  1.00  0.00    -0.354 N 
ATOM     40  C   UNL A   1      43.370  28.231  30.934  1.00  0.00     0.074 A 
ATOM     41  C   UNL A   1      43.525  26.938  30.312  1.00  0.00     0.031 C 
ATOM     42  C   UNL A   1      37.479  30.024  29.034  1.00  0.00     0.029 A 
ATOM     43  C   UNL A   1      38.403  30.772  29.878  1.00  0.00     0.049 A 
ATOM     44  H   UNL A   1      40.328  30.220  30.452  1.00  0.00     0.167 HD
ATOM     45  C   UNL A   1      44.316  28.817  31.702  1.00  0.00     0.037 A 
ATOM     46  C   UNL A   1      38.158  31.969  30.441  1.00  0.00     0.037 A 
ATOM     47  C   UNL A   1      44.177  30.128  32.271  1.00  0.00     0.049 A 
ATOM     48  C   UNL A   1      39.233  32.613  31.275  1.00  0.00     0.074 A 
ATOM     49  C   UNL A   1      45.098  30.853  33.006  1.00  0.00     0.029 A 
ATOM     50  N   UNL A   1      43.041  30.917  32.156  1.00  0.00    -0.354 N 
ATOM     51  N   UNL A   1      40.428  32.164  31.575  1.00  0.00    -0.248 NA
ATOM     52  C   UNL A   1      38.928  33.933  31.840  1.00  0.00     0.031 C 
ATOM     53  C   UNL A   1      44.500  32.062  33.376  1.00  0.00     0.029 A 
ATOM     54  C   UNL A   1      43.230  32.113  32.824  1.00  0.00     0.049 A 
ATOM     55  H   UNL A   1      42.223  30.662  31.671  1.00  0.00     0.167 HD
ATOM     56  C   UNL A   1      41.030  33.158  32.335  1.00  0.00     0.074 A 
ATOM     57  C   UNL A   1      40.071  34.240  32.436  1.00  0.00     0.031 C 
ATOM     58  C   UNL A   1      42.262  33.178  32.898  1.00  0.00     0.037 A 
BRANCH  45  59
ATOM     59  C   UNL A   1      45.583  28.048  31.950  1.00  0.00     0.057 A 
ATOM     60  C   UNL A   1      45.728  27.185  33.047  1.00  0.00     0.134 A 
ATOM     61  C   UNL A   1      46.672  28.161  31.076  1.00  0.00     0.134 A 
ATOM     62  F   UNL A   1      44.731  27.042  33.934  1.00  0.00    -0.206 F 
ATOM     63  C   UNL A   1      46.918  26.495  33.286  1.00  0.00     0.040 A 
ATOM     64  C   UNL A   1      47.855  27.449  31.285  1.00  0.00     0.040 A 
ATOM     65  F   UNL A   1      46.604  28.964  30.004  1.00  0.00    -0.206 F 
ATOM     66  C   UNL A   1      47.984  26.620  32.398  1.00  0.00     0.006 A 
ENDBRANCH  45  59
BRANCH  46  67
ATOM     67  C   UNL A   1      36.862  32.655  30.202  1.00  0.00     0.057 A 
ATOM     68  C   UNL A   1      36.710  33.563  29.147  1.00  0.00     0.134 A 
ATOM     69  C   UNL A   1      35.747  32.426  31.017  1.00  0.00     0.134 A 
ATOM     70  F   UNL A   1      37.746  33.836  28.338  1.00  0.00    -0.206 F 
ATOM     71  C   UNL A   1      35.508  34.237  28.926  1.00  0.00     0.040 A 
ATOM     72  C   UNL A   1      34.531  33.072  30.792  1.00  0.00     0.040 A 
ATOM     73  F   UNL A   1      35.821  31.559  32.038  1.00  0.00    -0.206 F 
ATOM     74  C   UNL A   1      34.412  33.988  29.749  1.00  0.00     0.006 A 
ENDBRANCH  46  67
BRANCH  58  75
ATOM     75  C   UNL A   1      42.659  34.424  33.635  1.00  0.00     0.057 A 
ATOM     76  C   UNL A   1      43.167  35.547  32.972  1.00  0.00     0.134 A 
ATOM     77  C   UNL A   1      42.486  34.512  35.023  1.00  0.00     0.134 A 
ATOM     78  F   UNL A   1      43.366  35.524  31.646  1.00  0.00    -0.206 F 
ATOM     79  C   UNL A   1      43.515  36.706  33.668  1.00  0.00     0.040 A 
ATOM     80  C   UNL A   1      42.801  35.675  35.725  1.00  0.00     0.040 A 
ATOM     81  F   UNL A   1      41.992  33.474  35.715  1.00  0.00    -0.206 F 
ATOM     82  C   UNL A   1      43.324  36.774  35.047  1.00  0.00     0.006 A 
ENDBRANCH  58  75
ENDBRANCH  32  33
ENDBRANCH  24  27
ENDBRANCH  22  23
ENDBRANCH  21  22
ENDBRANCH  20  21
ENDBRANCH   3  20
TORSDOF 15
ENDMDL
