MODEL 1
REMARK VINA RESULT:      -9.4      0.000      0.000
REMARK SMILES COc1ccc([C@@H]([NH3+])CC(=O)NCCCNC(=O)c2ccc(-c3c4nc(c(-c5c(F)cccc5F)c5ccc([nH]5)c(-c5c(F)cccc5F)c5nc(c(-c6c(F)cccc6F)c6ccc3[nH]6)C=C5)C=C4)cc2)cc1
REMARK SMILES IDX 13 1 12 2 10 3 11 4 9 6 7 7 6 8 3 9 4 10 74 11 5 12 73 13
REMARK SMILES IDX 2 14 1 15 8 16 14 20 15 21 16 22 17 23 18 25 19 26 20 27
REMARK SMILES IDX 72 28 21 29 71 30 22 31 23 32 24 33 65 34 25 35 70 36 64 37
REMARK SMILES IDX 66 38 26 39 69 40 63 41 62 42 27 44 53 45 36 46 52 47 37 48
REMARK SMILES IDX 40 49 51 50 67 51 38 52 39 53 50 55 68 56 41 57 28 58 29 59
REMARK SMILES IDX 34 60 30 61 31 62 33 63 35 64 32 65 54 66 55 67 60 68 56 69
REMARK SMILES IDX 57 70 59 71 61 72 58 73 42 74 43 75 48 76 44 77 45 78 47 79
REMARK SMILES IDX 49 80 46 81
REMARK H PARENT 12 5 8 17 8 18 8 19 16 24 66 43 40 54
REMARK Flexibility Score: inf
ROOT
ATOM      1  C   UNL A   1      45.740  20.078  25.185  1.00  0.00     0.117 C 
ENDROOT
BRANCH   1   2
ATOM      2  N   UNL A   1      45.499  21.026  24.112  1.00  0.00    -0.356 N 
ATOM      3  C   UNL A   1      45.403  22.384  24.161  1.00  0.00     0.226 C 
ATOM      4  O   UNL A   1      44.952  22.965  23.172  1.00  0.00    -0.275 OA
ATOM      5  H   UNL A   1      45.388  20.629  23.217  1.00  0.00     0.163 HD
BRANCH   3   6
ATOM      6  C   UNL A   1      45.875  23.169  25.370  1.00  0.00     0.170 C 
BRANCH   6   7
ATOM      7  C   UNL A   1      46.433  24.558  25.002  1.00  0.00     0.221 C 
BRANCH   7   8
ATOM      8  C   UNL A   1      45.511  25.710  25.376  1.00  0.00     0.010 A 
ATOM      9  C   UNL A   1      43.763  27.755  26.177  1.00  0.00     0.118 A 
ATOM     10  C   UNL A   1      45.120  27.855  26.466  1.00  0.00     0.047 A 
ATOM     11  C   UNL A   1      43.283  26.695  25.410  1.00  0.00     0.047 A 
ATOM     12  C   UNL A   1      45.990  26.838  26.065  1.00  0.00     0.014 A 
ATOM     13  C   UNL A   1      44.155  25.678  25.008  1.00  0.00     0.014 A 
BRANCH   9  14
ATOM     14  O   UNL A   1      42.933  28.741  26.635  1.00  0.00    -0.497 OA
ATOM     15  C   UNL A   1      41.821  28.918  25.755  1.00  0.00     0.278 C 
ENDBRANCH   9  14
ENDBRANCH   7   8
BRANCH   7  16
ATOM     16  N   UNL A   1      47.725  24.767  25.674  1.00  0.00    -0.351 N 
ATOM     17  H   UNL A   1      47.945  25.763  25.690  1.00  0.00     0.345 HD
ATOM     18  H   UNL A   1      48.456  24.265  25.168  1.00  0.00     0.345 HD
ATOM     19  H   UNL A   1      47.673  24.415  26.630  1.00  0.00     0.345 HD
ENDBRANCH   7  16
ENDBRANCH   6   7
ENDBRANCH   3   6
ENDBRANCH   1   2
BRANCH   1  20
ATOM     20  C   UNL A   1      44.869  18.839  25.008  1.00  0.00     0.042 C 
BRANCH  20  21
ATOM     21  C   UNL A   1      43.961  18.509  26.181  1.00  0.00     0.118 C 
BRANCH  21  22
ATOM     22  N   UNL A   1      42.555  18.499  25.806  1.00  0.00    -0.352 N 
ATOM     23  C   UNL A   1      41.532  19.388  26.036  1.00  0.00     0.251 C 
ATOM     24  H   UNL A   1      42.286  17.706  25.290  1.00  0.00     0.163 HD
ATOM     25  O   UNL A   1      40.386  19.038  25.765  1.00  0.00    -0.269 OA
BRANCH  23  26
ATOM     26  C   UNL A   1      41.750  20.737  26.625  1.00  0.00     0.039 A 
ATOM     27  C   UNL A   1      42.190  21.766  25.777  1.00  0.00     0.014 A 
ATOM     28  C   UNL A   1      41.604  21.008  27.986  1.00  0.00     0.014 A 
ATOM     29  C   UNL A   1      42.424  23.055  26.275  1.00  0.00     0.010 A 
ATOM     30  C   UNL A   1      41.754  22.310  28.470  1.00  0.00     0.010 A 
ATOM     31  C   UNL A   1      42.186  23.344  27.625  1.00  0.00    -0.014 A 
BRANCH  31  32
ATOM     32  C   UNL A   1      42.460  24.690  28.195  1.00  0.00     0.031 A 
ATOM     33  C   UNL A   1      43.835  25.011  28.721  1.00  0.00     0.074 A 
ATOM     34  C   UNL A   1      41.479  25.608  28.294  1.00  0.00     0.049 A 
ATOM     35  N   UNL A   1      44.262  26.092  29.327  1.00  0.00    -0.248 NA
ATOM     36  C   UNL A   1      44.860  23.967  28.567  1.00  0.00     0.031 C 
ATOM     37  C   UNL A   1      40.099  25.424  27.845  1.00  0.00     0.029 A 
ATOM     38  N   UNL A   1      41.492  26.877  28.819  1.00  0.00    -0.354 N 
ATOM     39  C   UNL A   1      45.595  25.850  29.636  1.00  0.00     0.074 A 
ATOM     40  C   UNL A   1      45.889  24.500  29.206  1.00  0.00     0.031 C 
ATOM     41  C   UNL A   1      39.400  26.541  28.107  1.00  0.00     0.029 A 
ATOM     42  C   UNL A   1      40.272  27.507  28.773  1.00  0.00     0.049 A 
ATOM     43  H   UNL A   1      42.300  27.295  29.195  1.00  0.00     0.167 HD
ATOM     44  C   UNL A   1      46.503  26.682  30.202  1.00  0.00     0.037 A 
ATOM     45  C   UNL A   1      39.895  28.719  29.223  1.00  0.00     0.037 A 
ATOM     46  C   UNL A   1      46.219  28.030  30.616  1.00  0.00     0.049 A 
ATOM     47  C   UNL A   1      40.911  29.615  29.883  1.00  0.00     0.074 A 
ATOM     48  C   UNL A   1      47.083  28.967  31.155  1.00  0.00     0.029 A 
ATOM     49  N   UNL A   1      44.972  28.632  30.546  1.00  0.00    -0.354 N 
ATOM     50  N   UNL A   1      42.184  29.397  30.109  1.00  0.00    -0.248 NA
ATOM     51  C   UNL A   1      40.438  30.929  30.343  1.00  0.00     0.031 C 
ATOM     52  C   UNL A   1      46.348  30.117  31.460  1.00  0.00     0.029 A 
ATOM     53  C   UNL A   1      45.038  29.918  31.056  1.00  0.00     0.049 A 
ATOM     54  H   UNL A   1      44.158  28.208  30.185  1.00  0.00     0.167 HD
ATOM     55  C   UNL A   1      42.669  30.556  30.704  1.00  0.00     0.074 A 
ATOM     56  C   UNL A   1      41.557  31.478  30.794  1.00  0.00     0.031 C 
ATOM     57  C   UNL A   1      43.926  30.832  31.132  1.00  0.00     0.037 A 
BRANCH  44  58
ATOM     58  C   UNL A   1      47.891  26.146  30.409  1.00  0.00     0.057 A 
ATOM     59  C   UNL A   1      48.854  26.167  29.391  1.00  0.00     0.134 A 
ATOM     60  C   UNL A   1      48.275  25.617  31.648  1.00  0.00     0.134 A 
ATOM     61  F   UNL A   1      48.549  26.650  28.177  1.00  0.00    -0.206 F 
ATOM     62  C   UNL A   1      50.135  25.647  29.584  1.00  0.00     0.040 A 
ATOM     63  C   UNL A   1      49.563  25.124  31.864  1.00  0.00     0.040 A 
ATOM     64  F   UNL A   1      47.407  25.572  32.670  1.00  0.00    -0.206 F 
ATOM     65  C   UNL A   1      50.494  25.128  30.827  1.00  0.00     0.006 A 
ENDBRANCH  44  58
BRANCH  45  66
ATOM     66  C   UNL A   1      38.490  29.174  29.053  1.00  0.00     0.057 A 
ATOM     67  C   UNL A   1      37.581  29.123  30.116  1.00  0.00     0.134 A 
ATOM     68  C   UNL A   1      38.019  29.650  27.824  1.00  0.00     0.134 A 
ATOM     69  F   UNL A   1      37.967  28.655  31.313  1.00  0.00    -0.206 F 
ATOM     70  C   UNL A   1      36.249  29.509  29.959  1.00  0.00     0.040 A 
ATOM     71  C   UNL A   1      36.696  30.065  27.660  1.00  0.00     0.040 A 
ATOM     72  F   UNL A   1      38.840  29.726  26.767  1.00  0.00    -0.206 F 
ATOM     73  C   UNL A   1      35.804  29.987  28.729  1.00  0.00     0.006 A 
ENDBRANCH  45  66
BRANCH  57  74
ATOM     74  C   UNL A   1      44.182  32.200  31.699  1.00  0.00     0.057 A 
ATOM     75  C   UNL A   1      44.073  32.472  33.069  1.00  0.00     0.134 A 
ATOM     76  C   UNL A   1      44.593  33.249  30.865  1.00  0.00     0.134 A 
ATOM     77  F   UNL A   1      43.674  31.516  33.921  1.00  0.00    -0.206 F 
ATOM     78  C   UNL A   1      44.342  33.740  33.585  1.00  0.00     0.040 A 
ATOM     79  C   UNL A   1      44.893  34.513  31.373  1.00  0.00     0.040 A 
ATOM     80  F   UNL A   1      44.728  33.056  29.544  1.00  0.00    -0.206 F 
ATOM     81  C   UNL A   1      44.762  34.764  32.736  1.00  0.00     0.006 A 
ENDBRANCH  57  74
ENDBRANCH  31  32
ENDBRANCH  23  26
ENDBRANCH  21  22
ENDBRANCH  20  21
ENDBRANCH   1  20
TORSDOF 14
ENDMDL
MODEL 2
REMARK VINA RESULT:      -9.2      0.528      6.645
REMARK SMILES COc1ccc([C@@H]([NH3+])CC(=O)NCCCNC(=O)c2ccc(-c3c4nc(c(-c5c(F)cccc5F)c5ccc([nH]5)c(-c5c(F)cccc5F)c5nc(c(-c6c(F)cccc6F)c6ccc3[nH]6)C=C5)C=C4)cc2)cc1
REMARK SMILES IDX 13 1 12 2 10 3 11 4 9 6 7 7 6 8 3 9 4 10 74 11 5 12 73 13
REMARK SMILES IDX 2 14 1 15 8 16 14 20 15 21 16 22 17 23 18 25 19 26 20 27
REMARK SMILES IDX 72 28 21 29 71 30 22 31 23 32 24 33 65 34 25 35 70 36 64 37
REMARK SMILES IDX 66 38 26 39 69 40 63 41 62 42 27 44 53 45 36 46 52 47 37 48
REMARK SMILES IDX 40 49 51 50 67 51 38 52 39 53 50 55 68 56 41 57 28 58 29 59
REMARK SMILES IDX 34 60 30 61 31 62 33 63 35 64 32 65 54 66 55 67 60 68 56 69
REMARK SMILES IDX 57 70 59 71 61 72 58 73 42 74 43 75 48 76 44 77 45 78 47 79
REMARK SMILES IDX 49 80 46 81
REMARK H PARENT 12 5 8 17 8 18 8 19 16 24 66 43 40 54
REMARK Flexibility Score: inf
ROOT
ATOM      1  C   UNL A   1      45.159  19.776  24.836  1.00  0.00     0.117 C 
ENDROOT
BRANCH   1   2
ATOM      2  N   UNL A   1      44.900  20.775  23.813  1.00  0.00    -0.356 N 
ATOM      3  C   UNL A   1      44.823  22.130  23.926  1.00  0.00     0.226 C 
ATOM      4  O   UNL A   1      44.352  22.761  22.977  1.00  0.00    -0.275 OA
ATOM      5  H   UNL A   1      44.759  20.420  22.905  1.00  0.00     0.163 HD
BRANCH   3   6
ATOM      6  C   UNL A   1      45.338  22.855  25.155  1.00  0.00     0.170 C 
BRANCH   6   7
ATOM      7  C   UNL A   1      46.049  24.179  24.816  1.00  0.00     0.221 C 
BRANCH   7   8
ATOM      8  C   UNL A   1      45.256  25.419  25.203  1.00  0.00     0.010 A 
ATOM      9  C   UNL A   1      43.838  27.769  25.792  1.00  0.00     0.118 A 
ATOM     10  C   UNL A   1      43.159  26.660  25.296  1.00  0.00     0.047 A 
ATOM     11  C   UNL A   1      45.197  27.688  26.089  1.00  0.00     0.047 A 
ATOM     12  C   UNL A   1      43.865  25.491  25.005  1.00  0.00     0.014 A 
ATOM     13  C   UNL A   1      45.902  26.516  25.798  1.00  0.00     0.014 A 
BRANCH   9  14
ATOM     14  O   UNL A   1      43.124  28.916  26.011  1.00  0.00    -0.497 OA
ATOM     15  C   UNL A   1      41.786  28.779  25.530  1.00  0.00     0.278 C 
ENDBRANCH   9  14
ENDBRANCH   7   8
BRANCH   7  16
ATOM     16  N   UNL A   1      47.350  24.233  25.502  1.00  0.00    -0.351 N 
ATOM     17  H   UNL A   1      47.873  23.378  25.309  1.00  0.00     0.345 HD
ATOM     18  H   UNL A   1      47.201  24.321  26.507  1.00  0.00     0.345 HD
ATOM     19  H   UNL A   1      47.879  25.038  25.166  1.00  0.00     0.345 HD
ENDBRANCH   7  16
ENDBRANCH   6   7
ENDBRANCH   3   6
ENDBRANCH   1   2
BRANCH   1  20
ATOM     20  C   UNL A   1      44.100  18.680  24.791  1.00  0.00     0.042 C 
BRANCH  20  21
ATOM     21  C   UNL A   1      43.275  18.521  26.058  1.00  0.00     0.118 C 
BRANCH  21  22
ATOM     22  N   UNL A   1      41.850  18.682  25.814  1.00  0.00    -0.352 N 
ATOM     23  C   UNL A   1      40.969  19.691  26.123  1.00  0.00     0.251 C 
ATOM     24  H   UNL A   1      41.439  17.926  25.336  1.00  0.00     0.163 HD
ATOM     25  O   UNL A   1      39.768  19.483  25.962  1.00  0.00    -0.269 OA
BRANCH  23  26
ATOM     26  C   UNL A   1      41.403  21.006  26.667  1.00  0.00     0.039 A 
ATOM     27  C   UNL A   1      41.432  21.168  28.062  1.00  0.00     0.014 A 
ATOM     28  C   UNL A   1      41.717  22.099  25.860  1.00  0.00     0.014 A 
ATOM     29  C   UNL A   1      41.822  22.385  28.634  1.00  0.00     0.010 A 
ATOM     30  C   UNL A   1      42.187  23.287  26.427  1.00  0.00     0.010 A 
ATOM     31  C   UNL A   1      42.225  23.451  27.820  1.00  0.00    -0.014 A 
BRANCH  31  32
ATOM     32  C   UNL A   1      42.607  24.770  28.392  1.00  0.00     0.031 A 
ATOM     33  C   UNL A   1      41.563  25.844  28.554  1.00  0.00     0.074 A 
ATOM     34  C   UNL A   1      43.888  25.032  28.719  1.00  0.00     0.049 A 
ATOM     35  N   UNL A   1      41.701  27.084  28.957  1.00  0.00    -0.248 NA
ATOM     36  C   UNL A   1      40.185  25.483  28.190  1.00  0.00     0.031 C 
ATOM     37  C   UNL A   1      45.003  24.094  28.595  1.00  0.00     0.029 A 
ATOM     38  N   UNL A   1      44.468  26.176  29.211  1.00  0.00    -0.354 N 
ATOM     39  C   UNL A   1      40.434  27.648  28.881  1.00  0.00     0.074 A 
ATOM     40  C   UNL A   1      39.553  26.637  28.338  1.00  0.00     0.031 C 
ATOM     41  C   UNL A   1      46.131  24.696  29.006  1.00  0.00     0.029 A 
ATOM     42  C   UNL A   1      45.826  26.072  29.391  1.00  0.00     0.049 A 
ATOM     43  H   UNL A   1      43.958  26.993  29.414  1.00  0.00     0.167 HD
ATOM     44  C   UNL A   1      40.029  28.887  29.253  1.00  0.00     0.037 A 
ATOM     45  C   UNL A   1      46.726  26.985  29.809  1.00  0.00     0.037 A 
ATOM     46  C   UNL A   1      40.898  29.890  29.808  1.00  0.00     0.049 A 
ATOM     47  C   UNL A   1      46.261  28.368  30.183  1.00  0.00     0.074 A 
ATOM     48  C   UNL A   1      40.573  31.156  30.261  1.00  0.00     0.029 A 
ATOM     49  N   UNL A   1      42.266  29.743  29.980  1.00  0.00    -0.354 N 
ATOM     50  N   UNL A   1      45.048  28.867  30.167  1.00  0.00    -0.248 NA
ATOM     51  C   UNL A   1      47.291  29.312  30.640  1.00  0.00     0.031 C 
ATOM     52  C   UNL A   1      41.753  31.796  30.656  1.00  0.00     0.029 A 
ATOM     53  C   UNL A   1      42.804  30.906  30.507  1.00  0.00     0.049 A 
ATOM     54  H   UNL A   1      42.780  28.931  29.762  1.00  0.00     0.167 HD
ATOM     55  C   UNL A   1      45.165  30.168  30.644  1.00  0.00     0.074 A 
ATOM     56  C   UNL A   1      46.565  30.377  30.950  1.00  0.00     0.031 C 
ATOM     57  C   UNL A   1      44.198  31.102  30.817  1.00  0.00     0.037 A 
BRANCH  44  58
ATOM     58  C   UNL A   1      38.577  29.222  29.062  1.00  0.00     0.057 A 
ATOM     59  C   UNL A   1      37.652  29.137  30.112  1.00  0.00     0.134 A 
ATOM     60  C   UNL A   1      38.100  29.652  27.817  1.00  0.00     0.134 A 
ATOM     61  F   UNL A   1      38.040  28.722  31.328  1.00  0.00    -0.206 F 
ATOM     62  C   UNL A   1      36.301  29.429  29.922  1.00  0.00     0.040 A 
ATOM     63  C   UNL A   1      36.757  29.978  27.622  1.00  0.00     0.040 A 
ATOM     64  F   UNL A   1      38.932  29.764  26.770  1.00  0.00    -0.206 F 
ATOM     65  C   UNL A   1      35.851  29.857  28.673  1.00  0.00     0.006 A 
ENDBRANCH  44  58
BRANCH  45  66
ATOM     66  C   UNL A   1      48.163  26.620  29.915  1.00  0.00     0.057 A 
ATOM     67  C   UNL A   1      49.049  26.862  28.858  1.00  0.00     0.134 A 
ATOM     68  C   UNL A   1      48.679  26.006  31.060  1.00  0.00     0.134 A 
ATOM     69  F   UNL A   1      48.609  27.428  27.724  1.00  0.00    -0.206 F 
ATOM     70  C   UNL A   1      50.392  26.488  28.929  1.00  0.00     0.040 A 
ATOM     71  C   UNL A   1      50.026  25.651  31.156  1.00  0.00     0.040 A 
ATOM     72  F   UNL A   1      47.883  25.749  32.109  1.00  0.00    -0.206 F 
ATOM     73  C   UNL A   1      50.885  25.885  30.083  1.00  0.00     0.006 A 
ENDBRANCH  45  66
BRANCH  57  74
ATOM     74  C   UNL A   1      44.605  32.424  31.402  1.00  0.00     0.057 A 
ATOM     75  C   UNL A   1      44.994  33.506  30.602  1.00  0.00     0.134 A 
ATOM     76  C   UNL A   1      44.560  32.632  32.788  1.00  0.00     0.134 A 
ATOM     77  F   UNL A   1      45.069  33.371  29.269  1.00  0.00    -0.206 F 
ATOM     78  C   UNL A   1      45.342  34.738  31.158  1.00  0.00     0.040 A 
ATOM     79  C   UNL A   1      44.878  33.867  33.353  1.00  0.00     0.040 A 
ATOM     80  F   UNL A   1      44.188  31.642  33.613  1.00  0.00    -0.206 F 
ATOM     81  C   UNL A   1      45.276  34.923  32.538  1.00  0.00     0.006 A 
ENDBRANCH  57  74
ENDBRANCH  31  32
ENDBRANCH  23  26
ENDBRANCH  21  22
ENDBRANCH  20  21
ENDBRANCH   1  20
TORSDOF 14
ENDMDL
MODEL 3
REMARK VINA RESULT:      -8.3      4.197      9.091
REMARK SMILES COc1ccc([C@@H]([NH3+])CC(=O)NCCCNC(=O)c2ccc(-c3c4nc(c(-c5c(F)cccc5F)c5ccc([nH]5)c(-c5c(F)cccc5F)c5nc(c(-c6c(F)cccc6F)c6ccc3[nH]6)C=C5)C=C4)cc2)cc1
REMARK SMILES IDX 13 1 12 2 10 3 11 4 9 6 7 7 6 8 3 9 4 10 74 11 5 12 73 13
REMARK SMILES IDX 2 14 1 15 8 16 14 20 15 21 16 22 17 23 18 25 19 26 20 27
REMARK SMILES IDX 72 28 21 29 71 30 22 31 23 32 24 33 65 34 25 35 70 36 64 37
REMARK SMILES IDX 66 38 26 39 69 40 63 41 62 42 27 44 53 45 36 46 52 47 37 48
REMARK SMILES IDX 40 49 51 50 67 51 38 52 39 53 50 55 68 56 41 57 28 58 29 59
REMARK SMILES IDX 34 60 30 61 31 62 33 63 35 64 32 65 54 66 55 67 60 68 56 69
REMARK SMILES IDX 57 70 59 71 61 72 58 73 42 74 43 75 48 76 44 77 45 78 47 79
REMARK SMILES IDX 49 80 46 81
REMARK H PARENT 12 5 8 17 8 18 8 19 16 24 66 43 40 54
REMARK Flexibility Score: inf
ROOT
ATOM      1  C   UNL A   1      36.273  19.740  24.926  1.00  0.00     0.117 C 
ENDROOT
BRANCH   1   2
ATOM      2  N   UNL A   1      35.942  20.909  25.721  1.00  0.00    -0.356 N 
ATOM      3  C   UNL A   1      35.077  21.926  25.449  1.00  0.00     0.226 C 
ATOM      4  O   UNL A   1      35.136  22.936  26.153  1.00  0.00    -0.275 OA
ATOM      5  H   UNL A   1      36.412  20.977  26.585  1.00  0.00     0.163 HD
BRANCH   3   6
ATOM      6  C   UNL A   1      34.040  21.812  24.347  1.00  0.00     0.170 C 
BRANCH   6   7
ATOM      7  C   UNL A   1      32.750  21.105  24.808  1.00  0.00     0.221 C 
BRANCH   7   8
ATOM      8  C   UNL A   1      32.800  19.590  24.681  1.00  0.00     0.010 A 
ATOM      9  C   UNL A   1      33.035  16.805  24.428  1.00  0.00     0.118 A 
ATOM     10  C   UNL A   1      32.893  17.372  25.690  1.00  0.00     0.047 A 
ATOM     11  C   UNL A   1      32.965  17.600  23.286  1.00  0.00     0.047 A 
ATOM     12  C   UNL A   1      32.774  18.758  25.815  1.00  0.00     0.014 A 
ATOM     13  C   UNL A   1      32.844  18.987  23.413  1.00  0.00     0.014 A 
BRANCH   9  14
ATOM     14  O   UNL A   1      33.208  15.449  24.348  1.00  0.00    -0.497 OA
ATOM     15  C   UNL A   1      32.694  14.803  25.515  1.00  0.00     0.278 C 
ENDBRANCH   9  14
ENDBRANCH   7   8
BRANCH   7  16
ATOM     16  N   UNL A   1      32.478  21.441  26.215  1.00  0.00    -0.351 N 
ATOM     17  H   UNL A   1      33.242  22.007  26.585  1.00  0.00     0.345 HD
ATOM     18  H   UNL A   1      32.395  20.582  26.759  1.00  0.00     0.345 HD
ATOM     19  H   UNL A   1      31.605  21.966  26.276  1.00  0.00     0.345 HD
ENDBRANCH   7  16
ENDBRANCH   6   7
ENDBRANCH   3   6
ENDBRANCH   1   2
BRANCH   1  20
ATOM     20  C   UNL A   1      37.768  19.702  24.631  1.00  0.00     0.042 C 
BRANCH  20  21
ATOM     21  C   UNL A   1      38.672  20.056  25.801  1.00  0.00     0.118 C 
BRANCH  21  22
ATOM     22  N   UNL A   1      39.838  19.191  25.880  1.00  0.00    -0.352 N 
ATOM     23  C   UNL A   1      41.168  19.453  26.115  1.00  0.00     0.251 C 
ATOM     24  H   UNL A   1      39.639  18.238  25.738  1.00  0.00     0.163 HD
ATOM     25  O   UNL A   1      41.978  18.547  25.938  1.00  0.00    -0.269 OA
BRANCH  23  26
ATOM     26  C   UNL A   1      41.665  20.788  26.544  1.00  0.00     0.039 A 
ATOM     27  C   UNL A   1      41.905  21.755  25.554  1.00  0.00     0.014 A 
ATOM     28  C   UNL A   1      41.966  21.100  27.870  1.00  0.00     0.014 A 
ATOM     29  C   UNL A   1      42.384  23.026  25.894  1.00  0.00     0.010 A 
ATOM     30  C   UNL A   1      42.363  22.393  28.222  1.00  0.00     0.010 A 
ATOM     31  C   UNL A   1      42.597  23.364  27.236  1.00  0.00    -0.014 A 
BRANCH  31  32
ATOM     32  C   UNL A   1      43.142  24.691  27.630  1.00  0.00     0.031 A 
ATOM     33  C   UNL A   1      42.202  25.779  28.083  1.00  0.00     0.074 A 
ATOM     34  C   UNL A   1      44.461  24.948  27.537  1.00  0.00     0.049 A 
ATOM     35  N   UNL A   1      42.461  27.026  28.394  1.00  0.00    -0.248 NA
ATOM     36  C   UNL A   1      40.778  25.423  28.174  1.00  0.00     0.031 C 
ATOM     37  C   UNL A   1      45.480  23.997  27.095  1.00  0.00     0.029 A 
ATOM     38  N   UNL A   1      45.168  26.097  27.796  1.00  0.00    -0.354 N 
ATOM     39  C   UNL A   1      41.235  27.600  28.702  1.00  0.00     0.074 A 
ATOM     40  C   UNL A   1      40.226  26.585  28.484  1.00  0.00     0.031 C 
ATOM     41  C   UNL A   1      46.682  24.597  27.120  1.00  0.00     0.029 A 
ATOM     42  C   UNL A   1      46.515  25.985  27.548  1.00  0.00     0.049 A 
ATOM     43  H   UNL A   1      44.749  26.923  28.128  1.00  0.00     0.167 HD
ATOM     44  C   UNL A   1      40.968  28.851  29.152  1.00  0.00     0.037 A 
ATOM     45  C   UNL A   1      47.501  26.897  27.643  1.00  0.00     0.037 A 
ATOM     46  C   UNL A   1      41.969  29.857  29.386  1.00  0.00     0.049 A 
ATOM     47  C   UNL A   1      47.179  28.293  28.110  1.00  0.00     0.074 A 
ATOM     48  C   UNL A   1      41.804  31.136  29.887  1.00  0.00     0.029 A 
ATOM     49  N   UNL A   1      43.322  29.701  29.127  1.00  0.00    -0.354 N 
ATOM     50  N   UNL A   1      46.023  28.803  28.461  1.00  0.00    -0.248 NA
ATOM     51  C   UNL A   1      48.302  29.237  28.202  1.00  0.00     0.031 C 
ATOM     52  C   UNL A   1      43.050  31.773  29.880  1.00  0.00     0.029 A 
ATOM     53  C   UNL A   1      44.000  30.870  29.433  1.00  0.00     0.049 A 
ATOM     54  H   UNL A   1      43.741  28.880  28.779  1.00  0.00     0.167 HD
ATOM     55  C   UNL A   1      46.285  30.113  28.846  1.00  0.00     0.074 A 
ATOM     56  C   UNL A   1      47.711  30.315  28.697  1.00  0.00     0.031 C 
ATOM     57  C   UNL A   1      45.422  31.059  29.289  1.00  0.00     0.037 A 
BRANCH  44  58
ATOM     58  C   UNL A   1      39.530  29.195  29.414  1.00  0.00     0.057 A 
ATOM     59  C   UNL A   1      38.660  29.577  28.384  1.00  0.00     0.134 A 
ATOM     60  C   UNL A   1      39.003  29.129  30.710  1.00  0.00     0.134 A 
ATOM     61  F   UNL A   1      39.102  29.672  27.120  1.00  0.00    -0.206 F 
ATOM     62  C   UNL A   1      37.330  29.918  28.637  1.00  0.00     0.040 A 
ATOM     63  C   UNL A   1      37.667  29.436  30.972  1.00  0.00     0.040 A 
ATOM     64  F   UNL A   1      39.777  28.764  31.743  1.00  0.00    -0.206 F 
ATOM     65  C   UNL A   1      36.829  29.842  29.936  1.00  0.00     0.006 A 
ENDBRANCH  44  58
BRANCH  45  66
ATOM     66  C   UNL A   1      48.899  26.521  27.306  1.00  0.00     0.057 A 
ATOM     67  C   UNL A   1      49.405  26.706  26.014  1.00  0.00     0.134 A 
ATOM     68  C   UNL A   1      49.754  25.953  28.257  1.00  0.00     0.134 A 
ATOM     69  F   UNL A   1      48.626  27.225  25.052  1.00  0.00    -0.206 F 
ATOM     70  C   UNL A   1      50.702  26.320  25.673  1.00  0.00     0.040 A 
ATOM     71  C   UNL A   1      51.063  25.587  27.938  1.00  0.00     0.040 A 
ATOM     72  F   UNL A   1      49.332  25.752  29.514  1.00  0.00    -0.206 F 
ATOM     73  C   UNL A   1      51.537  25.764  26.639  1.00  0.00     0.006 A 
ENDBRANCH  45  66
BRANCH  57  74
ATOM     74  C   UNL A   1      45.994  32.390  29.688  1.00  0.00     0.057 A 
ATOM     75  C   UNL A   1      46.464  32.641  30.983  1.00  0.00     0.134 A 
ATOM     76  C   UNL A   1      46.123  33.419  28.745  1.00  0.00     0.134 A 
ATOM     77  F   UNL A   1      46.361  31.703  31.937  1.00  0.00    -0.206 F 
ATOM     78  C   UNL A   1      47.021  33.872  31.332  1.00  0.00     0.040 A 
ATOM     79  C   UNL A   1      46.705  34.644  29.074  1.00  0.00     0.040 A 
ATOM     80  F   UNL A   1      45.703  33.244  27.483  1.00  0.00    -0.206 F 
ATOM     81  C   UNL A   1      47.150  34.876  30.373  1.00  0.00     0.006 A 
ENDBRANCH  57  74
ENDBRANCH  31  32
ENDBRANCH  23  26
ENDBRANCH  21  22
ENDBRANCH  20  21
ENDBRANCH   1  20
TORSDOF 14
ENDMDL
