MODEL 1
REMARK VINA RESULT:     -13.5      0.000      0.000
REMARK SMILES Cc1cccc(-c2ccccc2C(=O)N2CC[C@H](O)C[C@@H]2C(=O)NCCCNC(=O)c2ccc(-c3c4nc(c(-c5c(F)cccc5F)c5ccc([nH]5)c(-c5c(F)cccc5F)c5nc(c(-c6c(F)cccc6F)c6ccc3[nH]6)C=C5)C=C4)cc2)c1
REMARK SMILES IDX 25 1 24 2 22 3 23 4 21 6 15 7 16 8 17 9 20 10 18 11 13 12
REMARK SMILES IDX 14 13 12 14 7 15 8 16 9 17 11 18 10 19 6 20 1 21 2 22 3 23
REMARK SMILES IDX 85 24 4 25 5 26 19 27 26 29 27 30 28 31 29 32 30 34 31 35
REMARK SMILES IDX 32 36 84 37 33 38 83 39 34 40 35 41 36 42 77 43 37 44 82 45
REMARK SMILES IDX 76 46 78 47 38 48 81 49 75 50 74 51 39 53 65 54 48 55 64 56
REMARK SMILES IDX 49 57 52 58 63 59 79 60 50 61 51 62 62 64 80 65 53 66 40 67
REMARK SMILES IDX 41 68 46 69 42 70 43 71 45 72 47 73 44 74 66 75 67 76 72 77
REMARK SMILES IDX 68 78 69 79 71 80 73 81 70 82 54 83 55 84 60 85 56 86 57 87
REMARK SMILES IDX 59 88 61 89 58 90
REMARK H PARENT 24 5 19 28 28 33 78 52 52 63
REMARK Flexibility Score: inf
ROOT
ATOM      1  C   UNL A   1      32.356  30.353  26.651  1.00  0.00     0.117 C 
ENDROOT
BRANCH   1   2
ATOM      2  N   UNL A   1      32.887  30.136  25.310  1.00  0.00    -0.354 N 
ATOM      3  C   UNL A   1      32.628  29.152  24.397  1.00  0.00     0.242 C 
ATOM      4  O   UNL A   1      33.277  29.183  23.344  1.00  0.00    -0.273 OA
ATOM      5  H   UNL A   1      33.540  30.811  25.013  1.00  0.00     0.163 HD
BRANCH   3   6
ATOM      6  C   UNL A   1      31.667  27.977  24.708  1.00  0.00     0.177 C 
ATOM      7  N   UNL A   1      32.332  26.704  24.370  1.00  0.00    -0.326 N 
ATOM      8  C   UNL A   1      32.409  26.351  22.949  1.00  0.00     0.123 C 
ATOM      9  C   UNL A   1      31.032  26.372  22.300  1.00  0.00     0.053 C 
ATOM     10  C   UNL A   1      30.317  28.131  23.987  1.00  0.00     0.067 C 
ATOM     11  C   UNL A   1      30.310  27.696  22.520  1.00  0.00     0.118 C 
BRANCH   7  12
ATOM     12  C   UNL A   1      32.900  25.981  25.420  1.00  0.00     0.255 C 
ATOM     13  O   UNL A   1      33.983  26.314  25.902  1.00  0.00    -0.269 OA
BRANCH  12  14
ATOM     14  C   UNL A   1      32.315  24.675  25.863  1.00  0.00     0.047 A 
ATOM     15  C   UNL A   1      32.895  23.447  25.474  1.00  0.00    -0.006 A 
ATOM     16  C   UNL A   1      32.151  22.265  25.683  1.00  0.00     0.009 A 
ATOM     17  C   UNL A   1      30.881  22.289  26.260  1.00  0.00     0.001 A 
ATOM     18  C   UNL A   1      31.029  24.685  26.441  1.00  0.00     0.014 A 
ATOM     19  C   UNL A   1      30.324  23.499  26.650  1.00  0.00     0.001 A 
BRANCH  15  20
ATOM     20  C   UNL A   1      34.224  23.324  24.851  1.00  0.00    -0.017 A 
ATOM     21  C   UNL A   1      37.894  23.097  25.894  1.00  0.00     0.044 C 
ATOM     22  C   UNL A   1      36.654  23.130  25.051  1.00  0.00    -0.051 A 
ATOM     23  C   UNL A   1      36.754  23.009  23.661  1.00  0.00     0.003 A 
ATOM     24  C   UNL A   1      35.389  23.290  25.635  1.00  0.00     0.012 A 
ATOM     25  C   UNL A   1      35.610  23.044  22.867  1.00  0.00     0.001 A 
ATOM     26  C   UNL A   1      34.356  23.200  23.458  1.00  0.00     0.009 A 
ENDBRANCH  15  20
ENDBRANCH  12  14
ENDBRANCH   7  12
BRANCH  11  27
ATOM     27  O   UNL A   1      30.835  28.693  21.652  1.00  0.00    -0.393 OA
ATOM     28  H   UNL A   1      30.242  28.806  20.893  1.00  0.00     0.210 HD
ENDBRANCH  11  27
ENDBRANCH   3   6
ENDBRANCH   1   2
BRANCH   1  29
ATOM     29  C   UNL A   1      33.243  31.265  27.491  1.00  0.00     0.042 C 
BRANCH  29  30
ATOM     30  C   UNL A   1      34.535  30.634  27.984  1.00  0.00     0.118 C 
BRANCH  30  31
ATOM     31  N   UNL A   1      35.356  31.494  28.824  1.00  0.00    -0.352 N 
ATOM     32  C   UNL A   1      36.565  31.225  29.452  1.00  0.00     0.251 C 
ATOM     33  H   UNL A   1      35.000  32.401  28.969  1.00  0.00     0.163 HD
ATOM     34  O   UNL A   1      37.085  32.072  30.151  1.00  0.00    -0.269 OA
BRANCH  32  35
ATOM     35  C   UNL A   1      37.292  29.962  29.146  1.00  0.00     0.039 A 
ATOM     36  C   UNL A   1      37.416  29.022  30.178  1.00  0.00     0.014 A 
ATOM     37  C   UNL A   1      38.017  29.795  27.971  1.00  0.00     0.014 A 
ATOM     38  C   UNL A   1      38.465  28.107  30.149  1.00  0.00     0.010 A 
ATOM     39  C   UNL A   1      39.120  28.969  27.984  1.00  0.00     0.010 A 
ATOM     40  C   UNL A   1      39.389  28.185  29.110  1.00  0.00    -0.014 A 
BRANCH  40  41
ATOM     41  C   UNL A   1      40.725  27.605  29.172  1.00  0.00     0.031 A 
ATOM     42  C   UNL A   1      40.969  26.220  28.727  1.00  0.00     0.074 A 
ATOM     43  C   UNL A   1      41.763  28.406  29.498  1.00  0.00     0.049 A 
ATOM     44  N   UNL A   1      42.033  25.544  28.995  1.00  0.00    -0.248 NA
ATOM     45  C   UNL A   1      39.992  25.468  27.953  1.00  0.00     0.031 C 
ATOM     46  C   UNL A   1      43.187  28.142  29.317  1.00  0.00     0.029 A 
ATOM     47  N   UNL A   1      41.725  29.576  30.270  1.00  0.00    -0.354 N 
ATOM     48  C   UNL A   1      42.013  24.396  28.237  1.00  0.00     0.074 A 
ATOM     49  C   UNL A   1      40.694  24.372  27.648  1.00  0.00     0.031 C 
ATOM     50  C   UNL A   1      43.879  28.904  30.178  1.00  0.00     0.029 A 
ATOM     51  C   UNL A   1      42.915  29.568  31.036  1.00  0.00     0.049 A 
ATOM     52  H   UNL A   1      41.017  30.260  30.279  1.00  0.00     0.167 HD
ATOM     53  C   UNL A   1      43.159  23.663  28.118  1.00  0.00     0.037 A 
ATOM     54  C   UNL A   1      42.857  29.447  32.395  1.00  0.00     0.037 A 
ATOM     55  C   UNL A   1      44.211  24.182  28.995  1.00  0.00     0.049 A 
ATOM     56  C   UNL A   1      43.478  28.177  32.942  1.00  0.00     0.074 A 
ATOM     57  C   UNL A   1      45.309  25.009  28.818  1.00  0.00     0.029 A 
ATOM     58  N   UNL A   1      44.031  24.080  30.362  1.00  0.00    -0.354 N 
ATOM     59  N   UNL A   1      43.996  27.234  32.204  1.00  0.00    -0.248 NA
ATOM     60  C   UNL A   1      43.484  27.831  34.365  1.00  0.00     0.031 C 
ATOM     61  C   UNL A   1      45.745  25.448  30.102  1.00  0.00     0.029 A 
ATOM     62  C   UNL A   1      44.921  24.877  31.054  1.00  0.00     0.049 A 
ATOM     63  H   UNL A   1      43.352  23.510  30.789  1.00  0.00     0.167 HD
ATOM     64  C   UNL A   1      44.323  26.168  32.996  1.00  0.00     0.074 A 
ATOM     65  C   UNL A   1      44.005  26.592  34.345  1.00  0.00     0.031 C 
ATOM     66  C   UNL A   1      44.785  24.988  32.496  1.00  0.00     0.037 A 
BRANCH  53  67
ATOM     67  C   UNL A   1      43.408  22.607  27.060  1.00  0.00     0.057 A 
ATOM     68  C   UNL A   1      42.657  21.413  27.051  1.00  0.00     0.134 A 
ATOM     69  C   UNL A   1      44.391  22.668  26.057  1.00  0.00     0.134 A 
ATOM     70  F   UNL A   1      41.612  21.230  27.868  1.00  0.00    -0.206 F 
ATOM     71  C   UNL A   1      42.939  20.336  26.198  1.00  0.00     0.040 A 
ATOM     72  C   UNL A   1      44.720  21.581  25.233  1.00  0.00     0.040 A 
ATOM     73  F   UNL A   1      45.036  23.802  25.767  1.00  0.00    -0.206 F 
ATOM     74  C   UNL A   1      44.000  20.401  25.310  1.00  0.00     0.006 A 
ENDBRANCH  53  67
BRANCH  54  75
ATOM     75  C   UNL A   1      41.681  30.150  32.976  1.00  0.00     0.057 A 
ATOM     76  C   UNL A   1      41.733  31.552  33.092  1.00  0.00     0.134 A 
ATOM     77  C   UNL A   1      40.422  29.551  33.034  1.00  0.00     0.134 A 
ATOM     78  F   UNL A   1      42.914  32.189  33.044  1.00  0.00    -0.206 F 
ATOM     79  C   UNL A   1      40.576  32.331  33.134  1.00  0.00     0.040 A 
ATOM     80  C   UNL A   1      39.255  30.322  33.094  1.00  0.00     0.040 A 
ATOM     81  F   UNL A   1      40.290  28.223  32.909  1.00  0.00    -0.206 F 
ATOM     82  C   UNL A   1      39.329  31.715  33.099  1.00  0.00     0.006 A 
ENDBRANCH  54  75
BRANCH  66  83
ATOM     83  C   UNL A   1      45.152  23.832  33.366  1.00  0.00     0.057 A 
ATOM     84  C   UNL A   1      44.216  22.857  33.730  1.00  0.00     0.134 A 
ATOM     85  C   UNL A   1      46.413  23.747  33.980  1.00  0.00     0.134 A 
ATOM     86  F   UNL A   1      42.980  22.865  33.207  1.00  0.00    -0.206 F 
ATOM     87  C   UNL A   1      44.516  21.854  34.657  1.00  0.00     0.040 A 
ATOM     88  C   UNL A   1      46.713  22.776  34.939  1.00  0.00     0.040 A 
ATOM     89  F   UNL A   1      47.402  24.596  33.662  1.00  0.00    -0.206 F 
ATOM     90  C   UNL A   1      45.761  21.824  35.279  1.00  0.00     0.006 A 
ENDBRANCH  66  83
ENDBRANCH  40  41
ENDBRANCH  32  35
ENDBRANCH  30  31
ENDBRANCH  29  30
ENDBRANCH   1  29
TORSDOF 14
ENDMDL
MODEL 2
REMARK VINA RESULT:     -13.1      3.885      9.291
REMARK SMILES Cc1cccc(-c2ccccc2C(=O)N2CC[C@H](O)C[C@@H]2C(=O)NCCCNC(=O)c2ccc(-c3c4nc(c(-c5c(F)cccc5F)c5ccc([nH]5)c(-c5c(F)cccc5F)c5nc(c(-c6c(F)cccc6F)c6ccc3[nH]6)C=C5)C=C4)cc2)c1
REMARK SMILES IDX 25 1 24 2 22 3 23 4 21 6 15 7 16 8 17 9 20 10 18 11 13 12
REMARK SMILES IDX 14 13 12 14 7 15 8 16 9 17 11 18 10 19 6 20 1 21 2 22 3 23
REMARK SMILES IDX 85 24 4 25 5 26 19 27 26 29 27 30 28 31 29 32 30 34 31 35
REMARK SMILES IDX 32 36 84 37 33 38 83 39 34 40 35 41 36 42 77 43 37 44 82 45
REMARK SMILES IDX 76 46 78 47 38 48 81 49 75 50 74 51 39 53 65 54 48 55 64 56
REMARK SMILES IDX 49 57 52 58 63 59 79 60 50 61 51 62 62 64 80 65 53 66 40 67
REMARK SMILES IDX 41 68 46 69 42 70 43 71 45 72 47 73 44 74 66 75 67 76 72 77
REMARK SMILES IDX 68 78 69 79 71 80 73 81 70 82 54 83 55 84 60 85 56 86 57 87
REMARK SMILES IDX 59 88 61 89 58 90
REMARK H PARENT 24 5 19 28 28 33 78 52 52 63
REMARK Flexibility Score: inf
ROOT
ATOM      1  C   UNL A   1      37.459  21.783  25.250  1.00  0.00     0.117 C 
ENDROOT
BRANCH   1   2
ATOM      2  N   UNL A   1      36.420  21.578  26.252  1.00  0.00    -0.354 N 
ATOM      3  C   UNL A   1      35.058  21.656  26.155  1.00  0.00     0.242 C 
ATOM      4  O   UNL A   1      34.414  21.487  27.197  1.00  0.00    -0.273 OA
ATOM      5  H   UNL A   1      36.755  21.343  27.148  1.00  0.00     0.163 HD
BRANCH   3   6
ATOM      6  C   UNL A   1      34.353  22.064  24.837  1.00  0.00     0.177 C 
ATOM      7  N   UNL A   1      33.525  23.261  25.081  1.00  0.00    -0.326 N 
ATOM      8  C   UNL A   1      32.251  23.057  25.777  1.00  0.00     0.123 C 
ATOM      9  C   UNL A   1      31.401  22.008  25.074  1.00  0.00     0.053 C 
ATOM     10  C   UNL A   1      33.533  20.909  24.241  1.00  0.00     0.067 C 
ATOM     11  C   UNL A   1      32.153  20.699  24.867  1.00  0.00     0.118 C 
BRANCH   7  12
ATOM     12  C   UNL A   1      34.057  24.495  24.700  1.00  0.00     0.255 C 
ATOM     13  O   UNL A   1      34.929  25.041  25.376  1.00  0.00    -0.269 OA
BRANCH  12  14
ATOM     14  C   UNL A   1      33.454  25.281  23.577  1.00  0.00     0.047 A 
ATOM     15  C   UNL A   1      32.655  26.420  23.831  1.00  0.00    -0.006 A 
ATOM     16  C   UNL A   1      31.894  26.948  22.765  1.00  0.00     0.009 A 
ATOM     17  C   UNL A   1      31.920  26.379  21.492  1.00  0.00     0.001 A 
ATOM     18  C   UNL A   1      33.466  24.714  22.286  1.00  0.00     0.014 A 
ATOM     19  C   UNL A   1      32.715  25.267  21.249  1.00  0.00     0.001 A 
BRANCH  15  20
ATOM     20  C   UNL A   1      32.559  27.083  25.143  1.00  0.00    -0.017 A 
ATOM     21  C   UNL A   1      34.385  29.761  27.168  1.00  0.00     0.044 C 
ATOM     22  C   UNL A   1      33.382  28.723  26.759  1.00  0.00    -0.051 A 
ATOM     23  C   UNL A   1      32.324  28.403  27.616  1.00  0.00     0.003 A 
ATOM     24  C   UNL A   1      33.494  28.058  25.530  1.00  0.00     0.012 A 
ATOM     25  C   UNL A   1      31.389  27.437  27.250  1.00  0.00     0.001 A 
ATOM     26  C   UNL A   1      31.506  26.783  26.024  1.00  0.00     0.009 A 
ENDBRANCH  15  20
ENDBRANCH  12  14
ENDBRANCH   7  12
BRANCH  11  27
ATOM     27  O   UNL A   1      32.212  19.967  26.086  1.00  0.00    -0.393 OA
ATOM     28  H   UNL A   1      32.337  19.025  25.892  1.00  0.00     0.210 HD
ENDBRANCH  11  27
ENDBRANCH   3   6
ENDBRANCH   1   2
BRANCH   1  29
ATOM     29  C   UNL A   1      38.395  22.933  25.605  1.00  0.00     0.042 C 
BRANCH  29  30
ATOM     30  C   UNL A   1      39.325  22.671  26.778  1.00  0.00     0.118 C 
BRANCH  30  31
ATOM     31  N   UNL A   1      40.721  23.009  26.542  1.00  0.00    -0.352 N 
ATOM     32  C   UNL A   1      41.336  24.253  26.500  1.00  0.00     0.251 C 
ATOM     33  H   UNL A   1      41.318  22.241  26.389  1.00  0.00     0.163 HD
ATOM     34  O   UNL A   1      42.523  24.334  26.249  1.00  0.00    -0.269 OA
BRANCH  32  35
ATOM     35  C   UNL A   1      40.577  25.467  26.909  1.00  0.00     0.039 A 
ATOM     36  C   UNL A   1      40.778  26.636  26.162  1.00  0.00     0.014 A 
ATOM     37  C   UNL A   1      39.872  25.526  28.105  1.00  0.00     0.014 A 
ATOM     38  C   UNL A   1      40.536  27.875  26.751  1.00  0.00     0.010 A 
ATOM     39  C   UNL A   1      39.733  26.745  28.735  1.00  0.00     0.010 A 
ATOM     40  C   UNL A   1      40.144  27.914  28.086  1.00  0.00    -0.014 A 
BRANCH  40  41
ATOM     41  C   UNL A   1      40.269  29.095  28.931  1.00  0.00     0.031 A 
ATOM     42  C   UNL A   1      39.176  30.081  29.017  1.00  0.00     0.074 A 
ATOM     43  C   UNL A   1      41.337  29.192  29.753  1.00  0.00     0.049 A 
ATOM     44  N   UNL A   1      39.300  31.267  29.508  1.00  0.00    -0.248 NA
ATOM     45  C   UNL A   1      37.838  29.805  28.515  1.00  0.00     0.031 C 
ATOM     46  C   UNL A   1      41.512  30.091  30.889  1.00  0.00     0.029 A 
ATOM     47  N   UNL A   1      42.599  28.604  29.580  1.00  0.00    -0.354 N 
ATOM     48  C   UNL A   1      38.043  31.812  29.633  1.00  0.00     0.074 A 
ATOM     49  C   UNL A   1      37.174  30.882  28.949  1.00  0.00     0.031 C 
ATOM     50  C   UNL A   1      42.825  30.239  31.123  1.00  0.00     0.029 A 
ATOM     51  C   UNL A   1      43.533  29.557  30.054  1.00  0.00     0.049 A 
ATOM     52  H   UNL A   1      42.795  27.715  29.207  1.00  0.00     0.167 HD
ATOM     53  C   UNL A   1      37.881  32.933  30.396  1.00  0.00     0.037 A 
ATOM     54  C   UNL A   1      44.410  30.147  29.190  1.00  0.00     0.037 A 
ATOM     55  C   UNL A   1      39.174  33.462  30.835  1.00  0.00     0.049 A 
ATOM     56  C   UNL A   1      44.221  31.641  29.022  1.00  0.00     0.074 A 
ATOM     57  C   UNL A   1      39.918  33.376  32.001  1.00  0.00     0.029 A 
ATOM     58  N   UNL A   1      40.030  33.975  29.878  1.00  0.00    -0.354 N 
ATOM     59  N   UNL A   1      43.282  32.334  29.604  1.00  0.00    -0.248 NA
ATOM     60  C   UNL A   1      45.028  32.458  28.112  1.00  0.00     0.031 C 
ATOM     61  C   UNL A   1      41.251  33.790  31.708  1.00  0.00     0.029 A 
ATOM     62  C   UNL A   1      41.309  34.138  30.372  1.00  0.00     0.049 A 
ATOM     63  H   UNL A   1      39.760  34.197  28.958  1.00  0.00     0.167 HD
ATOM     64  C   UNL A   1      43.298  33.614  29.121  1.00  0.00     0.074 A 
ATOM     65  C   UNL A   1      44.420  33.654  28.204  1.00  0.00     0.031 C 
ATOM     66  C   UNL A   1      42.364  34.545  29.460  1.00  0.00     0.037 A 
BRANCH  53  67
ATOM     67  C   UNL A   1      36.555  33.438  30.926  1.00  0.00     0.057 A 
ATOM     68  C   UNL A   1      35.582  33.955  30.045  1.00  0.00     0.134 A 
ATOM     69  C   UNL A   1      36.182  33.494  32.280  1.00  0.00     0.134 A 
ATOM     70  F   UNL A   1      35.726  33.884  28.715  1.00  0.00    -0.206 F 
ATOM     71  C   UNL A   1      34.404  34.575  30.482  1.00  0.00     0.040 A 
ATOM     72  C   UNL A   1      35.033  34.159  32.736  1.00  0.00     0.040 A 
ATOM     73  F   UNL A   1      36.866  32.850  33.230  1.00  0.00    -0.206 F 
ATOM     74  C   UNL A   1      34.143  34.715  31.835  1.00  0.00     0.006 A 
ENDBRANCH  53  67
BRANCH  54  75
ATOM     75  C   UNL A   1      44.874  29.213  28.129  1.00  0.00     0.057 A 
ATOM     76  C   UNL A   1      45.838  28.245  28.467  1.00  0.00     0.134 A 
ATOM     77  C   UNL A   1      44.132  28.996  26.966  1.00  0.00     0.134 A 
ATOM     78  F   UNL A   1      46.584  28.395  29.573  1.00  0.00    -0.206 F 
ATOM     79  C   UNL A   1      45.969  27.054  27.751  1.00  0.00     0.040 A 
ATOM     80  C   UNL A   1      44.268  27.813  26.231  1.00  0.00     0.040 A 
ATOM     81  F   UNL A   1      43.181  29.862  26.590  1.00  0.00    -0.206 F 
ATOM     82  C   UNL A   1      45.155  26.820  26.647  1.00  0.00     0.006 A 
ENDBRANCH  54  75
BRANCH  66  83
ATOM     83  C   UNL A   1      42.393  35.944  28.938  1.00  0.00     0.057 A 
ATOM     84  C   UNL A   1      41.759  36.297  27.742  1.00  0.00     0.134 A 
ATOM     85  C   UNL A   1      43.180  36.938  29.546  1.00  0.00     0.134 A 
ATOM     86  F   UNL A   1      40.999  35.410  27.081  1.00  0.00    -0.206 F 
ATOM     87  C   UNL A   1      41.903  37.569  27.177  1.00  0.00     0.040 A 
ATOM     88  C   UNL A   1      43.366  38.197  28.972  1.00  0.00     0.040 A 
ATOM     89  F   UNL A   1      43.785  36.723  30.724  1.00  0.00    -0.206 F 
ATOM     90  C   UNL A   1      42.724  38.516  27.782  1.00  0.00     0.006 A 
ENDBRANCH  66  83
ENDBRANCH  40  41
ENDBRANCH  32  35
ENDBRANCH  30  31
ENDBRANCH  29  30
ENDBRANCH   1  29
TORSDOF 14
ENDMDL
MODEL 3
REMARK VINA RESULT:     -12.9      3.675      9.262
REMARK SMILES Cc1cccc(-c2ccccc2C(=O)N2CC[C@H](O)C[C@@H]2C(=O)NCCCNC(=O)c2ccc(-c3c4nc(c(-c5c(F)cccc5F)c5ccc([nH]5)c(-c5c(F)cccc5F)c5nc(c(-c6c(F)cccc6F)c6ccc3[nH]6)C=C5)C=C4)cc2)c1
REMARK SMILES IDX 25 1 24 2 22 3 23 4 21 6 15 7 16 8 17 9 20 10 18 11 13 12
REMARK SMILES IDX 14 13 12 14 7 15 8 16 9 17 11 18 10 19 6 20 1 21 2 22 3 23
REMARK SMILES IDX 85 24 4 25 5 26 19 27 26 29 27 30 28 31 29 32 30 34 31 35
REMARK SMILES IDX 32 36 84 37 33 38 83 39 34 40 35 41 36 42 77 43 37 44 82 45
REMARK SMILES IDX 76 46 78 47 38 48 81 49 75 50 74 51 39 53 65 54 48 55 64 56
REMARK SMILES IDX 49 57 52 58 63 59 79 60 50 61 51 62 62 64 80 65 53 66 40 67
REMARK SMILES IDX 41 68 46 69 42 70 43 71 45 72 47 73 44 74 66 75 67 76 72 77
REMARK SMILES IDX 68 78 69 79 71 80 73 81 70 82 54 83 55 84 60 85 56 86 57 87
REMARK SMILES IDX 59 88 61 89 58 90
REMARK H PARENT 24 5 19 28 28 33 78 52 52 63
REMARK Flexibility Score: inf
ROOT
ATOM      1  C   UNL A   1      37.310  23.814  25.236  1.00  0.00     0.117 C 
ENDROOT
BRANCH   1   2
ATOM      2  N   UNL A   1      36.066  23.711  25.990  1.00  0.00    -0.354 N 
ATOM      3  C   UNL A   1      34.766  23.843  25.588  1.00  0.00     0.242 C 
ATOM      4  O   UNL A   1      33.900  23.762  26.467  1.00  0.00    -0.273 OA
ATOM      5  H   UNL A   1      36.182  23.512  26.948  1.00  0.00     0.163 HD
BRANCH   3   6
ATOM      6  C   UNL A   1      34.392  24.207  24.130  1.00  0.00     0.177 C 
ATOM      7  N   UNL A   1      33.134  24.980  24.130  1.00  0.00    -0.326 N 
ATOM      8  C   UNL A   1      31.893  24.228  24.331  1.00  0.00     0.123 C 
ATOM      9  C   UNL A   1      31.768  23.090  23.327  1.00  0.00     0.053 C 
ATOM     10  C   UNL A   1      34.302  22.963  23.231  1.00  0.00     0.067 C 
ATOM     11  C   UNL A   1      32.991  22.181  23.330  1.00  0.00     0.118 C 
BRANCH   7  12
ATOM     12  C   UNL A   1      33.238  26.368  24.018  1.00  0.00     0.255 C 
ATOM     13  O   UNL A   1      33.593  26.890  22.960  1.00  0.00    -0.269 OA
BRANCH  12  14
ATOM     14  C   UNL A   1      33.112  27.251  25.221  1.00  0.00     0.047 A 
ATOM     15  C   UNL A   1      31.971  28.062  25.413  1.00  0.00    -0.006 A 
ATOM     16  C   UNL A   1      32.030  29.068  26.403  1.00  0.00     0.009 A 
ATOM     17  C   UNL A   1      33.171  29.266  27.180  1.00  0.00     0.001 A 
ATOM     18  C   UNL A   1      34.260  27.466  26.011  1.00  0.00     0.014 A 
ATOM     19  C   UNL A   1      34.283  28.457  26.992  1.00  0.00     0.001 A 
BRANCH  15  20
ATOM     20  C   UNL A   1      30.727  27.932  24.635  1.00  0.00    -0.017 A 
ATOM     21  C   UNL A   1      28.770  29.848  21.970  1.00  0.00     0.044 C 
ATOM     22  C   UNL A   1      29.179  28.784  22.945  1.00  0.00    -0.051 A 
ATOM     23  C   UNL A   1      28.391  27.638  23.094  1.00  0.00     0.003 A 
ATOM     24  C   UNL A   1      30.340  28.924  23.719  1.00  0.00     0.012 A 
ATOM     25  C   UNL A   1      28.757  26.646  24.000  1.00  0.00     0.001 A 
ATOM     26  C   UNL A   1      29.916  26.791  24.764  1.00  0.00     0.009 A 
ENDBRANCH  15  20
ENDBRANCH  12  14
ENDBRANCH   7  12
BRANCH  11  27
ATOM     27  O   UNL A   1      32.956  21.313  24.456  1.00  0.00    -0.393 OA
ATOM     28  H   UNL A   1      33.829  21.295  24.878  1.00  0.00     0.210 HD
ENDBRANCH  11  27
ENDBRANCH   3   6
ENDBRANCH   1   2
BRANCH   1  29
ATOM     29  C   UNL A   1      38.225  22.613  25.448  1.00  0.00     0.042 C 
BRANCH  29  30
ATOM     30  C   UNL A   1      39.033  22.635  26.734  1.00  0.00     0.118 C 
BRANCH  30  31
ATOM     31  N   UNL A   1      40.450  22.922  26.564  1.00  0.00    -0.352 N 
ATOM     32  C   UNL A   1      41.105  24.145  26.507  1.00  0.00     0.251 C 
ATOM     33  H   UNL A   1      41.030  22.131  26.477  1.00  0.00     0.163 HD
ATOM     34  O   UNL A   1      42.305  24.181  26.320  1.00  0.00    -0.269 OA
BRANCH  32  35
ATOM     35  C   UNL A   1      40.362  25.397  26.822  1.00  0.00     0.039 A 
ATOM     36  C   UNL A   1      40.705  26.550  26.102  1.00  0.00     0.014 A 
ATOM     37  C   UNL A   1      39.525  25.498  27.927  1.00  0.00     0.014 A 
ATOM     38  C   UNL A   1      40.456  27.803  26.657  1.00  0.00     0.010 A 
ATOM     39  C   UNL A   1      39.373  26.726  28.534  1.00  0.00     0.010 A 
ATOM     40  C   UNL A   1      39.912  27.869  27.937  1.00  0.00    -0.014 A 
BRANCH  40  41
ATOM     41  C   UNL A   1      39.994  29.049  28.790  1.00  0.00     0.031 A 
ATOM     42  C   UNL A   1      38.933  30.073  28.766  1.00  0.00     0.074 A 
ATOM     43  C   UNL A   1      40.978  29.112  29.714  1.00  0.00     0.049 A 
ATOM     44  N   UNL A   1      39.050  31.256  29.265  1.00  0.00    -0.248 NA
ATOM     45  C   UNL A   1      37.643  29.842  28.133  1.00  0.00     0.031 C 
ATOM     46  C   UNL A   1      41.071  30.009  30.861  1.00  0.00     0.029 A 
ATOM     47  N   UNL A   1      42.229  28.480  29.668  1.00  0.00    -0.354 N 
ATOM     48  C   UNL A   1      37.806  31.845  29.264  1.00  0.00     0.074 A 
ATOM     49  C   UNL A   1      36.977  30.942  28.498  1.00  0.00     0.031 C 
ATOM     50  C   UNL A   1      42.358  30.112  31.224  1.00  0.00     0.029 A 
ATOM     51  C   UNL A   1      43.144  29.402  30.232  1.00  0.00     0.049 A 
ATOM     52  H   UNL A   1      42.430  27.583  29.316  1.00  0.00     0.167 HD
ATOM     53  C   UNL A   1      37.609  32.974  30.007  1.00  0.00     0.037 A 
ATOM     54  C   UNL A   1      44.123  29.957  29.459  1.00  0.00     0.037 A 
ATOM     55  C   UNL A   1      38.869  33.460  30.572  1.00  0.00     0.049 A 
ATOM     56  C   UNL A   1      44.005  31.456  29.272  1.00  0.00     0.074 A 
ATOM     57  C   UNL A   1      39.490  33.352  31.806  1.00  0.00     0.029 A 
ATOM     58  N   UNL A   1      39.834  33.939  29.704  1.00  0.00    -0.354 N 
ATOM     59  N   UNL A   1      43.037  32.184  29.757  1.00  0.00    -0.248 NA
ATOM     60  C   UNL A   1      44.926  32.241  28.446  1.00  0.00     0.031 C 
ATOM     61  C   UNL A   1      40.859  33.718  31.647  1.00  0.00     0.029 A 
ATOM     62  C   UNL A   1      41.062  34.058  30.323  1.00  0.00     0.049 A 
ATOM     63  H   UNL A   1      39.665  34.165  28.761  1.00  0.00     0.167 HD
ATOM     64  C   UNL A   1      43.146  33.460  29.276  1.00  0.00     0.074 A 
ATOM     65  C   UNL A   1      44.354  33.457  28.476  1.00  0.00     0.031 C 
ATOM     66  C   UNL A   1      42.216  34.425  29.520  1.00  0.00     0.037 A 
BRANCH  53  67
ATOM     67  C   UNL A   1      36.255  33.527  30.402  1.00  0.00     0.057 A 
ATOM     68  C   UNL A   1      35.388  34.062  29.426  1.00  0.00     0.134 A 
ATOM     69  C   UNL A   1      35.756  33.613  31.713  1.00  0.00     0.134 A 
ATOM     70  F   UNL A   1      35.656  33.970  28.117  1.00  0.00    -0.206 F 
ATOM     71  C   UNL A   1      34.194  34.725  29.741  1.00  0.00     0.040 A 
ATOM     72  C   UNL A   1      34.591  34.319  32.050  1.00  0.00     0.040 A 
ATOM     73  F   UNL A   1      36.325  32.960  32.731  1.00  0.00    -0.206 F 
ATOM     74  C   UNL A   1      33.809  34.891  31.062  1.00  0.00     0.006 A 
ENDBRANCH  53  67
BRANCH  54  75
ATOM     75  C   UNL A   1      44.657  29.003  28.449  1.00  0.00     0.057 A 
ATOM     76  C   UNL A   1      45.542  27.999  28.884  1.00  0.00     0.134 A 
ATOM     77  C   UNL A   1      44.032  28.813  27.215  1.00  0.00     0.134 A 
ATOM     78  F   UNL A   1      46.175  28.121  30.061  1.00  0.00    -0.206 F 
ATOM     79  C   UNL A   1      45.700  26.801  28.183  1.00  0.00     0.040 A 
ATOM     80  C   UNL A   1      44.196  27.623  26.497  1.00  0.00     0.040 A 
ATOM     81  F   UNL A   1      43.159  29.714  26.745  1.00  0.00    -0.206 F 
ATOM     82  C   UNL A   1      44.995  26.597  27.001  1.00  0.00     0.006 A 
ENDBRANCH  54  75
BRANCH  66  83
ATOM     83  C   UNL A   1      42.346  35.820  29.003  1.00  0.00     0.057 A 
ATOM     84  C   UNL A   1      41.763  36.214  27.794  1.00  0.00     0.134 A 
ATOM     85  C   UNL A   1      43.180  36.760  29.631  1.00  0.00     0.134 A 
ATOM     86  F   UNL A   1      40.963  35.378  27.114  1.00  0.00    -0.206 F 
ATOM     87  C   UNL A   1      42.000  37.475  27.236  1.00  0.00     0.040 A 
ATOM     88  C   UNL A   1      43.459  38.006  29.065  1.00  0.00     0.040 A 
ATOM     89  F   UNL A   1      43.744  36.506  30.822  1.00  0.00    -0.206 F 
ATOM     90  C   UNL A   1      42.866  38.367  27.861  1.00  0.00     0.006 A 
ENDBRANCH  66  83
ENDBRANCH  40  41
ENDBRANCH  32  35
ENDBRANCH  30  31
ENDBRANCH  29  30
ENDBRANCH   1  29
TORSDOF 14
ENDMDL
