MODEL 1
REMARK VINA RESULT:     -12.0      0.000      0.000
REMARK SMILES CC[C@H](C(=O)NCCCNC(=O)c1ccc(-c2c3nc(c(-c4c(F)cccc4F)c4ccc([nH]4)c(-c4c(F)cccc4F)c4nc(c(-c5c(F)cccc5F)c5ccc2[nH]5)C=C4)C=C3)cc1)N1C(=O)c2ccc([N+](=O)[O-])cc2C1=O
REMARK SMILES IDX 8 1 7 2 6 3 4 4 5 5 3 7 2 8 1 9 67 10 68 11 79 12 69 13
REMARK SMILES IDX 70 14 78 15 80 16 71 17 77 18 72 19 73 20 74 21 75 22 76 23
REMARK SMILES IDX 9 24 10 25 11 26 12 28 13 29 14 30 66 31 15 32 65 33 16 34
REMARK SMILES IDX 17 35 18 36 59 37 19 38 64 39 58 40 60 41 20 42 63 43 57 44
REMARK SMILES IDX 56 45 21 47 47 48 30 49 46 50 31 51 34 52 45 53 61 54 32 55
REMARK SMILES IDX 33 56 44 58 62 59 35 60 22 61 23 62 28 63 24 64 25 65 27 66
REMARK SMILES IDX 29 67 26 68 48 69 49 70 54 71 50 72 51 73 53 74 55 75 52 76
REMARK SMILES IDX 36 77 37 78 42 79 38 80 39 81 41 82 43 83 40 84
REMARK H PARENT 6 6 10 27 60 46 34 57
REMARK Flexibility Score: inf
ROOT
ATOM      1  C   UNL A   1      33.668  28.765  25.811  1.00  0.00     0.042 C 
ENDROOT
BRANCH   1   2
ATOM      2  C   UNL A   1      33.663  27.352  25.245  1.00  0.00     0.117 C 
BRANCH   2   3
ATOM      3  N   UNL A   1      32.651  26.523  25.865  1.00  0.00    -0.354 N 
ATOM      4  C   UNL A   1      31.537  25.939  25.350  1.00  0.00     0.243 C 
ATOM      5  O   UNL A   1      30.728  25.511  26.183  1.00  0.00    -0.273 OA
ATOM      6  H   UNL A   1      32.793  26.354  26.824  1.00  0.00     0.163 HD
BRANCH   4   7
ATOM      7  C   UNL A   1      31.239  25.923  23.833  1.00  0.00     0.183 C 
BRANCH   7   8
ATOM      8  C   UNL A   1      30.658  24.658  23.176  1.00  0.00     0.032 C 
ATOM      9  C   UNL A   1      31.311  23.332  23.529  1.00  0.00     0.006 C 
ENDBRANCH   7   8
BRANCH   7  10
ATOM     10  N   UNL A   1      30.421  27.099  23.514  1.00  0.00    -0.262 N 
ATOM     11  C   UNL A   1      29.067  27.183  23.699  1.00  0.00     0.262 C 
ATOM     12  C   UNL A   1      30.907  28.202  22.868  1.00  0.00     0.262 C 
ATOM     13  O   UNL A   1      28.281  26.365  24.135  1.00  0.00    -0.269 OA
ATOM     14  C   UNL A   1      28.657  28.489  23.197  1.00  0.00     0.053 A 
ATOM     15  C   UNL A   1      29.775  29.100  22.657  1.00  0.00     0.060 A 
ATOM     16  O   UNL A   1      32.035  28.428  22.472  1.00  0.00    -0.269 OA
ATOM     17  C   UNL A   1      27.405  29.071  23.162  1.00  0.00     0.022 A 
ATOM     18  C   UNL A   1      29.701  30.319  22.009  1.00  0.00     0.100 A 
ATOM     19  C   UNL A   1      27.293  30.310  22.523  1.00  0.00     0.086 A 
ATOM     20  C   UNL A   1      28.433  30.918  21.938  1.00  0.00     0.270 A 
BRANCH  20  21
ATOM     21  N   UNL A   1      28.275  32.185  21.212  1.00  0.00     0.062 N 
ATOM     22  O   UNL A   1      28.346  32.150  19.976  1.00  0.00    -0.258 OA
ATOM     23  O   UNL A   1      28.094  33.210  21.882  1.00  0.00    -0.258 OA
ENDBRANCH  20  21
ENDBRANCH   7  10
ENDBRANCH   4   7
ENDBRANCH   2   3
ENDBRANCH   1   2
BRANCH   1  24
ATOM     24  C   UNL A   1      33.621  28.848  27.332  1.00  0.00     0.118 C 
BRANCH  24  25
ATOM     25  N   UNL A   1      33.715  30.208  27.843  1.00  0.00    -0.352 N 
ATOM     26  C   UNL A   1      34.771  30.843  28.456  1.00  0.00     0.251 C 
ATOM     27  H   UNL A   1      32.903  30.754  27.734  1.00  0.00     0.163 HD
ATOM     28  O   UNL A   1      34.619  31.960  28.939  1.00  0.00    -0.269 OA
BRANCH  26  29
ATOM     29  C   UNL A   1      36.078  30.160  28.575  1.00  0.00     0.039 A 
ATOM     30  C   UNL A   1      36.964  30.211  27.495  1.00  0.00     0.014 A 
ATOM     31  C   UNL A   1      36.445  29.502  29.751  1.00  0.00     0.014 A 
ATOM     32  C   UNL A   1      38.255  29.693  27.633  1.00  0.00     0.010 A 
ATOM     33  C   UNL A   1      37.756  29.062  29.916  1.00  0.00     0.010 A 
ATOM     34  C   UNL A   1      38.678  29.167  28.864  1.00  0.00    -0.014 A 
BRANCH  34  35
ATOM     35  C   UNL A   1      40.089  28.763  29.090  1.00  0.00     0.031 A 
ATOM     36  C   UNL A   1      41.070  29.723  29.702  1.00  0.00     0.074 A 
ATOM     37  C   UNL A   1      40.511  27.556  28.662  1.00  0.00     0.049 A 
ATOM     38  N   UNL A   1      42.356  29.581  29.896  1.00  0.00    -0.248 NA
ATOM     39  C   UNL A   1      40.536  31.025  30.129  1.00  0.00     0.031 C 
ATOM     40  C   UNL A   1      39.671  26.547  28.015  1.00  0.00     0.029 A 
ATOM     41  N   UNL A   1      41.756  26.979  28.697  1.00  0.00    -0.354 N 
ATOM     42  C   UNL A   1      42.789  30.776  30.453  1.00  0.00     0.074 A 
ATOM     43  C   UNL A   1      41.637  31.651  30.516  1.00  0.00     0.031 C 
ATOM     44  C   UNL A   1      40.415  25.463  27.745  1.00  0.00     0.029 A 
ATOM     45  C   UNL A   1      41.792  25.718  28.154  1.00  0.00     0.049 A 
ATOM     46  H   UNL A   1      42.547  27.427  29.075  1.00  0.00     0.167 HD
ATOM     47  C   UNL A   1      44.027  31.110  30.892  1.00  0.00     0.037 A 
ATOM     48  C   UNL A   1      42.821  24.864  27.995  1.00  0.00     0.037 A 
ATOM     49  C   UNL A   1      45.168  30.233  30.840  1.00  0.00     0.049 A 
ATOM     50  C   UNL A   1      44.194  25.271  28.448  1.00  0.00     0.074 A 
ATOM     51  C   UNL A   1      46.447  30.453  31.319  1.00  0.00     0.029 A 
ATOM     52  N   UNL A   1      45.169  28.972  30.262  1.00  0.00    -0.354 N 
ATOM     53  N   UNL A   1      44.576  26.379  29.034  1.00  0.00    -0.248 NA
ATOM     54  C   UNL A   1      45.280  24.310  28.210  1.00  0.00     0.031 C 
ATOM     55  C   UNL A   1      47.235  29.345  30.988  1.00  0.00     0.029 A 
ATOM     56  C   UNL A   1      46.436  28.415  30.343  1.00  0.00     0.049 A 
ATOM     57  H   UNL A   1      44.386  28.537  29.855  1.00  0.00     0.167 HD
ATOM     58  C   UNL A   1      45.939  26.242  29.257  1.00  0.00     0.074 A 
ATOM     59  C   UNL A   1      46.316  24.937  28.752  1.00  0.00     0.031 C 
ATOM     60  C   UNL A   1      46.800  27.117  29.831  1.00  0.00     0.037 A 
BRANCH  47  61
ATOM     61  C   UNL A   1      44.202  32.487  31.460  1.00  0.00     0.057 A 
ATOM     62  C   UNL A   1      44.559  33.580  30.658  1.00  0.00     0.134 A 
ATOM     63  C   UNL A   1      44.014  32.727  32.827  1.00  0.00     0.134 A 
ATOM     64  F   UNL A   1      44.766  33.418  29.342  1.00  0.00    -0.206 F 
ATOM     65  C   UNL A   1      44.761  34.850  31.200  1.00  0.00     0.040 A 
ATOM     66  C   UNL A   1      44.184  33.999  33.377  1.00  0.00     0.040 A 
ATOM     67  F   UNL A   1      43.664  31.728  33.652  1.00  0.00    -0.206 F 
ATOM     68  C   UNL A   1      44.570  35.063  32.564  1.00  0.00     0.006 A 
ENDBRANCH  47  61
BRANCH  48  69
ATOM     69  C   UNL A   1      42.581  23.524  27.407  1.00  0.00     0.057 A 
ATOM     70  C   UNL A   1      42.679  23.323  26.025  1.00  0.00     0.134 A 
ATOM     71  C   UNL A   1      42.269  22.414  28.201  1.00  0.00     0.134 A 
ATOM     72  F   UNL A   1      42.957  24.353  25.212  1.00  0.00    -0.206 F 
ATOM     73  C   UNL A   1      42.471  22.068  25.453  1.00  0.00     0.040 A 
ATOM     74  C   UNL A   1      42.079  21.149  27.644  1.00  0.00     0.040 A 
ATOM     75  F   UNL A   1      42.167  22.542  29.532  1.00  0.00    -0.206 F 
ATOM     76  C   UNL A   1      42.177  20.974  26.265  1.00  0.00     0.006 A 
ENDBRANCH  48  69
BRANCH  60  77
ATOM     77  C   UNL A   1      48.231  26.685  29.964  1.00  0.00     0.057 A 
ATOM     78  C   UNL A   1      48.672  25.913  31.046  1.00  0.00     0.134 A 
ATOM     79  C   UNL A   1      49.170  27.014  28.977  1.00  0.00     0.134 A 
ATOM     80  F   UNL A   1      47.826  25.579  32.033  1.00  0.00    -0.206 F 
ATOM     81  C   UNL A   1      50.000  25.497  31.150  1.00  0.00     0.040 A 
ATOM     82  C   UNL A   1      50.495  26.583  29.058  1.00  0.00     0.040 A 
ATOM     83  F   UNL A   1      48.811  27.746  27.912  1.00  0.00    -0.206 F 
ATOM     84  C   UNL A   1      50.914  25.826  30.150  1.00  0.00     0.006 A 
ENDBRANCH  60  77
ENDBRANCH  34  35
ENDBRANCH  26  29
ENDBRANCH  24  25
ENDBRANCH   1  24
TORSDOF 13
ENDMDL
MODEL 2
REMARK VINA RESULT:     -11.8      2.681      4.776
REMARK SMILES CC[C@H](C(=O)NCCCNC(=O)c1ccc(-c2c3nc(c(-c4c(F)cccc4F)c4ccc([nH]4)c(-c4c(F)cccc4F)c4nc(c(-c5c(F)cccc5F)c5ccc2[nH]5)C=C4)C=C3)cc1)N1C(=O)c2ccc([N+](=O)[O-])cc2C1=O
REMARK SMILES IDX 8 1 7 2 6 3 4 4 5 5 3 7 2 8 1 9 67 10 68 11 79 12 69 13
REMARK SMILES IDX 70 14 78 15 80 16 71 17 77 18 72 19 73 20 74 21 75 22 76 23
REMARK SMILES IDX 9 24 10 25 11 26 12 28 13 29 14 30 66 31 15 32 65 33 16 34
REMARK SMILES IDX 17 35 18 36 59 37 19 38 64 39 58 40 60 41 20 42 63 43 57 44
REMARK SMILES IDX 56 45 21 47 47 48 30 49 46 50 31 51 34 52 45 53 61 54 32 55
REMARK SMILES IDX 33 56 44 58 62 59 35 60 22 61 23 62 28 63 24 64 25 65 27 66
REMARK SMILES IDX 29 67 26 68 48 69 49 70 54 71 50 72 51 73 53 74 55 75 52 76
REMARK SMILES IDX 36 77 37 78 42 79 38 80 39 81 41 82 43 83 40 84
REMARK H PARENT 6 6 10 27 60 46 34 57
REMARK Flexibility Score: inf
ROOT
ATOM      1  C   UNL A   1      32.047  28.214  27.558  1.00  0.00     0.042 C 
ENDROOT
BRANCH   1   2
ATOM      2  C   UNL A   1      31.481  27.412  26.394  1.00  0.00     0.117 C 
BRANCH   2   3
ATOM      3  N   UNL A   1      30.952  26.134  26.824  1.00  0.00    -0.354 N 
ATOM      4  C   UNL A   1      31.264  24.866  26.447  1.00  0.00     0.243 C 
ATOM      5  O   UNL A   1      30.458  23.995  26.796  1.00  0.00    -0.273 OA
ATOM      6  H   UNL A   1      30.243  26.194  27.505  1.00  0.00     0.163 HD
BRANCH   4   7
ATOM      7  C   UNL A   1      32.474  24.549  25.538  1.00  0.00     0.183 C 
BRANCH   7   8
ATOM      8  C   UNL A   1      33.875  25.056  25.918  1.00  0.00     0.032 C 
ATOM      9  C   UNL A   1      35.011  24.738  24.959  1.00  0.00     0.006 C 
ENDBRANCH   7   8
BRANCH   7  10
ATOM     10  N   UNL A   1      32.492  23.103  25.287  1.00  0.00    -0.262 N 
ATOM     11  C   UNL A   1      32.879  22.157  26.197  1.00  0.00     0.262 C 
ATOM     12  C   UNL A   1      32.247  22.548  24.062  1.00  0.00     0.262 C 
ATOM     13  O   UNL A   1      33.274  22.280  27.340  1.00  0.00    -0.269 OA
ATOM     14  C   UNL A   1      32.804  20.869  25.519  1.00  0.00     0.053 A 
ATOM     15  C   UNL A   1      32.449  21.108  24.203  1.00  0.00     0.060 A 
ATOM     16  O   UNL A   1      31.965  23.093  23.011  1.00  0.00    -0.269 OA
ATOM     17  C   UNL A   1      33.075  19.600  25.993  1.00  0.00     0.022 A 
ATOM     18  C   UNL A   1      32.386  20.094  23.265  1.00  0.00     0.100 A 
ATOM     19  C   UNL A   1      33.010  18.546  25.077  1.00  0.00     0.086 A 
ATOM     20  C   UNL A   1      32.683  18.799  23.720  1.00  0.00     0.270 A 
BRANCH  20  21
ATOM     21  N   UNL A   1      32.692  17.685  22.762  1.00  0.00     0.062 N 
ATOM     22  O   UNL A   1      32.171  17.876  21.655  1.00  0.00    -0.258 OA
ATOM     23  O   UNL A   1      33.206  16.620  23.128  1.00  0.00    -0.258 OA
ENDBRANCH  20  21
ENDBRANCH   7  10
ENDBRANCH   4   7
ENDBRANCH   2   3
ENDBRANCH   1   2
BRANCH   1  24
ATOM     24  C   UNL A   1      33.428  28.810  27.316  1.00  0.00     0.118 C 
BRANCH  24  25
ATOM     25  N   UNL A   1      33.536  30.206  27.714  1.00  0.00    -0.352 N 
ATOM     26  C   UNL A   1      34.596  30.878  28.279  1.00  0.00     0.251 C 
ATOM     27  H   UNL A   1      32.731  30.751  27.557  1.00  0.00     0.163 HD
ATOM     28  O   UNL A   1      34.455  32.032  28.669  1.00  0.00    -0.269 OA
BRANCH  26  29
ATOM     29  C   UNL A   1      35.895  30.193  28.460  1.00  0.00     0.039 A 
ATOM     30  C   UNL A   1      36.821  30.217  27.412  1.00  0.00     0.014 A 
ATOM     31  C   UNL A   1      36.216  29.558  29.662  1.00  0.00     0.014 A 
ATOM     32  C   UNL A   1      38.103  29.698  27.609  1.00  0.00     0.010 A 
ATOM     33  C   UNL A   1      37.517  29.117  29.884  1.00  0.00     0.010 A 
ATOM     34  C   UNL A   1      38.478  29.197  28.865  1.00  0.00    -0.014 A 
BRANCH  34  35
ATOM     35  C   UNL A   1      39.878  28.792  29.151  1.00  0.00     0.031 A 
ATOM     36  C   UNL A   1      40.819  29.735  29.846  1.00  0.00     0.074 A 
ATOM     37  C   UNL A   1      40.330  27.603  28.705  1.00  0.00     0.049 A 
ATOM     38  N   UNL A   1      42.094  29.593  30.102  1.00  0.00    -0.248 NA
ATOM     39  C   UNL A   1      40.255  31.020  30.287  1.00  0.00     0.031 C 
ATOM     40  C   UNL A   1      39.532  26.611  27.982  1.00  0.00     0.029 A 
ATOM     41  N   UNL A   1      41.575  27.031  28.786  1.00  0.00    -0.354 N 
ATOM     42  C   UNL A   1      42.489  30.771  30.720  1.00  0.00     0.074 A 
ATOM     43  C   UNL A   1      41.330  31.638  30.752  1.00  0.00     0.031 C 
ATOM     44  C   UNL A   1      40.296  25.541  27.715  1.00  0.00     0.029 A 
ATOM     45  C   UNL A   1      41.648  25.789  28.204  1.00  0.00     0.049 A 
ATOM     46  H   UNL A   1      42.342  27.469  29.220  1.00  0.00     0.167 HD
ATOM     47  C   UNL A   1      43.700  31.095  31.235  1.00  0.00     0.037 A 
ATOM     48  C   UNL A   1      42.690  24.946  28.071  1.00  0.00     0.037 A 
ATOM     49  C   UNL A   1      44.849  30.227  31.213  1.00  0.00     0.049 A 
ATOM     50  C   UNL A   1      44.034  25.344  28.609  1.00  0.00     0.074 A 
ATOM     51  C   UNL A   1      46.100  30.437  31.766  1.00  0.00     0.029 A 
ATOM     52  N   UNL A   1      44.888  28.986  30.594  1.00  0.00    -0.354 N 
ATOM     53  N   UNL A   1      44.378  26.434  29.250  1.00  0.00    -0.248 NA
ATOM     54  C   UNL A   1      45.138  24.397  28.396  1.00  0.00     0.031 C 
ATOM     55  C   UNL A   1      46.911  29.344  31.441  1.00  0.00     0.029 A 
ATOM     56  C   UNL A   1      46.153  28.433  30.723  1.00  0.00     0.049 A 
ATOM     57  H   UNL A   1      44.131  28.561  30.132  1.00  0.00     0.167 HD
ATOM     58  C   UNL A   1      45.728  26.295  29.540  1.00  0.00     0.074 A 
ATOM     59  C   UNL A   1      46.140  25.011  29.012  1.00  0.00     0.031 C 
ATOM     60  C   UNL A   1      46.552  27.155  30.188  1.00  0.00     0.037 A 
BRANCH  47  61
ATOM     61  C   UNL A   1      43.836  32.454  31.858  1.00  0.00     0.057 A 
ATOM     62  C   UNL A   1      44.235  33.574  31.115  1.00  0.00     0.134 A 
ATOM     63  C   UNL A   1      43.567  32.647  33.219  1.00  0.00     0.134 A 
ATOM     64  F   UNL A   1      44.520  33.456  29.808  1.00  0.00    -0.206 F 
ATOM     65  C   UNL A   1      44.400  34.825  31.708  1.00  0.00     0.040 A 
ATOM     66  C   UNL A   1      43.700  33.901  33.819  1.00  0.00     0.040 A 
ATOM     67  F   UNL A   1      43.174  31.621  33.988  1.00  0.00    -0.206 F 
ATOM     68  C   UNL A   1      44.129  34.992  33.065  1.00  0.00     0.006 A 
ENDBRANCH  47  61
BRANCH  48  69
ATOM     69  C   UNL A   1      42.490  23.625  27.426  1.00  0.00     0.057 A 
ATOM     70  C   UNL A   1      42.114  22.511  28.186  1.00  0.00     0.134 A 
ATOM     71  C   UNL A   1      42.648  23.445  26.047  1.00  0.00     0.134 A 
ATOM     72  F   UNL A   1      41.965  22.619  29.514  1.00  0.00    -0.206 F 
ATOM     73  C   UNL A   1      41.907  21.262  27.598  1.00  0.00     0.040 A 
ATOM     74  C   UNL A   1      42.423  22.206  25.443  1.00  0.00     0.040 A 
ATOM     75  F   UNL A   1      43.001  24.475  25.266  1.00  0.00    -0.206 F 
ATOM     76  C   UNL A   1      42.055  21.110  26.221  1.00  0.00     0.006 A 
ENDBRANCH  48  69
BRANCH  60  77
ATOM     77  C   UNL A   1      47.977  26.726  30.381  1.00  0.00     0.057 A 
ATOM     78  C   UNL A   1      48.383  25.996  31.505  1.00  0.00     0.134 A 
ATOM     79  C   UNL A   1      48.946  27.014  29.411  1.00  0.00     0.134 A 
ATOM     80  F   UNL A   1      47.506  25.704  32.479  1.00  0.00    -0.206 F 
ATOM     81  C   UNL A   1      49.705  25.582  31.666  1.00  0.00     0.040 A 
ATOM     82  C   UNL A   1      50.266  26.583  29.549  1.00  0.00     0.040 A 
ATOM     83  F   UNL A   1      48.622  27.703  28.308  1.00  0.00    -0.206 F 
ATOM     84  C   UNL A   1      50.650  25.869  30.683  1.00  0.00     0.006 A 
ENDBRANCH  60  77
ENDBRANCH  34  35
ENDBRANCH  26  29
ENDBRANCH  24  25
ENDBRANCH   1  24
TORSDOF 13
ENDMDL
MODEL 3
REMARK VINA RESULT:     -11.7      3.063      7.660
REMARK SMILES CC[C@H](C(=O)NCCCNC(=O)c1ccc(-c2c3nc(c(-c4c(F)cccc4F)c4ccc([nH]4)c(-c4c(F)cccc4F)c4nc(c(-c5c(F)cccc5F)c5ccc2[nH]5)C=C4)C=C3)cc1)N1C(=O)c2ccc([N+](=O)[O-])cc2C1=O
REMARK SMILES IDX 8 1 7 2 6 3 4 4 5 5 3 7 2 8 1 9 67 10 68 11 79 12 69 13
REMARK SMILES IDX 70 14 78 15 80 16 71 17 77 18 72 19 73 20 74 21 75 22 76 23
REMARK SMILES IDX 9 24 10 25 11 26 12 28 13 29 14 30 66 31 15 32 65 33 16 34
REMARK SMILES IDX 17 35 18 36 59 37 19 38 64 39 58 40 60 41 20 42 63 43 57 44
REMARK SMILES IDX 56 45 21 47 47 48 30 49 46 50 31 51 34 52 45 53 61 54 32 55
REMARK SMILES IDX 33 56 44 58 62 59 35 60 22 61 23 62 28 63 24 64 25 65 27 66
REMARK SMILES IDX 29 67 26 68 48 69 49 70 54 71 50 72 51 73 53 74 55 75 52 76
REMARK SMILES IDX 36 77 37 78 42 79 38 80 39 81 41 82 43 83 40 84
REMARK H PARENT 6 6 10 27 60 46 34 57
REMARK Flexibility Score: inf
ROOT
ATOM      1  C   UNL A   1      37.897  19.954  24.943  1.00  0.00     0.042 C 
ENDROOT
BRANCH   1   2
ATOM      2  C   UNL A   1      36.847  21.054  24.886  1.00  0.00     0.117 C 
BRANCH   2   3
ATOM      3  N   UNL A   1      35.730  20.784  25.768  1.00  0.00    -0.354 N 
ATOM      4  C   UNL A   1      34.450  21.240  25.754  1.00  0.00     0.243 C 
ATOM      5  O   UNL A   1      33.803  21.038  26.788  1.00  0.00    -0.273 OA
ATOM      6  H   UNL A   1      35.934  20.163  26.504  1.00  0.00     0.163 HD
BRANCH   4   7
ATOM      7  C   UNL A   1      33.881  22.066  24.577  1.00  0.00     0.183 C 
BRANCH   7   8
ATOM      8  C   UNL A   1      32.793  21.465  23.671  1.00  0.00     0.032 C 
ATOM      9  C   UNL A   1      32.498  19.983  23.831  1.00  0.00     0.006 C 
ENDBRANCH   7   8
BRANCH   7  10
ATOM     10  N   UNL A   1      33.465  23.375  25.096  1.00  0.00    -0.262 N 
ATOM     11  C   UNL A   1      32.177  23.717  25.409  1.00  0.00     0.262 C 
ATOM     12  C   UNL A   1      34.306  24.447  25.198  1.00  0.00     0.262 C 
ATOM     13  O   UNL A   1      31.151  23.070  25.335  1.00  0.00    -0.269 OA
ATOM     14  C   UNL A   1      32.204  25.114  25.824  1.00  0.00     0.053 A 
ATOM     15  C   UNL A   1      33.500  25.573  25.663  1.00  0.00     0.060 A 
ATOM     16  O   UNL A   1      35.488  24.529  24.921  1.00  0.00    -0.269 OA
ATOM     17  C   UNL A   1      31.177  25.933  26.251  1.00  0.00     0.022 A 
ATOM     18  C   UNL A   1      33.841  26.895  25.881  1.00  0.00     0.100 A 
ATOM     19  C   UNL A   1      31.486  27.275  26.492  1.00  0.00     0.086 A 
ATOM     20  C   UNL A   1      32.806  27.752  26.291  1.00  0.00     0.270 A 
BRANCH  20  21
ATOM     21  N   UNL A   1      33.088  29.181  26.482  1.00  0.00     0.062 N 
ATOM     22  O   UNL A   1      32.462  29.987  25.781  1.00  0.00    -0.258 OA
ATOM     23  O   UNL A   1      33.944  29.488  27.322  1.00  0.00    -0.258 OA
ENDBRANCH  20  21
ENDBRANCH   7  10
ENDBRANCH   4   7
ENDBRANCH   2   3
ENDBRANCH   1   2
BRANCH   1  24
ATOM     24  C   UNL A   1      39.094  20.254  25.837  1.00  0.00     0.118 C 
BRANCH  24  25
ATOM     25  N   UNL A   1      40.075  19.178  25.875  1.00  0.00    -0.352 N 
ATOM     26  C   UNL A   1      41.431  19.236  26.098  1.00  0.00     0.251 C 
ATOM     27  H   UNL A   1      39.714  18.276  25.717  1.00  0.00     0.163 HD
ATOM     28  O   UNL A   1      42.120  18.230  25.962  1.00  0.00    -0.269 OA
BRANCH  26  29
ATOM     29  C   UNL A   1      42.069  20.522  26.456  1.00  0.00     0.039 A 
ATOM     30  C   UNL A   1      42.575  21.331  25.435  1.00  0.00     0.014 A 
ATOM     31  C   UNL A   1      42.143  20.945  27.786  1.00  0.00     0.014 A 
ATOM     32  C   UNL A   1      43.056  22.608  25.736  1.00  0.00     0.010 A 
ATOM     33  C   UNL A   1      42.544  22.246  28.075  1.00  0.00     0.010 A 
ATOM     34  C   UNL A   1      42.990  23.096  27.051  1.00  0.00    -0.014 A 
BRANCH  34  35
ATOM     35  C   UNL A   1      43.338  24.504  27.373  1.00  0.00     0.031 A 
ATOM     36  C   UNL A   1      44.771  24.955  27.375  1.00  0.00     0.074 A 
ATOM     37  C   UNL A   1      42.366  25.358  27.750  1.00  0.00     0.049 A 
ATOM     38  N   UNL A   1      45.273  26.114  27.713  1.00  0.00    -0.248 NA
ATOM     39  C   UNL A   1      45.774  23.959  26.968  1.00  0.00     0.031 C 
ATOM     40  C   UNL A   1      40.940  25.037  27.829  1.00  0.00     0.029 A 
ATOM     41  N   UNL A   1      42.433  26.670  28.147  1.00  0.00    -0.354 N 
ATOM     42  C   UNL A   1      46.648  25.986  27.573  1.00  0.00     0.074 A 
ATOM     43  C   UNL A   1      46.904  24.619  27.171  1.00  0.00     0.031 C 
ATOM     44  C   UNL A   1      40.264  26.129  28.217  1.00  0.00     0.029 A 
ATOM     45  C   UNL A   1      41.210  27.213  28.459  1.00  0.00     0.049 A 
ATOM     46  H   UNL A   1      43.276  27.174  28.203  1.00  0.00     0.167 HD
ATOM     47  C   UNL A   1      47.610  26.926  27.743  1.00  0.00     0.037 A 
ATOM     48  C   UNL A   1      40.887  28.444  28.899  1.00  0.00     0.037 A 
ATOM     49  C   UNL A   1      47.353  28.289  28.130  1.00  0.00     0.049 A 
ATOM     50  C   UNL A   1      41.973  29.456  29.123  1.00  0.00     0.074 A 
ATOM     51  C   UNL A   1      48.251  29.332  28.264  1.00  0.00     0.029 A 
ATOM     52  N   UNL A   1      46.102  28.793  28.459  1.00  0.00    -0.354 N 
ATOM     53  N   UNL A   1      43.263  29.342  28.923  1.00  0.00    -0.248 NA
ATOM     54  C   UNL A   1      41.558  30.767  29.642  1.00  0.00     0.031 C 
ATOM     55  C   UNL A   1      47.553  30.456  28.719  1.00  0.00     0.029 A 
ATOM     56  C   UNL A   1      46.211  30.125  28.827  1.00  0.00     0.049 A 
ATOM     57  H   UNL A   1      45.263  28.281  28.434  1.00  0.00     0.167 HD
ATOM     58  C   UNL A   1      43.812  30.569  29.267  1.00  0.00     0.074 A 
ATOM     59  C   UNL A   1      42.713  31.418  29.680  1.00  0.00     0.031 C 
ATOM     60  C   UNL A   1      45.110  30.958  29.241  1.00  0.00     0.037 A 
BRANCH  47  61
ATOM     61  C   UNL A   1      49.030  26.499  27.513  1.00  0.00     0.057 A 
ATOM     62  C   UNL A   1      49.597  26.468  26.232  1.00  0.00     0.134 A 
ATOM     63  C   UNL A   1      49.843  26.110  28.586  1.00  0.00     0.134 A 
ATOM     64  F   UNL A   1      48.870  26.817  25.159  1.00  0.00    -0.206 F 
ATOM     65  C   UNL A   1      50.905  26.031  26.020  1.00  0.00     0.040 A 
ATOM     66  C   UNL A   1      51.163  25.698  28.391  1.00  0.00     0.040 A 
ATOM     67  F   UNL A   1      49.368  26.122  29.840  1.00  0.00    -0.206 F 
ATOM     68  C   UNL A   1      51.694  25.647  27.103  1.00  0.00     0.006 A 
ENDBRANCH  47  61
BRANCH  48  69
ATOM     69  C   UNL A   1      39.463  28.794  29.125  1.00  0.00     0.057 A 
ATOM     70  C   UNL A   1      38.677  29.295  28.079  1.00  0.00     0.134 A 
ATOM     71  C   UNL A   1      38.849  28.623  30.370  1.00  0.00     0.134 A 
ATOM     72  F   UNL A   1      39.217  29.498  26.868  1.00  0.00    -0.206 F 
ATOM     73  C   UNL A   1      37.333  29.618  28.266  1.00  0.00     0.040 A 
ATOM     74  C   UNL A   1      37.499  28.921  30.566  1.00  0.00     0.040 A 
ATOM     75  F   UNL A   1      39.547  28.141  31.409  1.00  0.00    -0.206 F 
ATOM     76  C   UNL A   1      36.739  29.424  29.512  1.00  0.00     0.006 A 
ENDBRANCH  48  69
BRANCH  60  77
ATOM     77  C   UNL A   1      45.412  32.370  29.650  1.00  0.00     0.057 A 
ATOM     78  C   UNL A   1      45.769  32.697  30.965  1.00  0.00     0.134 A 
ATOM     79  C   UNL A   1      45.382  33.408  28.710  1.00  0.00     0.134 A 
ATOM     80  F   UNL A   1      45.799  31.751  31.916  1.00  0.00    -0.206 F 
ATOM     81  C   UNL A   1      46.070  34.009  31.333  1.00  0.00     0.040 A 
ATOM     82  C   UNL A   1      45.705  34.720  29.061  1.00  0.00     0.040 A 
ATOM     83  F   UNL A   1      45.054  33.162  27.433  1.00  0.00    -0.206 F 
ATOM     84  C   UNL A   1      46.045  35.024  30.377  1.00  0.00     0.006 A 
ENDBRANCH  60  77
ENDBRANCH  34  35
ENDBRANCH  26  29
ENDBRANCH  24  25
ENDBRANCH   1  24
TORSDOF 13
ENDMDL
