MODEL 1
REMARK VINA RESULT:     -13.4      0.000      0.000
REMARK SMILES Cc1c(C(=O)Nc2ccc(C(=O)Nc3ccccc3C(=O)NCCCNC(=O)c3ccc(-c4c5nc(c(-c6c(F)cccc6F)c6ccc([nH]6)c(-c6c(F)cccc6F)c6nc(c(-c7c(F)cccc7F)c7ccc4[nH]7)C=C6)C=C5)cc3)cc2)cccc1[N+](=O)[O-]
REMARK SMILES IDX 20 1 21 2 22 3 19 5 14 6 15 7 16 8 18 9 17 10 13 11 11 12
REMARK SMILES IDX 12 13 10 15 7 16 8 17 84 18 9 19 83 20 6 21 4 22 5 23 3 25
REMARK SMILES IDX 1 26 2 27 88 28 85 29 87 30 86 31 89 32 90 33 91 34 23 35
REMARK SMILES IDX 24 36 25 37 26 38 27 39 28 41 29 42 30 43 82 44 31 45 81 46
REMARK SMILES IDX 32 47 33 48 34 49 75 50 35 51 80 52 74 53 76 54 36 55 79 56
REMARK SMILES IDX 73 57 72 58 37 60 63 61 46 62 62 63 47 64 50 65 61 66 77 67
REMARK SMILES IDX 48 68 49 69 60 71 78 72 51 73 38 74 39 75 44 76 40 77 41 78
REMARK SMILES IDX 43 79 45 80 42 81 64 82 65 83 70 84 66 85 67 86 69 87 71 88
REMARK SMILES IDX 68 89 52 90 53 91 58 92 54 93 55 94 57 95 59 96 56 97
REMARK H PARENT 22 4 13 14 6 24 26 40 76 59 50 70
REMARK Flexibility Score: inf
ROOT
ATOM      1  C   UNL A   1      39.002  20.571  25.764  1.00  0.00     0.253 C 
ATOM      2  O   UNL A   1      38.761  19.628  25.011  1.00  0.00    -0.269 OA
ATOM      3  N   UNL A   1      40.079  20.424  26.616  1.00  0.00    -0.352 N 
ATOM      4  H   UNL A   1      40.469  19.521  26.580  1.00  0.00     0.163 HD
ENDROOT
BRANCH   1   5
ATOM      5  C   UNL A   1      38.122  21.777  25.735  1.00  0.00     0.063 A 
ATOM      6  C   UNL A   1      36.794  21.742  25.237  1.00  0.00     0.054 A 
ATOM      7  C   UNL A   1      36.032  22.927  25.217  1.00  0.00     0.027 A 
ATOM      8  C   UNL A   1      36.538  24.120  25.722  1.00  0.00     0.002 A 
ATOM      9  C   UNL A   1      38.650  23.026  26.098  1.00  0.00     0.016 A 
ATOM     10  C   UNL A   1      37.856  24.175  26.148  1.00  0.00     0.001 A 
BRANCH   6  11
ATOM     11  N   UNL A   1      36.101  20.624  24.732  1.00  0.00    -0.321 N 
ATOM     12  C   UNL A   1      34.891  20.043  25.034  1.00  0.00     0.255 C 
ATOM     13  O   UNL A   1      34.653  18.921  24.582  1.00  0.00    -0.269 OA
ATOM     14  H   UNL A   1      36.584  20.160  24.012  1.00  0.00     0.170 HD
BRANCH  12  15
ATOM     15  C   UNL A   1      33.773  20.801  25.671  1.00  0.00     0.040 A 
ATOM     16  C   UNL A   1      31.808  22.632  26.521  1.00  0.00     0.041 A 
ATOM     17  C   UNL A   1      32.922  22.373  27.304  1.00  0.00     0.027 A 
ATOM     18  C   UNL A   1      31.583  21.840  25.394  1.00  0.00     0.027 A 
ATOM     19  C   UNL A   1      33.931  21.535  26.842  1.00  0.00     0.016 A 
ATOM     20  C   UNL A   1      32.563  20.928  24.972  1.00  0.00     0.016 A 
BRANCH  16  21
ATOM     21  N   UNL A   1      30.962  23.730  26.759  1.00  0.00    -0.322 N 
ATOM     22  C   UNL A   1      31.009  25.030  26.282  1.00  0.00     0.256 C 
ATOM     23  O   UNL A   1      30.235  25.868  26.743  1.00  0.00    -0.269 OA
ATOM     24  H   UNL A   1      30.210  23.543  27.365  1.00  0.00     0.170 HD
BRANCH  22  25
ATOM     25  C   UNL A   1      31.974  25.468  25.228  1.00  0.00     0.049 A 
ATOM     26  C   UNL A   1      30.584  24.589  23.277  1.00  0.00     0.053 C 
ATOM     27  C   UNL A   1      31.860  25.145  23.854  1.00  0.00     0.039 A 
ATOM     28  C   UNL A   1      33.004  25.362  23.050  1.00  0.00     0.273 A 
ATOM     29  C   UNL A   1      33.083  26.201  25.694  1.00  0.00     0.014 A 
ATOM     30  C   UNL A   1      34.121  26.067  23.528  1.00  0.00     0.086 A 
ATOM     31  C   UNL A   1      34.135  26.527  24.839  1.00  0.00     0.008 A 
BRANCH  28  32
ATOM     32  N   UNL A   1      33.129  24.752  21.720  1.00  0.00     0.063 N 
ATOM     33  O   UNL A   1      32.952  25.485  20.737  1.00  0.00    -0.258 OA
ATOM     34  O   UNL A   1      33.477  23.565  21.665  1.00  0.00    -0.258 OA
ENDBRANCH  28  32
ENDBRANCH  22  25
ENDBRANCH  16  21
ENDBRANCH  12  15
ENDBRANCH   6  11
ENDBRANCH   1   5
BRANCH   3  35
ATOM     35  C   UNL A   1      40.775  21.298  27.558  1.00  0.00     0.118 C 
BRANCH  35  36
ATOM     36  C   UNL A   1      42.184  21.683  27.140  1.00  0.00     0.042 C 
BRANCH  36  37
ATOM     37  C   UNL A   1      42.299  22.175  25.704  1.00  0.00     0.118 C 
BRANCH  37  38
ATOM     38  N   UNL A   1      43.339  21.468  24.950  1.00  0.00    -0.352 N 
ATOM     39  C   UNL A   1      44.673  21.783  24.759  1.00  0.00     0.251 C 
ATOM     40  H   UNL A   1      43.042  20.639  24.511  1.00  0.00     0.163 HD
ATOM     41  O   UNL A   1      45.400  21.023  24.137  1.00  0.00    -0.269 OA
BRANCH  39  42
ATOM     42  C   UNL A   1      45.242  22.964  25.448  1.00  0.00     0.039 A 
ATOM     43  C   UNL A   1      45.614  22.804  26.786  1.00  0.00     0.014 A 
ATOM     44  C   UNL A   1      45.168  24.231  24.881  1.00  0.00     0.014 A 
ATOM     45  C   UNL A   1      45.619  23.916  27.621  1.00  0.00     0.010 A 
ATOM     46  C   UNL A   1      45.077  25.323  25.721  1.00  0.00     0.010 A 
ATOM     47  C   UNL A   1      45.217  25.145  27.102  1.00  0.00    -0.014 A 
BRANCH  47  48
ATOM     48  C   UNL A   1      44.794  26.248  27.953  1.00  0.00     0.031 A 
ATOM     49  C   UNL A   1      43.405  26.735  27.918  1.00  0.00     0.074 A 
ATOM     50  C   UNL A   1      45.682  26.823  28.794  1.00  0.00     0.049 A 
ATOM     51  N   UNL A   1      43.052  27.934  28.234  1.00  0.00    -0.248 NA
ATOM     52  C   UNL A   1      42.297  25.897  27.482  1.00  0.00     0.031 C 
ATOM     53  C   UNL A   1      45.407  27.794  29.850  1.00  0.00     0.029 A 
ATOM     54  N   UNL A   1      47.081  26.815  28.684  1.00  0.00    -0.354 N 
ATOM     55  C   UNL A   1      41.681  27.960  28.306  1.00  0.00     0.074 A 
ATOM     56  C   UNL A   1      41.257  26.686  27.768  1.00  0.00     0.031 C 
ATOM     57  C   UNL A   1      46.520  28.511  30.070  1.00  0.00     0.029 A 
ATOM     58  C   UNL A   1      47.495  28.110  29.072  1.00  0.00     0.049 A 
ATOM     59  H   UNL A   1      47.652  26.066  28.397  1.00  0.00     0.167 HD
ATOM     60  C   UNL A   1      41.062  29.003  28.931  1.00  0.00     0.037 A 
ATOM     61  C   UNL A   1      48.113  28.946  28.188  1.00  0.00     0.037 A 
ATOM     62  C   UNL A   1      42.014  30.023  29.370  1.00  0.00     0.049 A 
ATOM     63  C   UNL A   1      47.400  30.260  27.944  1.00  0.00     0.074 A 
ATOM     64  C   UNL A   1      42.595  30.353  30.585  1.00  0.00     0.029 A 
ATOM     65  N   UNL A   1      42.729  30.723  28.414  1.00  0.00    -0.354 N 
ATOM     66  N   UNL A   1      46.235  30.579  28.435  1.00  0.00    -0.248 NA
ATOM     67  C   UNL A   1      47.909  31.275  27.018  1.00  0.00     0.031 C 
ATOM     68  C   UNL A   1      43.648  31.281  30.345  1.00  0.00     0.029 A 
ATOM     69  C   UNL A   1      43.711  31.509  28.984  1.00  0.00     0.049 A 
ATOM     70  H   UNL A   1      42.557  30.667  27.446  1.00  0.00     0.167 HD
ATOM     71  C   UNL A   1      45.808  31.752  27.866  1.00  0.00     0.074 A 
ATOM     72  C   UNL A   1      46.891  32.150  26.987  1.00  0.00     0.031 C 
ATOM     73  C   UNL A   1      44.577  32.285  28.113  1.00  0.00     0.037 A 
BRANCH  60  74
ATOM     74  C   UNL A   1      39.617  28.954  29.371  1.00  0.00     0.057 A 
ATOM     75  C   UNL A   1      38.581  29.363  28.511  1.00  0.00     0.134 A 
ATOM     76  C   UNL A   1      39.186  28.571  30.653  1.00  0.00     0.134 A 
ATOM     77  F   UNL A   1      38.800  29.629  27.217  1.00  0.00    -0.206 F 
ATOM     78  C   UNL A   1      37.257  29.525  28.937  1.00  0.00     0.040 A 
ATOM     79  C   UNL A   1      37.879  28.785  31.113  1.00  0.00     0.040 A 
ATOM     80  F   UNL A   1      40.000  27.925  31.499  1.00  0.00    -0.206 F 
ATOM     81  C   UNL A   1      36.911  29.286  30.257  1.00  0.00     0.006 A 
ENDBRANCH  60  74
BRANCH  61  82
ATOM     82  C   UNL A   1      48.924  28.230  27.167  1.00  0.00     0.057 A 
ATOM     83  C   UNL A   1      50.224  27.806  27.494  1.00  0.00     0.134 A 
ATOM     84  C   UNL A   1      48.346  27.679  26.020  1.00  0.00     0.134 A 
ATOM     85  F   UNL A   1      50.839  28.293  28.585  1.00  0.00    -0.206 F 
ATOM     86  C   UNL A   1      50.877  26.803  26.775  1.00  0.00     0.040 A 
ATOM     87  C   UNL A   1      48.998  26.688  25.280  1.00  0.00     0.040 A 
ATOM     88  F   UNL A   1      47.099  28.012  25.654  1.00  0.00    -0.206 F 
ATOM     89  C   UNL A   1      50.250  26.220  25.679  1.00  0.00     0.006 A 
ENDBRANCH  61  82
BRANCH  73  90
ATOM     90  C   UNL A   1      44.078  33.573  27.513  1.00  0.00     0.057 A 
ATOM     91  C   UNL A   1      43.832  34.726  28.272  1.00  0.00     0.134 A 
ATOM     92  C   UNL A   1      43.724  33.663  26.150  1.00  0.00     0.134 A 
ATOM     93  F   UNL A   1      44.035  34.738  29.598  1.00  0.00    -0.206 F 
ATOM     94  C   UNL A   1      43.339  35.907  27.703  1.00  0.00     0.040 A 
ATOM     95  C   UNL A   1      43.185  34.820  25.581  1.00  0.00     0.040 A 
ATOM     96  F   UNL A   1      43.903  32.640  25.304  1.00  0.00    -0.206 F 
ATOM     97  C   UNL A   1      43.008  35.956  26.354  1.00  0.00     0.006 A 
ENDBRANCH  73  90
ENDBRANCH  47  48
ENDBRANCH  39  42
ENDBRANCH  37  38
ENDBRANCH  36  37
ENDBRANCH  35  36
ENDBRANCH   3  35
TORSDOF 15
ENDMDL
MODEL 2
REMARK VINA RESULT:     -13.4      3.904      6.979
REMARK SMILES Cc1c(C(=O)Nc2ccc(C(=O)Nc3ccccc3C(=O)NCCCNC(=O)c3ccc(-c4c5nc(c(-c6c(F)cccc6F)c6ccc([nH]6)c(-c6c(F)cccc6F)c6nc(c(-c7c(F)cccc7F)c7ccc4[nH]7)C=C6)C=C5)cc3)cc2)cccc1[N+](=O)[O-]
REMARK SMILES IDX 20 1 21 2 22 3 19 5 14 6 15 7 16 8 18 9 17 10 13 11 11 12
REMARK SMILES IDX 12 13 10 15 7 16 8 17 84 18 9 19 83 20 6 21 4 22 5 23 3 25
REMARK SMILES IDX 1 26 2 27 88 28 85 29 87 30 86 31 89 32 90 33 91 34 23 35
REMARK SMILES IDX 24 36 25 37 26 38 27 39 28 41 29 42 30 43 82 44 31 45 81 46
REMARK SMILES IDX 32 47 33 48 34 49 75 50 35 51 80 52 74 53 76 54 36 55 79 56
REMARK SMILES IDX 73 57 72 58 37 60 63 61 46 62 62 63 47 64 50 65 61 66 77 67
REMARK SMILES IDX 48 68 49 69 60 71 78 72 51 73 38 74 39 75 44 76 40 77 41 78
REMARK SMILES IDX 43 79 45 80 42 81 64 82 65 83 70 84 66 85 67 86 69 87 71 88
REMARK SMILES IDX 68 89 52 90 53 91 58 92 54 93 55 94 57 95 59 96 56 97
REMARK H PARENT 22 4 13 14 6 24 26 40 76 59 50 70
REMARK Flexibility Score: inf
ROOT
ATOM      1  C   UNL A   1      32.938  24.988  25.748  1.00  0.00     0.253 C 
ATOM      2  O   UNL A   1      32.000  24.636  26.462  1.00  0.00    -0.269 OA
ATOM      3  N   UNL A   1      34.154  24.372  25.973  1.00  0.00    -0.352 N 
ATOM      4  H   UNL A   1      34.139  23.784  26.762  1.00  0.00     0.163 HD
ENDROOT
BRANCH   1   5
ATOM      5  C   UNL A   1      32.721  26.053  24.724  1.00  0.00     0.063 A 
ATOM      6  C   UNL A   1      32.037  27.261  25.011  1.00  0.00     0.054 A 
ATOM      7  C   UNL A   1      31.847  28.209  23.986  1.00  0.00     0.027 A 
ATOM      8  C   UNL A   1      32.362  28.005  22.709  1.00  0.00     0.002 A 
ATOM      9  C   UNL A   1      33.096  25.815  23.392  1.00  0.00     0.016 A 
ATOM     10  C   UNL A   1      32.973  26.799  22.406  1.00  0.00     0.001 A 
BRANCH   6  11
ATOM     11  N   UNL A   1      31.491  27.660  26.247  1.00  0.00    -0.321 N 
ATOM     12  C   UNL A   1      31.997  28.341  27.331  1.00  0.00     0.255 C 
ATOM     13  O   UNL A   1      31.346  28.335  28.378  1.00  0.00    -0.269 OA
ATOM     14  H   UNL A   1      30.550  27.395  26.360  1.00  0.00     0.170 HD
BRANCH  12  15
ATOM     15  C   UNL A   1      33.156  29.275  27.223  1.00  0.00     0.040 A 
ATOM     16  C   UNL A   1      35.430  30.906  27.548  1.00  0.00     0.041 A 
ATOM     17  C   UNL A   1      34.163  31.462  27.480  1.00  0.00     0.027 A 
ATOM     18  C   UNL A   1      35.580  29.546  27.271  1.00  0.00     0.027 A 
ATOM     19  C   UNL A   1      33.038  30.649  27.407  1.00  0.00     0.016 A 
ATOM     20  C   UNL A   1      34.447  28.735  27.109  1.00  0.00     0.016 A 
BRANCH  16  21
ATOM     21  N   UNL A   1      36.548  31.634  27.992  1.00  0.00    -0.322 N 
ATOM     22  C   UNL A   1      36.646  32.684  28.891  1.00  0.00     0.256 C 
ATOM     23  O   UNL A   1      37.722  33.268  29.020  1.00  0.00    -0.269 OA
ATOM     24  H   UNL A   1      37.403  31.352  27.598  1.00  0.00     0.170 HD
BRANCH  22  25
ATOM     25  C   UNL A   1      35.490  33.151  29.715  1.00  0.00     0.049 A 
ATOM     26  C   UNL A   1      34.704  34.894  28.025  1.00  0.00     0.053 C 
ATOM     27  C   UNL A   1      34.675  34.263  29.394  1.00  0.00     0.039 A 
ATOM     28  C   UNL A   1      33.837  34.760  30.420  1.00  0.00     0.273 A 
ATOM     29  C   UNL A   1      35.275  32.437  30.910  1.00  0.00     0.014 A 
ATOM     30  C   UNL A   1      33.649  34.060  31.624  1.00  0.00     0.086 A 
ATOM     31  C   UNL A   1      34.335  32.872  31.844  1.00  0.00     0.008 A 
BRANCH  28  32
ATOM     32  N   UNL A   1      33.225  36.091  30.329  1.00  0.00     0.063 N 
ATOM     33  O   UNL A   1      32.398  36.278  29.425  1.00  0.00    -0.258 OA
ATOM     34  O   UNL A   1      33.515  36.917  31.204  1.00  0.00    -0.258 OA
ENDBRANCH  28  32
ENDBRANCH  22  25
ENDBRANCH  16  21
ENDBRANCH  12  15
ENDBRANCH   6  11
ENDBRANCH   1   5
BRANCH   3  35
ATOM     35  C   UNL A   1      35.456  24.390  25.312  1.00  0.00     0.118 C 
BRANCH  35  36
ATOM     36  C   UNL A   1      36.495  23.473  25.938  1.00  0.00     0.042 C 
BRANCH  36  37
ATOM     37  C   UNL A   1      37.823  23.434  25.196  1.00  0.00     0.118 C 
BRANCH  37  38
ATOM     38  N   UNL A   1      38.898  22.844  26.000  1.00  0.00    -0.352 N 
ATOM     39  C   UNL A   1      39.672  23.402  27.004  1.00  0.00     0.251 C 
ATOM     40  H   UNL A   1      39.100  21.903  25.795  1.00  0.00     0.163 HD
ATOM     41  O   UNL A   1      40.487  22.716  27.601  1.00  0.00    -0.269 OA
BRANCH  39  42
ATOM     42  C   UNL A   1      39.389  24.785  27.449  1.00  0.00     0.039 A 
ATOM     43  C   UNL A   1      40.022  25.821  26.755  1.00  0.00     0.014 A 
ATOM     44  C   UNL A   1      38.741  25.033  28.654  1.00  0.00     0.014 A 
ATOM     45  C   UNL A   1      40.257  27.025  27.409  1.00  0.00     0.010 A 
ATOM     46  C   UNL A   1      39.054  26.188  29.343  1.00  0.00     0.010 A 
ATOM     47  C   UNL A   1      39.885  27.143  28.748  1.00  0.00    -0.014 A 
BRANCH  47  48
ATOM     48  C   UNL A   1      40.441  28.167  29.621  1.00  0.00     0.031 A 
ATOM     49  C   UNL A   1      39.579  29.209  30.202  1.00  0.00     0.074 A 
ATOM     50  C   UNL A   1      41.761  28.154  29.912  1.00  0.00     0.049 A 
ATOM     51  N   UNL A   1      39.998  30.374  30.563  1.00  0.00    -0.248 NA
ATOM     52  C   UNL A   1      38.148  29.020  30.388  1.00  0.00     0.031 C 
ATOM     53  C   UNL A   1      42.461  28.964  30.907  1.00  0.00     0.029 A 
ATOM     54  N   UNL A   1      42.788  27.555  29.166  1.00  0.00    -0.354 N 
ATOM     55  C   UNL A   1      38.984  30.982  31.262  1.00  0.00     0.074 A 
ATOM     56  C   UNL A   1      37.834  30.125  31.070  1.00  0.00     0.031 C 
ATOM     57  C   UNL A   1      43.745  29.078  30.536  1.00  0.00     0.029 A 
ATOM     58  C   UNL A   1      43.873  28.459  29.228  1.00  0.00     0.049 A 
ATOM     59  H   UNL A   1      42.758  26.689  28.698  1.00  0.00     0.167 HD
ATOM     60  C   UNL A   1      39.261  32.075  32.031  1.00  0.00     0.037 A 
ATOM     61  C   UNL A   1      44.344  29.072  28.104  1.00  0.00     0.037 A 
ATOM     62  C   UNL A   1      40.658  32.493  31.907  1.00  0.00     0.049 A 
ATOM     63  C   UNL A   1      44.291  30.586  28.130  1.00  0.00     0.074 A 
ATOM     64  C   UNL A   1      41.793  32.336  32.688  1.00  0.00     0.029 A 
ATOM     65  N   UNL A   1      41.109  32.956  30.683  1.00  0.00    -0.354 N 
ATOM     66  N   UNL A   1      43.756  31.296  29.084  1.00  0.00    -0.248 NA
ATOM     67  C   UNL A   1      44.742  31.412  27.008  1.00  0.00     0.031 C 
ATOM     68  C   UNL A   1      42.925  32.738  31.924  1.00  0.00     0.029 A 
ATOM     69  C   UNL A   1      42.479  33.131  30.678  1.00  0.00     0.049 A 
ATOM     70  H   UNL A   1      40.524  33.136  29.912  1.00  0.00     0.167 HD
ATOM     71  C   UNL A   1      43.715  32.613  28.700  1.00  0.00     0.074 A 
ATOM     72  C   UNL A   1      44.345  32.635  27.394  1.00  0.00     0.031 C 
ATOM     73  C   UNL A   1      43.119  33.582  29.454  1.00  0.00     0.037 A 
BRANCH  60  74
ATOM     74  C   UNL A   1      38.319  32.590  33.093  1.00  0.00     0.057 A 
ATOM     75  C   UNL A   1      37.707  33.852  32.973  1.00  0.00     0.134 A 
ATOM     76  C   UNL A   1      38.021  31.916  34.290  1.00  0.00     0.134 A 
ATOM     77  F   UNL A   1      37.775  34.565  31.841  1.00  0.00    -0.206 F 
ATOM     78  C   UNL A   1      36.991  34.454  34.015  1.00  0.00     0.040 A 
ATOM     79  C   UNL A   1      37.359  32.528  35.364  1.00  0.00     0.040 A 
ATOM     80  F   UNL A   1      38.312  30.618  34.451  1.00  0.00    -0.206 F 
ATOM     81  C   UNL A   1      36.859  33.813  35.236  1.00  0.00     0.006 A 
ENDBRANCH  60  74
BRANCH  61  82
ATOM     82  C   UNL A   1      44.191  28.249  26.874  1.00  0.00     0.057 A 
ATOM     83  C   UNL A   1      44.996  27.110  26.704  1.00  0.00     0.134 A 
ATOM     84  C   UNL A   1      43.074  28.368  26.043  1.00  0.00     0.134 A 
ATOM     85  F   UNL A   1      46.084  26.930  27.472  1.00  0.00    -0.206 F 
ATOM     86  C   UNL A   1      44.649  26.085  25.822  1.00  0.00     0.040 A 
ATOM     87  C   UNL A   1      42.727  27.358  25.141  1.00  0.00     0.040 A 
ATOM     88  F   UNL A   1      42.241  29.413  26.160  1.00  0.00    -0.206 F 
ATOM     89  C   UNL A   1      43.493  26.196  25.056  1.00  0.00     0.006 A 
ENDBRANCH  61  82
BRANCH  73  90
ATOM     90  C   UNL A   1      43.062  35.037  29.068  1.00  0.00     0.057 A 
ATOM     91  C   UNL A   1      41.924  35.636  28.509  1.00  0.00     0.134 A 
ATOM     92  C   UNL A   1      44.200  35.866  29.150  1.00  0.00     0.134 A 
ATOM     93  F   UNL A   1      40.807  34.928  28.287  1.00  0.00    -0.206 F 
ATOM     94  C   UNL A   1      41.897  36.984  28.128  1.00  0.00     0.040 A 
ATOM     95  C   UNL A   1      44.200  37.198  28.727  1.00  0.00     0.040 A 
ATOM     96  F   UNL A   1      45.358  35.429  29.663  1.00  0.00    -0.206 F 
ATOM     97  C   UNL A   1      43.040  37.768  28.230  1.00  0.00     0.006 A 
ENDBRANCH  73  90
ENDBRANCH  47  48
ENDBRANCH  39  42
ENDBRANCH  37  38
ENDBRANCH  36  37
ENDBRANCH  35  36
ENDBRANCH   3  35
TORSDOF 15
ENDMDL
MODEL 3
REMARK VINA RESULT:     -13.1      3.998      9.329
REMARK SMILES Cc1c(C(=O)Nc2ccc(C(=O)Nc3ccccc3C(=O)NCCCNC(=O)c3ccc(-c4c5nc(c(-c6c(F)cccc6F)c6ccc([nH]6)c(-c6c(F)cccc6F)c6nc(c(-c7c(F)cccc7F)c7ccc4[nH]7)C=C6)C=C5)cc3)cc2)cccc1[N+](=O)[O-]
REMARK SMILES IDX 20 1 21 2 22 3 19 5 14 6 15 7 16 8 18 9 17 10 13 11 11 12
REMARK SMILES IDX 12 13 10 15 7 16 8 17 84 18 9 19 83 20 6 21 4 22 5 23 3 25
REMARK SMILES IDX 1 26 2 27 88 28 85 29 87 30 86 31 89 32 90 33 91 34 23 35
REMARK SMILES IDX 24 36 25 37 26 38 27 39 28 41 29 42 30 43 82 44 31 45 81 46
REMARK SMILES IDX 32 47 33 48 34 49 75 50 35 51 80 52 74 53 76 54 36 55 79 56
REMARK SMILES IDX 73 57 72 58 37 60 63 61 46 62 62 63 47 64 50 65 61 66 77 67
REMARK SMILES IDX 48 68 49 69 60 71 78 72 51 73 38 74 39 75 44 76 40 77 41 78
REMARK SMILES IDX 43 79 45 80 42 81 64 82 65 83 70 84 66 85 67 86 69 87 71 88
REMARK SMILES IDX 68 89 52 90 53 91 58 92 54 93 55 94 57 95 59 96 56 97
REMARK H PARENT 22 4 13 14 6 24 26 40 76 59 50 70
REMARK Flexibility Score: inf
ROOT
ATOM      1  C   UNL A   1      32.406  32.216  26.945  1.00  0.00     0.253 C 
ATOM      2  O   UNL A   1      31.389  32.570  26.350  1.00  0.00    -0.269 OA
ATOM      3  N   UNL A   1      33.055  33.180  27.692  1.00  0.00    -0.352 N 
ATOM      4  H   UNL A   1      32.665  34.076  27.572  1.00  0.00     0.163 HD
ENDROOT
BRANCH   1   5
ATOM      5  C   UNL A   1      32.884  30.808  26.808  1.00  0.00     0.063 A 
ATOM      6  C   UNL A   1      32.168  29.825  26.078  1.00  0.00     0.054 A 
ATOM      7  C   UNL A   1      32.668  28.509  26.015  1.00  0.00     0.027 A 
ATOM      8  C   UNL A   1      33.876  28.166  26.614  1.00  0.00     0.002 A 
ATOM      9  C   UNL A   1      34.020  30.392  27.521  1.00  0.00     0.016 A 
ATOM     10  C   UNL A   1      34.546  29.105  27.383  1.00  0.00     0.001 A 
BRANCH   6  11
ATOM     11  N   UNL A   1      30.960  29.997  25.373  1.00  0.00    -0.321 N 
ATOM     12  C   UNL A   1      30.582  29.767  24.070  1.00  0.00     0.255 C 
ATOM     13  O   UNL A   1      29.513  30.242  23.681  1.00  0.00    -0.269 OA
ATOM     14  H   UNL A   1      30.233  30.358  25.929  1.00  0.00     0.170 HD
BRANCH  12  15
ATOM     15  C   UNL A   1      31.279  28.779  23.194  1.00  0.00     0.040 A 
ATOM     16  C   UNL A   1      32.529  26.571  21.969  1.00  0.00     0.041 A 
ATOM     17  C   UNL A   1      33.277  27.643  22.432  1.00  0.00     0.027 A 
ATOM     18  C   UNL A   1      31.137  26.683  21.954  1.00  0.00     0.027 A 
ATOM     19  C   UNL A   1      32.665  28.689  23.113  1.00  0.00     0.016 A 
ATOM     20  C   UNL A   1      30.516  27.784  22.564  1.00  0.00     0.016 A 
BRANCH  16  21
ATOM     21  N   UNL A   1      33.114  25.342  21.621  1.00  0.00    -0.322 N 
ATOM     22  C   UNL A   1      33.544  24.287  22.410  1.00  0.00     0.256 C 
ATOM     23  O   UNL A   1      34.164  23.360  21.889  1.00  0.00    -0.269 OA
ATOM     24  H   UNL A   1      33.239  25.208  20.654  1.00  0.00     0.170 HD
BRANCH  22  25
ATOM     25  C   UNL A   1      33.296  24.227  23.882  1.00  0.00     0.049 A 
ATOM     26  C   UNL A   1      30.879  23.440  23.666  1.00  0.00     0.053 C 
ATOM     27  C   UNL A   1      32.033  23.978  24.471  1.00  0.00     0.039 A 
ATOM     28  C   UNL A   1      31.904  24.265  25.851  1.00  0.00     0.273 A 
ATOM     29  C   UNL A   1      34.415  24.500  24.693  1.00  0.00     0.014 A 
ATOM     30  C   UNL A   1      33.019  24.568  26.651  1.00  0.00     0.086 A 
ATOM     31  C   UNL A   1      34.281  24.636  26.074  1.00  0.00     0.008 A 
BRANCH  28  32
ATOM     32  N   UNL A   1      30.586  24.385  26.485  1.00  0.00     0.063 N 
ATOM     33  O   UNL A   1      29.915  25.392  26.220  1.00  0.00    -0.258 OA
ATOM     34  O   UNL A   1      30.197  23.439  27.183  1.00  0.00    -0.258 OA
ENDBRANCH  28  32
ENDBRANCH  22  25
ENDBRANCH  16  21
ENDBRANCH  12  15
ENDBRANCH   6  11
ENDBRANCH   1   5
BRANCH   3  35
ATOM     35  C   UNL A   1      34.183  33.179  28.619  1.00  0.00     0.118 C 
BRANCH  35  36
ATOM     36  C   UNL A   1      35.537  33.403  27.966  1.00  0.00     0.042 C 
BRANCH  36  37
ATOM     37  C   UNL A   1      36.712  32.834  28.749  1.00  0.00     0.118 C 
BRANCH  37  38
ATOM     38  N   UNL A   1      36.331  32.393  30.093  1.00  0.00    -0.352 N 
ATOM     39  C   UNL A   1      36.494  31.164  30.710  1.00  0.00     0.251 C 
ATOM     40  H   UNL A   1      35.889  33.078  30.645  1.00  0.00     0.163 HD
ATOM     41  O   UNL A   1      36.157  31.012  31.874  1.00  0.00    -0.269 OA
BRANCH  39  42
ATOM     42  C   UNL A   1      37.224  30.090  29.998  1.00  0.00     0.039 A 
ATOM     43  C   UNL A   1      37.341  28.858  30.648  1.00  0.00     0.014 A 
ATOM     44  C   UNL A   1      37.980  30.367  28.864  1.00  0.00     0.014 A 
ATOM     45  C   UNL A   1      38.417  28.033  30.339  1.00  0.00     0.010 A 
ATOM     46  C   UNL A   1      39.102  29.600  28.619  1.00  0.00     0.010 A 
ATOM     47  C   UNL A   1      39.362  28.482  29.418  1.00  0.00    -0.014 A 
BRANCH  47  48
ATOM     48  C   UNL A   1      40.698  27.910  29.336  1.00  0.00     0.031 A 
ATOM     49  C   UNL A   1      40.899  26.534  28.855  1.00  0.00     0.074 A 
ATOM     50  C   UNL A   1      41.768  28.656  29.692  1.00  0.00     0.049 A 
ATOM     51  N   UNL A   1      41.906  25.796  29.178  1.00  0.00    -0.248 NA
ATOM     52  C   UNL A   1      39.942  25.865  27.986  1.00  0.00     0.031 C 
ATOM     53  C   UNL A   1      43.180  28.336  29.497  1.00  0.00     0.029 A 
ATOM     54  N   UNL A   1      41.778  29.771  30.544  1.00  0.00    -0.354 N 
ATOM     55  C   UNL A   1      41.882  24.683  28.374  1.00  0.00     0.074 A 
ATOM     56  C   UNL A   1      40.606  24.743  27.695  1.00  0.00     0.031 C 
ATOM     57  C   UNL A   1      43.897  28.992  30.422  1.00  0.00     0.029 A 
ATOM     58  C   UNL A   1      42.956  29.643  31.316  1.00  0.00     0.049 A 
ATOM     59  H   UNL A   1      41.107  30.490  30.593  1.00  0.00     0.167 HD
ATOM     60  C   UNL A   1      42.997  23.902  28.275  1.00  0.00     0.037 A 
ATOM     61  C   UNL A   1      42.895  29.467  32.667  1.00  0.00     0.037 A 
ATOM     62  C   UNL A   1      44.067  24.360  29.161  1.00  0.00     0.049 A 
ATOM     63  C   UNL A   1      43.537  28.193  33.177  1.00  0.00     0.074 A 
ATOM     64  C   UNL A   1      45.231  25.092  28.983  1.00  0.00     0.029 A 
ATOM     65  N   UNL A   1      43.870  24.302  30.530  1.00  0.00    -0.354 N 
ATOM     66  N   UNL A   1      44.033  27.254  32.420  1.00  0.00    -0.248 NA
ATOM     67  C   UNL A   1      43.557  27.831  34.596  1.00  0.00     0.031 C 
ATOM     68  C   UNL A   1      45.741  25.446  30.264  1.00  0.00     0.029 A 
ATOM     69  C   UNL A   1      44.884  24.936  31.219  1.00  0.00     0.049 A 
ATOM     70  H   UNL A   1      43.100  23.862  30.958  1.00  0.00     0.167 HD
ATOM     71  C   UNL A   1      44.359  26.171  33.196  1.00  0.00     0.074 A 
ATOM     72  C   UNL A   1      44.044  26.580  34.551  1.00  0.00     0.031 C 
ATOM     73  C   UNL A   1      44.811  24.996  32.669  1.00  0.00     0.037 A 
BRANCH  60  74
ATOM     74  C   UNL A   1      43.191  22.886  27.174  1.00  0.00     0.057 A 
ATOM     75  C   UNL A   1      42.485  21.669  27.174  1.00  0.00     0.134 A 
ATOM     76  C   UNL A   1      44.107  23.023  26.116  1.00  0.00     0.134 A 
ATOM     77  F   UNL A   1      41.482  21.435  28.029  1.00  0.00    -0.206 F 
ATOM     78  C   UNL A   1      42.776  20.619  26.294  1.00  0.00     0.040 A 
ATOM     79  C   UNL A   1      44.453  21.962  25.267  1.00  0.00     0.040 A 
ATOM     80  F   UNL A   1      44.668  24.204  25.826  1.00  0.00    -0.206 F 
ATOM     81  C   UNL A   1      43.800  20.744  25.368  1.00  0.00     0.006 A 
ENDBRANCH  60  74
BRANCH  61  82
ATOM     82  C   UNL A   1      41.716  30.121  33.296  1.00  0.00     0.057 A 
ATOM     83  C   UNL A   1      41.761  31.499  33.573  1.00  0.00     0.134 A 
ATOM     84  C   UNL A   1      40.462  29.507  33.326  1.00  0.00     0.134 A 
ATOM     85  F   UNL A   1      42.933  32.154  33.558  1.00  0.00    -0.206 F 
ATOM     86  C   UNL A   1      40.600  32.251  33.767  1.00  0.00     0.040 A 
ATOM     87  C   UNL A   1      39.294  30.245  33.539  1.00  0.00     0.040 A 
ATOM     88  F   UNL A   1      40.332  28.201  33.047  1.00  0.00    -0.206 F 
ATOM     89  C   UNL A   1      39.358  31.627  33.721  1.00  0.00     0.006 A 
ENDBRANCH  61  82
BRANCH  73  90
ATOM     90  C   UNL A   1      45.185  23.790  33.490  1.00  0.00     0.057 A 
ATOM     91  C   UNL A   1      44.252  22.832  33.910  1.00  0.00     0.134 A 
ATOM     92  C   UNL A   1      46.495  23.609  33.979  1.00  0.00     0.134 A 
ATOM     93  F   UNL A   1      42.953  22.944  33.594  1.00  0.00    -0.206 F 
ATOM     94  C   UNL A   1      44.611  21.731  34.700  1.00  0.00     0.040 A 
ATOM     95  C   UNL A   1      46.856  22.542  34.807  1.00  0.00     0.040 A 
ATOM     96  F   UNL A   1      47.492  24.446  33.659  1.00  0.00    -0.206 F 
ATOM     97  C   UNL A   1      45.916  21.587  35.156  1.00  0.00     0.006 A 
ENDBRANCH  73  90
ENDBRANCH  47  48
ENDBRANCH  39  42
ENDBRANCH  37  38
ENDBRANCH  36  37
ENDBRANCH  35  36
ENDBRANCH   3  35
TORSDOF 15
ENDMDL
