MODEL 1
REMARK VINA RESULT:     -12.4      0.000      0.000
REMARK SMILES O=C(NCCCNC(=O)[C@@H](c1c[nH]c2cc(OCc3ccccc3)ccc12)[NH+]1CCSCC1)c1ccc(-c2c3nc(c(-c4c(F)cccc4F)c4ccc([nH]4)c(-c4c(F)cccc4F)c4nc(c(-c5c(F)cccc5F)c5ccc2[nH]5)C=C4)C=C3)cc1
REMARK SMILES IDX 6 1 5 2 4 3 3 4 1 5 2 6 34 8 35 9 87 10 36 11 86 12 37 13
REMARK SMILES IDX 38 14 39 15 80 16 40 17 85 18 79 19 81 20 41 21 84 22 78 23
REMARK SMILES IDX 77 24 42 26 68 27 51 28 67 29 52 30 55 31 66 32 82 33 53 34
REMARK SMILES IDX 54 35 65 37 83 38 56 39 43 40 44 41 49 42 45 43 46 44 48 45
REMARK SMILES IDX 50 46 47 47 69 48 70 49 75 50 71 51 72 52 74 53 76 54 73 55
REMARK SMILES IDX 57 56 58 57 63 58 59 59 60 60 62 61 64 62 61 63 7 64 8 65
REMARK SMILES IDX 9 67 10 68 11 69 12 70 27 71 13 72 14 73 26 74 15 76 25 77
REMARK SMILES IDX 16 78 17 79 18 80 19 81 20 82 24 83 21 84 23 85 22 86 28 87
REMARK SMILES IDX 29 88 33 89 30 91 32 92 31 93
REMARK H PARENT 3 7 81 25 55 36 7 66 13 75 28 90
REMARK Flexibility Score: inf
ROOT
ATOM      1  C   UNL A   1      31.840  28.248  27.203  1.00  0.00     0.118 C 
ENDROOT
BRANCH   1   2
ATOM      2  C   UNL A   1      33.324  27.953  27.037  1.00  0.00     0.042 C 
BRANCH   2   3
ATOM      3  C   UNL A   1      34.100  29.060  26.348  1.00  0.00     0.118 C 
BRANCH   3   4
ATOM      4  N   UNL A   1      33.962  30.321  27.061  1.00  0.00    -0.352 N 
ATOM      5  O   UNL A   1      34.359  31.750  28.763  1.00  0.00    -0.269 OA
ATOM      6  C   UNL A   1      34.752  30.810  28.064  1.00  0.00     0.251 C 
ATOM      7  H   UNL A   1      33.208  30.892  26.788  1.00  0.00     0.163 HD
BRANCH   6   8
ATOM      8  C   UNL A   1      36.082  30.217  28.306  1.00  0.00     0.039 A 
ATOM      9  C   UNL A   1      37.076  30.292  27.323  1.00  0.00     0.014 A 
ATOM     10  C   UNL A   1      36.356  29.633  29.544  1.00  0.00     0.014 A 
ATOM     11  C   UNL A   1      38.321  29.720  27.551  1.00  0.00     0.010 A 
ATOM     12  C   UNL A   1      37.631  29.123  29.799  1.00  0.00     0.010 A 
ATOM     13  C   UNL A   1      38.622  29.170  28.806  1.00  0.00    -0.014 A 
BRANCH  13  14
ATOM     14  C   UNL A   1      40.021  28.796  29.119  1.00  0.00     0.031 A 
ATOM     15  C   UNL A   1      40.958  29.756  29.785  1.00  0.00     0.074 A 
ATOM     16  C   UNL A   1      40.442  27.570  28.749  1.00  0.00     0.049 A 
ATOM     17  N   UNL A   1      42.225  29.597  30.071  1.00  0.00    -0.248 NA
ATOM     18  C   UNL A   1      40.413  31.065  30.174  1.00  0.00     0.031 C 
ATOM     19  C   UNL A   1      39.618  26.568  28.066  1.00  0.00     0.029 A 
ATOM     20  N   UNL A   1      41.661  26.959  28.882  1.00  0.00    -0.354 N 
ATOM     21  C   UNL A   1      42.636  30.789  30.651  1.00  0.00     0.074 A 
ATOM     22  C   UNL A   1      41.487  31.668  30.670  1.00  0.00     0.031 C 
ATOM     23  C   UNL A   1      40.349  25.465  27.853  1.00  0.00     0.029 A 
ATOM     24  C   UNL A   1      41.707  25.704  28.325  1.00  0.00     0.049 A 
ATOM     25  H   UNL A   1      42.430  27.379  29.333  1.00  0.00     0.167 HD
ATOM     26  C   UNL A   1      43.865  31.109  31.123  1.00  0.00     0.037 A 
ATOM     27  C   UNL A   1      42.736  24.852  28.174  1.00  0.00     0.037 A 
ATOM     28  C   UNL A   1      44.993  30.214  31.121  1.00  0.00     0.049 A 
ATOM     29  C   UNL A   1      44.089  25.251  28.682  1.00  0.00     0.074 A 
ATOM     30  C   UNL A   1      46.251  30.413  31.665  1.00  0.00     0.029 A 
ATOM     31  N   UNL A   1      45.007  28.959  30.534  1.00  0.00    -0.354 N 
ATOM     32  N   UNL A   1      44.444  26.351  29.300  1.00  0.00    -0.248 NA
ATOM     33  C   UNL A   1      45.187  24.301  28.462  1.00  0.00     0.031 C 
ATOM     34  C   UNL A   1      47.041  29.300  31.360  1.00  0.00     0.029 A 
ATOM     35  C   UNL A   1      46.264  28.390  30.663  1.00  0.00     0.049 A 
ATOM     36  H   UNL A   1      44.237  28.534  30.090  1.00  0.00     0.167 HD
ATOM     37  C   UNL A   1      45.802  26.224  29.547  1.00  0.00     0.074 A 
ATOM     38  C   UNL A   1      46.202  24.929  29.036  1.00  0.00     0.031 C 
ATOM     39  C   UNL A   1      46.645  27.105  30.138  1.00  0.00     0.037 A 
BRANCH  26  40
ATOM     40  C   UNL A   1      44.073  32.489  31.672  1.00  0.00     0.057 A 
ATOM     41  C   UNL A   1      44.462  33.560  30.859  1.00  0.00     0.134 A 
ATOM     42  C   UNL A   1      43.789  32.765  33.017  1.00  0.00     0.134 A 
ATOM     43  F   UNL A   1      44.753  33.360  29.566  1.00  0.00    -0.206 F 
ATOM     44  C   UNL A   1      44.564  34.858  31.365  1.00  0.00     0.040 A 
ATOM     45  C   UNL A   1      43.871  34.061  33.529  1.00  0.00     0.040 A 
ATOM     46  F   UNL A   1      43.404  31.785  33.847  1.00  0.00    -0.206 F 
ATOM     47  C   UNL A   1      44.259  35.113  32.701  1.00  0.00     0.006 A 
ENDBRANCH  26  40
BRANCH  27  48
ATOM     48  C   UNL A   1      42.531  23.561  27.473  1.00  0.00     0.057 A 
ATOM     49  C   UNL A   1      42.175  22.404  28.173  1.00  0.00     0.134 A 
ATOM     50  C   UNL A   1      42.686  23.456  26.085  1.00  0.00     0.134 A 
ATOM     51  F   UNL A   1      42.028  22.439  29.505  1.00  0.00    -0.206 F 
ATOM     52  C   UNL A   1      41.995  21.183  27.520  1.00  0.00     0.040 A 
ATOM     53  C   UNL A   1      42.484  22.250  25.416  1.00  0.00     0.040 A 
ATOM     54  F   UNL A   1      43.020  24.533  25.358  1.00  0.00    -0.206 F 
ATOM     55  C   UNL A   1      42.145  21.106  26.136  1.00  0.00     0.006 A 
ENDBRANCH  27  48
BRANCH  39  56
ATOM     56  C   UNL A   1      48.080  26.692  30.261  1.00  0.00     0.057 A 
ATOM     57  C   UNL A   1      48.527  25.916  31.337  1.00  0.00     0.134 A 
ATOM     58  C   UNL A   1      49.014  27.043  29.278  1.00  0.00     0.134 A 
ATOM     59  F   UNL A   1      47.682  25.564  32.319  1.00  0.00    -0.206 F 
ATOM     60  C   UNL A   1      49.859  25.516  31.441  1.00  0.00     0.040 A 
ATOM     61  C   UNL A   1      50.343  26.628  29.360  1.00  0.00     0.040 A 
ATOM     62  F   UNL A   1      48.647  27.781  28.221  1.00  0.00    -0.206 F 
ATOM     63  C   UNL A   1      50.770  25.865  30.445  1.00  0.00     0.006 A 
ENDBRANCH  39  56
ENDBRANCH  13  14
ENDBRANCH   6   8
ENDBRANCH   3   4
ENDBRANCH   2   3
ENDBRANCH   1   2
BRANCH   1  64
ATOM     64  N   UNL A   1      30.971  27.141  26.829  1.00  0.00    -0.351 N 
ATOM     65  C   UNL A   1      30.745  26.590  25.591  1.00  0.00     0.283 C 
ATOM     66  H   UNL A   1      30.474  26.726  27.572  1.00  0.00     0.163 HD
ATOM     67  O   UNL A   1      30.034  25.579  25.541  1.00  0.00    -0.268 OA
BRANCH  65  68
ATOM     68  C   UNL A   1      31.388  27.192  24.302  1.00  0.00     0.307 C 
BRANCH  68  69
ATOM     69  C   UNL A   1      31.999  26.053  23.450  1.00  0.00     0.044 A 
ATOM     70  C   UNL A   1      31.756  25.733  22.120  1.00  0.00     0.094 A 
ATOM     71  C   UNL A   1      32.980  25.067  23.886  1.00  0.00     0.009 A 
ATOM     72  N   UNL A   1      32.481  24.624  21.769  1.00  0.00    -0.361 N 
ATOM     73  C   UNL A   1      33.189  24.160  22.845  1.00  0.00     0.050 A 
ATOM     74  C   UNL A   1      33.663  24.809  25.095  1.00  0.00     0.015 A 
ATOM     75  H   UNL A   1      32.491  24.219  20.872  1.00  0.00     0.166 HD
ATOM     76  C   UNL A   1      34.000  23.019  22.969  1.00  0.00     0.073 A 
ATOM     77  C   UNL A   1      34.392  23.627  25.265  1.00  0.00     0.047 A 
ATOM     78  C   UNL A   1      34.598  22.754  24.206  1.00  0.00     0.121 A 
BRANCH  78  79
ATOM     79  O   UNL A   1      35.426  21.660  24.227  1.00  0.00    -0.489 OA
BRANCH  79  80
ATOM     80  C   UNL A   1      35.151  20.582  25.137  1.00  0.00     0.265 C 
BRANCH  80  81
ATOM     81  C   UNL A   1      34.355  19.411  24.585  1.00  0.00    -0.011 A 
ATOM     82  C   UNL A   1      34.969  18.152  24.483  1.00  0.00     0.007 A 
ATOM     83  C   UNL A   1      33.054  19.569  24.085  1.00  0.00     0.007 A 
ATOM     84  C   UNL A   1      34.332  17.107  23.813  1.00  0.00     0.000 A 
ATOM     85  C   UNL A   1      32.431  18.531  23.391  1.00  0.00     0.000 A 
ATOM     86  C   UNL A   1      33.075  17.305  23.246  1.00  0.00     0.000 A 
ENDBRANCH  80  81
ENDBRANCH  79  80
ENDBRANCH  78  79
ENDBRANCH  68  69
BRANCH  68  87
ATOM     87  N   UNL A   1      30.373  28.032  23.566  1.00  0.00    -0.319 N 
ATOM     88  C   UNL A   1      30.457  29.465  23.927  1.00  0.00     0.274 C 
ATOM     89  C   UNL A   1      28.966  27.609  23.838  1.00  0.00     0.274 C 
ATOM     90  H   UNL A   1      30.601  27.893  22.582  1.00  0.00     0.349 HD
ATOM     91  C   UNL A   1      29.669  30.348  22.945  1.00  0.00     0.131 C 
ATOM     92  C   UNL A   1      27.961  28.224  22.856  1.00  0.00     0.131 C 
ATOM     93  S   UNL A   1      27.880  30.029  22.999  1.00  0.00    -0.150 SA
ENDBRANCH  68  87
ENDBRANCH  65  68
ENDBRANCH   1  64
TORSDOF 15
ENDMDL
MODEL 2
REMARK VINA RESULT:     -12.2      3.169      8.602
REMARK SMILES O=C(NCCCNC(=O)[C@@H](c1c[nH]c2cc(OCc3ccccc3)ccc12)[NH+]1CCSCC1)c1ccc(-c2c3nc(c(-c4c(F)cccc4F)c4ccc([nH]4)c(-c4c(F)cccc4F)c4nc(c(-c5c(F)cccc5F)c5ccc2[nH]5)C=C4)C=C3)cc1
REMARK SMILES IDX 6 1 5 2 4 3 3 4 1 5 2 6 34 8 35 9 87 10 36 11 86 12 37 13
REMARK SMILES IDX 38 14 39 15 80 16 40 17 85 18 79 19 81 20 41 21 84 22 78 23
REMARK SMILES IDX 77 24 42 26 68 27 51 28 67 29 52 30 55 31 66 32 82 33 53 34
REMARK SMILES IDX 54 35 65 37 83 38 56 39 43 40 44 41 49 42 45 43 46 44 48 45
REMARK SMILES IDX 50 46 47 47 69 48 70 49 75 50 71 51 72 52 74 53 76 54 73 55
REMARK SMILES IDX 57 56 58 57 63 58 59 59 60 60 62 61 64 62 61 63 7 64 8 65
REMARK SMILES IDX 9 67 10 68 11 69 12 70 27 71 13 72 14 73 26 74 15 76 25 77
REMARK SMILES IDX 16 78 17 79 18 80 19 81 20 82 24 83 21 84 23 85 22 86 28 87
REMARK SMILES IDX 29 88 33 89 30 91 32 92 31 93
REMARK H PARENT 3 7 81 25 55 36 7 66 13 75 28 90
REMARK Flexibility Score: inf
ROOT
ATOM      1  C   UNL A   1      35.900  21.674  24.677  1.00  0.00     0.118 C 
ENDROOT
BRANCH   1   2
ATOM      2  C   UNL A   1      36.341  23.087  24.319  1.00  0.00     0.042 C 
BRANCH   2   3
ATOM      3  C   UNL A   1      37.303  23.704  25.318  1.00  0.00     0.118 C 
BRANCH   3   4
ATOM      4  N   UNL A   1      38.379  22.783  25.651  1.00  0.00    -0.352 N 
ATOM      5  O   UNL A   1      40.503  22.248  26.194  1.00  0.00    -0.269 OA
ATOM      6  C   UNL A   1      39.583  23.072  26.228  1.00  0.00     0.251 C 
ATOM      7  H   UNL A   1      38.219  21.836  25.434  1.00  0.00     0.163 HD
BRANCH   6   8
ATOM      8  C   UNL A   1      39.782  24.371  26.900  1.00  0.00     0.039 A 
ATOM      9  C   UNL A   1      39.315  24.567  28.205  1.00  0.00     0.014 A 
ATOM     10  C   UNL A   1      40.490  25.380  26.245  1.00  0.00     0.014 A 
ATOM     11  C   UNL A   1      39.493  25.796  28.828  1.00  0.00     0.010 A 
ATOM     12  C   UNL A   1      40.732  26.590  26.899  1.00  0.00     0.010 A 
ATOM     13  C   UNL A   1      40.241  26.802  28.197  1.00  0.00    -0.014 A 
BRANCH  13  14
ATOM     14  C   UNL A   1      40.637  28.004  28.966  1.00  0.00     0.031 A 
ATOM     15  C   UNL A   1      41.978  28.105  29.626  1.00  0.00     0.074 A 
ATOM     16  C   UNL A   1      39.735  28.998  29.088  1.00  0.00     0.049 A 
ATOM     17  N   UNL A   1      42.448  29.064  30.381  1.00  0.00    -0.248 NA
ATOM     18  C   UNL A   1      42.910  26.985  29.426  1.00  0.00     0.031 C 
ATOM     19  C   UNL A   1      38.388  28.988  28.509  1.00  0.00     0.029 A 
ATOM     20  N   UNL A   1      39.803  30.200  29.743  1.00  0.00    -0.354 N 
ATOM     21  C   UNL A   1      43.719  28.659  30.765  1.00  0.00     0.074 A 
ATOM     22  C   UNL A   1      43.946  27.360  30.168  1.00  0.00     0.031 C 
ATOM     23  C   UNL A   1      37.764  30.132  28.822  1.00  0.00     0.029 A 
ATOM     24  C   UNL A   1      38.640  30.927  29.674  1.00  0.00     0.049 A 
ATOM     25  H   UNL A   1      40.609  30.512  30.217  1.00  0.00     0.167 HD
ATOM     26  C   UNL A   1      44.607  29.319  31.545  1.00  0.00     0.037 A 
ATOM     27  C   UNL A   1      38.297  32.087  30.261  1.00  0.00     0.037 A 
ATOM     28  C   UNL A   1      44.378  30.623  32.111  1.00  0.00     0.049 A 
ATOM     29  C   UNL A   1      39.297  32.776  31.143  1.00  0.00     0.074 A 
ATOM     30  C   UNL A   1      45.255  31.415  32.833  1.00  0.00     0.029 A 
ATOM     31  N   UNL A   1      43.182  31.320  32.035  1.00  0.00    -0.354 N 
ATOM     32  N   UNL A   1      40.523  32.418  31.432  1.00  0.00    -0.248 NA
ATOM     33  C   UNL A   1      38.862  34.021  31.788  1.00  0.00     0.031 C 
ATOM     34  C   UNL A   1      44.573  32.566  33.238  1.00  0.00     0.029 A 
ATOM     35  C   UNL A   1      43.284  32.511  32.734  1.00  0.00     0.049 A 
ATOM     36  H   UNL A   1      42.379  31.013  31.554  1.00  0.00     0.167 HD
ATOM     37  C   UNL A   1      41.009  33.393  32.288  1.00  0.00     0.074 A 
ATOM     38  C   UNL A   1      39.955  34.373  32.451  1.00  0.00     0.031 C 
ATOM     39  C   UNL A   1      42.219  33.468  32.892  1.00  0.00     0.037 A 
BRANCH  26  40
ATOM     40  C   UNL A   1      45.912  28.648  31.853  1.00  0.00     0.057 A 
ATOM     41  C   UNL A   1      47.045  28.825  31.049  1.00  0.00     0.134 A 
ATOM     42  C   UNL A   1      46.060  27.890  33.022  1.00  0.00     0.134 A 
ATOM     43  F   UNL A   1      46.968  29.535  29.915  1.00  0.00    -0.206 F 
ATOM     44  C   UNL A   1      48.278  28.268  31.396  1.00  0.00     0.040 A 
ATOM     45  C   UNL A   1      47.291  27.344  33.388  1.00  0.00     0.040 A 
ATOM     46  F   UNL A   1      45.015  27.688  33.839  1.00  0.00    -0.206 F 
ATOM     47  C   UNL A   1      48.406  27.533  32.573  1.00  0.00     0.006 A 
ENDBRANCH  26  40
BRANCH  27  48
ATOM     48  C   UNL A   1      36.935  32.640  30.069  1.00  0.00     0.057 A 
ATOM     49  C   UNL A   1      36.654  33.537  29.034  1.00  0.00     0.134 A 
ATOM     50  C   UNL A   1      35.880  32.281  30.918  1.00  0.00     0.134 A 
ATOM     51  F   UNL A   1      37.628  33.929  28.199  1.00  0.00    -0.206 F 
ATOM     52  C   UNL A   1      35.377  34.072  28.858  1.00  0.00     0.040 A 
ATOM     53  C   UNL A   1      34.593  32.787  30.739  1.00  0.00     0.040 A 
ATOM     54  F   UNL A   1      36.084  31.419  31.925  1.00  0.00    -0.206 F 
ATOM     55  C   UNL A   1      34.341  33.692  29.709  1.00  0.00     0.006 A 
ENDBRANCH  27  48
BRANCH  39  56
ATOM     56  C   UNL A   1      42.461  34.649  33.782  1.00  0.00     0.057 A 
ATOM     57  C   UNL A   1      42.302  34.561  35.171  1.00  0.00     0.134 A 
ATOM     58  C   UNL A   1      42.891  35.871  33.252  1.00  0.00     0.134 A 
ATOM     59  F   UNL A   1      41.876  33.421  35.736  1.00  0.00    -0.206 F 
ATOM     60  C   UNL A   1      42.547  35.655  36.001  1.00  0.00     0.040 A 
ATOM     61  C   UNL A   1      43.161  36.965  34.074  1.00  0.00     0.040 A 
ATOM     62  F   UNL A   1      43.066  36.017  31.930  1.00  0.00    -0.206 F 
ATOM     63  C   UNL A   1      42.986  36.859  35.453  1.00  0.00     0.006 A 
ENDBRANCH  39  56
ENDBRANCH  13  14
ENDBRANCH   6   8
ENDBRANCH   3   4
ENDBRANCH   2   3
ENDBRANCH   1   2
BRANCH   1  64
ATOM     64  N   UNL A   1      35.183  21.581  25.941  1.00  0.00    -0.351 N 
ATOM     65  C   UNL A   1      33.886  21.198  26.181  1.00  0.00     0.283 C 
ATOM     66  H   UNL A   1      35.704  21.828  26.740  1.00  0.00     0.163 HD
ATOM     67  O   UNL A   1      33.532  21.101  27.362  1.00  0.00    -0.268 OA
BRANCH  65  68
ATOM     68  C   UNL A   1      32.906  20.865  25.012  1.00  0.00     0.307 C 
BRANCH  68  69
ATOM     69  C   UNL A   1      32.709  22.122  24.129  1.00  0.00     0.044 A 
ATOM     70  C   UNL A   1      32.901  22.264  22.761  1.00  0.00     0.094 A 
ATOM     71  C   UNL A   1      32.270  23.440  24.572  1.00  0.00     0.009 A 
ATOM     72  N   UNL A   1      32.649  23.559  22.389  1.00  0.00    -0.361 N 
ATOM     73  C   UNL A   1      32.322  24.312  23.484  1.00  0.00     0.050 A 
ATOM     74  C   UNL A   1      31.899  23.999  25.814  1.00  0.00     0.015 A 
ATOM     75  H   UNL A   1      32.696  23.899  21.466  1.00  0.00     0.166 HD
ATOM     76  C   UNL A   1      32.063  25.690  23.588  1.00  0.00     0.073 A 
ATOM     77  C   UNL A   1      31.735  25.382  25.953  1.00  0.00     0.047 A 
ATOM     78  C   UNL A   1      31.775  26.223  24.850  1.00  0.00     0.121 A 
BRANCH  78  79
ATOM     79  O   UNL A   1      31.469  27.560  24.858  1.00  0.00    -0.489 OA
BRANCH  79  80
ATOM     80  C   UNL A   1      31.223  28.223  26.109  1.00  0.00     0.265 C 
BRANCH  80  81
ATOM     81  C   UNL A   1      32.385  28.998  26.708  1.00  0.00    -0.011 A 
ATOM     82  C   UNL A   1      32.229  30.368  26.976  1.00  0.00     0.007 A 
ATOM     83  C   UNL A   1      33.642  28.409  26.914  1.00  0.00     0.007 A 
ATOM     84  C   UNL A   1      33.327  31.145  27.350  1.00  0.00     0.000 A 
ATOM     85  C   UNL A   1      34.743  29.194  27.259  1.00  0.00     0.000 A 
ATOM     86  C   UNL A   1      34.587  30.562  27.467  1.00  0.00     0.000 A 
ENDBRANCH  80  81
ENDBRANCH  79  80
ENDBRANCH  78  79
ENDBRANCH  68  69
BRANCH  68  87
ATOM     87  N   UNL A   1      33.399  19.655  24.256  1.00  0.00    -0.319 N 
ATOM     88  C   UNL A   1      32.294  18.879  23.650  1.00  0.00     0.274 C 
ATOM     89  C   UNL A   1      34.159  18.703  25.122  1.00  0.00     0.274 C 
ATOM     90  H   UNL A   1      34.008  20.043  23.535  1.00  0.00     0.349 HD
ATOM     91  C   UNL A   1      32.811  17.863  22.618  1.00  0.00     0.131 C 
ATOM     92  C   UNL A   1      34.937  17.658  24.313  1.00  0.00     0.131 C 
ATOM     93  S   UNL A   1      33.841  16.566  23.370  1.00  0.00    -0.150 SA
ENDBRANCH  68  87
ENDBRANCH  65  68
ENDBRANCH   1  64
TORSDOF 15
ENDMDL
MODEL 3
REMARK VINA RESULT:     -12.1      3.180      8.718
REMARK SMILES O=C(NCCCNC(=O)[C@@H](c1c[nH]c2cc(OCc3ccccc3)ccc12)[NH+]1CCSCC1)c1ccc(-c2c3nc(c(-c4c(F)cccc4F)c4ccc([nH]4)c(-c4c(F)cccc4F)c4nc(c(-c5c(F)cccc5F)c5ccc2[nH]5)C=C4)C=C3)cc1
REMARK SMILES IDX 6 1 5 2 4 3 3 4 1 5 2 6 34 8 35 9 87 10 36 11 86 12 37 13
REMARK SMILES IDX 38 14 39 15 80 16 40 17 85 18 79 19 81 20 41 21 84 22 78 23
REMARK SMILES IDX 77 24 42 26 68 27 51 28 67 29 52 30 55 31 66 32 82 33 53 34
REMARK SMILES IDX 54 35 65 37 83 38 56 39 43 40 44 41 49 42 45 43 46 44 48 45
REMARK SMILES IDX 50 46 47 47 69 48 70 49 75 50 71 51 72 52 74 53 76 54 73 55
REMARK SMILES IDX 57 56 58 57 63 58 59 59 60 60 62 61 64 62 61 63 7 64 8 65
REMARK SMILES IDX 9 67 10 68 11 69 12 70 27 71 13 72 14 73 26 74 15 76 25 77
REMARK SMILES IDX 16 78 17 79 18 80 19 81 20 82 24 83 21 84 23 85 22 86 28 87
REMARK SMILES IDX 29 88 33 89 30 91 32 92 31 93
REMARK H PARENT 3 7 81 25 55 36 7 66 13 75 28 90
REMARK Flexibility Score: inf
ROOT
ATOM      1  C   UNL A   1      35.769  21.683  24.518  1.00  0.00     0.118 C 
ENDROOT
BRANCH   1   2
ATOM      2  C   UNL A   1      36.458  22.998  24.178  1.00  0.00     0.042 C 
BRANCH   2   3
ATOM      3  C   UNL A   1      37.312  23.555  25.302  1.00  0.00     0.118 C 
BRANCH   3   4
ATOM      4  N   UNL A   1      38.422  22.666  25.610  1.00  0.00    -0.352 N 
ATOM      5  O   UNL A   1      40.572  22.196  26.113  1.00  0.00    -0.269 OA
ATOM      6  C   UNL A   1      39.627  22.990  26.169  1.00  0.00     0.251 C 
ATOM      7  H   UNL A   1      38.290  21.716  25.388  1.00  0.00     0.163 HD
BRANCH   6   8
ATOM      8  C   UNL A   1      39.796  24.290  26.847  1.00  0.00     0.039 A 
ATOM      9  C   UNL A   1      39.325  24.468  28.153  1.00  0.00     0.014 A 
ATOM     10  C   UNL A   1      40.479  25.319  26.196  1.00  0.00     0.014 A 
ATOM     11  C   UNL A   1      39.475  25.698  28.782  1.00  0.00     0.010 A 
ATOM     12  C   UNL A   1      40.694  26.530  26.856  1.00  0.00     0.010 A 
ATOM     13  C   UNL A   1      40.198  26.724  28.156  1.00  0.00    -0.014 A 
BRANCH  13  14
ATOM     14  C   UNL A   1      40.567  27.931  28.931  1.00  0.00     0.031 A 
ATOM     15  C   UNL A   1      41.884  28.037  29.637  1.00  0.00     0.074 A 
ATOM     16  C   UNL A   1      39.661  28.925  29.015  1.00  0.00     0.049 A 
ATOM     17  N   UNL A   1      42.327  29.002  30.401  1.00  0.00    -0.248 NA
ATOM     18  C   UNL A   1      42.823  26.917  29.476  1.00  0.00     0.031 C 
ATOM     19  C   UNL A   1      38.334  28.911  28.390  1.00  0.00     0.029 A 
ATOM     20  N   UNL A   1      39.705  30.132  29.664  1.00  0.00    -0.354 N 
ATOM     21  C   UNL A   1      43.583  28.600  30.832  1.00  0.00     0.074 A 
ATOM     22  C   UNL A   1      43.832  27.297  30.251  1.00  0.00     0.031 C 
ATOM     23  C   UNL A   1      37.700  30.056  28.673  1.00  0.00     0.029 A 
ATOM     24  C   UNL A   1      38.544  30.857  29.550  1.00  0.00     0.049 A 
ATOM     25  H   UNL A   1      40.494  30.447  30.164  1.00  0.00     0.167 HD
ATOM     26  C   UNL A   1      44.444  29.265  31.638  1.00  0.00     0.037 A 
ATOM     27  C   UNL A   1      38.181  32.020  30.118  1.00  0.00     0.037 A 
ATOM     28  C   UNL A   1      44.194  30.573  32.188  1.00  0.00     0.049 A 
ATOM     29  C   UNL A   1      39.148  32.716  31.029  1.00  0.00     0.074 A 
ATOM     30  C   UNL A   1      45.045  31.370  32.935  1.00  0.00     0.029 A 
ATOM     31  N   UNL A   1      43.001  31.269  32.065  1.00  0.00    -0.354 N 
ATOM     32  N   UNL A   1      40.365  32.360  31.364  1.00  0.00    -0.248 NA
ATOM     33  C   UNL A   1      38.691  33.964  31.652  1.00  0.00     0.031 C 
ATOM     34  C   UNL A   1      44.349  32.523  33.309  1.00  0.00     0.029 A 
ATOM     35  C   UNL A   1      43.078  32.464  32.760  1.00  0.00     0.049 A 
ATOM     36  H   UNL A   1      42.215  30.958  31.559  1.00  0.00     0.167 HD
ATOM     37  C   UNL A   1      40.820  33.342  32.230  1.00  0.00     0.074 A 
ATOM     38  C   UNL A   1      39.760  34.321  32.350  1.00  0.00     0.031 C 
ATOM     39  C   UNL A   1      42.008  33.421  32.876  1.00  0.00     0.037 A 
BRANCH  26  40
ATOM     40  C   UNL A   1      45.738  28.597  31.995  1.00  0.00     0.057 A 
ATOM     41  C   UNL A   1      45.857  27.761  33.112  1.00  0.00     0.134 A 
ATOM     42  C   UNL A   1      46.853  28.720  31.155  1.00  0.00     0.134 A 
ATOM     43  F   UNL A   1      44.828  27.606  33.957  1.00  0.00    -0.206 F 
ATOM     44  C   UNL A   1      47.042  27.073  33.383  1.00  0.00     0.040 A 
ATOM     45  C   UNL A   1      48.036  28.022  31.406  1.00  0.00     0.040 A 
ATOM     46  F   UNL A   1      46.802  29.499  30.065  1.00  0.00    -0.206 F 
ATOM     47  C   UNL A   1      48.132  27.195  32.524  1.00  0.00     0.006 A 
ENDBRANCH  26  40
BRANCH  27  48
ATOM     48  C   UNL A   1      36.826  32.571  29.875  1.00  0.00     0.057 A 
ATOM     49  C   UNL A   1      35.743  32.220  30.687  1.00  0.00     0.134 A 
ATOM     50  C   UNL A   1      36.583  33.464  28.824  1.00  0.00     0.134 A 
ATOM     51  F   UNL A   1      35.910  31.356  31.700  1.00  0.00    -0.206 F 
ATOM     52  C   UNL A   1      34.462  32.724  30.454  1.00  0.00     0.040 A 
ATOM     53  C   UNL A   1      35.315  33.996  28.595  1.00  0.00     0.040 A 
ATOM     54  F   UNL A   1      37.583  33.845  28.015  1.00  0.00    -0.206 F 
ATOM     55  C   UNL A   1      34.248  33.619  29.407  1.00  0.00     0.006 A 
ENDBRANCH  27  48
BRANCH  39  56
ATOM     56  C   UNL A   1      42.218  34.607  33.766  1.00  0.00     0.057 A 
ATOM     57  C   UNL A   1      41.906  34.560  35.130  1.00  0.00     0.134 A 
ATOM     58  C   UNL A   1      42.769  35.792  33.264  1.00  0.00     0.134 A 
ATOM     59  F   UNL A   1      41.358  33.458  35.665  1.00  0.00    -0.206 F 
ATOM     60  C   UNL A   1      42.121  35.658  35.963  1.00  0.00     0.040 A 
ATOM     61  C   UNL A   1      43.010  36.888  34.093  1.00  0.00     0.040 A 
ATOM     62  F   UNL A   1      43.094  35.898  31.968  1.00  0.00    -0.206 F 
ATOM     63  C   UNL A   1      42.682  36.825  35.446  1.00  0.00     0.006 A 
ENDBRANCH  39  56
ENDBRANCH  13  14
ENDBRANCH   6   8
ENDBRANCH   3   4
ENDBRANCH   2   3
ENDBRANCH   1   2
BRANCH   1  64
ATOM     64  N   UNL A   1      35.117  21.678  25.820  1.00  0.00    -0.351 N 
ATOM     65  C   UNL A   1      33.838  21.302  26.153  1.00  0.00     0.283 C 
ATOM     66  H   UNL A   1      35.673  21.988  26.571  1.00  0.00     0.163 HD
ATOM     67  O   UNL A   1      33.545  21.289  27.355  1.00  0.00    -0.268 OA
BRANCH  65  68
ATOM     68  C   UNL A   1      32.805  20.874  25.063  1.00  0.00     0.307 C 
BRANCH  68  69
ATOM     69  C   UNL A   1      32.473  22.089  24.162  1.00  0.00     0.044 A 
ATOM     70  C   UNL A   1      32.646  22.230  22.791  1.00  0.00     0.094 A 
ATOM     71  C   UNL A   1      31.894  23.358  24.587  1.00  0.00     0.009 A 
ATOM     72  N   UNL A   1      32.255  23.485  22.401  1.00  0.00    -0.361 N 
ATOM     73  C   UNL A   1      31.850  24.215  23.486  1.00  0.00     0.050 A 
ATOM     74  C   UNL A   1      31.467  23.893  25.822  1.00  0.00     0.015 A 
ATOM     75  H   UNL A   1      32.263  23.814  21.473  1.00  0.00     0.166 HD
ATOM     76  C   UNL A   1      31.442  25.558  23.571  1.00  0.00     0.073 A 
ATOM     77  C   UNL A   1      31.154  25.252  25.941  1.00  0.00     0.047 A 
ATOM     78  C   UNL A   1      31.101  26.075  24.825  1.00  0.00     0.121 A 
BRANCH  78  79
ATOM     79  O   UNL A   1      30.651  27.371  24.815  1.00  0.00    -0.489 OA
BRANCH  79  80
ATOM     80  C   UNL A   1      30.722  28.136  23.599  1.00  0.00     0.265 C 
BRANCH  80  81
ATOM     81  C   UNL A   1      29.668  29.215  23.412  1.00  0.00    -0.011 A 
ATOM     82  C   UNL A   1      29.934  30.517  23.868  1.00  0.00     0.007 A 
ATOM     83  C   UNL A   1      28.401  28.930  22.883  1.00  0.00     0.007 A 
ATOM     84  C   UNL A   1      28.924  31.481  23.880  1.00  0.00     0.000 A 
ATOM     85  C   UNL A   1      27.386  29.887  22.923  1.00  0.00     0.000 A 
ATOM     86  C   UNL A   1      27.645  31.157  23.431  1.00  0.00     0.000 A 
ENDBRANCH  80  81
ENDBRANCH  79  80
ENDBRANCH  78  79
ENDBRANCH  68  69
BRANCH  68  87
ATOM     87  N   UNL A   1      33.322  19.674  24.307  1.00  0.00    -0.319 N 
ATOM     88  C   UNL A   1      32.248  18.959  23.581  1.00  0.00     0.274 C 
ATOM     89  C   UNL A   1      33.972  18.666  25.199  1.00  0.00     0.274 C 
ATOM     90  H   UNL A   1      34.003  20.063  23.656  1.00  0.00     0.349 HD
ATOM     91  C   UNL A   1      32.818  17.961  22.559  1.00  0.00     0.131 C 
ATOM     92  C   UNL A   1      34.782  17.621  24.421  1.00  0.00     0.131 C 
ATOM     93  S   UNL A   1      33.736  16.603  23.348  1.00  0.00    -0.150 SA
ENDBRANCH  68  87
ENDBRANCH  65  68
ENDBRANCH   1  64
TORSDOF 15
ENDMDL
