MODEL 1
REMARK VINA RESULT:     -11.5      0.000      0.000
REMARK SMILES CC[C@@H]1CC(=O)N(Cc2ccc(C(=O)NCCCNC(=O)c3ccc(-c4c5nc(c(-c6c(F)cccc6F)c6ccc([nH]6)c(-c6c(F)cccc6F)c6nc(c(-c7c(F)cccc7F)c7ccc4[nH]7)C=C6)C=C5)cc3)cn2)C1
REMARK SMILES IDX 16 1 15 2 13 3 14 4 12 6 9 7 10 8 77 9 11 10 76 11 8 12 7 13
REMARK SMILES IDX 3 14 4 15 78 16 5 17 6 18 2 19 1 20 17 21 18 22 19 23 20 24
REMARK SMILES IDX 21 26 22 27 23 28 75 29 24 30 74 31 25 32 26 33 27 34 68 35
REMARK SMILES IDX 28 36 73 37 67 38 69 39 29 40 72 41 66 42 65 43 30 45 56 46
REMARK SMILES IDX 39 47 55 48 40 49 43 50 54 51 70 52 41 53 42 54 53 56 71 57
REMARK SMILES IDX 44 58 31 59 32 60 37 61 33 62 34 63 36 64 38 65 35 66 57 67
REMARK SMILES IDX 58 68 63 69 59 70 60 71 62 72 64 73 61 74 45 75 46 76 51 77
REMARK SMILES IDX 47 78 48 79 50 80 52 81 49 82
REMARK H PARENT 15 5 19 25 69 44 43 55
REMARK Flexibility Score: inf
ROOT
ATOM      1  C   UNL A   1      36.276  20.509  24.995  1.00  0.00     0.118 C 
ENDROOT
BRANCH   1   2
ATOM      2  N   UNL A   1      35.294  19.438  25.001  1.00  0.00    -0.352 N 
ATOM      3  C   UNL A   1      33.940  19.440  24.788  1.00  0.00     0.252 C 
ATOM      4  O   UNL A   1      33.352  18.360  24.783  1.00  0.00    -0.269 OA
ATOM      5  H   UNL A   1      35.670  18.549  25.196  1.00  0.00     0.163 HD
BRANCH   3   6
ATOM      6  C   UNL A   1      33.178  20.675  24.508  1.00  0.00     0.058 A 
ATOM      7  C   UNL A   1      31.614  22.938  24.244  1.00  0.00     0.060 A 
ATOM      8  C   UNL A   1      32.150  22.341  23.105  1.00  0.00     0.026 A 
ATOM      9  N   UNL A   1      31.890  22.481  25.488  1.00  0.00    -0.259 NA
ATOM     10  C   UNL A   1      32.945  21.205  23.242  1.00  0.00     0.017 A 
ATOM     11  C   UNL A   1      32.674  21.378  25.594  1.00  0.00     0.125 A 
BRANCH   7  12
ATOM     12  C   UNL A   1      30.657  24.099  24.116  1.00  0.00     0.175 C 
BRANCH  12  13
ATOM     13  N   UNL A   1      31.202  25.368  24.585  1.00  0.00    -0.336 N 
ATOM     14  C   UNL A   1      32.849  26.957  25.041  1.00  0.00     0.017 C 
ATOM     15  C   UNL A   1      31.618  27.236  25.915  1.00  0.00     0.105 C 
ATOM     16  C   UNL A   1      32.268  26.090  23.929  1.00  0.00     0.124 C 
ATOM     17  C   UNL A   1      30.779  25.994  25.746  1.00  0.00     0.223 C 
ATOM     18  O   UNL A   1      29.896  25.634  26.501  1.00  0.00    -0.275 OA
BRANCH  14  19
ATOM     19  C   UNL A   1      34.010  26.306  25.828  1.00  0.00     0.002 C 
ATOM     20  C   UNL A   1      34.603  25.017  25.270  1.00  0.00     0.004 C 
ENDBRANCH  14  19
ENDBRANCH  12  13
ENDBRANCH   7  12
ENDBRANCH   3   6
ENDBRANCH   1   2
BRANCH   1  21
ATOM     21  C   UNL A   1      37.667  19.978  24.658  1.00  0.00     0.042 C 
BRANCH  21  22
ATOM     22  C   UNL A   1      38.701  20.265  25.744  1.00  0.00     0.118 C 
BRANCH  22  23
ATOM     23  N   UNL A   1      39.706  19.214  25.830  1.00  0.00    -0.352 N 
ATOM     24  C   UNL A   1      41.066  19.303  25.984  1.00  0.00     0.251 C 
ATOM     25  H   UNL A   1      39.353  18.297  25.769  1.00  0.00     0.163 HD
ATOM     26  O   UNL A   1      41.764  18.314  25.780  1.00  0.00    -0.269 OA
BRANCH  24  27
ATOM     27  C   UNL A   1      41.694  20.581  26.380  1.00  0.00     0.039 A 
ATOM     28  C   UNL A   1      42.116  21.463  25.381  1.00  0.00     0.014 A 
ATOM     29  C   UNL A   1      41.895  20.898  27.725  1.00  0.00     0.014 A 
ATOM     30  C   UNL A   1      42.673  22.693  25.733  1.00  0.00     0.010 A 
ATOM     31  C   UNL A   1      42.378  22.156  28.076  1.00  0.00     0.010 A 
ATOM     32  C   UNL A   1      42.767  23.068  27.084  1.00  0.00    -0.014 A 
BRANCH  32  33
ATOM     33  C   UNL A   1      43.237  24.419  27.478  1.00  0.00     0.031 A 
ATOM     34  C   UNL A   1      42.254  25.472  27.906  1.00  0.00     0.074 A 
ATOM     35  C   UNL A   1      44.545  24.720  27.365  1.00  0.00     0.049 A 
ATOM     36  N   UNL A   1      42.465  26.730  28.196  1.00  0.00    -0.248 NA
ATOM     37  C   UNL A   1      40.843  25.063  27.997  1.00  0.00     0.031 C 
ATOM     38  C   UNL A   1      45.589  23.795  26.917  1.00  0.00     0.029 A 
ATOM     39  N   UNL A   1      45.220  25.892  27.602  1.00  0.00    -0.354 N 
ATOM     40  C   UNL A   1      41.217  27.266  28.488  1.00  0.00     0.074 A 
ATOM     41  C   UNL A   1      40.248  26.209  28.293  1.00  0.00     0.031 C 
ATOM     42  C   UNL A   1      46.772  24.429  26.927  1.00  0.00     0.029 A 
ATOM     43  C   UNL A   1      46.565  25.815  27.333  1.00  0.00     0.049 A 
ATOM     44  H   UNL A   1      44.781  26.708  27.933  1.00  0.00     0.167 HD
ATOM     45  C   UNL A   1      40.911  28.520  28.899  1.00  0.00     0.037 A 
ATOM     46  C   UNL A   1      47.523  26.760  27.388  1.00  0.00     0.037 A 
ATOM     47  C   UNL A   1      41.885  29.561  29.102  1.00  0.00     0.049 A 
ATOM     48  C   UNL A   1      47.152  28.152  27.818  1.00  0.00     0.074 A 
ATOM     49  C   UNL A   1      41.685  30.845  29.582  1.00  0.00     0.029 A 
ATOM     50  N   UNL A   1      43.238  29.444  28.825  1.00  0.00    -0.354 N 
ATOM     51  N   UNL A   1      45.980  28.624  28.169  1.00  0.00    -0.248 NA
ATOM     52  C   UNL A   1      48.237  29.143  27.861  1.00  0.00     0.031 C 
ATOM     53  C   UNL A   1      42.907  31.523  29.535  1.00  0.00     0.029 A 
ATOM     54  C   UNL A   1      43.880  30.645  29.086  1.00  0.00     0.049 A 
ATOM     55  H   UNL A   1      43.679  28.630  28.492  1.00  0.00     0.167 HD
ATOM     56  C   UNL A   1      46.189  29.957  28.495  1.00  0.00     0.074 A 
ATOM     57  C   UNL A   1      47.604  30.214  28.318  1.00  0.00     0.031 C 
ATOM     58  C   UNL A   1      45.290  30.885  28.904  1.00  0.00     0.037 A 
BRANCH  45  59
ATOM     59  C   UNL A   1      39.464  28.838  29.147  1.00  0.00     0.057 A 
ATOM     60  C   UNL A   1      38.870  28.661  30.405  1.00  0.00     0.134 A 
ATOM     61  C   UNL A   1      38.664  29.366  28.126  1.00  0.00     0.134 A 
ATOM     62  F   UNL A   1      39.576  28.152  31.426  1.00  0.00    -0.206 F 
ATOM     63  C   UNL A   1      37.527  28.969  30.628  1.00  0.00     0.040 A 
ATOM     64  C   UNL A   1      37.328  29.708  28.346  1.00  0.00     0.040 A 
ATOM     65  F   UNL A   1      39.168  29.570  26.900  1.00  0.00    -0.206 F 
ATOM     66  C   UNL A   1      36.754  29.502  29.598  1.00  0.00     0.006 A 
ENDBRANCH  45  59
BRANCH  46  67
ATOM     67  C   UNL A   1      48.922  26.420  27.026  1.00  0.00     0.057 A 
ATOM     68  C   UNL A   1      49.400  26.614  25.725  1.00  0.00     0.134 A 
ATOM     69  C   UNL A   1      49.816  25.896  27.969  1.00  0.00     0.134 A 
ATOM     70  F   UNL A   1      48.589  27.098  24.773  1.00  0.00    -0.206 F 
ATOM     71  C   UNL A   1      50.709  26.283  25.369  1.00  0.00     0.040 A 
ATOM     72  C   UNL A   1      51.135  25.586  27.634  1.00  0.00     0.040 A 
ATOM     73  F   UNL A   1      49.425  25.696  29.236  1.00  0.00    -0.206 F 
ATOM     74  C   UNL A   1      51.582  25.771  26.327  1.00  0.00     0.006 A 
ENDBRANCH  46  67
BRANCH  58  75
ATOM     75  C   UNL A   1      45.809  32.261  29.208  1.00  0.00     0.057 A 
ATOM     76  C   UNL A   1      45.829  33.275  28.242  1.00  0.00     0.134 A 
ATOM     77  C   UNL A   1      46.246  32.589  30.498  1.00  0.00     0.134 A 
ATOM     78  F   UNL A   1      45.437  33.023  26.984  1.00  0.00    -0.206 F 
ATOM     79  C   UNL A   1      46.281  34.560  28.543  1.00  0.00     0.040 A 
ATOM     80  C   UNL A   1      46.671  33.878  30.820  1.00  0.00     0.040 A 
ATOM     81  F   UNL A   1      46.245  31.667  31.473  1.00  0.00    -0.206 F 
ATOM     82  C   UNL A   1      46.694  34.868  29.839  1.00  0.00     0.006 A 
ENDBRANCH  58  75
ENDBRANCH  32  33
ENDBRANCH  24  27
ENDBRANCH  22  23
ENDBRANCH  21  22
ENDBRANCH   1  21
TORSDOF 13
ENDMDL
MODEL 2
REMARK VINA RESULT:     -11.5      1.451      2.070
REMARK SMILES CC[C@@H]1CC(=O)N(Cc2ccc(C(=O)NCCCNC(=O)c3ccc(-c4c5nc(c(-c6c(F)cccc6F)c6ccc([nH]6)c(-c6c(F)cccc6F)c6nc(c(-c7c(F)cccc7F)c7ccc4[nH]7)C=C6)C=C5)cc3)cn2)C1
REMARK SMILES IDX 16 1 15 2 13 3 14 4 12 6 9 7 10 8 77 9 11 10 76 11 8 12 7 13
REMARK SMILES IDX 3 14 4 15 78 16 5 17 6 18 2 19 1 20 17 21 18 22 19 23 20 24
REMARK SMILES IDX 21 26 22 27 23 28 75 29 24 30 74 31 25 32 26 33 27 34 68 35
REMARK SMILES IDX 28 36 73 37 67 38 69 39 29 40 72 41 66 42 65 43 30 45 56 46
REMARK SMILES IDX 39 47 55 48 40 49 43 50 54 51 70 52 41 53 42 54 53 56 71 57
REMARK SMILES IDX 44 58 31 59 32 60 37 61 33 62 34 63 36 64 38 65 35 66 57 67
REMARK SMILES IDX 58 68 63 69 59 70 60 71 62 72 64 73 61 74 45 75 46 76 51 77
REMARK SMILES IDX 47 78 48 79 50 80 52 81 49 82
REMARK H PARENT 15 5 19 25 69 44 43 55
REMARK Flexibility Score: inf
ROOT
ATOM      1  C   UNL A   1      37.302  21.128  24.561  1.00  0.00     0.118 C 
ENDROOT
BRANCH   1   2
ATOM      2  N   UNL A   1      37.931  22.314  25.115  1.00  0.00    -0.352 N 
ATOM      3  C   UNL A   1      37.409  23.422  25.731  1.00  0.00     0.252 C 
ATOM      4  O   UNL A   1      38.190  24.260  26.176  1.00  0.00    -0.269 OA
ATOM      5  H   UNL A   1      38.913  22.325  25.031  1.00  0.00     0.163 HD
BRANCH   3   6
ATOM      6  C   UNL A   1      35.957  23.612  25.931  1.00  0.00     0.058 A 
ATOM      7  C   UNL A   1      33.227  23.676  26.359  1.00  0.00     0.060 A 
ATOM      8  C   UNL A   1      33.821  24.671  25.585  1.00  0.00     0.026 A 
ATOM      9  N   UNL A   1      33.958  22.711  26.966  1.00  0.00    -0.259 NA
ATOM     10  C   UNL A   1      35.198  24.640  25.378  1.00  0.00     0.017 A 
ATOM     11  C   UNL A   1      35.298  22.710  26.754  1.00  0.00     0.125 A 
BRANCH   7  12
ATOM     12  C   UNL A   1      31.725  23.619  26.504  1.00  0.00     0.175 C 
BRANCH  12  13
ATOM     13  N   UNL A   1      31.002  24.252  25.408  1.00  0.00    -0.336 N 
ATOM     14  C   UNL A   1      30.587  24.907  23.207  1.00  0.00     0.017 C 
ATOM     15  C   UNL A   1      29.810  25.822  24.163  1.00  0.00     0.105 C 
ATOM     16  C   UNL A   1      30.876  23.692  24.082  1.00  0.00     0.124 C 
ATOM     17  C   UNL A   1      30.393  25.492  25.515  1.00  0.00     0.223 C 
ATOM     18  O   UNL A   1      30.322  26.198  26.502  1.00  0.00    -0.275 OA
BRANCH  14  19
ATOM     19  C   UNL A   1      31.842  25.587  22.611  1.00  0.00     0.002 C 
ATOM     20  C   UNL A   1      32.903  24.684  21.990  1.00  0.00     0.004 C 
ENDBRANCH  14  19
ENDBRANCH  12  13
ENDBRANCH   7  12
ENDBRANCH   3   6
ENDBRANCH   1   2
BRANCH   1  21
ATOM     21  C   UNL A   1      38.032  19.861  25.000  1.00  0.00     0.042 C 
BRANCH  21  22
ATOM     22  C   UNL A   1      39.110  20.120  26.048  1.00  0.00     0.118 C 
BRANCH  22  23
ATOM     23  N   UNL A   1      40.155  19.105  26.018  1.00  0.00    -0.352 N 
ATOM     24  C   UNL A   1      41.520  19.241  26.041  1.00  0.00     0.251 C 
ATOM     25  H   UNL A   1      39.830  18.177  25.973  1.00  0.00     0.163 HD
ATOM     26  O   UNL A   1      42.229  18.281  25.753  1.00  0.00    -0.269 OA
BRANCH  24  27
ATOM     27  C   UNL A   1      42.138  20.534  26.399  1.00  0.00     0.039 A 
ATOM     28  C   UNL A   1      42.616  21.359  25.377  1.00  0.00     0.014 A 
ATOM     29  C   UNL A   1      42.278  20.922  27.734  1.00  0.00     0.014 A 
ATOM     30  C   UNL A   1      43.165  22.604  25.690  1.00  0.00     0.010 A 
ATOM     31  C   UNL A   1      42.754  22.193  28.041  1.00  0.00     0.010 A 
ATOM     32  C   UNL A   1      43.198  23.049  27.022  1.00  0.00    -0.014 A 
BRANCH  32  33
ATOM     33  C   UNL A   1      43.659  24.417  27.366  1.00  0.00     0.031 A 
ATOM     34  C   UNL A   1      42.674  25.467  27.794  1.00  0.00     0.074 A 
ATOM     35  C   UNL A   1      44.959  24.731  27.208  1.00  0.00     0.049 A 
ATOM     36  N   UNL A   1      42.876  26.735  28.044  1.00  0.00    -0.248 NA
ATOM     37  C   UNL A   1      41.273  25.042  27.936  1.00  0.00     0.031 C 
ATOM     38  C   UNL A   1      46.003  23.809  26.755  1.00  0.00     0.029 A 
ATOM     39  N   UNL A   1      45.624  25.918  27.394  1.00  0.00    -0.354 N 
ATOM     40  C   UNL A   1      41.629  27.262  28.357  1.00  0.00     0.074 A 
ATOM     41  C   UNL A   1      40.670  26.188  28.219  1.00  0.00     0.031 C 
ATOM     42  C   UNL A   1      47.177  24.458  26.714  1.00  0.00     0.029 A 
ATOM     43  C   UNL A   1      46.962  25.852  27.089  1.00  0.00     0.049 A 
ATOM     44  H   UNL A   1      45.183  26.737  27.715  1.00  0.00     0.167 HD
ATOM     45  C   UNL A   1      41.317  28.523  28.744  1.00  0.00     0.037 A 
ATOM     46  C   UNL A   1      47.908  26.810  27.091  1.00  0.00     0.037 A 
ATOM     47  C   UNL A   1      42.281  29.582  28.891  1.00  0.00     0.049 A 
ATOM     48  C   UNL A   1      47.530  28.209  27.495  1.00  0.00     0.074 A 
ATOM     49  C   UNL A   1      42.077  30.875  29.342  1.00  0.00     0.029 A 
ATOM     50  N   UNL A   1      43.628  29.476  28.579  1.00  0.00    -0.354 N 
ATOM     51  N   UNL A   1      46.362  28.674  27.866  1.00  0.00    -0.248 NA
ATOM     52  C   UNL A   1      48.601  29.215  27.479  1.00  0.00     0.031 C 
ATOM     53  C   UNL A   1      43.287  31.568  29.243  1.00  0.00     0.029 A 
ATOM     54  C   UNL A   1      44.260  30.691  28.789  1.00  0.00     0.049 A 
ATOM     55  H   UNL A   1      44.071  28.658  28.255  1.00  0.00     0.167 HD
ATOM     56  C   UNL A   1      46.561  30.019  28.151  1.00  0.00     0.074 A 
ATOM     57  C   UNL A   1      47.966  30.290  27.926  1.00  0.00     0.031 C 
ATOM     58  C   UNL A   1      45.660  30.945  28.560  1.00  0.00     0.037 A 
BRANCH  45  59
ATOM     59  C   UNL A   1      39.874  28.828  29.025  1.00  0.00     0.057 A 
ATOM     60  C   UNL A   1      38.983  29.204  28.009  1.00  0.00     0.134 A 
ATOM     61  C   UNL A   1      39.357  28.705  30.322  1.00  0.00     0.134 A 
ATOM     62  F   UNL A   1      39.413  29.349  26.747  1.00  0.00    -0.206 F 
ATOM     63  C   UNL A   1      37.641  29.476  28.279  1.00  0.00     0.040 A 
ATOM     64  C   UNL A   1      38.009  28.944  30.597  1.00  0.00     0.040 A 
ATOM     65  F   UNL A   1      40.149  28.341  31.340  1.00  0.00    -0.206 F 
ATOM     66  C   UNL A   1      37.148  29.339  29.575  1.00  0.00     0.006 A 
ENDBRANCH  45  59
BRANCH  46  67
ATOM     67  C   UNL A   1      49.301  26.480  26.698  1.00  0.00     0.057 A 
ATOM     68  C   UNL A   1      49.741  26.653  25.381  1.00  0.00     0.134 A 
ATOM     69  C   UNL A   1      50.226  25.986  27.627  1.00  0.00     0.134 A 
ATOM     70  F   UNL A   1      48.899  27.107  24.442  1.00  0.00    -0.206 F 
ATOM     71  C   UNL A   1      51.044  26.329  24.996  1.00  0.00     0.040 A 
ATOM     72  C   UNL A   1      51.539  25.685  27.262  1.00  0.00     0.040 A 
ATOM     73  F   UNL A   1      49.872  25.808  28.908  1.00  0.00    -0.206 F 
ATOM     74  C   UNL A   1      51.949  25.848  25.940  1.00  0.00     0.006 A 
ENDBRANCH  46  67
BRANCH  58  75
ATOM     75  C   UNL A   1      46.169  32.336  28.813  1.00  0.00     0.057 A 
ATOM     76  C   UNL A   1      46.139  33.325  27.822  1.00  0.00     0.134 A 
ATOM     77  C   UNL A   1      46.645  32.701  30.078  1.00  0.00     0.134 A 
ATOM     78  F   UNL A   1      45.707  33.037  26.585  1.00  0.00    -0.206 F 
ATOM     79  C   UNL A   1      46.581  34.624  28.077  1.00  0.00     0.040 A 
ATOM     80  C   UNL A   1      47.062  34.004  30.353  1.00  0.00     0.040 A 
ATOM     81  F   UNL A   1      46.693  31.804  31.074  1.00  0.00    -0.206 F 
ATOM     82  C   UNL A   1      47.035  34.970  29.349  1.00  0.00     0.006 A 
ENDBRANCH  58  75
ENDBRANCH  32  33
ENDBRANCH  24  27
ENDBRANCH  22  23
ENDBRANCH  21  22
ENDBRANCH   1  21
TORSDOF 13
ENDMDL
MODEL 3
REMARK VINA RESULT:     -11.5      1.552      6.335
REMARK SMILES CC[C@@H]1CC(=O)N(Cc2ccc(C(=O)NCCCNC(=O)c3ccc(-c4c5nc(c(-c6c(F)cccc6F)c6ccc([nH]6)c(-c6c(F)cccc6F)c6nc(c(-c7c(F)cccc7F)c7ccc4[nH]7)C=C6)C=C5)cc3)cn2)C1
REMARK SMILES IDX 16 1 15 2 13 3 14 4 12 6 9 7 10 8 77 9 11 10 76 11 8 12 7 13
REMARK SMILES IDX 3 14 4 15 78 16 5 17 6 18 2 19 1 20 17 21 18 22 19 23 20 24
REMARK SMILES IDX 21 26 22 27 23 28 75 29 24 30 74 31 25 32 26 33 27 34 68 35
REMARK SMILES IDX 28 36 73 37 67 38 69 39 29 40 72 41 66 42 65 43 30 45 56 46
REMARK SMILES IDX 39 47 55 48 40 49 43 50 54 51 70 52 41 53 42 54 53 56 71 57
REMARK SMILES IDX 44 58 31 59 32 60 37 61 33 62 34 63 36 64 38 65 35 66 57 67
REMARK SMILES IDX 58 68 63 69 59 70 60 71 62 72 64 73 61 74 45 75 46 76 51 77
REMARK SMILES IDX 47 78 48 79 50 80 52 81 49 82
REMARK H PARENT 15 5 19 25 69 44 43 55
REMARK Flexibility Score: inf
ROOT
ATOM      1  C   UNL A   1      36.087  20.549  25.050  1.00  0.00     0.118 C 
ENDROOT
BRANCH   1   2
ATOM      2  N   UNL A   1      35.039  19.542  25.041  1.00  0.00    -0.352 N 
ATOM      3  C   UNL A   1      33.691  19.629  24.809  1.00  0.00     0.252 C 
ATOM      4  O   UNL A   1      33.036  18.589  24.794  1.00  0.00    -0.269 OA
ATOM      5  H   UNL A   1      35.355  18.631  25.241  1.00  0.00     0.163 HD
BRANCH   3   6
ATOM      6  C   UNL A   1      33.013  20.910  24.518  1.00  0.00     0.058 A 
ATOM      7  C   UNL A   1      31.521  23.206  24.145  1.00  0.00     0.060 A 
ATOM      8  C   UNL A   1      32.488  22.859  23.203  1.00  0.00     0.026 A 
ATOM      9  N   UNL A   1      31.333  22.486  25.276  1.00  0.00    -0.259 NA
ATOM     10  C   UNL A   1      33.244  21.705  23.399  1.00  0.00     0.017 A 
ATOM     11  C   UNL A   1      32.089  21.372  25.445  1.00  0.00     0.125 A 
BRANCH   7  12
ATOM     12  C   UNL A   1      30.610  24.385  23.900  1.00  0.00     0.175 C 
BRANCH  12  13
ATOM     13  N   UNL A   1      31.029  25.606  24.579  1.00  0.00    -0.336 N 
ATOM     14  C   UNL A   1      32.514  27.250  25.312  1.00  0.00     0.017 C 
ATOM     15  C   UNL A   1      31.265  27.260  26.204  1.00  0.00     0.105 C 
ATOM     16  C   UNL A   1      32.017  26.526  24.065  1.00  0.00     0.124 C 
ATOM     17  C   UNL A   1      30.551  25.987  25.822  1.00  0.00     0.223 C 
ATOM     18  O   UNL A   1      29.710  25.424  26.496  1.00  0.00    -0.275 OA
BRANCH  14  19
ATOM     19  C   UNL A   1      33.737  26.594  25.996  1.00  0.00     0.002 C 
ATOM     20  C   UNL A   1      34.353  25.377  25.317  1.00  0.00     0.004 C 
ENDBRANCH  14  19
ENDBRANCH  12  13
ENDBRANCH   7  12
ENDBRANCH   3   6
ENDBRANCH   1   2
BRANCH   1  21
ATOM     21  C   UNL A   1      37.442  19.935  24.707  1.00  0.00     0.042 C 
BRANCH  21  22
ATOM     22  C   UNL A   1      38.578  20.459  25.581  1.00  0.00     0.118 C 
BRANCH  22  23
ATOM     23  N   UNL A   1      39.637  19.473  25.748  1.00  0.00    -0.352 N 
ATOM     24  C   UNL A   1      40.958  19.641  26.077  1.00  0.00     0.251 C 
ATOM     25  H   UNL A   1      39.361  18.539  25.601  1.00  0.00     0.163 HD
ATOM     26  O   UNL A   1      41.744  18.712  25.920  1.00  0.00    -0.269 OA
BRANCH  24  27
ATOM     27  C   UNL A   1      41.440  20.934  26.606  1.00  0.00     0.039 A 
ATOM     28  C   UNL A   1      42.016  21.851  25.724  1.00  0.00     0.014 A 
ATOM     29  C   UNL A   1      41.355  21.231  27.969  1.00  0.00     0.014 A 
ATOM     30  C   UNL A   1      42.439  23.095  26.196  1.00  0.00     0.010 A 
ATOM     31  C   UNL A   1      41.705  22.499  28.425  1.00  0.00     0.010 A 
ATOM     32  C   UNL A   1      42.246  23.445  27.543  1.00  0.00    -0.014 A 
BRANCH  32  33
ATOM     33  C   UNL A   1      42.569  24.806  28.039  1.00  0.00     0.031 A 
ATOM     34  C   UNL A   1      43.964  25.142  28.483  1.00  0.00     0.074 A 
ATOM     35  C   UNL A   1      41.581  25.711  28.168  1.00  0.00     0.049 A 
ATOM     36  N   UNL A   1      44.414  26.243  29.030  1.00  0.00    -0.248 NA
ATOM     37  C   UNL A   1      44.984  24.095  28.315  1.00  0.00     0.031 C 
ATOM     38  C   UNL A   1      40.177  25.487  27.813  1.00  0.00     0.029 A 
ATOM     39  N   UNL A   1      41.599  26.997  28.649  1.00  0.00    -0.354 N 
ATOM     40  C   UNL A   1      45.761  26.016  29.283  1.00  0.00     0.074 A 
ATOM     41  C   UNL A   1      46.045  24.657  28.875  1.00  0.00     0.031 C 
ATOM     42  C   UNL A   1      39.474  26.600  28.071  1.00  0.00     0.029 A 
ATOM     43  C   UNL A   1      40.363  27.598  28.656  1.00  0.00     0.049 A 
ATOM     44  H   UNL A   1      42.419  27.445  28.958  1.00  0.00     0.167 HD
ATOM     45  C   UNL A   1      46.681  26.871  29.791  1.00  0.00     0.037 A 
ATOM     46  C   UNL A   1      39.984  28.811  29.101  1.00  0.00     0.037 A 
ATOM     47  C   UNL A   1      46.392  28.226  30.182  1.00  0.00     0.049 A 
ATOM     48  C   UNL A   1      41.018  29.730  29.689  1.00  0.00     0.074 A 
ATOM     49  C   UNL A   1      47.267  29.194  30.645  1.00  0.00     0.029 A 
ATOM     50  N   UNL A   1      45.131  28.802  30.169  1.00  0.00    -0.354 N 
ATOM     51  N   UNL A   1      42.304  29.532  29.849  1.00  0.00    -0.248 NA
ATOM     52  C   UNL A   1      40.549  31.041  30.160  1.00  0.00     0.031 C 
ATOM     53  C   UNL A   1      46.526  30.333  30.970  1.00  0.00     0.029 A 
ATOM     54  C   UNL A   1      45.197  30.099  30.653  1.00  0.00     0.049 A 
ATOM     55  H   UNL A   1      44.308  28.356  29.863  1.00  0.00     0.167 HD
ATOM     56  C   UNL A   1      42.802  30.698  30.415  1.00  0.00     0.074 A 
ATOM     57  C   UNL A   1      41.682  31.606  30.554  1.00  0.00     0.031 C 
ATOM     58  C   UNL A   1      44.072  30.990  30.787  1.00  0.00     0.037 A 
BRANCH  45  59
ATOM     59  C   UNL A   1      48.084  26.363  29.964  1.00  0.00     0.057 A 
ATOM     60  C   UNL A   1      48.520  25.779  31.161  1.00  0.00     0.134 A 
ATOM     61  C   UNL A   1      49.000  26.421  28.905  1.00  0.00     0.134 A 
ATOM     62  F   UNL A   1      47.699  25.699  32.219  1.00  0.00    -0.206 F 
ATOM     63  C   UNL A   1      49.823  25.300  31.309  1.00  0.00     0.040 A 
ATOM     64  C   UNL A   1      50.296  25.917  29.030  1.00  0.00     0.040 A 
ATOM     65  F   UNL A   1      48.648  26.958  27.728  1.00  0.00    -0.206 F 
ATOM     66  C   UNL A   1      50.714  25.362  30.238  1.00  0.00     0.006 A 
ENDBRANCH  45  59
BRANCH  46  67
ATOM     67  C   UNL A   1      38.560  29.224  29.008  1.00  0.00     0.057 A 
ATOM     68  C   UNL A   1      38.022  29.701  27.808  1.00  0.00     0.134 A 
ATOM     69  C   UNL A   1      37.703  29.150  30.114  1.00  0.00     0.134 A 
ATOM     70  F   UNL A   1      38.796  29.810  26.718  1.00  0.00    -0.206 F 
ATOM     71  C   UNL A   1      36.690  30.108  27.713  1.00  0.00     0.040 A 
ATOM     72  C   UNL A   1      36.362  29.528  30.026  1.00  0.00     0.040 A 
ATOM     73  F   UNL A   1      38.151  28.691  31.291  1.00  0.00    -0.206 F 
ATOM     74  C   UNL A   1      35.855  30.017  28.824  1.00  0.00     0.006 A 
ENDBRANCH  46  67
BRANCH  58  75
ATOM     75  C   UNL A   1      44.325  32.354  31.361  1.00  0.00     0.057 A 
ATOM     76  C   UNL A   1      44.618  33.456  30.548  1.00  0.00     0.134 A 
ATOM     77  C   UNL A   1      44.222  32.577  32.741  1.00  0.00     0.134 A 
ATOM     78  F   UNL A   1      44.744  33.308  29.221  1.00  0.00    -0.206 F 
ATOM     79  C   UNL A   1      44.818  34.728  31.088  1.00  0.00     0.040 A 
ATOM     80  C   UNL A   1      44.390  33.849  33.289  1.00  0.00     0.040 A 
ATOM     81  F   UNL A   1      43.936  31.567  33.575  1.00  0.00    -0.206 F 
ATOM     82  C   UNL A   1      44.693  34.929  32.462  1.00  0.00     0.006 A 
ENDBRANCH  58  75
ENDBRANCH  32  33
ENDBRANCH  24  27
ENDBRANCH  22  23
ENDBRANCH  21  22
ENDBRANCH   1  21
TORSDOF 13
ENDMDL
