MODEL 1
REMARK VINA RESULT:     -11.2      0.000      0.000
REMARK SMILES CCC(CC)(NC(=O)c1ccc(N)c(F)c1)C(=O)NCCCNC(=O)c1ccc(-c2c3nc(c(-c4c(F)cccc4F)c4ccc([nH]4)c(-c4c(F)cccc4F)c4nc(c(-c5c(F)cccc5F)c5ccc2[nH]5)C=C4)C=C3)cc1
REMARK SMILES IDX 20 1 19 2 17 3 18 4 3 6 2 7 1 8 4 9 5 10 6 11 7 12 8 14 9 15
REMARK SMILES IDX 10 16 16 17 11 18 14 19 12 20 15 21 13 22 21 25 22 26 23 27
REMARK SMILES IDX 24 28 25 30 26 31 27 32 79 33 28 34 78 35 29 36 30 37 31 38
REMARK SMILES IDX 72 39 32 40 77 41 71 42 73 43 33 44 76 45 70 46 69 47 34 49
REMARK SMILES IDX 60 50 43 51 59 52 44 53 47 54 58 55 74 56 45 57 46 58 57 60
REMARK SMILES IDX 75 61 48 62 35 63 36 64 41 65 37 66 38 67 40 68 42 69 39 70
REMARK SMILES IDX 61 71 62 72 67 73 63 74 64 75 66 76 68 77 65 78 49 79 50 80
REMARK SMILES IDX 55 81 51 82 52 83 54 84 56 85 53 86
REMARK H PARENT 19 5 6 13 13 23 13 24 23 29 73 48 47 59
REMARK Flexibility Score: inf
ROOT
ATOM      1  C   UNL A   1      31.371  30.368  25.929  1.00  0.00     0.117 C 
ENDROOT
BRANCH   1   2
ATOM      2  N   UNL A   1      31.403  30.067  24.500  1.00  0.00    -0.354 N 
ATOM      3  C   UNL A   1      31.733  28.960  23.749  1.00  0.00     0.245 C 
ATOM      4  O   UNL A   1      31.510  29.063  22.538  1.00  0.00    -0.272 OA
ATOM      5  H   UNL A   1      31.125  30.831  23.946  1.00  0.00     0.163 HD
BRANCH   3   6
ATOM      6  C   UNL A   1      32.275  27.633  24.373  1.00  0.00     0.118 C 
BRANCH   6   7
ATOM      7  C   UNL A   1      31.365  27.026  25.488  1.00  0.00     0.035 C 
ATOM      8  C   UNL A   1      30.100  26.284  25.074  1.00  0.00     0.007 C 
ENDBRANCH   6   7
BRANCH   6   9
ATOM      9  C   UNL A   1      33.637  28.112  24.993  1.00  0.00     0.035 C 
ATOM     10  C   UNL A   1      33.879  27.908  26.477  1.00  0.00     0.007 C 
ENDBRANCH   6   9
BRANCH   6  11
ATOM     11  N   UNL A   1      32.479  26.536  23.365  1.00  0.00    -0.338 N 
ATOM     12  C   UNL A   1      33.329  25.431  23.332  1.00  0.00     0.252 C 
ATOM     13  H   UNL A   1      31.897  26.613  22.575  1.00  0.00     0.164 HD
ATOM     14  O   UNL A   1      33.747  25.099  22.220  1.00  0.00    -0.269 OA
BRANCH  12  15
ATOM     15  C   UNL A   1      33.694  24.551  24.496  1.00  0.00     0.042 A 
ATOM     16  C   UNL A   1      32.802  23.652  25.056  1.00  0.00     0.016 A 
ATOM     17  C   UNL A   1      35.021  24.432  24.928  1.00  0.00     0.055 A 
ATOM     18  C   UNL A   1      33.135  22.697  26.015  1.00  0.00     0.029 A 
ATOM     19  C   UNL A   1      35.379  23.448  25.871  1.00  0.00     0.146 A 
ATOM     20  C   UNL A   1      34.440  22.579  26.444  1.00  0.00     0.068 A 
ATOM     21  F   UNL A   1      36.672  23.313  26.206  1.00  0.00    -0.205 F 
BRANCH  20  22
ATOM     22  N   UNL A   1      34.780  21.505  27.256  1.00  0.00    -0.396 N 
ATOM     23  H   UNL A   1      34.968  20.626  26.854  1.00  0.00     0.156 HD
ATOM     24  H   UNL A   1      34.833  21.622  28.231  1.00  0.00     0.156 HD
ENDBRANCH  20  22
ENDBRANCH  12  15
ENDBRANCH   6  11
ENDBRANCH   3   6
ENDBRANCH   1   2
BRANCH   1  25
ATOM     25  C   UNL A   1      31.272  31.828  26.380  1.00  0.00     0.042 C 
BRANCH  25  26
ATOM     26  C   UNL A   1      32.523  32.545  26.879  1.00  0.00     0.118 C 
BRANCH  26  27
ATOM     27  N   UNL A   1      32.283  33.827  27.501  1.00  0.00    -0.352 N 
ATOM     28  C   UNL A   1      33.017  34.501  28.446  1.00  0.00     0.251 C 
ATOM     29  H   UNL A   1      31.469  34.289  27.200  1.00  0.00     0.163 HD
ATOM     30  O   UNL A   1      32.610  35.586  28.847  1.00  0.00    -0.269 OA
BRANCH  28  31
ATOM     31  C   UNL A   1      34.258  33.930  29.026  1.00  0.00     0.039 A 
ATOM     32  C   UNL A   1      34.116  32.873  29.930  1.00  0.00     0.014 A 
ATOM     33  C   UNL A   1      35.534  34.437  28.754  1.00  0.00     0.014 A 
ATOM     34  C   UNL A   1      35.242  32.299  30.526  1.00  0.00     0.010 A 
ATOM     35  C   UNL A   1      36.666  33.824  29.310  1.00  0.00     0.010 A 
ATOM     36  C   UNL A   1      36.533  32.750  30.203  1.00  0.00    -0.014 A 
BRANCH  36  37
ATOM     37  C   UNL A   1      37.718  32.063  30.790  1.00  0.00     0.031 A 
ATOM     38  C   UNL A   1      38.199  32.380  32.181  1.00  0.00     0.074 A 
ATOM     39  C   UNL A   1      38.359  31.125  30.066  1.00  0.00     0.049 A 
ATOM     40  N   UNL A   1      39.153  31.808  32.874  1.00  0.00    -0.248 NA
ATOM     41  C   UNL A   1      37.534  33.488  32.880  1.00  0.00     0.031 C 
ATOM     42  C   UNL A   1      38.030  30.755  28.688  1.00  0.00     0.029 A 
ATOM     43  N   UNL A   1      39.411  30.302  30.387  1.00  0.00    -0.354 N 
ATOM     44  C   UNL A   1      39.200  32.482  34.088  1.00  0.00     0.074 A 
ATOM     45  C   UNL A   1      38.214  33.541  34.015  1.00  0.00     0.031 C 
ATOM     46  C   UNL A   1      38.834  29.753  28.298  1.00  0.00     0.029 A 
ATOM     47  C   UNL A   1      39.755  29.429  29.382  1.00  0.00     0.049 A 
ATOM     48  H   UNL A   1      39.875  30.334  31.255  1.00  0.00     0.167 HD
ATOM     49  C   UNL A   1      39.977  32.233  35.171  1.00  0.00     0.037 A 
ATOM     50  C   UNL A   1      40.699  28.471  29.338  1.00  0.00     0.037 A 
ATOM     51  C   UNL A   1      40.960  31.180  35.246  1.00  0.00     0.049 A 
ATOM     52  C   UNL A   1      41.551  28.217  30.551  1.00  0.00     0.074 A 
ATOM     53  C   UNL A   1      41.763  30.822  36.316  1.00  0.00     0.029 A 
ATOM     54  N   UNL A   1      41.286  30.325  34.204  1.00  0.00    -0.354 N 
ATOM     55  N   UNL A   1      41.527  28.810  31.720  1.00  0.00    -0.248 NA
ATOM     56  C   UNL A   1      42.553  27.147  30.442  1.00  0.00     0.031 C 
ATOM     57  C   UNL A   1      42.610  29.786  35.907  1.00  0.00     0.029 A 
ATOM     58  C   UNL A   1      42.292  29.455  34.600  1.00  0.00     0.049 A 
ATOM     59  H   UNL A   1      40.865  30.333  33.314  1.00  0.00     0.167 HD
ATOM     60  C   UNL A   1      42.487  28.168  32.493  1.00  0.00     0.074 A 
ATOM     61  C   UNL A   1      43.057  27.125  31.666  1.00  0.00     0.031 C 
ATOM     62  C   UNL A   1      42.860  28.421  33.772  1.00  0.00     0.037 A 
BRANCH  49  63
ATOM     63  C   UNL A   1      39.797  33.117  36.375  1.00  0.00     0.057 A 
ATOM     64  C   UNL A   1      38.863  32.822  37.377  1.00  0.00     0.134 A 
ATOM     65  C   UNL A   1      40.597  34.253  36.558  1.00  0.00     0.134 A 
ATOM     66  F   UNL A   1      38.058  31.753  37.264  1.00  0.00    -0.206 F 
ATOM     67  C   UNL A   1      38.712  33.636  38.502  1.00  0.00     0.040 A 
ATOM     68  C   UNL A   1      40.476  35.058  37.692  1.00  0.00     0.040 A 
ATOM     69  F   UNL A   1      41.520  34.591  35.645  1.00  0.00    -0.206 F 
ATOM     70  C   UNL A   1      39.526  34.754  38.665  1.00  0.00     0.006 A 
ENDBRANCH  49  63
BRANCH  50  71
ATOM     71  C   UNL A   1      40.873  27.654  28.110  1.00  0.00     0.057 A 
ATOM     72  C   UNL A   1      41.690  28.086  27.059  1.00  0.00     0.134 A 
ATOM     73  C   UNL A   1      40.213  26.428  27.951  1.00  0.00     0.134 A 
ATOM     74  F   UNL A   1      42.333  29.260  27.141  1.00  0.00    -0.206 F 
ATOM     75  C   UNL A   1      41.828  27.342  25.885  1.00  0.00     0.040 A 
ATOM     76  C   UNL A   1      40.366  25.660  26.796  1.00  0.00     0.040 A 
ATOM     77  F   UNL A   1      39.422  25.955  28.925  1.00  0.00    -0.206 F 
ATOM     78  C   UNL A   1      41.167  26.122  25.755  1.00  0.00     0.006 A 
ENDBRANCH  50  71
BRANCH  62  79
ATOM     79  C   UNL A   1      43.913  27.527  34.365  1.00  0.00     0.057 A 
ATOM     80  C   UNL A   1      45.275  27.858  34.337  1.00  0.00     0.134 A 
ATOM     81  C   UNL A   1      43.559  26.314  34.971  1.00  0.00     0.134 A 
ATOM     82  F   UNL A   1      45.686  28.998  33.762  1.00  0.00    -0.206 F 
ATOM     83  C   UNL A   1      46.247  26.996  34.850  1.00  0.00     0.040 A 
ATOM     84  C   UNL A   1      44.519  25.461  35.517  1.00  0.00     0.040 A 
ATOM     85  F   UNL A   1      42.273  25.938  35.045  1.00  0.00    -0.206 F 
ATOM     86  C   UNL A   1      45.869  25.796  35.446  1.00  0.00     0.006 A 
ENDBRANCH  62  79
ENDBRANCH  36  37
ENDBRANCH  28  31
ENDBRANCH  26  27
ENDBRANCH  25  26
ENDBRANCH   1  25
TORSDOF 15
ENDMDL
MODEL 2
REMARK VINA RESULT:     -11.2      5.081      9.841
REMARK SMILES CCC(CC)(NC(=O)c1ccc(N)c(F)c1)C(=O)NCCCNC(=O)c1ccc(-c2c3nc(c(-c4c(F)cccc4F)c4ccc([nH]4)c(-c4c(F)cccc4F)c4nc(c(-c5c(F)cccc5F)c5ccc2[nH]5)C=C4)C=C3)cc1
REMARK SMILES IDX 20 1 19 2 17 3 18 4 3 6 2 7 1 8 4 9 5 10 6 11 7 12 8 14 9 15
REMARK SMILES IDX 10 16 16 17 11 18 14 19 12 20 15 21 13 22 21 25 22 26 23 27
REMARK SMILES IDX 24 28 25 30 26 31 27 32 79 33 28 34 78 35 29 36 30 37 31 38
REMARK SMILES IDX 72 39 32 40 77 41 71 42 73 43 33 44 76 45 70 46 69 47 34 49
REMARK SMILES IDX 60 50 43 51 59 52 44 53 47 54 58 55 74 56 45 57 46 58 57 60
REMARK SMILES IDX 75 61 48 62 35 63 36 64 41 65 37 66 38 67 40 68 42 69 39 70
REMARK SMILES IDX 61 71 62 72 67 73 63 74 64 75 66 76 68 77 65 78 49 79 50 80
REMARK SMILES IDX 55 81 51 82 52 83 54 84 56 85 53 86
REMARK H PARENT 19 5 6 13 13 23 13 24 23 29 73 48 47 59
REMARK Flexibility Score: inf
ROOT
ATOM      1  C   UNL A   1      36.213  20.325  24.989  1.00  0.00     0.117 C 
ENDROOT
BRANCH   1   2
ATOM      2  N   UNL A   1      35.853  21.212  26.091  1.00  0.00    -0.354 N 
ATOM      3  C   UNL A   1      35.191  22.416  26.191  1.00  0.00     0.245 C 
ATOM      4  O   UNL A   1      34.974  22.801  27.345  1.00  0.00    -0.272 OA
ATOM      5  H   UNL A   1      36.152  20.871  26.965  1.00  0.00     0.163 HD
BRANCH   3   6
ATOM      6  C   UNL A   1      34.673  23.213  24.950  1.00  0.00     0.118 C 
BRANCH   6   7
ATOM      7  C   UNL A   1      35.316  22.783  23.593  1.00  0.00     0.035 C 
ATOM      8  C   UNL A   1      36.716  23.284  23.258  1.00  0.00     0.007 C 
ENDBRANCH   6   7
BRANCH   6   9
ATOM      9  C   UNL A   1      35.112  24.677  25.313  1.00  0.00     0.035 C 
ATOM     10  C   UNL A   1      34.048  25.753  25.426  1.00  0.00     0.007 C 
ENDBRANCH   6   9
BRANCH   6  11
ATOM     11  N   UNL A   1      33.186  23.112  24.751  1.00  0.00    -0.338 N 
ATOM     12  C   UNL A   1      32.378  22.155  24.137  1.00  0.00     0.252 C 
ATOM     13  H   UNL A   1      32.684  23.869  25.131  1.00  0.00     0.164 HD
ATOM     14  O   UNL A   1      31.370  22.577  23.567  1.00  0.00    -0.269 OA
BRANCH  12  15
ATOM     15  C   UNL A   1      32.562  20.662  24.195  1.00  0.00     0.042 A 
ATOM     16  C   UNL A   1      32.639  19.970  25.391  1.00  0.00     0.016 A 
ATOM     17  C   UNL A   1      32.437  19.871  23.047  1.00  0.00     0.055 A 
ATOM     18  C   UNL A   1      32.636  18.580  25.505  1.00  0.00     0.029 A 
ATOM     19  C   UNL A   1      32.396  18.466  23.149  1.00  0.00     0.146 A 
ATOM     20  C   UNL A   1      32.515  17.798  24.377  1.00  0.00     0.068 A 
ATOM     21  F   UNL A   1      32.200  17.741  22.036  1.00  0.00    -0.205 F 
BRANCH  20  22
ATOM     22  N   UNL A   1      32.327  16.431  24.530  1.00  0.00    -0.396 N 
ATOM     23  H   UNL A   1      32.896  15.798  24.036  1.00  0.00     0.156 HD
ATOM     24  H   UNL A   1      31.625  16.095  25.132  1.00  0.00     0.156 HD
ENDBRANCH  20  22
ENDBRANCH  12  15
ENDBRANCH   6  11
ENDBRANCH   3   6
ENDBRANCH   1   2
BRANCH   1  25
ATOM     25  C   UNL A   1      37.693  20.038  24.718  1.00  0.00     0.042 C 
BRANCH  25  26
ATOM     26  C   UNL A   1      38.682  20.041  25.880  1.00  0.00     0.118 C 
BRANCH  26  27
ATOM     27  N   UNL A   1      39.837  19.191  25.699  1.00  0.00    -0.352 N 
ATOM     28  C   UNL A   1      41.161  19.431  25.977  1.00  0.00     0.251 C 
ATOM     29  H   UNL A   1      39.646  18.304  25.320  1.00  0.00     0.163 HD
ATOM     30  O   UNL A   1      41.985  18.558  25.724  1.00  0.00    -0.269 OA
BRANCH  28  31
ATOM     31  C   UNL A   1      41.622  20.729  26.527  1.00  0.00     0.039 A 
ATOM     32  C   UNL A   1      41.971  21.726  25.611  1.00  0.00     0.014 A 
ATOM     33  C   UNL A   1      41.776  20.970  27.897  1.00  0.00     0.014 A 
ATOM     34  C   UNL A   1      42.429  22.967  26.060  1.00  0.00     0.010 A 
ATOM     35  C   UNL A   1      42.182  22.233  28.348  1.00  0.00     0.010 A 
ATOM     36  C   UNL A   1      42.515  23.245  27.434  1.00  0.00    -0.014 A 
BRANCH  36  37
ATOM     37  C   UNL A   1      42.927  24.606  27.883  1.00  0.00     0.031 A 
ATOM     38  C   UNL A   1      44.375  25.018  27.913  1.00  0.00     0.074 A 
ATOM     39  C   UNL A   1      41.979  25.491  28.252  1.00  0.00     0.049 A 
ATOM     40  N   UNL A   1      44.893  26.190  28.185  1.00  0.00    -0.248 NA
ATOM     41  C   UNL A   1      45.369  23.979  27.610  1.00  0.00     0.031 C 
ATOM     42  C   UNL A   1      40.544  25.209  28.317  1.00  0.00     0.029 A 
ATOM     43  N   UNL A   1      42.075  26.808  28.627  1.00  0.00    -0.354 N 
ATOM     44  C   UNL A   1      46.270  26.031  28.084  1.00  0.00     0.074 A 
ATOM     45  C   UNL A   1      46.507  24.636  27.778  1.00  0.00     0.031 C 
ATOM     46  C   UNL A   1      39.892  26.328  28.668  1.00  0.00     0.029 A 
ATOM     47  C   UNL A   1      40.860  27.399  28.883  1.00  0.00     0.049 A 
ATOM     48  H   UNL A   1      42.933  27.286  28.705  1.00  0.00     0.167 HD
ATOM     49  C   UNL A   1      47.246  26.963  28.215  1.00  0.00     0.037 A 
ATOM     50  C   UNL A   1      40.556  28.659  29.243  1.00  0.00     0.037 A 
ATOM     51  C   UNL A   1      47.013  28.353  28.521  1.00  0.00     0.049 A 
ATOM     52  C   UNL A   1      41.658  29.673  29.385  1.00  0.00     0.074 A 
ATOM     53  C   UNL A   1      47.935  29.381  28.628  1.00  0.00     0.029 A 
ATOM     54  N   UNL A   1      45.769  28.909  28.783  1.00  0.00    -0.354 N 
ATOM     55  N   UNL A   1      42.947  29.526  29.206  1.00  0.00    -0.248 NA
ATOM     56  C   UNL A   1      41.256  31.035  29.765  1.00  0.00     0.031 C 
ATOM     57  C   UNL A   1      47.257  30.545  29.006  1.00  0.00     0.029 A 
ATOM     58  C   UNL A   1      45.904  30.259  29.074  1.00  0.00     0.049 A 
ATOM     59  H   UNL A   1      44.917  28.418  28.766  1.00  0.00     0.167 HD
ATOM     60  C   UNL A   1      43.508  30.778  29.423  1.00  0.00     0.074 A 
ATOM     61  C   UNL A   1      42.414  31.677  29.723  1.00  0.00     0.031 C 
ATOM     62  C   UNL A   1      44.812  31.149  29.376  1.00  0.00     0.037 A 
BRANCH  49  63
ATOM     63  C   UNL A   1      48.669  26.511  28.025  1.00  0.00     0.057 A 
ATOM     64  C   UNL A   1      49.285  26.516  26.767  1.00  0.00     0.134 A 
ATOM     65  C   UNL A   1      49.446  26.110  29.120  1.00  0.00     0.134 A 
ATOM     66  F   UNL A   1      48.598  26.881  25.673  1.00  0.00    -0.206 F 
ATOM     67  C   UNL A   1      50.612  26.113  26.599  1.00  0.00     0.040 A 
ATOM     68  C   UNL A   1      50.783  25.733  28.969  1.00  0.00     0.040 A 
ATOM     69  F   UNL A   1      48.926  26.092  30.356  1.00  0.00    -0.206 F 
ATOM     70  C   UNL A   1      51.366  25.727  27.704  1.00  0.00     0.006 A 
ENDBRANCH  49  63
BRANCH  50  71
ATOM     71  C   UNL A   1      39.140  29.048  29.465  1.00  0.00     0.057 A 
ATOM     72  C   UNL A   1      38.531  28.890  30.715  1.00  0.00     0.134 A 
ATOM     73  C   UNL A   1      38.356  29.572  28.429  1.00  0.00     0.134 A 
ATOM     74  F   UNL A   1      39.221  28.375  31.744  1.00  0.00    -0.206 F 
ATOM     75  C   UNL A   1      37.188  29.217  30.923  1.00  0.00     0.040 A 
ATOM     76  C   UNL A   1      37.023  29.932  28.630  1.00  0.00     0.040 A 
ATOM     77  F   UNL A   1      38.883  29.755  27.210  1.00  0.00    -0.206 F 
ATOM     78  C   UNL A   1      36.433  29.745  29.878  1.00  0.00     0.006 A 
ENDBRANCH  50  71
BRANCH  62  79
ATOM     79  C   UNL A   1      45.118  32.600  29.622  1.00  0.00     0.057 A 
ATOM     80  C   UNL A   1      45.433  33.091  30.897  1.00  0.00     0.134 A 
ATOM     81  C   UNL A   1      45.093  33.522  28.567  1.00  0.00     0.134 A 
ATOM     82  F   UNL A   1      45.463  32.266  31.955  1.00  0.00    -0.206 F 
ATOM     83  C   UNL A   1      45.670  34.449  31.120  1.00  0.00     0.040 A 
ATOM     84  C   UNL A   1      45.362  34.877  28.772  1.00  0.00     0.040 A 
ATOM     85  F   UNL A   1      44.811  33.122  27.318  1.00  0.00    -0.206 F 
ATOM     86  C   UNL A   1      45.639  35.345  30.055  1.00  0.00     0.006 A 
ENDBRANCH  62  79
ENDBRANCH  36  37
ENDBRANCH  28  31
ENDBRANCH  26  27
ENDBRANCH  25  26
ENDBRANCH   1  25
TORSDOF 15
ENDMDL
MODEL 3
REMARK VINA RESULT:     -11.1      4.621      9.644
REMARK SMILES CCC(CC)(NC(=O)c1ccc(N)c(F)c1)C(=O)NCCCNC(=O)c1ccc(-c2c3nc(c(-c4c(F)cccc4F)c4ccc([nH]4)c(-c4c(F)cccc4F)c4nc(c(-c5c(F)cccc5F)c5ccc2[nH]5)C=C4)C=C3)cc1
REMARK SMILES IDX 20 1 19 2 17 3 18 4 3 6 2 7 1 8 4 9 5 10 6 11 7 12 8 14 9 15
REMARK SMILES IDX 10 16 16 17 11 18 14 19 12 20 15 21 13 22 21 25 22 26 23 27
REMARK SMILES IDX 24 28 25 30 26 31 27 32 79 33 28 34 78 35 29 36 30 37 31 38
REMARK SMILES IDX 72 39 32 40 77 41 71 42 73 43 33 44 76 45 70 46 69 47 34 49
REMARK SMILES IDX 60 50 43 51 59 52 44 53 47 54 58 55 74 56 45 57 46 58 57 60
REMARK SMILES IDX 75 61 48 62 35 63 36 64 41 65 37 66 38 67 40 68 42 69 39 70
REMARK SMILES IDX 61 71 62 72 67 73 63 74 64 75 66 76 68 77 65 78 49 79 50 80
REMARK SMILES IDX 55 81 51 82 52 83 54 84 56 85 53 86
REMARK H PARENT 19 5 6 13 13 23 13 24 23 29 73 48 47 59
REMARK Flexibility Score: inf
ROOT
ATOM      1  C   UNL A   1      36.579  20.633  24.798  1.00  0.00     0.117 C 
ENDROOT
BRANCH   1   2
ATOM      2  N   UNL A   1      35.261  20.303  25.335  1.00  0.00    -0.354 N 
ATOM      3  C   UNL A   1      34.107  21.014  25.577  1.00  0.00     0.245 C 
ATOM      4  O   UNL A   1      33.138  20.335  25.934  1.00  0.00    -0.272 OA
ATOM      5  H   UNL A   1      35.180  19.353  25.580  1.00  0.00     0.163 HD
BRANCH   3   6
ATOM      6  C   UNL A   1      33.986  22.555  25.343  1.00  0.00     0.118 C 
BRANCH   6   7
ATOM      7  C   UNL A   1      34.209  23.003  23.864  1.00  0.00     0.035 C 
ATOM      8  C   UNL A   1      33.139  22.670  22.831  1.00  0.00     0.007 C 
ENDBRANCH   6   7
BRANCH   6   9
ATOM      9  C   UNL A   1      35.146  23.100  26.251  1.00  0.00     0.035 C 
ATOM     10  C   UNL A   1      36.159  24.058  25.650  1.00  0.00     0.007 C 
ENDBRANCH   6   9
BRANCH   6  11
ATOM     11  N   UNL A   1      32.652  23.120  25.748  1.00  0.00    -0.338 N 
ATOM     12  C   UNL A   1      32.236  24.408  26.086  1.00  0.00     0.252 C 
ATOM     13  H   UNL A   1      31.932  22.449  25.780  1.00  0.00     0.164 HD
ATOM     14  O   UNL A   1      31.352  24.487  26.943  1.00  0.00    -0.269 OA
BRANCH  12  15
ATOM     15  C   UNL A   1      32.681  25.689  25.434  1.00  0.00     0.042 A 
ATOM     16  C   UNL A   1      32.167  26.125  24.226  1.00  0.00     0.016 A 
ATOM     17  C   UNL A   1      33.470  26.617  26.125  1.00  0.00     0.055 A 
ATOM     18  C   UNL A   1      32.413  27.377  23.664  1.00  0.00     0.029 A 
ATOM     19  C   UNL A   1      33.698  27.899  25.587  1.00  0.00     0.146 A 
ATOM     20  C   UNL A   1      33.191  28.292  24.340  1.00  0.00     0.068 A 
ATOM     21  F   UNL A   1      34.396  28.790  26.310  1.00  0.00    -0.205 F 
BRANCH  20  22
ATOM     22  N   UNL A   1      33.268  29.590  23.852  1.00  0.00    -0.396 N 
ATOM     23  H   UNL A   1      32.743  29.849  23.060  1.00  0.00     0.156 HD
ATOM     24  H   UNL A   1      33.846  30.250  24.297  1.00  0.00     0.156 HD
ENDBRANCH  20  22
ENDBRANCH  12  15
ENDBRANCH   6  11
ENDBRANCH   3   6
ENDBRANCH   1   2
BRANCH   1  25
ATOM     25  C   UNL A   1      37.733  19.648  25.001  1.00  0.00     0.042 C 
BRANCH  25  26
ATOM     26  C   UNL A   1      38.902  20.038  25.902  1.00  0.00     0.118 C 
BRANCH  26  27
ATOM     27  N   UNL A   1      40.094  19.237  25.733  1.00  0.00    -0.352 N 
ATOM     28  C   UNL A   1      41.400  19.524  26.046  1.00  0.00     0.251 C 
ATOM     29  H   UNL A   1      39.947  18.350  25.334  1.00  0.00     0.163 HD
ATOM     30  O   UNL A   1      42.264  18.688  25.797  1.00  0.00    -0.269 OA
BRANCH  28  31
ATOM     31  C   UNL A   1      41.797  20.829  26.629  1.00  0.00     0.039 A 
ATOM     32  C   UNL A   1      42.122  21.857  25.738  1.00  0.00     0.014 A 
ATOM     33  C   UNL A   1      41.916  21.049  28.006  1.00  0.00     0.014 A 
ATOM     34  C   UNL A   1      42.519  23.107  26.219  1.00  0.00     0.010 A 
ATOM     35  C   UNL A   1      42.261  22.320  28.488  1.00  0.00     0.010 A 
ATOM     36  C   UNL A   1      42.569  23.362  27.600  1.00  0.00    -0.014 A 
BRANCH  36  37
ATOM     37  C   UNL A   1      42.915  24.729  28.082  1.00  0.00     0.031 A 
ATOM     38  C   UNL A   1      44.347  25.167  28.237  1.00  0.00     0.074 A 
ATOM     39  C   UNL A   1      41.923  25.596  28.366  1.00  0.00     0.049 A 
ATOM     40  N   UNL A   1      44.819  26.348  28.552  1.00  0.00    -0.248 NA
ATOM     41  C   UNL A   1      45.382  24.146  28.022  1.00  0.00     0.031 C 
ATOM     42  C   UNL A   1      40.493  25.289  28.306  1.00  0.00     0.029 A 
ATOM     43  N   UNL A   1      41.962  26.915  28.747  1.00  0.00    -0.354 N 
ATOM     44  C   UNL A   1      46.202  26.214  28.571  1.00  0.00     0.074 A 
ATOM     45  C   UNL A   1      46.490  24.823  28.287  1.00  0.00     0.031 C 
ATOM     46  C   UNL A   1      39.793  26.396  28.598  1.00  0.00     0.029 A 
ATOM     47  C   UNL A   1      40.719  27.484  28.896  1.00  0.00     0.049 A 
ATOM     48  H   UNL A   1      42.801  27.408  28.898  1.00  0.00     0.167 HD
ATOM     49  C   UNL A   1      47.146  27.163  28.785  1.00  0.00     0.037 A 
ATOM     50  C   UNL A   1      40.362  28.738  29.227  1.00  0.00     0.037 A 
ATOM     51  C   UNL A   1      46.862  28.548  29.069  1.00  0.00     0.049 A 
ATOM     52  C   UNL A   1      41.429  29.772  29.463  1.00  0.00     0.074 A 
ATOM     53  C   UNL A   1      47.753  29.593  29.255  1.00  0.00     0.029 A 
ATOM     54  N   UNL A   1      45.590  29.082  29.222  1.00  0.00    -0.354 N 
ATOM     55  N   UNL A   1      42.732  29.647  29.397  1.00  0.00    -0.248 NA
ATOM     56  C   UNL A   1      40.972  31.125  29.806  1.00  0.00     0.031 C 
ATOM     57  C   UNL A   1      47.024  30.744  29.572  1.00  0.00     0.029 A 
ATOM     58  C   UNL A   1      45.675  30.434  29.522  1.00  0.00     0.049 A 
ATOM     59  H   UNL A   1      44.752  28.576  29.131  1.00  0.00     0.167 HD
ATOM     60  C   UNL A   1      43.249  30.910  29.661  1.00  0.00     0.074 A 
ATOM     61  C   UNL A   1      42.116  31.789  29.865  1.00  0.00     0.031 C 
ATOM     62  C   UNL A   1      44.545  31.304  29.728  1.00  0.00     0.037 A 
BRANCH  49  63
ATOM     63  C   UNL A   1      48.587  26.737  28.721  1.00  0.00     0.057 A 
ATOM     64  C   UNL A   1      49.246  26.183  29.827  1.00  0.00     0.134 A 
ATOM     65  C   UNL A   1      49.313  26.839  27.527  1.00  0.00     0.134 A 
ATOM     66  F   UNL A   1      48.613  26.063  31.005  1.00  0.00    -0.206 F 
ATOM     67  C   UNL A   1      50.579  25.772  29.757  1.00  0.00     0.040 A 
ATOM     68  C   UNL A   1      50.637  26.404  27.435  1.00  0.00     0.040 A 
ATOM     69  F   UNL A   1      48.744  27.348  26.424  1.00  0.00    -0.206 F 
ATOM     70  C   UNL A   1      51.275  25.875  28.555  1.00  0.00     0.006 A 
ENDBRANCH  49  63
BRANCH  50  71
ATOM     71  C   UNL A   1      38.925  29.101  29.325  1.00  0.00     0.057 A 
ATOM     72  C   UNL A   1      38.238  29.025  30.542  1.00  0.00     0.134 A 
ATOM     73  C   UNL A   1      38.200  29.518  28.202  1.00  0.00     0.134 A 
ATOM     74  F   UNL A   1      38.871  28.613  31.651  1.00  0.00    -0.206 F 
ATOM     75  C   UNL A   1      36.877  29.327  30.636  1.00  0.00     0.040 A 
ATOM     76  C   UNL A   1      36.848  29.852  28.286  1.00  0.00     0.040 A 
ATOM     77  F   UNL A   1      38.802  29.619  27.008  1.00  0.00    -0.206 F 
ATOM     78  C   UNL A   1      36.181  29.748  29.504  1.00  0.00     0.006 A 
ENDBRANCH  50  71
BRANCH  62  79
ATOM     79  C   UNL A   1      44.803  32.760  29.998  1.00  0.00     0.057 A 
ATOM     80  C   UNL A   1      44.896  33.706  28.967  1.00  0.00     0.134 A 
ATOM     81  C   UNL A   1      44.964  33.223  31.311  1.00  0.00     0.134 A 
ATOM     82  F   UNL A   1      44.764  33.330  27.686  1.00  0.00    -0.206 F 
ATOM     83  C   UNL A   1      45.183  35.047  29.229  1.00  0.00     0.040 A 
ATOM     84  C   UNL A   1      45.217  34.568  31.587  1.00  0.00     0.040 A 
ATOM     85  F   UNL A   1      44.876  32.377  32.349  1.00  0.00    -0.206 F 
ATOM     86  C   UNL A   1      45.340  35.482  30.543  1.00  0.00     0.006 A 
ENDBRANCH  62  79
ENDBRANCH  36  37
ENDBRANCH  28  31
ENDBRANCH  26  27
ENDBRANCH  25  26
ENDBRANCH   1  25
TORSDOF 15
ENDMDL
