MODEL 1
REMARK VINA RESULT:     -11.9      0.000      0.000
REMARK SMILES CC1(NC(=O)c2csc(/C=C/C(=O)NCCCNC(=O)c3ccc(-c4c5nc(c(-c6c(F)cccc6F)c6ccc([nH]6)c(-c6c(F)cccc6F)c6nc(c(-c7c(F)cccc7F)c7ccc4[nH]7)C=C6)C=C5)cc3)c2)CCCCC1
REMARK SMILES IDX 15 1 14 2 12 3 13 4 11 6 10 7 9 8 6 9 7 10 75 11 8 12 4 13
REMARK SMILES IDX 3 14 5 16 2 17 1 18 76 19 80 20 77 21 79 22 78 23 16 24
REMARK SMILES IDX 17 25 18 26 19 27 20 29 21 30 22 31 74 32 23 33 73 34 24 35
REMARK SMILES IDX 25 36 26 37 67 38 27 39 72 40 66 41 68 42 28 43 71 44 65 45
REMARK SMILES IDX 64 46 29 48 55 49 38 50 54 51 39 52 42 53 53 54 69 55 40 56
REMARK SMILES IDX 41 57 52 59 70 60 43 61 30 62 31 63 36 64 32 65 33 66 35 67
REMARK SMILES IDX 37 68 34 69 56 70 57 71 62 72 58 73 59 74 61 75 63 76 60 77
REMARK SMILES IDX 44 78 45 79 50 80 46 81 47 82 49 83 51 84 48 85
REMARK H PARENT 14 5 3 15 18 28 68 47 42 58
REMARK Flexibility Score: inf
ROOT
ATOM      1  C   UNL A   1      35.924  20.737  25.037  1.00  0.00     0.118 C 
ENDROOT
BRANCH   1   2
ATOM      2  N   UNL A   1      34.757  19.933  25.364  1.00  0.00    -0.352 N 
ATOM      3  C   UNL A   1      33.446  20.082  25.030  1.00  0.00     0.244 C 
ATOM      4  O   UNL A   1      32.636  19.215  25.346  1.00  0.00    -0.270 OA
ATOM      5  H   UNL A   1      34.948  19.145  25.923  1.00  0.00     0.163 HD
BRANCH   3   6
ATOM      6  C   UNL A   1      33.005  21.230  24.210  1.00  0.00     0.072 C 
ATOM      7  C   UNL A   1      32.689  22.418  24.741  1.00  0.00     0.024 C 
BRANCH   7   8
ATOM      8  C   UNL A   1      32.309  23.560  23.980  1.00  0.00     0.028 A 
ATOM      9  C   UNL A   1      32.445  25.725  23.052  1.00  0.00     0.051 A 
ATOM     10  C   UNL A   1      31.148  25.378  22.739  1.00  0.00     0.079 A 
ATOM     11  C   UNL A   1      33.131  24.626  23.662  1.00  0.00     0.033 A 
ATOM     12  S   UNL A   1      30.735  23.828  23.339  1.00  0.00    -0.144 S 
BRANCH   9  13
ATOM     13  C   UNL A   1      33.080  26.987  22.742  1.00  0.00     0.252 C 
ATOM     14  N   UNL A   1      32.860  28.082  23.532  1.00  0.00    -0.347 N 
ATOM     15  H   UNL A   1      33.571  28.755  23.426  1.00  0.00     0.164 HD
ATOM     16  O   UNL A   1      33.925  27.071  21.853  1.00  0.00    -0.269 OA
BRANCH  14  17
ATOM     17  C   UNL A   1      31.831  28.521  24.507  1.00  0.00     0.038 C 
ATOM     18  C   UNL A   1      30.600  28.956  23.691  1.00  0.00     0.034 C 
ATOM     19  C   UNL A   1      31.382  27.506  25.581  1.00  0.00     0.028 C 
ATOM     20  C   UNL A   1      32.396  29.761  25.256  1.00  0.00     0.028 C 
ATOM     21  C   UNL A   1      32.479  27.130  26.572  1.00  0.00     0.002 C 
ATOM     22  C   UNL A   1      33.513  29.397  26.239  1.00  0.00     0.002 C 
ATOM     23  C   UNL A   1      33.056  28.358  27.258  1.00  0.00     0.000 C 
ENDBRANCH  14  17
ENDBRANCH   9  13
ENDBRANCH   7   8
ENDBRANCH   3   6
ENDBRANCH   1   2
BRANCH   1  24
ATOM     24  C   UNL A   1      37.165  19.862  24.861  1.00  0.00     0.042 C 
BRANCH  24  25
ATOM     25  C   UNL A   1      38.407  20.440  25.536  1.00  0.00     0.118 C 
BRANCH  25  26
ATOM     26  N   UNL A   1      39.470  19.450  25.656  1.00  0.00    -0.352 N 
ATOM     27  C   UNL A   1      40.790  19.604  25.994  1.00  0.00     0.251 C 
ATOM     28  H   UNL A   1      39.197  18.524  25.465  1.00  0.00     0.163 HD
ATOM     29  O   UNL A   1      41.572  18.673  25.820  1.00  0.00    -0.269 OA
BRANCH  27  30
ATOM     30  C   UNL A   1      41.285  20.878  26.558  1.00  0.00     0.039 A 
ATOM     31  C   UNL A   1      41.822  21.833  25.689  1.00  0.00     0.014 A 
ATOM     32  C   UNL A   1      41.268  21.117  27.935  1.00  0.00     0.014 A 
ATOM     33  C   UNL A   1      42.290  23.047  26.194  1.00  0.00     0.010 A 
ATOM     34  C   UNL A   1      41.671  22.355  28.430  1.00  0.00     0.010 A 
ATOM     35  C   UNL A   1      42.188  23.331  27.566  1.00  0.00    -0.014 A 
BRANCH  35  36
ATOM     36  C   UNL A   1      42.605  24.648  28.110  1.00  0.00     0.031 A 
ATOM     37  C   UNL A   1      41.589  25.729  28.351  1.00  0.00     0.074 A 
ATOM     38  C   UNL A   1      43.913  24.889  28.326  1.00  0.00     0.049 A 
ATOM     39  N   UNL A   1      41.773  26.961  28.753  1.00  0.00    -0.248 NA
ATOM     40  C   UNL A   1      40.184  25.390  28.082  1.00  0.00     0.031 C 
ATOM     41  C   UNL A   1      44.999  23.936  28.089  1.00  0.00     0.029 A 
ATOM     42  N   UNL A   1      44.552  26.014  28.781  1.00  0.00    -0.354 N 
ATOM     43  C   UNL A   1      40.513  27.546  28.771  1.00  0.00     0.074 A 
ATOM     44  C   UNL A   1      39.579  26.549  28.293  1.00  0.00     0.031 C 
ATOM     45  C   UNL A   1      46.167  24.510  28.420  1.00  0.00     0.029 A 
ATOM     46  C   UNL A   1      45.917  25.880  28.854  1.00  0.00     0.049 A 
ATOM     47  H   UNL A   1      44.078  26.840  29.032  1.00  0.00     0.167 HD
ATOM     48  C   UNL A   1      40.164  28.794  29.169  1.00  0.00     0.037 A 
ATOM     49  C   UNL A   1      46.863  26.765  29.220  1.00  0.00     0.037 A 
ATOM     50  C   UNL A   1      41.094  29.775  29.664  1.00  0.00     0.049 A 
ATOM     51  C   UNL A   1      46.451  28.146  29.647  1.00  0.00     0.074 A 
ATOM     52  C   UNL A   1      40.832  31.046  30.147  1.00  0.00     0.029 A 
ATOM     53  N   UNL A   1      42.468  29.597  29.734  1.00  0.00    -0.354 N 
ATOM     54  N   UNL A   1      45.249  28.663  29.722  1.00  0.00    -0.248 NA
ATOM     55  C   UNL A   1      47.526  29.064  30.045  1.00  0.00     0.031 C 
ATOM     56  C   UNL A   1      42.050  31.652  30.468  1.00  0.00     0.029 A 
ATOM     57  C   UNL A   1      43.068  30.742  30.230  1.00  0.00     0.049 A 
ATOM     58  H   UNL A   1      42.946  28.777  29.469  1.00  0.00     0.167 HD
ATOM     59  C   UNL A   1      45.420  29.956  30.198  1.00  0.00     0.074 A 
ATOM     60  C   UNL A   1      46.841  30.139  30.410  1.00  0.00     0.031 C 
ATOM     61  C   UNL A   1      44.484  30.907  30.438  1.00  0.00     0.037 A 
BRANCH  48  62
ATOM     62  C   UNL A   1      38.712  29.166  29.087  1.00  0.00     0.057 A 
ATOM     63  C   UNL A   1      37.871  29.112  30.207  1.00  0.00     0.134 A 
ATOM     64  C   UNL A   1      38.155  29.620  27.884  1.00  0.00     0.134 A 
ATOM     65  F   UNL A   1      38.337  28.677  31.387  1.00  0.00    -0.206 F 
ATOM     66  C   UNL A   1      36.523  29.469  30.127  1.00  0.00     0.040 A 
ATOM     67  C   UNL A   1      36.816  30.006  27.799  1.00  0.00     0.040 A 
ATOM     68  F   UNL A   1      38.905  29.703  26.775  1.00  0.00    -0.206 F 
ATOM     69  C   UNL A   1      35.994  29.924  28.920  1.00  0.00     0.006 A 
ENDBRANCH  48  62
BRANCH  49  70
ATOM     70  C   UNL A   1      48.293  26.366  29.217  1.00  0.00     0.057 A 
ATOM     71  C   UNL A   1      49.092  26.557  28.083  1.00  0.00     0.134 A 
ATOM     72  C   UNL A   1      48.893  25.782  30.338  1.00  0.00     0.134 A 
ATOM     73  F   UNL A   1      48.569  27.095  26.971  1.00  0.00    -0.206 F 
ATOM     74  C   UNL A   1      50.432  26.166  28.058  1.00  0.00     0.040 A 
ATOM     75  C   UNL A   1      50.239  25.409  30.336  1.00  0.00     0.040 A 
ATOM     76  F   UNL A   1      48.184  25.579  31.458  1.00  0.00    -0.206 F 
ATOM     77  C   UNL A   1      51.010  25.594  29.190  1.00  0.00     0.006 A 
ENDBRANCH  49  70
BRANCH  61  78
ATOM     78  C   UNL A   1      44.967  32.219  30.985  1.00  0.00     0.057 A 
ATOM     79  C   UNL A   1      45.099  32.442  32.361  1.00  0.00     0.134 A 
ATOM     80  C   UNL A   1      45.337  33.257  30.122  1.00  0.00     0.134 A 
ATOM     81  F   UNL A   1      44.749  31.492  33.241  1.00  0.00    -0.206 F 
ATOM     82  C   UNL A   1      45.560  33.662  32.860  1.00  0.00     0.040 A 
ATOM     83  C   UNL A   1      45.824  34.471  30.608  1.00  0.00     0.040 A 
ATOM     84  F   UNL A   1      45.242  33.106  28.793  1.00  0.00    -0.206 F 
ATOM     85  C   UNL A   1      45.931  34.678  31.981  1.00  0.00     0.006 A 
ENDBRANCH  61  78
ENDBRANCH  35  36
ENDBRANCH  27  30
ENDBRANCH  25  26
ENDBRANCH  24  25
ENDBRANCH   1  24
TORSDOF 13
ENDMDL
MODEL 2
REMARK VINA RESULT:     -11.9      0.824      6.251
REMARK SMILES CC1(NC(=O)c2csc(/C=C/C(=O)NCCCNC(=O)c3ccc(-c4c5nc(c(-c6c(F)cccc6F)c6ccc([nH]6)c(-c6c(F)cccc6F)c6nc(c(-c7c(F)cccc7F)c7ccc4[nH]7)C=C6)C=C5)cc3)c2)CCCCC1
REMARK SMILES IDX 15 1 14 2 12 3 13 4 11 6 10 7 9 8 6 9 7 10 75 11 8 12 4 13
REMARK SMILES IDX 3 14 5 16 2 17 1 18 76 19 80 20 77 21 79 22 78 23 16 24
REMARK SMILES IDX 17 25 18 26 19 27 20 29 21 30 22 31 74 32 23 33 73 34 24 35
REMARK SMILES IDX 25 36 26 37 67 38 27 39 72 40 66 41 68 42 28 43 71 44 65 45
REMARK SMILES IDX 64 46 29 48 55 49 38 50 54 51 39 52 42 53 53 54 69 55 40 56
REMARK SMILES IDX 41 57 52 59 70 60 43 61 30 62 31 63 36 64 32 65 33 66 35 67
REMARK SMILES IDX 37 68 34 69 56 70 57 71 62 72 58 73 59 74 61 75 63 76 60 77
REMARK SMILES IDX 44 78 45 79 50 80 46 81 47 82 49 83 51 84 48 85
REMARK H PARENT 14 5 3 15 18 28 68 47 42 58
REMARK Flexibility Score: inf
ROOT
ATOM      1  C   UNL A   1      37.074  20.923  24.727  1.00  0.00     0.118 C 
ENDROOT
BRANCH   1   2
ATOM      2  N   UNL A   1      35.857  20.540  25.425  1.00  0.00    -0.352 N 
ATOM      3  C   UNL A   1      34.567  20.940  25.256  1.00  0.00     0.244 C 
ATOM      4  O   UNL A   1      33.675  20.404  25.910  1.00  0.00    -0.270 OA
ATOM      5  H   UNL A   1      35.989  19.880  26.143  1.00  0.00     0.163 HD
BRANCH   3   6
ATOM      6  C   UNL A   1      34.218  21.942  24.229  1.00  0.00     0.072 C 
ATOM      7  C   UNL A   1      33.936  23.216  24.529  1.00  0.00     0.024 C 
BRANCH   7   8
ATOM      8  C   UNL A   1      33.645  24.222  23.563  1.00  0.00     0.028 A 
ATOM      9  C   UNL A   1      33.406  26.384  22.647  1.00  0.00     0.051 A 
ATOM     10  C   UNL A   1      32.806  25.611  21.677  1.00  0.00     0.079 A 
ATOM     11  C   UNL A   1      33.984  25.559  23.666  1.00  0.00     0.033 A 
ATOM     12  S   UNL A   1      32.790  23.950  22.095  1.00  0.00    -0.144 S 
BRANCH   9  13
ATOM     13  C   UNL A   1      33.528  27.825  22.625  1.00  0.00     0.252 C 
ATOM     14  N   UNL A   1      32.870  28.586  23.552  1.00  0.00    -0.347 N 
ATOM     15  H   UNL A   1      33.275  29.479  23.641  1.00  0.00     0.164 HD
ATOM     16  O   UNL A   1      34.318  28.383  21.867  1.00  0.00    -0.269 OA
BRANCH  14  17
ATOM     17  C   UNL A   1      31.707  28.420  24.458  1.00  0.00     0.038 C 
ATOM     18  C   UNL A   1      30.498  28.064  23.571  1.00  0.00     0.034 C 
ATOM     19  C   UNL A   1      31.821  27.371  25.586  1.00  0.00     0.028 C 
ATOM     20  C   UNL A   1      31.441  29.794  25.134  1.00  0.00     0.028 C 
ATOM     21  C   UNL A   1      32.873  27.709  26.637  1.00  0.00     0.002 C 
ATOM     22  C   UNL A   1      32.504  30.152  26.178  1.00  0.00     0.002 C 
ATOM     23  C   UNL A   1      32.628  29.077  27.253  1.00  0.00     0.000 C 
ENDBRANCH  14  17
ENDBRANCH   9  13
ENDBRANCH   7   8
ENDBRANCH   3   6
ENDBRANCH   1   2
BRANCH   1  24
ATOM     24  C   UNL A   1      38.131  19.823  24.820  1.00  0.00     0.042 C 
BRANCH  24  25
ATOM     25  C   UNL A   1      39.051  19.975  26.030  1.00  0.00     0.118 C 
BRANCH  25  26
ATOM     26  N   UNL A   1      40.278  19.204  25.880  1.00  0.00    -0.352 N 
ATOM     27  C   UNL A   1      41.589  19.597  25.970  1.00  0.00     0.251 C 
ATOM     28  H   UNL A   1      40.146  18.249  25.684  1.00  0.00     0.163 HD
ATOM     29  O   UNL A   1      42.476  18.838  25.588  1.00  0.00    -0.269 OA
BRANCH  27  30
ATOM     30  C   UNL A   1      41.947  20.925  26.511  1.00  0.00     0.039 A 
ATOM     31  C   UNL A   1      42.306  21.940  25.618  1.00  0.00     0.014 A 
ATOM     32  C   UNL A   1      41.977  21.163  27.887  1.00  0.00     0.014 A 
ATOM     33  C   UNL A   1      42.642  23.206  26.102  1.00  0.00     0.010 A 
ATOM     34  C   UNL A   1      42.244  22.444  28.366  1.00  0.00     0.010 A 
ATOM     35  C   UNL A   1      42.581  23.477  27.478  1.00  0.00    -0.014 A 
BRANCH  35  36
ATOM     36  C   UNL A   1      42.855  24.838  28.005  1.00  0.00     0.031 A 
ATOM     37  C   UNL A   1      44.246  25.227  28.425  1.00  0.00     0.074 A 
ATOM     38  C   UNL A   1      41.835  25.703  28.163  1.00  0.00     0.049 A 
ATOM     39  N   UNL A   1      44.663  26.340  28.971  1.00  0.00    -0.248 NA
ATOM     40  C   UNL A   1      45.302  24.223  28.228  1.00  0.00     0.031 C 
ATOM     41  C   UNL A   1      40.435  25.428  27.834  1.00  0.00     0.029 A 
ATOM     42  N   UNL A   1      41.815  26.984  28.654  1.00  0.00    -0.354 N 
ATOM     43  C   UNL A   1      46.022  26.167  29.196  1.00  0.00     0.074 A 
ATOM     44  C   UNL A   1      46.351  24.822  28.772  1.00  0.00     0.031 C 
ATOM     45  C   UNL A   1      39.697  26.515  28.112  1.00  0.00     0.029 A 
ATOM     46  C   UNL A   1      40.562  27.546  28.675  1.00  0.00     0.049 A 
ATOM     47  H   UNL A   1      42.623  27.456  28.962  1.00  0.00     0.167 HD
ATOM     48  C   UNL A   1      46.919  27.053  29.692  1.00  0.00     0.037 A 
ATOM     49  C   UNL A   1      40.154  28.753  29.109  1.00  0.00     0.037 A 
ATOM     50  C   UNL A   1      46.592  28.397  30.093  1.00  0.00     0.049 A 
ATOM     51  C   UNL A   1      41.167  29.715  29.664  1.00  0.00     0.074 A 
ATOM     52  C   UNL A   1      47.439  29.391  30.551  1.00  0.00     0.029 A 
ATOM     53  N   UNL A   1      45.313  28.933  30.088  1.00  0.00    -0.354 N 
ATOM     54  N   UNL A   1      42.461  29.560  29.809  1.00  0.00    -0.248 NA
ATOM     55  C   UNL A   1      40.664  31.021  30.112  1.00  0.00     0.031 C 
ATOM     56  C   UNL A   1      46.667  30.514  30.865  1.00  0.00     0.029 A 
ATOM     57  C   UNL A   1      45.345  30.236  30.557  1.00  0.00     0.049 A 
ATOM     58  H   UNL A   1      44.502  28.458  29.794  1.00  0.00     0.167 HD
ATOM     59  C   UNL A   1      42.930  30.754  30.340  1.00  0.00     0.074 A 
ATOM     60  C   UNL A   1      41.784  31.630  30.476  1.00  0.00     0.031 C 
ATOM     61  C   UNL A   1      44.196  31.096  30.684  1.00  0.00     0.037 A 
BRANCH  48  62
ATOM     62  C   UNL A   1      48.343  26.597  29.825  1.00  0.00     0.057 A 
ATOM     63  C   UNL A   1      49.294  26.838  28.824  1.00  0.00     0.134 A 
ATOM     64  C   UNL A   1      48.780  25.941  30.984  1.00  0.00     0.134 A 
ATOM     65  F   UNL A   1      48.941  27.452  27.685  1.00  0.00    -0.206 F 
ATOM     66  C   UNL A   1      50.619  26.420  28.958  1.00  0.00     0.040 A 
ATOM     67  C   UNL A   1      50.109  25.543  31.141  1.00  0.00     0.040 A 
ATOM     68  F   UNL A   1      47.925  25.684  31.985  1.00  0.00    -0.206 F 
ATOM     69  C   UNL A   1      51.031  25.776  30.124  1.00  0.00     0.006 A 
ENDBRANCH  48  62
BRANCH  49  70
ATOM     70  C   UNL A   1      38.721  29.129  29.018  1.00  0.00     0.057 A 
ATOM     71  C   UNL A   1      38.168  29.572  27.811  1.00  0.00     0.134 A 
ATOM     72  C   UNL A   1      37.873  29.060  30.129  1.00  0.00     0.134 A 
ATOM     73  F   UNL A   1      38.934  29.677  26.715  1.00  0.00    -0.206 F 
ATOM     74  C   UNL A   1      36.827  29.950  27.715  1.00  0.00     0.040 A 
ATOM     75  C   UNL A   1      36.524  29.410  30.042  1.00  0.00     0.040 A 
ATOM     76  F   UNL A   1      38.340  28.635  31.313  1.00  0.00    -0.206 F 
ATOM     77  C   UNL A   1      36.000  29.864  28.834  1.00  0.00     0.006 A 
ENDBRANCH  49  70
BRANCH  61  78
ATOM     78  C   UNL A   1      44.410  32.484  31.213  1.00  0.00     0.057 A 
ATOM     79  C   UNL A   1      44.381  32.765  32.584  1.00  0.00     0.134 A 
ATOM     80  C   UNL A   1      44.685  33.543  30.340  1.00  0.00     0.134 A 
ATOM     81  F   UNL A   1      44.109  31.796  33.472  1.00  0.00    -0.206 F 
ATOM     82  C   UNL A   1      44.592  34.057  33.068  1.00  0.00     0.040 A 
ATOM     83  C   UNL A   1      44.926  34.834  30.813  1.00  0.00     0.040 A 
ATOM     84  F   UNL A   1      44.737  33.340  29.015  1.00  0.00    -0.206 F 
ATOM     85  C   UNL A   1      44.874  35.094  32.180  1.00  0.00     0.006 A 
ENDBRANCH  61  78
ENDBRANCH  35  36
ENDBRANCH  27  30
ENDBRANCH  25  26
ENDBRANCH  24  25
ENDBRANCH   1  24
TORSDOF 13
ENDMDL
MODEL 3
REMARK VINA RESULT:     -11.8      1.299      1.947
REMARK SMILES CC1(NC(=O)c2csc(/C=C/C(=O)NCCCNC(=O)c3ccc(-c4c5nc(c(-c6c(F)cccc6F)c6ccc([nH]6)c(-c6c(F)cccc6F)c6nc(c(-c7c(F)cccc7F)c7ccc4[nH]7)C=C6)C=C5)cc3)c2)CCCCC1
REMARK SMILES IDX 15 1 14 2 12 3 13 4 11 6 10 7 9 8 6 9 7 10 75 11 8 12 4 13
REMARK SMILES IDX 3 14 5 16 2 17 1 18 76 19 80 20 77 21 79 22 78 23 16 24
REMARK SMILES IDX 17 25 18 26 19 27 20 29 21 30 22 31 74 32 23 33 73 34 24 35
REMARK SMILES IDX 25 36 26 37 67 38 27 39 72 40 66 41 68 42 28 43 71 44 65 45
REMARK SMILES IDX 64 46 29 48 55 49 38 50 54 51 39 52 42 53 53 54 69 55 40 56
REMARK SMILES IDX 41 57 52 59 70 60 43 61 30 62 31 63 36 64 32 65 33 66 35 67
REMARK SMILES IDX 37 68 34 69 56 70 57 71 62 72 58 73 59 74 61 75 63 76 60 77
REMARK SMILES IDX 44 78 45 79 50 80 46 81 47 82 49 83 51 84 48 85
REMARK H PARENT 14 5 3 15 18 28 68 47 42 58
REMARK Flexibility Score: inf
ROOT
ATOM      1  C   UNL A   1      36.703  20.616  24.674  1.00  0.00     0.118 C 
ENDROOT
BRANCH   1   2
ATOM      2  N   UNL A   1      35.506  20.328  25.449  1.00  0.00    -0.352 N 
ATOM      3  C   UNL A   1      34.232  20.788  25.329  1.00  0.00     0.244 C 
ATOM      4  O   UNL A   1      33.350  20.328  26.050  1.00  0.00    -0.270 OA
ATOM      5  H   UNL A   1      35.642  19.691  26.187  1.00  0.00     0.163 HD
BRANCH   3   6
ATOM      6  C   UNL A   1      33.881  21.766  24.278  1.00  0.00     0.072 C 
ATOM      7  C   UNL A   1      33.932  23.089  24.476  1.00  0.00     0.024 C 
BRANCH   7   8
ATOM      8  C   UNL A   1      33.650  24.061  23.473  1.00  0.00     0.028 A 
ATOM      9  C   UNL A   1      33.380  26.191  22.493  1.00  0.00     0.051 A 
ATOM     10  C   UNL A   1      32.848  25.375  21.518  1.00  0.00     0.079 A 
ATOM     11  C   UNL A   1      33.939  25.411  23.556  1.00  0.00     0.033 A 
ATOM     12  S   UNL A   1      32.869  23.725  21.977  1.00  0.00    -0.144 S 
BRANCH   9  13
ATOM     13  C   UNL A   1      33.454  27.634  22.440  1.00  0.00     0.252 C 
ATOM     14  N   UNL A   1      32.612  28.397  23.202  1.00  0.00    -0.347 N 
ATOM     15  H   UNL A   1      32.964  29.308  23.331  1.00  0.00     0.164 HD
ATOM     16  O   UNL A   1      34.351  28.200  21.820  1.00  0.00    -0.269 OA
BRANCH  14  17
ATOM     17  C   UNL A   1      31.308  28.211  23.886  1.00  0.00     0.038 C 
ATOM     18  C   UNL A   1      30.265  27.933  22.787  1.00  0.00     0.034 C 
ATOM     19  C   UNL A   1      31.211  27.102  24.956  1.00  0.00     0.028 C 
ATOM     20  C   UNL A   1      30.951  29.554  24.583  1.00  0.00     0.028 C 
ATOM     21  C   UNL A   1      32.072  27.358  26.188  1.00  0.00     0.002 C 
ATOM     22  C   UNL A   1      31.825  29.830  25.811  1.00  0.00     0.002 C 
ATOM     23  C   UNL A   1      31.746  28.698  26.829  1.00  0.00     0.000 C 
ENDBRANCH  14  17
ENDBRANCH   9  13
ENDBRANCH   7   8
ENDBRANCH   3   6
ENDBRANCH   1   2
BRANCH   1  24
ATOM     24  C   UNL A   1      37.791  19.575  24.933  1.00  0.00     0.042 C 
BRANCH  24  25
ATOM     25  C   UNL A   1      38.970  20.125  25.734  1.00  0.00     0.118 C 
BRANCH  25  26
ATOM     26  N   UNL A   1      40.035  19.142  25.879  1.00  0.00    -0.352 N 
ATOM     27  C   UNL A   1      41.377  19.315  26.103  1.00  0.00     0.251 C 
ATOM     28  H   UNL A   1      39.745  18.204  25.806  1.00  0.00     0.163 HD
ATOM     29  O   UNL A   1      42.140  18.361  25.970  1.00  0.00    -0.269 OA
BRANCH  27  30
ATOM     30  C   UNL A   1      41.917  20.634  26.492  1.00  0.00     0.039 A 
ATOM     31  C   UNL A   1      42.296  21.528  25.487  1.00  0.00     0.014 A 
ATOM     32  C   UNL A   1      42.097  20.976  27.836  1.00  0.00     0.014 A 
ATOM     33  C   UNL A   1      42.802  22.784  25.827  1.00  0.00     0.010 A 
ATOM     34  C   UNL A   1      42.537  22.254  28.174  1.00  0.00     0.010 A 
ATOM     35  C   UNL A   1      42.896  23.170  27.174  1.00  0.00    -0.014 A 
BRANCH  35  36
ATOM     36  C   UNL A   1      43.355  24.530  27.553  1.00  0.00     0.031 A 
ATOM     37  C   UNL A   1      42.364  25.578  27.978  1.00  0.00     0.074 A 
ATOM     38  C   UNL A   1      44.663  24.838  27.451  1.00  0.00     0.049 A 
ATOM     39  N   UNL A   1      42.568  26.836  28.276  1.00  0.00    -0.248 NA
ATOM     40  C   UNL A   1      40.955  25.164  28.055  1.00  0.00     0.031 C 
ATOM     41  C   UNL A   1      45.715  23.921  27.008  1.00  0.00     0.029 A 
ATOM     42  N   UNL A   1      45.327  26.012  27.700  1.00  0.00    -0.354 N 
ATOM     43  C   UNL A   1      41.317  27.366  28.561  1.00  0.00     0.074 A 
ATOM     44  C   UNL A   1      40.353  26.306  28.353  1.00  0.00     0.031 C 
ATOM     45  C   UNL A   1      46.895  24.561  27.037  1.00  0.00     0.029 A 
ATOM     46  C   UNL A   1      46.678  25.940  27.461  1.00  0.00     0.049 A 
ATOM     47  H   UNL A   1      44.879  26.829  28.020  1.00  0.00     0.167 HD
ATOM     48  C   UNL A   1      41.001  28.616  28.977  1.00  0.00     0.037 A 
ATOM     49  C   UNL A   1      47.633  26.883  27.561  1.00  0.00     0.037 A 
ATOM     50  C   UNL A   1      41.965  29.661  29.203  1.00  0.00     0.049 A 
ATOM     51  C   UNL A   1      47.256  28.265  28.016  1.00  0.00     0.074 A 
ATOM     52  C   UNL A   1      41.753  30.943  29.682  1.00  0.00     0.029 A 
ATOM     53  N   UNL A   1      43.326  29.546  28.961  1.00  0.00    -0.354 N 
ATOM     54  N   UNL A   1      46.077  28.733  28.345  1.00  0.00    -0.248 NA
ATOM     55  C   UNL A   1      48.343  29.249  28.117  1.00  0.00     0.031 C 
ATOM     56  C   UNL A   1      42.978  31.616  29.688  1.00  0.00     0.029 A 
ATOM     57  C   UNL A   1      43.961  30.740  29.258  1.00  0.00     0.049 A 
ATOM     58  H   UNL A   1      43.774  28.735  28.627  1.00  0.00     0.167 HD
ATOM     59  C   UNL A   1      46.282  30.056  28.716  1.00  0.00     0.074 A 
ATOM     60  C   UNL A   1      47.702  30.310  28.586  1.00  0.00     0.031 C 
ATOM     61  C   UNL A   1      45.377  30.977  29.127  1.00  0.00     0.037 A 
BRANCH  48  62
ATOM     62  C   UNL A   1      39.551  28.921  29.218  1.00  0.00     0.057 A 
ATOM     63  C   UNL A   1      38.711  29.378  28.194  1.00  0.00     0.134 A 
ATOM     64  C   UNL A   1      38.977  28.721  30.481  1.00  0.00     0.134 A 
ATOM     65  F   UNL A   1      39.198  29.601  26.964  1.00  0.00    -0.206 F 
ATOM     66  C   UNL A   1      37.360  29.651  28.422  1.00  0.00     0.040 A 
ATOM     67  C   UNL A   1      37.622  28.964  30.714  1.00  0.00     0.040 A 
ATOM     68  F   UNL A   1      39.722  28.279  31.506  1.00  0.00    -0.206 F 
ATOM     69  C   UNL A   1      36.811  29.436  29.685  1.00  0.00     0.006 A 
ENDBRANCH  48  62
BRANCH  49  70
ATOM     70  C   UNL A   1      49.044  26.547  27.244  1.00  0.00     0.057 A 
ATOM     71  C   UNL A   1      49.567  26.765  25.964  1.00  0.00     0.134 A 
ATOM     72  C   UNL A   1      49.900  25.995  28.205  1.00  0.00     0.134 A 
ATOM     73  F   UNL A   1      48.790  27.273  24.996  1.00  0.00    -0.206 F 
ATOM     74  C   UNL A   1      50.884  26.432  25.645  1.00  0.00     0.040 A 
ATOM     75  C   UNL A   1      51.227  25.682  27.907  1.00  0.00     0.040 A 
ATOM     76  F   UNL A   1      49.462  25.769  29.452  1.00  0.00    -0.206 F 
ATOM     77  C   UNL A   1      51.720  25.892  26.621  1.00  0.00     0.006 A 
ENDBRANCH  49  70
BRANCH  61  78
ATOM     78  C   UNL A   1      45.900  32.335  29.494  1.00  0.00     0.057 A 
ATOM     79  C   UNL A   1      45.956  33.381  28.565  1.00  0.00     0.134 A 
ATOM     80  C   UNL A   1      46.320  32.607  30.801  1.00  0.00     0.134 A 
ATOM     81  F   UNL A   1      45.581  33.181  27.291  1.00  0.00    -0.206 F 
ATOM     82  C   UNL A   1      46.434  34.644  28.917  1.00  0.00     0.040 A 
ATOM     83  C   UNL A   1      46.773  33.874  31.173  1.00  0.00     0.040 A 
ATOM     84  F   UNL A   1      46.284  31.651  31.742  1.00  0.00    -0.206 F 
ATOM     85  C   UNL A   1      46.837  34.894  30.228  1.00  0.00     0.006 A 
ENDBRANCH  61  78
ENDBRANCH  35  36
ENDBRANCH  27  30
ENDBRANCH  25  26
ENDBRANCH  24  25
ENDBRANCH   1  24
TORSDOF 13
ENDMDL
