MODEL 1
REMARK VINA RESULT:     -11.3      0.000      0.000
REMARK SMILES C[C@H]1OCC[C@H]1C(=O)Nc1ccsc1C(=O)NCCCNC(=O)c1ccc(-c2c3nc(c(-c4c(F)cccc4F)c4ccc([nH]4)c(-c4c(F)cccc4F)c4nc(c(-c5c(F)cccc5F)c5ccc2[nH]5)C=C4)C=C3)cc1
REMARK SMILES IDX 19 1 18 2 17 3 15 4 16 5 14 7 10 8 11 9 12 10 13 11 9 12
REMARK SMILES IDX 7 13 8 14 6 16 1 17 2 18 3 19 4 20 5 21 20 22 21 23 22 24
REMARK SMILES IDX 23 26 24 27 25 28 77 29 26 30 76 31 27 32 28 33 29 34 70 35
REMARK SMILES IDX 30 36 75 37 69 38 71 39 31 40 74 41 68 42 67 43 32 45 58 46
REMARK SMILES IDX 41 47 57 48 42 49 45 50 56 51 72 52 43 53 44 54 55 56 73 57
REMARK SMILES IDX 46 58 33 59 34 60 39 61 35 62 36 63 38 64 40 65 37 66 59 67
REMARK SMILES IDX 60 68 65 69 61 70 62 71 64 72 66 73 63 74 47 75 48 76 53 77
REMARK SMILES IDX 49 78 50 79 52 80 54 81 51 82
REMARK H PARENT 17 6 9 15 21 25 71 44 45 55
REMARK Flexibility Score: inf
ROOT
ATOM      1  C   UNL A   1      37.758  19.894  24.874  1.00  0.00     0.042 C 
ENDROOT
BRANCH   1   2
ATOM      2  C   UNL A   1      36.692  20.957  24.783  1.00  0.00     0.118 C 
BRANCH   2   3
ATOM      3  N   UNL A   1      35.830  21.113  25.921  1.00  0.00    -0.351 N 
ATOM      4  C   UNL A   1      34.456  21.075  26.010  1.00  0.00     0.263 C 
ATOM      5  O   UNL A   1      34.042  21.227  27.167  1.00  0.00    -0.268 OA
ATOM      6  H   UNL A   1      36.296  21.272  26.773  1.00  0.00     0.163 HD
BRANCH   4   7
ATOM      7  C   UNL A   1      33.558  20.904  24.858  1.00  0.00     0.115 A 
ATOM      8  C   UNL A   1      32.994  21.722  23.876  1.00  0.00     0.065 A 
ATOM      9  C   UNL A   1      32.247  20.968  22.918  1.00  0.00     0.038 A 
ATOM     10  C   UNL A   1      32.154  19.635  23.225  1.00  0.00     0.068 A 
ATOM     11  S   UNL A   1      33.002  19.263  24.644  1.00  0.00    -0.137 S 
BRANCH   8  12
ATOM     12  N   UNL A   1      33.278  23.061  23.672  1.00  0.00    -0.324 N 
ATOM     13  C   UNL A   1      32.508  24.176  23.832  1.00  0.00     0.230 C 
ATOM     14  O   UNL A   1      33.103  25.254  23.672  1.00  0.00    -0.274 OA
ATOM     15  H   UNL A   1      34.193  23.239  23.357  1.00  0.00     0.169 HD
BRANCH  13  16
ATOM     16  C   UNL A   1      31.042  24.236  24.273  1.00  0.00     0.110 C 
ATOM     17  C   UNL A   1      31.893  24.040  26.688  1.00  0.00     0.039 C 
ATOM     18  C   UNL A   1      30.791  24.483  25.743  1.00  0.00     0.127 C 
ATOM     19  O   UNL A   1      30.495  25.879  25.864  1.00  0.00    -0.378 OA
ATOM     20  C   UNL A   1      29.893  26.313  24.633  1.00  0.00     0.161 C 
ATOM     21  C   UNL A   1      30.115  25.227  23.600  1.00  0.00     0.044 C 
ENDBRANCH  13  16
ENDBRANCH   8  12
ENDBRANCH   4   7
ENDBRANCH   2   3
ENDBRANCH   1   2
BRANCH   1  22
ATOM     22  C   UNL A   1      38.896  20.221  25.812  1.00  0.00     0.118 C 
BRANCH  22  23
ATOM     23  N   UNL A   1      39.936  19.203  25.858  1.00  0.00    -0.352 N 
ATOM     24  C   UNL A   1      41.294  19.296  26.077  1.00  0.00     0.251 C 
ATOM     25  H   UNL A   1      39.612  18.285  25.706  1.00  0.00     0.163 HD
ATOM     26  O   UNL A   1      41.994  18.299  25.967  1.00  0.00    -0.269 OA
BRANCH  24  27
ATOM     27  C   UNL A   1      41.919  20.600  26.405  1.00  0.00     0.039 A 
ATOM     28  C   UNL A   1      42.227  21.493  25.376  1.00  0.00     0.014 A 
ATOM     29  C   UNL A   1      42.204  20.950  27.722  1.00  0.00     0.014 A 
ATOM     30  C   UNL A   1      42.737  22.759  25.683  1.00  0.00     0.010 A 
ATOM     31  C   UNL A   1      42.545  22.257  28.035  1.00  0.00     0.010 A 
ATOM     32  C   UNL A   1      42.856  23.170  27.020  1.00  0.00    -0.014 A 
BRANCH  32  33
ATOM     33  C   UNL A   1      43.370  24.511  27.399  1.00  0.00     0.031 A 
ATOM     34  C   UNL A   1      42.405  25.573  27.865  1.00  0.00     0.074 A 
ATOM     35  C   UNL A   1      44.677  24.805  27.251  1.00  0.00     0.049 A 
ATOM     36  N   UNL A   1      42.622  26.838  28.124  1.00  0.00    -0.248 NA
ATOM     37  C   UNL A   1      40.994  25.171  28.012  1.00  0.00     0.031 C 
ATOM     38  C   UNL A   1      45.706  23.890  26.754  1.00  0.00     0.029 A 
ATOM     39  N   UNL A   1      45.362  25.969  27.497  1.00  0.00    -0.354 N 
ATOM     40  C   UNL A   1      41.377  27.379  28.428  1.00  0.00     0.074 A 
ATOM     41  C   UNL A   1      40.401  26.332  28.243  1.00  0.00     0.031 C 
ATOM     42  C   UNL A   1      46.895  24.514  26.769  1.00  0.00     0.029 A 
ATOM     43  C   UNL A   1      46.707  25.885  27.230  1.00  0.00     0.049 A 
ATOM     44  H   UNL A   1      44.931  26.787  27.834  1.00  0.00     0.167 HD
ATOM     45  C   UNL A   1      41.075  28.625  28.861  1.00  0.00     0.037 A 
ATOM     46  C   UNL A   1      47.678  26.812  27.342  1.00  0.00     0.037 A 
ATOM     47  C   UNL A   1      42.055  29.650  29.097  1.00  0.00     0.049 A 
ATOM     48  C   UNL A   1      47.322  28.185  27.842  1.00  0.00     0.074 A 
ATOM     49  C   UNL A   1      41.867  30.924  29.601  1.00  0.00     0.029 A 
ATOM     50  N   UNL A   1      43.414  29.509  28.853  1.00  0.00    -0.354 N 
ATOM     51  N   UNL A   1      46.150  28.664  28.187  1.00  0.00    -0.248 NA
ATOM     52  C   UNL A   1      48.425  29.146  27.979  1.00  0.00     0.031 C 
ATOM     53  C   UNL A   1      43.105  31.571  29.617  1.00  0.00     0.029 A 
ATOM     54  C   UNL A   1      44.073  30.681  29.180  1.00  0.00     0.049 A 
ATOM     55  H   UNL A   1      43.843  28.698  28.499  1.00  0.00     0.167 HD
ATOM     56  C   UNL A   1      46.381  29.964  28.617  1.00  0.00     0.074 A 
ATOM     57  C   UNL A   1      47.806  30.195  28.499  1.00  0.00     0.031 C 
ATOM     58  C   UNL A   1      45.495  30.884  29.073  1.00  0.00     0.037 A 
BRANCH  45  59
ATOM     59  C   UNL A   1      39.629  28.938  29.123  1.00  0.00     0.057 A 
ATOM     60  C   UNL A   1      39.058  28.801  30.397  1.00  0.00     0.134 A 
ATOM     61  C   UNL A   1      38.800  29.401  28.094  1.00  0.00     0.134 A 
ATOM     62  F   UNL A   1      39.791  28.348  31.425  1.00  0.00    -0.206 F 
ATOM     63  C   UNL A   1      37.710  29.080  30.629  1.00  0.00     0.040 A 
ATOM     64  C   UNL A   1      37.458  29.715  28.321  1.00  0.00     0.040 A 
ATOM     65  F   UNL A   1      39.280  29.560  26.851  1.00  0.00    -0.206 F 
ATOM     66  C   UNL A   1      36.909  29.548  29.590  1.00  0.00     0.006 A 
ENDBRANCH  45  59
BRANCH  46  67
ATOM     67  C   UNL A   1      49.084  26.468  27.007  1.00  0.00     0.057 A 
ATOM     68  C   UNL A   1      49.589  26.672  25.717  1.00  0.00     0.134 A 
ATOM     69  C   UNL A   1      49.951  25.915  27.957  1.00  0.00     0.134 A 
ATOM     70  F   UNL A   1      48.803  27.183  24.758  1.00  0.00    -0.206 F 
ATOM     71  C   UNL A   1      50.895  26.316  25.376  1.00  0.00     0.040 A 
ATOM     72  C   UNL A   1      51.269  25.580  27.637  1.00  0.00     0.040 A 
ATOM     73  F   UNL A   1      49.534  25.704  29.215  1.00  0.00    -0.206 F 
ATOM     74  C   UNL A   1      51.741  25.772  26.340  1.00  0.00     0.006 A 
ENDBRANCH  46  67
BRANCH  58  75
ATOM     75  C   UNL A   1      46.045  32.203  29.530  1.00  0.00     0.057 A 
ATOM     76  C   UNL A   1      46.480  32.414  30.844  1.00  0.00     0.134 A 
ATOM     77  C   UNL A   1      46.180  33.265  28.625  1.00  0.00     0.134 A 
ATOM     78  F   UNL A   1      46.368  31.440  31.762  1.00  0.00    -0.206 F 
ATOM     79  C   UNL A   1      47.006  33.641  31.249  1.00  0.00     0.040 A 
ATOM     80  C   UNL A   1      46.732  34.487  29.010  1.00  0.00     0.040 A 
ATOM     81  F   UNL A   1      45.794  33.126  27.348  1.00  0.00    -0.206 F 
ATOM     82  C   UNL A   1      47.140  34.680  30.329  1.00  0.00     0.006 A 
ENDBRANCH  58  75
ENDBRANCH  32  33
ENDBRANCH  24  27
ENDBRANCH  22  23
ENDBRANCH   1  22
TORSDOF 12
ENDMDL
MODEL 2
REMARK VINA RESULT:     -11.3      1.482      6.415
REMARK SMILES C[C@H]1OCC[C@H]1C(=O)Nc1ccsc1C(=O)NCCCNC(=O)c1ccc(-c2c3nc(c(-c4c(F)cccc4F)c4ccc([nH]4)c(-c4c(F)cccc4F)c4nc(c(-c5c(F)cccc5F)c5ccc2[nH]5)C=C4)C=C3)cc1
REMARK SMILES IDX 19 1 18 2 17 3 15 4 16 5 14 7 10 8 11 9 12 10 13 11 9 12
REMARK SMILES IDX 7 13 8 14 6 16 1 17 2 18 3 19 4 20 5 21 20 22 21 23 22 24
REMARK SMILES IDX 23 26 24 27 25 28 77 29 26 30 76 31 27 32 28 33 29 34 70 35
REMARK SMILES IDX 30 36 75 37 69 38 71 39 31 40 74 41 68 42 67 43 32 45 58 46
REMARK SMILES IDX 41 47 57 48 42 49 45 50 56 51 72 52 43 53 44 54 55 56 73 57
REMARK SMILES IDX 46 58 33 59 34 60 39 61 35 62 36 63 38 64 40 65 37 66 59 67
REMARK SMILES IDX 60 68 65 69 61 70 62 71 64 72 66 73 63 74 47 75 48 76 53 77
REMARK SMILES IDX 49 78 50 79 52 80 54 81 51 82
REMARK H PARENT 17 6 9 15 21 25 71 44 45 55
REMARK Flexibility Score: inf
ROOT
ATOM      1  C   UNL A   1      38.077  19.590  24.996  1.00  0.00     0.042 C 
ENDROOT
BRANCH   1   2
ATOM      2  C   UNL A   1      37.025  20.651  24.788  1.00  0.00     0.118 C 
BRANCH   2   3
ATOM      3  N   UNL A   1      36.313  21.097  25.952  1.00  0.00    -0.351 N 
ATOM      4  C   UNL A   1      34.969  21.338  26.136  1.00  0.00     0.263 C 
ATOM      5  O   UNL A   1      34.696  21.695  27.290  1.00  0.00    -0.268 OA
ATOM      6  H   UNL A   1      36.874  21.256  26.744  1.00  0.00     0.163 HD
BRANCH   4   7
ATOM      7  C   UNL A   1      33.956  21.219  25.077  1.00  0.00     0.115 A 
ATOM      8  C   UNL A   1      33.386  22.054  24.114  1.00  0.00     0.065 A 
ATOM      9  C   UNL A   1      32.482  21.346  23.261  1.00  0.00     0.038 A 
ATOM     10  C   UNL A   1      32.288  20.041  23.634  1.00  0.00     0.068 A 
ATOM     11  S   UNL A   1      33.223  19.637  24.987  1.00  0.00    -0.137 S 
BRANCH   8  12
ATOM     12  N   UNL A   1      33.780  23.349  23.825  1.00  0.00    -0.324 N 
ATOM     13  C   UNL A   1      33.344  24.548  24.308  1.00  0.00     0.230 C 
ATOM     14  O   UNL A   1      33.991  25.536  23.926  1.00  0.00    -0.274 OA
ATOM     15  H   UNL A   1      34.498  23.416  23.156  1.00  0.00     0.169 HD
BRANCH  13  16
ATOM     16  C   UNL A   1      32.225  24.787  25.327  1.00  0.00     0.110 C 
ATOM     17  C   UNL A   1      30.568  24.487  23.387  1.00  0.00     0.039 C 
ATOM     18  C   UNL A   1      30.824  24.434  24.882  1.00  0.00     0.127 C 
ATOM     19  O   UNL A   1      30.546  23.144  25.439  1.00  0.00    -0.378 OA
ATOM     20  C   UNL A   1      31.300  23.014  26.656  1.00  0.00     0.161 C 
ATOM     21  C   UNL A   1      32.323  24.131  26.689  1.00  0.00     0.044 C 
ENDBRANCH  13  16
ENDBRANCH   8  12
ENDBRANCH   4   7
ENDBRANCH   2   3
ENDBRANCH   1   2
BRANCH   1  22
ATOM     22  C   UNL A   1      39.141  19.947  26.006  1.00  0.00     0.118 C 
BRANCH  22  23
ATOM     23  N   UNL A   1      40.358  19.156  25.888  1.00  0.00    -0.352 N 
ATOM     24  C   UNL A   1      41.682  19.488  26.082  1.00  0.00     0.251 C 
ATOM     25  H   UNL A   1      40.210  18.220  25.623  1.00  0.00     0.163 HD
ATOM     26  O   UNL A   1      42.554  18.670  25.820  1.00  0.00    -0.269 OA
BRANCH  24  27
ATOM     27  C   UNL A   1      42.062  20.837  26.565  1.00  0.00     0.039 A 
ATOM     28  C   UNL A   1      42.404  21.827  25.640  1.00  0.00     0.014 A 
ATOM     29  C   UNL A   1      42.082  21.135  27.924  1.00  0.00     0.014 A 
ATOM     30  C   UNL A   1      42.680  23.126  26.082  1.00  0.00     0.010 A 
ATOM     31  C   UNL A   1      42.186  22.452  28.346  1.00  0.00     0.010 A 
ATOM     32  C   UNL A   1      42.526  23.461  27.436  1.00  0.00    -0.014 A 
BRANCH  32  33
ATOM     33  C   UNL A   1      42.784  24.830  27.953  1.00  0.00     0.031 A 
ATOM     34  C   UNL A   1      44.188  25.227  28.337  1.00  0.00     0.074 A 
ATOM     35  C   UNL A   1      41.761  25.684  28.156  1.00  0.00     0.049 A 
ATOM     36  N   UNL A   1      44.613  26.318  28.921  1.00  0.00    -0.248 NA
ATOM     37  C   UNL A   1      45.253  24.242  28.075  1.00  0.00     0.031 C 
ATOM     38  C   UNL A   1      40.350  25.405  27.884  1.00  0.00     0.029 A 
ATOM     39  N   UNL A   1      41.755  26.964  28.651  1.00  0.00    -0.354 N 
ATOM     40  C   UNL A   1      45.976  26.132  29.121  1.00  0.00     0.074 A 
ATOM     41  C   UNL A   1      46.294  24.797  28.674  1.00  0.00     0.031 C 
ATOM     42  C   UNL A   1      39.621  26.494  28.179  1.00  0.00     0.029 A 
ATOM     43  C   UNL A   1      40.504  27.530  28.704  1.00  0.00     0.049 A 
ATOM     44  H   UNL A   1      42.570  27.434  28.941  1.00  0.00     0.167 HD
ATOM     45  C   UNL A   1      46.893  27.007  29.597  1.00  0.00     0.037 A 
ATOM     46  C   UNL A   1      40.114  28.745  29.132  1.00  0.00     0.037 A 
ATOM     47  C   UNL A   1      46.584  28.354  29.991  1.00  0.00     0.049 A 
ATOM     48  C   UNL A   1      41.152  29.708  29.641  1.00  0.00     0.074 A 
ATOM     49  C   UNL A   1      47.446  29.346  30.422  1.00  0.00     0.029 A 
ATOM     50  N   UNL A   1      45.309  28.901  29.990  1.00  0.00    -0.354 N 
ATOM     51  N   UNL A   1      42.447  29.541  29.765  1.00  0.00    -0.248 NA
ATOM     52  C   UNL A   1      40.677  31.033  30.062  1.00  0.00     0.031 C 
ATOM     53  C   UNL A   1      46.686  30.479  30.727  1.00  0.00     0.029 A 
ATOM     54  C   UNL A   1      45.359  30.212  30.429  1.00  0.00     0.049 A 
ATOM     55  H   UNL A   1      44.490  28.426  29.718  1.00  0.00     0.167 HD
ATOM     56  C   UNL A   1      42.944  30.749  30.238  1.00  0.00     0.074 A 
ATOM     57  C   UNL A   1      41.812  31.642  30.370  1.00  0.00     0.031 C 
ATOM     58  C   UNL A   1      44.222  31.090  30.535  1.00  0.00     0.037 A 
BRANCH  45  59
ATOM     59  C   UNL A   1      48.315  26.535  29.701  1.00  0.00     0.057 A 
ATOM     60  C   UNL A   1      48.800  25.880  30.843  1.00  0.00     0.134 A 
ATOM     61  C   UNL A   1      49.209  26.718  28.638  1.00  0.00     0.134 A 
ATOM     62  F   UNL A   1      48.001  25.685  31.904  1.00  0.00    -0.206 F 
ATOM     63  C   UNL A   1      50.126  25.456  30.938  1.00  0.00     0.040 A 
ATOM     64  C   UNL A   1      50.530  26.269  28.708  1.00  0.00     0.040 A 
ATOM     65  F   UNL A   1      48.814  27.332  27.513  1.00  0.00    -0.206 F 
ATOM     66  C   UNL A   1      50.993  25.643  29.863  1.00  0.00     0.006 A 
ENDBRANCH  45  59
BRANCH  46  67
ATOM     67  C   UNL A   1      38.683  29.138  29.068  1.00  0.00     0.057 A 
ATOM     68  C   UNL A   1      38.124  29.636  27.884  1.00  0.00     0.134 A 
ATOM     69  C   UNL A   1      37.843  29.043  30.183  1.00  0.00     0.134 A 
ATOM     70  F   UNL A   1      38.881  29.768  26.784  1.00  0.00    -0.206 F 
ATOM     71  C   UNL A   1      36.793  30.049  27.818  1.00  0.00     0.040 A 
ATOM     72  C   UNL A   1      36.501  29.425  30.125  1.00  0.00     0.040 A 
ATOM     73  F   UNL A   1      38.311  28.563  31.346  1.00  0.00    -0.206 F 
ATOM     74  C   UNL A   1      35.975  29.939  28.940  1.00  0.00     0.006 A 
ENDBRANCH  46  67
BRANCH  58  75
ATOM     75  C   UNL A   1      44.474  32.503  30.975  1.00  0.00     0.057 A 
ATOM     76  C   UNL A   1      44.487  32.871  32.326  1.00  0.00     0.134 A 
ATOM     77  C   UNL A   1      44.752  33.499  30.029  1.00  0.00     0.134 A 
ATOM     78  F   UNL A   1      44.219  31.966  33.280  1.00  0.00    -0.206 F 
ATOM     79  C   UNL A   1      44.741  34.185  32.719  1.00  0.00     0.040 A 
ATOM     80  C   UNL A   1      45.037  34.810  30.412  1.00  0.00     0.040 A 
ATOM     81  F   UNL A   1      44.768  33.210  28.719  1.00  0.00    -0.206 F 
ATOM     82  C   UNL A   1      45.025  35.158  31.761  1.00  0.00     0.006 A 
ENDBRANCH  58  75
ENDBRANCH  32  33
ENDBRANCH  24  27
ENDBRANCH  22  23
ENDBRANCH   1  22
TORSDOF 12
ENDMDL
MODEL 3
REMARK VINA RESULT:     -11.2      5.560     10.524
REMARK SMILES C[C@H]1OCC[C@H]1C(=O)Nc1ccsc1C(=O)NCCCNC(=O)c1ccc(-c2c3nc(c(-c4c(F)cccc4F)c4ccc([nH]4)c(-c4c(F)cccc4F)c4nc(c(-c5c(F)cccc5F)c5ccc2[nH]5)C=C4)C=C3)cc1
REMARK SMILES IDX 19 1 18 2 17 3 15 4 16 5 14 7 10 8 11 9 12 10 13 11 9 12
REMARK SMILES IDX 7 13 8 14 6 16 1 17 2 18 3 19 4 20 5 21 20 22 21 23 22 24
REMARK SMILES IDX 23 26 24 27 25 28 77 29 26 30 76 31 27 32 28 33 29 34 70 35
REMARK SMILES IDX 30 36 75 37 69 38 71 39 31 40 74 41 68 42 67 43 32 45 58 46
REMARK SMILES IDX 41 47 57 48 42 49 45 50 56 51 72 52 43 53 44 54 55 56 73 57
REMARK SMILES IDX 46 58 33 59 34 60 39 61 35 62 36 63 38 64 40 65 37 66 59 67
REMARK SMILES IDX 60 68 65 69 61 70 62 71 64 72 66 73 63 74 47 75 48 76 53 77
REMARK SMILES IDX 49 78 50 79 52 80 54 81 51 82
REMARK H PARENT 17 6 9 15 21 25 71 44 45 55
REMARK Flexibility Score: inf
ROOT
ATOM      1  C   UNL A   1      31.410  32.185  26.503  1.00  0.00     0.042 C 
ENDROOT
BRANCH   1   2
ATOM      2  C   UNL A   1      31.388  30.677  26.485  1.00  0.00     0.118 C 
BRANCH   2   3
ATOM      3  N   UNL A   1      32.589  30.015  26.058  1.00  0.00    -0.351 N 
ATOM      4  C   UNL A   1      32.764  28.965  25.184  1.00  0.00     0.263 C 
ATOM      5  O   UNL A   1      33.954  28.659  25.028  1.00  0.00    -0.268 OA
ATOM      6  H   UNL A   1      33.418  30.368  26.453  1.00  0.00     0.163 HD
BRANCH   4   7
ATOM      7  C   UNL A   1      31.664  28.249  24.521  1.00  0.00     0.115 A 
ATOM      8  C   UNL A   1      30.908  27.098  24.757  1.00  0.00     0.065 A 
ATOM      9  C   UNL A   1      29.868  26.935  23.788  1.00  0.00     0.038 A 
ATOM     10  C   UNL A   1      29.903  27.870  22.786  1.00  0.00     0.068 A 
ATOM     11  S   UNL A   1      31.158  28.984  23.020  1.00  0.00    -0.137 S 
BRANCH   8  12
ATOM     12  N   UNL A   1      30.962  26.309  25.892  1.00  0.00    -0.324 N 
ATOM     13  C   UNL A   1      31.369  25.020  26.070  1.00  0.00     0.230 C 
ATOM     14  O   UNL A   1      31.403  24.636  27.251  1.00  0.00    -0.274 OA
ATOM     15  H   UNL A   1      30.653  26.757  26.713  1.00  0.00     0.169 HD
BRANCH  13  16
ATOM     16  C   UNL A   1      31.869  24.048  24.997  1.00  0.00     0.110 C 
ATOM     17  C   UNL A   1      34.183  25.127  25.280  1.00  0.00     0.039 C 
ATOM     18  C   UNL A   1      33.369  23.920  24.852  1.00  0.00     0.127 C 
ATOM     19  O   UNL A   1      33.734  22.733  25.565  1.00  0.00    -0.378 OA
ATOM     20  C   UNL A   1      32.618  21.828  25.523  1.00  0.00     0.161 C 
ATOM     21  C   UNL A   1      31.409  22.606  25.043  1.00  0.00     0.044 C 
ENDBRANCH  13  16
ENDBRANCH   8  12
ENDBRANCH   4   7
ENDBRANCH   2   3
ENDBRANCH   1   2
BRANCH   1  22
ATOM     22  C   UNL A   1      32.574  32.790  27.251  1.00  0.00     0.118 C 
BRANCH  22  23
ATOM     23  N   UNL A   1      32.377  34.183  27.626  1.00  0.00    -0.352 N 
ATOM     24  C   UNL A   1      33.007  34.972  28.565  1.00  0.00     0.251 C 
ATOM     25  H   UNL A   1      31.668  34.643  27.121  1.00  0.00     0.163 HD
ATOM     26  O   UNL A   1      32.595  36.105  28.777  1.00  0.00    -0.269 OA
BRANCH  24  27
ATOM     27  C   UNL A   1      34.151  34.449  29.348  1.00  0.00     0.039 A 
ATOM     28  C   UNL A   1      33.917  33.828  30.578  1.00  0.00     0.014 A 
ATOM     29  C   UNL A   1      35.457  34.563  28.879  1.00  0.00     0.014 A 
ATOM     30  C   UNL A   1      34.981  33.255  31.283  1.00  0.00     0.010 A 
ATOM     31  C   UNL A   1      36.479  33.850  29.487  1.00  0.00     0.010 A 
ATOM     32  C   UNL A   1      36.266  33.219  30.719  1.00  0.00    -0.014 A 
BRANCH  32  33
ATOM     33  C   UNL A   1      37.425  32.603  31.415  1.00  0.00     0.031 A 
ATOM     34  C   UNL A   1      38.163  31.461  30.761  1.00  0.00     0.074 A 
ATOM     35  C   UNL A   1      37.765  33.004  32.656  1.00  0.00     0.049 A 
ATOM     36  N   UNL A   1      39.115  30.703  31.242  1.00  0.00    -0.248 NA
ATOM     37  C   UNL A   1      37.739  31.088  29.399  1.00  0.00     0.031 C 
ATOM     38  C   UNL A   1      37.097  34.055  33.425  1.00  0.00     0.029 A 
ATOM     39  N   UNL A   1      38.758  32.563  33.494  1.00  0.00    -0.354 N 
ATOM     40  C   UNL A   1      39.374  29.753  30.259  1.00  0.00     0.074 A 
ATOM     41  C   UNL A   1      38.427  29.976  29.192  1.00  0.00     0.031 C 
ATOM     42  C   UNL A   1      37.722  34.202  34.604  1.00  0.00     0.029 A 
ATOM     43  C   UNL A   1      38.804  33.228  34.695  1.00  0.00     0.049 A 
ATOM     44  H   UNL A   1      39.380  31.837  33.257  1.00  0.00     0.167 HD
ATOM     45  C   UNL A   1      40.338  28.804  30.227  1.00  0.00     0.037 A 
ATOM     46  C   UNL A   1      39.624  33.066  35.751  1.00  0.00     0.037 A 
ATOM     47  C   UNL A   1      41.314  28.619  31.266  1.00  0.00     0.049 A 
ATOM     48  C   UNL A   1      40.700  32.017  35.686  1.00  0.00     0.074 A 
ATOM     49  C   UNL A   1      42.376  27.734  31.304  1.00  0.00     0.029 A 
ATOM     50  N   UNL A   1      41.350  29.344  32.448  1.00  0.00    -0.354 N 
ATOM     51  N   UNL A   1      40.973  31.169  34.723  1.00  0.00    -0.248 NA
ATOM     52  C   UNL A   1      41.589  31.907  36.850  1.00  0.00     0.031 C 
ATOM     53  C   UNL A   1      43.027  27.891  32.531  1.00  0.00     0.029 A 
ATOM     54  C   UNL A   1      42.407  28.913  33.231  1.00  0.00     0.049 A 
ATOM     55  H   UNL A   1      40.717  30.056  32.694  1.00  0.00     0.167 HD
ATOM     56  C   UNL A   1      42.087  30.455  35.148  1.00  0.00     0.074 A 
ATOM     57  C   UNL A   1      42.443  30.977  36.451  1.00  0.00     0.031 C 
ATOM     58  C   UNL A   1      42.756  29.459  34.517  1.00  0.00     0.037 A 
BRANCH  45  59
ATOM     59  C   UNL A   1      40.391  27.909  29.022  1.00  0.00     0.057 A 
ATOM     60  C   UNL A   1      39.657  26.715  28.950  1.00  0.00     0.134 A 
ATOM     61  C   UNL A   1      41.168  28.252  27.908  1.00  0.00     0.134 A 
ATOM     62  F   UNL A   1      38.903  26.318  29.987  1.00  0.00    -0.206 F 
ATOM     63  C   UNL A   1      39.721  25.881  27.833  1.00  0.00     0.040 A 
ATOM     64  C   UNL A   1      41.215  27.442  26.771  1.00  0.00     0.040 A 
ATOM     65  F   UNL A   1      41.892  29.381  27.905  1.00  0.00    -0.206 F 
ATOM     66  C   UNL A   1      40.497  26.250  26.735  1.00  0.00     0.006 A 
ENDBRANCH  45  59
BRANCH  46  67
ATOM     67  C   UNL A   1      39.486  33.938  36.946  1.00  0.00     0.057 A 
ATOM     68  C   UNL A   1      40.103  35.195  36.997  1.00  0.00     0.134 A 
ATOM     69  C   UNL A   1      38.753  33.537  38.069  1.00  0.00     0.134 A 
ATOM     70  F   UNL A   1      40.833  35.631  35.960  1.00  0.00    -0.206 F 
ATOM     71  C   UNL A   1      40.018  36.008  38.128  1.00  0.00     0.040 A 
ATOM     72  C   UNL A   1      38.636  34.351  39.196  1.00  0.00     0.040 A 
ATOM     73  F   UNL A   1      38.128  32.349  38.081  1.00  0.00    -0.206 F 
ATOM     74  C   UNL A   1      39.278  35.588  39.231  1.00  0.00     0.006 A 
ENDBRANCH  46  67
BRANCH  58  75
ATOM     75  C   UNL A   1      43.974  28.908  35.199  1.00  0.00     0.057 A 
ATOM     76  C   UNL A   1      43.912  27.804  36.058  1.00  0.00     0.134 A 
ATOM     77  C   UNL A   1      45.236  29.467  34.952  1.00  0.00     0.134 A 
ATOM     78  F   UNL A   1      42.733  27.230  36.343  1.00  0.00    -0.206 F 
ATOM     79  C   UNL A   1      45.057  27.293  36.670  1.00  0.00     0.040 A 
ATOM     80  C   UNL A   1      46.391  28.945  35.534  1.00  0.00     0.040 A 
ATOM     81  F   UNL A   1      45.367  30.518  34.129  1.00  0.00    -0.206 F 
ATOM     82  C   UNL A   1      46.303  27.859  36.401  1.00  0.00     0.006 A 
ENDBRANCH  58  75
ENDBRANCH  32  33
ENDBRANCH  24  27
ENDBRANCH  22  23
ENDBRANCH   1  22
TORSDOF 12
ENDMDL
