MODEL 1
REMARK VINA RESULT:     -12.0      0.000      0.000
REMARK SMILES O=C(NCCCNC(=O)[C@H]1CC[C@H](CN2C(=O)c3cccnc3C2=O)O1)c1ccc(-c2c3nc(c(-c4c(F)cccc4F)c4ccc([nH]4)c(-c4c(F)cccc4F)c4nc(c(-c5c(F)cccc5F)c5ccc2[nH]5)C=C4)C=C3)cc1
REMARK SMILES IDX 5 1 4 2 3 3 1 4 2 5 27 7 28 8 80 9 29 10 79 11 30 12 31 13
REMARK SMILES IDX 32 14 73 15 33 16 78 17 72 18 74 19 34 20 77 21 71 22 70 23
REMARK SMILES IDX 35 25 61 26 44 27 60 28 45 29 48 30 59 31 75 32 46 33 47 34
REMARK SMILES IDX 58 36 76 37 49 38 36 39 37 40 42 41 38 42 39 43 41 44 43 45
REMARK SMILES IDX 40 46 62 47 63 48 68 49 64 50 65 51 67 52 69 53 66 54 50 55
REMARK SMILES IDX 51 56 56 57 52 58 53 59 55 60 57 61 54 62 6 63 7 64 8 65
REMARK SMILES IDX 9 67 10 68 11 69 26 70 12 71 13 72 14 73 15 74 16 75 24 76
REMARK SMILES IDX 17 77 18 78 23 79 25 80 19 81 22 82 20 83 21 84
REMARK H PARENT 3 6 74 24 48 35 7 66
REMARK Flexibility Score: inf
ROOT
ATOM      1  C   UNL A   1      37.559  19.910  24.965  1.00  0.00     0.042 C 
ENDROOT
BRANCH   1   2
ATOM      2  C   UNL A   1      38.789  20.402  25.714  1.00  0.00     0.118 C 
BRANCH   2   3
ATOM      3  N   UNL A   1      39.886  19.436  25.722  1.00  0.00    -0.352 N 
ATOM      4  O   UNL A   1      42.015  18.697  25.833  1.00  0.00    -0.269 OA
ATOM      5  C   UNL A   1      41.216  19.607  26.030  1.00  0.00     0.251 C 
ATOM      6  H   UNL A   1      39.634  18.520  25.466  1.00  0.00     0.163 HD
BRANCH   5   7
ATOM      7  C   UNL A   1      41.686  20.898  26.574  1.00  0.00     0.039 A 
ATOM      8  C   UNL A   1      41.654  21.130  27.948  1.00  0.00     0.014 A 
ATOM      9  C   UNL A   1      42.151  21.893  25.710  1.00  0.00     0.014 A 
ATOM     10  C   UNL A   1      41.876  22.408  28.432  1.00  0.00     0.010 A 
ATOM     11  C   UNL A   1      42.512  23.146  26.220  1.00  0.00     0.010 A 
ATOM     12  C   UNL A   1      42.340  23.427  27.582  1.00  0.00    -0.014 A 
BRANCH  12  13
ATOM     13  C   UNL A   1      42.707  24.731  28.191  1.00  0.00     0.031 A 
ATOM     14  C   UNL A   1      44.134  25.095  28.494  1.00  0.00     0.074 A 
ATOM     15  C   UNL A   1      41.722  25.630  28.394  1.00  0.00     0.049 A 
ATOM     16  N   UNL A   1      44.612  26.228  28.946  1.00  0.00    -0.248 NA
ATOM     17  C   UNL A   1      45.156  24.061  28.274  1.00  0.00     0.031 C 
ATOM     18  C   UNL A   1      40.296  25.380  28.159  1.00  0.00     0.029 A 
ATOM     19  N   UNL A   1      41.764  26.937  28.803  1.00  0.00    -0.354 N 
ATOM     20  C   UNL A   1      45.984  26.045  29.065  1.00  0.00     0.074 A 
ATOM     21  C   UNL A   1      46.259  24.677  28.679  1.00  0.00     0.031 C 
ATOM     22  C   UNL A   1      39.611  26.513  28.356  1.00  0.00     0.029 A 
ATOM     23  C   UNL A   1      40.532  27.545  28.814  1.00  0.00     0.049 A 
ATOM     24  H   UNL A   1      42.595  27.396  29.062  1.00  0.00     0.167 HD
ATOM     25  C   UNL A   1      46.927  26.941  29.447  1.00  0.00     0.037 A 
ATOM     26  C   UNL A   1      40.172  28.789  29.173  1.00  0.00     0.037 A 
ATOM     27  C   UNL A   1      46.645  28.302  29.833  1.00  0.00     0.049 A 
ATOM     28  C   UNL A   1      41.235  29.746  29.621  1.00  0.00     0.074 A 
ATOM     29  C   UNL A   1      47.532  29.289  30.232  1.00  0.00     0.029 A 
ATOM     30  N   UNL A   1      45.378  28.870  29.870  1.00  0.00    -0.354 N 
ATOM     31  N   UNL A   1      42.530  29.564  29.702  1.00  0.00    -0.248 NA
ATOM     32  C   UNL A   1      40.786  31.083  30.028  1.00  0.00     0.031 C 
ATOM     33  C   UNL A   1      46.798  30.435  30.558  1.00  0.00     0.029 A 
ATOM     34  C   UNL A   1      45.460  30.185  30.304  1.00  0.00     0.049 A 
ATOM     35  H   UNL A   1      44.544  28.407  29.626  1.00  0.00     0.167 HD
ATOM     36  C   UNL A   1      43.054  30.766  30.157  1.00  0.00     0.074 A 
ATOM     37  C   UNL A   1      41.938  31.680  30.296  1.00  0.00     0.031 C 
ATOM     38  C   UNL A   1      44.341  31.082  30.444  1.00  0.00     0.037 A 
BRANCH  25  39
ATOM     39  C   UNL A   1      48.359  26.483  29.474  1.00  0.00     0.057 A 
ATOM     40  C   UNL A   1      49.223  26.695  28.393  1.00  0.00     0.134 A 
ATOM     41  C   UNL A   1      48.897  25.879  30.619  1.00  0.00     0.134 A 
ATOM     42  F   UNL A   1      48.773  27.259  27.262  1.00  0.00    -0.206 F 
ATOM     43  C   UNL A   1      50.565  26.311  28.442  1.00  0.00     0.040 A 
ATOM     44  C   UNL A   1      50.244  25.515  30.690  1.00  0.00     0.040 A 
ATOM     45  F   UNL A   1      48.130  25.653  31.696  1.00  0.00    -0.206 F 
ATOM     46  C   UNL A   1      51.081  25.727  29.597  1.00  0.00     0.006 A 
ENDBRANCH  25  39
BRANCH  26  47
ATOM     47  C   UNL A   1      38.739  29.182  29.156  1.00  0.00     0.057 A 
ATOM     48  C   UNL A   1      37.946  29.114  30.306  1.00  0.00     0.134 A 
ATOM     49  C   UNL A   1      38.127  29.625  27.976  1.00  0.00     0.134 A 
ATOM     50  F   UNL A   1      38.469  28.685  31.464  1.00  0.00    -0.206 F 
ATOM     51  C   UNL A   1      36.589  29.444  30.278  1.00  0.00     0.040 A 
ATOM     52  C   UNL A   1      36.782  29.995  27.942  1.00  0.00     0.040 A 
ATOM     53  F   UNL A   1      38.834  29.726  26.841  1.00  0.00    -0.206 F 
ATOM     54  C   UNL A   1      36.007  29.891  29.093  1.00  0.00     0.006 A 
ENDBRANCH  26  47
BRANCH  38  55
ATOM     55  C   UNL A   1      44.601  32.485  30.909  1.00  0.00     0.057 A 
ATOM     56  C   UNL A   1      44.595  32.830  32.267  1.00  0.00     0.134 A 
ATOM     57  C   UNL A   1      44.855  33.507  29.985  1.00  0.00     0.134 A 
ATOM     58  F   UNL A   1      44.343  31.903  33.203  1.00  0.00    -0.206 F 
ATOM     59  C   UNL A   1      44.788  34.147  32.687  1.00  0.00     0.040 A 
ATOM     60  C   UNL A   1      45.085  34.821  30.394  1.00  0.00     0.040 A 
ATOM     61  F   UNL A   1      44.885  33.245  28.669  1.00  0.00    -0.206 F 
ATOM     62  C   UNL A   1      45.039  35.146  31.748  1.00  0.00     0.006 A 
ENDBRANCH  38  55
ENDBRANCH  12  13
ENDBRANCH   5   7
ENDBRANCH   2   3
ENDBRANCH   1   2
BRANCH   1  63
ATOM     63  C   UNL A   1      36.404  20.897  24.982  1.00  0.00     0.117 C 
BRANCH  63  64
ATOM     64  N   UNL A   1      35.179  20.291  25.468  1.00  0.00    -0.354 N 
ATOM     65  C   UNL A   1      33.911  20.802  25.442  1.00  0.00     0.249 C 
ATOM     66  H   UNL A   1      35.272  19.396  25.867  1.00  0.00     0.163 HD
ATOM     67  O   UNL A   1      33.004  20.135  25.941  1.00  0.00    -0.272 OA
BRANCH  65  68
ATOM     68  C   UNL A   1      33.683  22.169  24.770  1.00  0.00     0.207 C 
ATOM     69  C   UNL A   1      33.530  22.071  23.265  1.00  0.00     0.045 C 
ATOM     70  O   UNL A   1      32.478  22.774  25.264  1.00  0.00    -0.363 OA
ATOM     71  C   UNL A   1      32.047  21.872  23.102  1.00  0.00     0.037 C 
ATOM     72  C   UNL A   1      31.459  22.697  24.240  1.00  0.00     0.139 C 
BRANCH  72  73
ATOM     73  C   UNL A   1      31.061  24.132  23.849  1.00  0.00     0.161 C 
BRANCH  73  74
ATOM     74  N   UNL A   1      31.562  25.134  24.772  1.00  0.00    -0.270 N 
ATOM     75  C   UNL A   1      32.748  25.798  24.612  1.00  0.00     0.263 C 
ATOM     76  C   UNL A   1      30.864  25.590  25.861  1.00  0.00     0.280 C 
ATOM     77  O   UNL A   1      33.592  25.667  23.752  1.00  0.00    -0.269 OA
ATOM     78  C   UNL A   1      32.818  26.786  25.679  1.00  0.00     0.071 A 
ATOM     79  C   UNL A   1      31.680  26.667  26.439  1.00  0.00     0.141 A 
ATOM     80  O   UNL A   1      29.775  25.214  26.256  1.00  0.00    -0.267 OA
ATOM     81  C   UNL A   1      33.742  27.768  25.962  1.00  0.00     0.018 A 
ATOM     82  N   UNL A   1      31.346  27.451  27.479  1.00  0.00    -0.250 NA
ATOM     83  C   UNL A   1      33.445  28.611  27.036  1.00  0.00     0.021 A 
ATOM     84  C   UNL A   1      32.255  28.419  27.752  1.00  0.00     0.112 A 
ENDBRANCH  73  74
ENDBRANCH  72  73
ENDBRANCH  65  68
ENDBRANCH  63  64
ENDBRANCH   1  63
TORSDOF 12
ENDMDL
MODEL 2
REMARK VINA RESULT:     -12.0      0.601      1.700
REMARK SMILES O=C(NCCCNC(=O)[C@H]1CC[C@H](CN2C(=O)c3cccnc3C2=O)O1)c1ccc(-c2c3nc(c(-c4c(F)cccc4F)c4ccc([nH]4)c(-c4c(F)cccc4F)c4nc(c(-c5c(F)cccc5F)c5ccc2[nH]5)C=C4)C=C3)cc1
REMARK SMILES IDX 5 1 4 2 3 3 1 4 2 5 27 7 28 8 80 9 29 10 79 11 30 12 31 13
REMARK SMILES IDX 32 14 73 15 33 16 78 17 72 18 74 19 34 20 77 21 71 22 70 23
REMARK SMILES IDX 35 25 61 26 44 27 60 28 45 29 48 30 59 31 75 32 46 33 47 34
REMARK SMILES IDX 58 36 76 37 49 38 36 39 37 40 42 41 38 42 39 43 41 44 43 45
REMARK SMILES IDX 40 46 62 47 63 48 68 49 64 50 65 51 67 52 69 53 66 54 50 55
REMARK SMILES IDX 51 56 56 57 52 58 53 59 55 60 57 61 54 62 6 63 7 64 8 65
REMARK SMILES IDX 9 67 10 68 11 69 26 70 12 71 13 72 14 73 15 74 16 75 24 76
REMARK SMILES IDX 17 77 18 78 23 79 25 80 19 81 22 82 20 83 21 84
REMARK H PARENT 3 6 74 24 48 35 7 66
REMARK Flexibility Score: inf
ROOT
ATOM      1  C   UNL A   1      37.782  19.879  24.838  1.00  0.00     0.042 C 
ENDROOT
BRANCH   1   2
ATOM      2  C   UNL A   1      38.912  20.287  25.773  1.00  0.00     0.118 C 
BRANCH   2   3
ATOM      3  N   UNL A   1      40.030  19.345  25.775  1.00  0.00    -0.352 N 
ATOM      4  O   UNL A   1      42.174  18.651  25.871  1.00  0.00    -0.269 OA
ATOM      5  C   UNL A   1      41.358  19.546  26.071  1.00  0.00     0.251 C 
ATOM      6  H   UNL A   1      39.794  18.422  25.525  1.00  0.00     0.163 HD
BRANCH   5   7
ATOM      7  C   UNL A   1      41.805  20.848  26.607  1.00  0.00     0.039 A 
ATOM      8  C   UNL A   1      41.813  21.072  27.982  1.00  0.00     0.014 A 
ATOM      9  C   UNL A   1      42.207  21.862  25.733  1.00  0.00     0.014 A 
ATOM     10  C   UNL A   1      42.010  22.354  28.466  1.00  0.00     0.010 A 
ATOM     11  C   UNL A   1      42.544  23.123  26.237  1.00  0.00     0.010 A 
ATOM     12  C   UNL A   1      42.411  23.392  27.607  1.00  0.00    -0.014 A 
BRANCH  12  13
ATOM     13  C   UNL A   1      42.758  24.704  28.210  1.00  0.00     0.031 A 
ATOM     14  C   UNL A   1      44.176  25.086  28.527  1.00  0.00     0.074 A 
ATOM     15  C   UNL A   1      41.760  25.594  28.395  1.00  0.00     0.049 A 
ATOM     16  N   UNL A   1      44.637  26.226  28.977  1.00  0.00    -0.248 NA
ATOM     17  C   UNL A   1      45.212  24.061  28.328  1.00  0.00     0.031 C 
ATOM     18  C   UNL A   1      40.340  25.327  28.144  1.00  0.00     0.029 A 
ATOM     19  N   UNL A   1      41.783  26.904  28.794  1.00  0.00    -0.354 N 
ATOM     20  C   UNL A   1      46.009  26.059  29.114  1.00  0.00     0.074 A 
ATOM     21  C   UNL A   1      46.303  24.691  28.742  1.00  0.00     0.031 C 
ATOM     22  C   UNL A   1      39.641  26.454  28.325  1.00  0.00     0.029 A 
ATOM     23  C   UNL A   1      40.545  27.499  28.786  1.00  0.00     0.049 A 
ATOM     24  H   UNL A   1      42.607  27.374  29.060  1.00  0.00     0.167 HD
ATOM     25  C   UNL A   1      46.939  26.968  29.501  1.00  0.00     0.037 A 
ATOM     26  C   UNL A   1      40.167  28.742  29.132  1.00  0.00     0.037 A 
ATOM     27  C   UNL A   1      46.637  28.329  29.873  1.00  0.00     0.049 A 
ATOM     28  C   UNL A   1      41.215  29.714  29.585  1.00  0.00     0.074 A 
ATOM     29  C   UNL A   1      47.508  29.327  30.276  1.00  0.00     0.029 A 
ATOM     30  N   UNL A   1      45.364  28.883  29.891  1.00  0.00    -0.354 N 
ATOM     31  N   UNL A   1      42.511  29.545  29.683  1.00  0.00    -0.248 NA
ATOM     32  C   UNL A   1      40.747  31.049  29.977  1.00  0.00     0.031 C 
ATOM     33  C   UNL A   1      46.759  30.468  30.584  1.00  0.00     0.029 A 
ATOM     34  C   UNL A   1      45.427  30.202  30.316  1.00  0.00     0.049 A 
ATOM     35  H   UNL A   1      44.538  28.410  29.640  1.00  0.00     0.167 HD
ATOM     36  C   UNL A   1      43.016  30.756  30.136  1.00  0.00     0.074 A 
ATOM     37  C   UNL A   1      41.890  31.659  30.254  1.00  0.00     0.031 C 
ATOM     38  C   UNL A   1      44.296  31.088  30.436  1.00  0.00     0.037 A 
BRANCH  25  39
ATOM     39  C   UNL A   1      48.374  26.525  29.549  1.00  0.00     0.057 A 
ATOM     40  C   UNL A   1      49.232  26.679  28.452  1.00  0.00     0.134 A 
ATOM     41  C   UNL A   1      48.924  25.997  30.725  1.00  0.00     0.134 A 
ATOM     42  F   UNL A   1      48.771  27.169  27.291  1.00  0.00    -0.206 F 
ATOM     43  C   UNL A   1      50.578  26.310  28.517  1.00  0.00     0.040 A 
ATOM     44  C   UNL A   1      50.274  25.650  30.811  1.00  0.00     0.040 A 
ATOM     45  F   UNL A   1      48.163  25.831  31.818  1.00  0.00    -0.206 F 
ATOM     46  C   UNL A   1      51.104  25.803  29.703  1.00  0.00     0.006 A 
ENDBRANCH  25  39
BRANCH  26  47
ATOM     47  C   UNL A   1      38.731  29.119  29.094  1.00  0.00     0.057 A 
ATOM     48  C   UNL A   1      38.128  29.595  27.925  1.00  0.00     0.134 A 
ATOM     49  C   UNL A   1      37.929  29.022  30.239  1.00  0.00     0.134 A 
ATOM     50  F   UNL A   1      38.845  29.724  26.799  1.00  0.00    -0.206 F 
ATOM     51  C   UNL A   1      36.788  29.987  27.902  1.00  0.00     0.040 A 
ATOM     52  C   UNL A   1      36.580  29.375  30.221  1.00  0.00     0.040 A 
ATOM     53  F   UNL A   1      38.442  28.561  31.389  1.00  0.00    -0.206 F 
ATOM     54  C   UNL A   1      36.010  29.872  29.053  1.00  0.00     0.006 A 
ENDBRANCH  26  47
BRANCH  38  55
ATOM     55  C   UNL A   1      44.536  32.498  30.893  1.00  0.00     0.057 A 
ATOM     56  C   UNL A   1      44.810  33.534  29.990  1.00  0.00     0.134 A 
ATOM     57  C   UNL A   1      44.498  32.822  32.256  1.00  0.00     0.134 A 
ATOM     58  F   UNL A   1      44.877  33.289  28.673  1.00  0.00    -0.206 F 
ATOM     59  C   UNL A   1      45.081  34.831  30.428  1.00  0.00     0.040 A 
ATOM     60  C   UNL A   1      44.732  34.122  32.703  1.00  0.00     0.040 A 
ATOM     61  F   UNL A   1      44.231  31.880  33.174  1.00  0.00    -0.206 F 
ATOM     62  C   UNL A   1      45.038  35.128  31.789  1.00  0.00     0.006 A 
ENDBRANCH  38  55
ENDBRANCH  12  13
ENDBRANCH   5   7
ENDBRANCH   2   3
ENDBRANCH   1   2
BRANCH   1  63
ATOM     63  C   UNL A   1      36.665  20.906  24.754  1.00  0.00     0.117 C 
BRANCH  63  64
ATOM     64  N   UNL A   1      35.764  20.822  25.887  1.00  0.00    -0.354 N 
ATOM     65  C   UNL A   1      34.599  21.507  26.098  1.00  0.00     0.249 C 
ATOM     66  H   UNL A   1      36.024  20.191  26.596  1.00  0.00     0.163 HD
ATOM     67  O   UNL A   1      33.993  21.314  27.153  1.00  0.00    -0.272 OA
BRANCH  65  68
ATOM     68  C   UNL A   1      34.098  22.460  24.998  1.00  0.00     0.207 C 
ATOM     69  C   UNL A   1      33.319  21.750  23.908  1.00  0.00     0.045 C 
ATOM     70  O   UNL A   1      33.215  23.446  25.555  1.00  0.00    -0.363 OA
ATOM     71  C   UNL A   1      31.909  21.799  24.434  1.00  0.00     0.037 C 
ATOM     72  C   UNL A   1      31.857  23.136  25.164  1.00  0.00     0.139 C 
BRANCH  72  73
ATOM     73  C   UNL A   1      31.321  24.305  24.317  1.00  0.00     0.161 C 
BRANCH  73  74
ATOM     74  N   UNL A   1      31.656  25.607  24.866  1.00  0.00    -0.270 N 
ATOM     75  C   UNL A   1      31.043  26.159  25.957  1.00  0.00     0.263 C 
ATOM     76  C   UNL A   1      32.683  26.391  24.405  1.00  0.00     0.280 C 
ATOM     77  O   UNL A   1      30.125  25.730  26.623  1.00  0.00    -0.269 OA
ATOM     78  C   UNL A   1      31.746  27.402  26.244  1.00  0.00     0.071 A 
ATOM     79  C   UNL A   1      32.741  27.548  25.309  1.00  0.00     0.141 A 
ATOM     80  O   UNL A   1      33.424  26.167  23.466  1.00  0.00    -0.267 OA
ATOM     81  C   UNL A   1      31.608  28.322  27.260  1.00  0.00     0.018 A 
ATOM     82  N   UNL A   1      33.649  28.539  25.279  1.00  0.00    -0.250 NA
ATOM     83  C   UNL A   1      32.525  29.375  27.275  1.00  0.00     0.021 A 
ATOM     84  C   UNL A   1      33.514  29.440  26.282  1.00  0.00     0.112 A 
ENDBRANCH  73  74
ENDBRANCH  72  73
ENDBRANCH  65  68
ENDBRANCH  63  64
ENDBRANCH   1  63
TORSDOF 12
ENDMDL
MODEL 3
REMARK VINA RESULT:     -11.9      3.423      8.840
REMARK SMILES O=C(NCCCNC(=O)[C@H]1CC[C@H](CN2C(=O)c3cccnc3C2=O)O1)c1ccc(-c2c3nc(c(-c4c(F)cccc4F)c4ccc([nH]4)c(-c4c(F)cccc4F)c4nc(c(-c5c(F)cccc5F)c5ccc2[nH]5)C=C4)C=C3)cc1
REMARK SMILES IDX 5 1 4 2 3 3 1 4 2 5 27 7 28 8 80 9 29 10 79 11 30 12 31 13
REMARK SMILES IDX 32 14 73 15 33 16 78 17 72 18 74 19 34 20 77 21 71 22 70 23
REMARK SMILES IDX 35 25 61 26 44 27 60 28 45 29 48 30 59 31 75 32 46 33 47 34
REMARK SMILES IDX 58 36 76 37 49 38 36 39 37 40 42 41 38 42 39 43 41 44 43 45
REMARK SMILES IDX 40 46 62 47 63 48 68 49 64 50 65 51 67 52 69 53 66 54 50 55
REMARK SMILES IDX 51 56 56 57 52 58 53 59 55 60 57 61 54 62 6 63 7 64 8 65
REMARK SMILES IDX 9 67 10 68 11 69 26 70 12 71 13 72 14 73 15 74 16 75 24 76
REMARK SMILES IDX 17 77 18 78 23 79 25 80 19 81 22 82 20 83 21 84
REMARK H PARENT 3 6 74 24 48 35 7 66
REMARK Flexibility Score: inf
ROOT
ATOM      1  C   UNL A   1      31.428  31.492  26.506  1.00  0.00     0.042 C 
ENDROOT
BRANCH   1   2
ATOM      2  C   UNL A   1      32.689  32.243  26.908  1.00  0.00     0.118 C 
BRANCH   2   3
ATOM      3  N   UNL A   1      32.423  33.582  27.430  1.00  0.00    -0.352 N 
ATOM      4  O   UNL A   1      32.637  35.374  28.783  1.00  0.00    -0.269 OA
ATOM      5  C   UNL A   1      33.108  34.320  28.369  1.00  0.00     0.251 C 
ATOM      6  H   UNL A   1      31.630  34.025  27.051  1.00  0.00     0.163 HD
BRANCH   5   7
ATOM      7  C   UNL A   1      34.397  33.827  28.895  1.00  0.00     0.039 A 
ATOM      8  C   UNL A   1      35.586  34.151  28.245  1.00  0.00     0.014 A 
ATOM      9  C   UNL A   1      34.424  33.025  30.039  1.00  0.00     0.014 A 
ATOM     10  C   UNL A   1      36.759  33.507  28.602  1.00  0.00     0.010 A 
ATOM     11  C   UNL A   1      35.637  32.486  30.484  1.00  0.00     0.010 A 
ATOM     12  C   UNL A   1      36.811  32.692  29.746  1.00  0.00    -0.014 A 
BRANCH  12  13
ATOM     13  C   UNL A   1      38.132  32.157  30.163  1.00  0.00     0.031 A 
ATOM     14  C   UNL A   1      38.953  32.810  31.240  1.00  0.00     0.074 A 
ATOM     15  C   UNL A   1      38.549  31.003  29.602  1.00  0.00     0.049 A 
ATOM     16  N   UNL A   1      40.083  32.409  31.766  1.00  0.00    -0.248 NA
ATOM     17  C   UNL A   1      38.454  34.079  31.792  1.00  0.00     0.031 C 
ATOM     18  C   UNL A   1      37.847  30.289  28.530  1.00  0.00     0.029 A 
ATOM     19  N   UNL A   1      39.631  30.208  29.872  1.00  0.00    -0.354 N 
ATOM     20  C   UNL A   1      40.431  33.370  32.707  1.00  0.00     0.074 A 
ATOM     21  C   UNL A   1      39.415  34.399  32.650  1.00  0.00     0.031 C 
ATOM     22  C   UNL A   1      38.474  29.132  28.285  1.00  0.00     0.029 A 
ATOM     23  C   UNL A   1      39.667  29.060  29.119  1.00  0.00     0.049 A 
ATOM     24  H   UNL A   1      40.317  30.436  30.542  1.00  0.00     0.167 HD
ATOM     25  C   UNL A   1      41.493  33.384  33.550  1.00  0.00     0.037 A 
ATOM     26  C   UNL A   1      40.569  28.064  29.080  1.00  0.00     0.037 A 
ATOM     27  C   UNL A   1      42.504  32.355  33.599  1.00  0.00     0.049 A 
ATOM     28  C   UNL A   1      41.749  28.124  30.003  1.00  0.00     0.074 A 
ATOM     29  C   UNL A   1      43.616  32.276  34.420  1.00  0.00     0.029 A 
ATOM     30  N   UNL A   1      42.527  31.226  32.790  1.00  0.00    -0.354 N 
ATOM     31  N   UNL A   1      42.047  29.028  30.905  1.00  0.00    -0.248 NA
ATOM     32  C   UNL A   1      42.718  27.026  29.904  1.00  0.00     0.031 C 
ATOM     33  C   UNL A   1      44.338  31.127  34.076  1.00  0.00     0.029 A 
ATOM     34  C   UNL A   1      43.645  30.457  33.082  1.00  0.00     0.049 A 
ATOM     35  H   UNL A   1      41.851  31.004  32.110  1.00  0.00     0.167 HD
ATOM     36  C   UNL A   1      43.232  28.602  31.489  1.00  0.00     0.074 A 
ATOM     37  C   UNL A   1      43.574  27.339  30.865  1.00  0.00     0.031 C 
ATOM     38  C   UNL A   1      43.976  29.206  32.448  1.00  0.00     0.037 A 
BRANCH  25  39
ATOM     39  C   UNL A   1      41.627  34.549  34.490  1.00  0.00     0.057 A 
ATOM     40  C   UNL A   1      42.278  35.730  34.114  1.00  0.00     0.134 A 
ATOM     41  C   UNL A   1      41.041  34.515  35.763  1.00  0.00     0.134 A 
ATOM     42  F   UNL A   1      42.869  35.830  32.913  1.00  0.00    -0.206 F 
ATOM     43  C   UNL A   1      42.357  36.829  34.974  1.00  0.00     0.040 A 
ATOM     44  C   UNL A   1      41.090  35.616  36.621  1.00  0.00     0.040 A 
ATOM     45  F   UNL A   1      40.393  33.419  36.186  1.00  0.00    -0.206 F 
ATOM     46  C   UNL A   1      41.754  36.776  36.228  1.00  0.00     0.006 A 
ENDBRANCH  25  39
BRANCH  26  47
ATOM     47  C   UNL A   1      40.405  26.950  28.111  1.00  0.00     0.057 A 
ATOM     48  C   UNL A   1      41.025  26.970  26.858  1.00  0.00     0.134 A 
ATOM     49  C   UNL A   1      39.609  25.839  28.418  1.00  0.00     0.134 A 
ATOM     50  F   UNL A   1      41.790  28.012  26.499  1.00  0.00    -0.206 F 
ATOM     51  C   UNL A   1      40.836  25.942  25.933  1.00  0.00     0.040 A 
ATOM     52  C   UNL A   1      39.441  24.786  27.518  1.00  0.00     0.040 A 
ATOM     53  F   UNL A   1      38.996  25.751  29.608  1.00  0.00    -0.206 F 
ATOM     54  C   UNL A   1      40.046  24.843  26.266  1.00  0.00     0.006 A 
ENDBRANCH  26  47
BRANCH  38  55
ATOM     55  C   UNL A   1      45.215  28.484  32.892  1.00  0.00     0.057 A 
ATOM     56  C   UNL A   1      46.461  28.713  32.294  1.00  0.00     0.134 A 
ATOM     57  C   UNL A   1      45.160  27.543  33.929  1.00  0.00     0.134 A 
ATOM     58  F   UNL A   1      46.581  29.589  31.284  1.00  0.00    -0.206 F 
ATOM     59  C   UNL A   1      47.598  28.001  32.679  1.00  0.00     0.040 A 
ATOM     60  C   UNL A   1      46.297  26.851  34.347  1.00  0.00     0.040 A 
ATOM     61  F   UNL A   1      44.001  27.283  34.553  1.00  0.00    -0.206 F 
ATOM     62  C   UNL A   1      47.518  27.070  33.713  1.00  0.00     0.006 A 
ENDBRANCH  38  55
ENDBRANCH  12  13
ENDBRANCH   5   7
ENDBRANCH   2   3
ENDBRANCH   1   2
BRANCH   1  63
ATOM     63  C   UNL A   1      31.701  30.111  25.934  1.00  0.00     0.117 C 
BRANCH  63  64
ATOM     64  N   UNL A   1      31.396  30.039  24.518  1.00  0.00    -0.354 N 
ATOM     65  C   UNL A   1      31.324  28.931  23.720  1.00  0.00     0.249 C 
ATOM     66  H   UNL A   1      31.218  30.899  24.074  1.00  0.00     0.163 HD
ATOM     67  O   UNL A   1      31.081  29.091  22.522  1.00  0.00    -0.272 OA
BRANCH  65  68
ATOM     68  C   UNL A   1      31.524  27.547  24.364  1.00  0.00     0.207 C 
ATOM     69  C   UNL A   1      30.265  27.008  25.012  1.00  0.00     0.045 C 
ATOM     70  O   UNL A   1      31.917  26.586  23.372  1.00  0.00    -0.363 OA
ATOM     71  C   UNL A   1      29.613  26.260  23.880  1.00  0.00     0.037 C 
ATOM     72  C   UNL A   1      30.800  25.708  23.100  1.00  0.00     0.139 C 
BRANCH  72  73
ATOM     73  C   UNL A   1      31.208  24.275  23.486  1.00  0.00     0.161 C 
BRANCH  73  74
ATOM     74  N   UNL A   1      32.635  24.130  23.712  1.00  0.00    -0.270 N 
ATOM     75  C   UNL A   1      33.233  24.260  24.935  1.00  0.00     0.263 C 
ATOM     76  C   UNL A   1      33.531  23.765  22.740  1.00  0.00     0.280 C 
ATOM     77  O   UNL A   1      32.742  24.546  26.006  1.00  0.00    -0.269 OA
ATOM     78  C   UNL A   1      34.639  23.928  24.747  1.00  0.00     0.071 A 
ATOM     79  C   UNL A   1      34.827  23.626  23.421  1.00  0.00     0.141 A 
ATOM     80  O   UNL A   1      33.305  23.557  21.562  1.00  0.00    -0.267 OA
ATOM     81  C   UNL A   1      35.685  23.821  25.637  1.00  0.00     0.018 A 
ATOM     82  N   UNL A   1      35.978  23.207  22.866  1.00  0.00    -0.250 NA
ATOM     83  C   UNL A   1      36.907  23.391  25.114  1.00  0.00     0.021 A 
ATOM     84  C   UNL A   1      37.004  23.098  23.746  1.00  0.00     0.112 A 
ENDBRANCH  73  74
ENDBRANCH  72  73
ENDBRANCH  65  68
ENDBRANCH  63  64
ENDBRANCH   1  63
TORSDOF 12
ENDMDL
