MODEL 1
REMARK VINA RESULT:     -13.8      0.000      0.000
REMARK SMILES O=C(NCCCNC(=O)[C@H]1CCCCN1c1cc(-c2ccccc2)nc(-c2cccc(Cl)c2)n1)c1ccc(-c2c3nc(c(-c4c(F)cccc4F)c4ccc([nH]4)c(-c4c(F)cccc4F)c4nc(c(-c5c(F)cccc5F)c5ccc2[nH]5)C=C4)C=C3)cc1
REMARK SMILES IDX 5 1 4 2 3 3 1 4 2 5 35 7 36 8 88 9 37 10 87 11 38 12 39 13
REMARK SMILES IDX 40 14 81 15 41 16 86 17 80 18 82 19 42 20 85 21 79 22 78 23
REMARK SMILES IDX 43 25 69 26 52 27 68 28 53 29 56 30 67 31 83 32 54 33 55 34
REMARK SMILES IDX 66 36 84 37 57 38 44 39 45 40 50 41 46 42 47 43 49 44 51 45
REMARK SMILES IDX 48 46 70 47 71 48 76 49 72 50 73 51 75 52 77 53 74 54 58 55
REMARK SMILES IDX 59 56 64 57 60 58 61 59 63 60 65 61 62 62 6 63 7 64 8 65
REMARK SMILES IDX 9 67 10 68 11 69 15 70 12 71 14 72 13 73 16 74 17 75 34 76
REMARK SMILES IDX 18 77 26 78 25 79 19 80 20 81 24 82 21 83 23 84 22 85 27 86
REMARK SMILES IDX 28 87 33 88 29 89 31 90 30 91 32 92
REMARK H PARENT 3 6 82 24 56 35 7 66
REMARK Flexibility Score: inf
ROOT
ATOM      1  C   UNL A   1      33.790  28.789  23.382  1.00  0.00     0.042 C 
ENDROOT
BRANCH   1   2
ATOM      2  C   UNL A   1      33.784  28.895  24.894  1.00  0.00     0.118 C 
BRANCH   2   3
ATOM      3  N   UNL A   1      32.949  30.001  25.356  1.00  0.00    -0.352 N 
ATOM      4  O   UNL A   1      32.066  31.413  26.879  1.00  0.00    -0.269 OA
ATOM      5  C   UNL A   1      33.010  30.715  26.530  1.00  0.00     0.251 C 
ATOM      6  H   UNL A   1      32.236  30.275  24.735  1.00  0.00     0.163 HD
BRANCH   5   7
ATOM      7  C   UNL A   1      34.225  30.631  27.363  1.00  0.00     0.039 A 
ATOM      8  C   UNL A   1      34.601  29.402  27.902  1.00  0.00     0.014 A 
ATOM      9  C   UNL A   1      35.009  31.766  27.588  1.00  0.00     0.014 A 
ATOM     10  C   UNL A   1      35.635  29.335  28.815  1.00  0.00     0.010 A 
ATOM     11  C   UNL A   1      36.151  31.665  28.387  1.00  0.00     0.010 A 
ATOM     12  C   UNL A   1      36.463  30.449  29.013  1.00  0.00    -0.014 A 
BRANCH  12  13
ATOM     13  C   UNL A   1      37.730  30.238  29.750  1.00  0.00     0.031 A 
ATOM     14  C   UNL A   1      37.920  30.737  31.149  1.00  0.00     0.074 A 
ATOM     15  C   UNL A   1      38.696  29.535  29.123  1.00  0.00     0.049 A 
ATOM     16  N   UNL A   1      38.970  30.618  31.919  1.00  0.00    -0.248 NA
ATOM     17  C   UNL A   1      36.803  31.469  31.765  1.00  0.00     0.031 C 
ATOM     18  C   UNL A   1      38.605  29.017  27.752  1.00  0.00     0.029 A 
ATOM     19  N   UNL A   1      39.924  29.108  29.551  1.00  0.00    -0.354 N 
ATOM     20  C   UNL A   1      38.656  31.281  33.097  1.00  0.00     0.074 A 
ATOM     21  C   UNL A   1      37.317  31.809  32.941  1.00  0.00     0.031 C 
ATOM     22  C   UNL A   1      39.696  28.293  27.477  1.00  0.00     0.029 A 
ATOM     23  C   UNL A   1      40.606  28.378  28.607  1.00  0.00     0.049 A 
ATOM     24  H   UNL A   1      40.282  29.303  30.447  1.00  0.00     0.167 HD
ATOM     25  C   UNL A   1      39.426  31.430  34.201  1.00  0.00     0.037 A 
ATOM     26  C   UNL A   1      41.850  27.870  28.630  1.00  0.00     0.037 A 
ATOM     27  C   UNL A   1      40.747  30.874  34.342  1.00  0.00     0.049 A 
ATOM     28  C   UNL A   1      42.679  28.081  29.859  1.00  0.00     0.074 A 
ATOM     29  C   UNL A   1      41.587  30.919  35.441  1.00  0.00     0.029 A 
ATOM     30  N   UNL A   1      41.424  30.178  33.350  1.00  0.00    -0.354 N 
ATOM     31  N   UNL A   1      42.352  28.674  30.981  1.00  0.00    -0.248 NA
ATOM     32  C   UNL A   1      44.054  27.569  29.821  1.00  0.00     0.031 C 
ATOM     33  C   UNL A   1      42.792  30.301  35.095  1.00  0.00     0.029 A 
ATOM     34  C   UNL A   1      42.686  29.823  33.800  1.00  0.00     0.049 A 
ATOM     35  H   UNL A   1      41.062  29.968  32.459  1.00  0.00     0.167 HD
ATOM     36  C   UNL A   1      43.478  28.605  31.785  1.00  0.00     0.074 A 
ATOM     37  C   UNL A   1      44.484  27.879  31.035  1.00  0.00     0.031 C 
ATOM     38  C   UNL A   1      43.669  29.107  33.029  1.00  0.00     0.037 A 
BRANCH  25  39
ATOM     39  C   UNL A   1      38.885  32.244  35.340  1.00  0.00     0.057 A 
ATOM     40  C   UNL A   1      38.199  31.662  36.412  1.00  0.00     0.134 A 
ATOM     41  C   UNL A   1      39.140  33.621  35.407  1.00  0.00     0.134 A 
ATOM     42  F   UNL A   1      37.914  30.351  36.405  1.00  0.00    -0.206 F 
ATOM     43  C   UNL A   1      37.787  32.419  37.511  1.00  0.00     0.040 A 
ATOM     44  C   UNL A   1      38.751  34.384  36.509  1.00  0.00     0.040 A 
ATOM     45  F   UNL A   1      39.796  34.240  34.414  1.00  0.00    -0.206 F 
ATOM     46  C   UNL A   1      38.073  33.783  37.566  1.00  0.00     0.006 A 
ENDBRANCH  25  39
BRANCH  26  47
ATOM     47  C   UNL A   1      42.394  27.176  27.435  1.00  0.00     0.057 A 
ATOM     48  C   UNL A   1      42.351  25.784  27.317  1.00  0.00     0.134 A 
ATOM     49  C   UNL A   1      42.981  27.894  26.384  1.00  0.00     0.134 A 
ATOM     50  F   UNL A   1      41.814  25.038  28.294  1.00  0.00    -0.206 F 
ATOM     51  C   UNL A   1      42.892  25.129  26.210  1.00  0.00     0.040 A 
ATOM     52  C   UNL A   1      43.494  27.256  25.256  1.00  0.00     0.040 A 
ATOM     53  F   UNL A   1      43.044  29.234  26.431  1.00  0.00    -0.206 F 
ATOM     54  C   UNL A   1      43.461  25.866  25.173  1.00  0.00     0.006 A 
ENDBRANCH  26  47
BRANCH  38  55
ATOM     55  C   UNL A   1      45.015  28.874  33.645  1.00  0.00     0.057 A 
ATOM     56  C   UNL A   1      45.292  27.721  34.389  1.00  0.00     0.134 A 
ATOM     57  C   UNL A   1      46.047  29.805  33.479  1.00  0.00     0.134 A 
ATOM     58  F   UNL A   1      44.336  26.801  34.599  1.00  0.00    -0.206 F 
ATOM     59  C   UNL A   1      46.543  27.512  34.970  1.00  0.00     0.040 A 
ATOM     60  C   UNL A   1      47.310  29.594  34.031  1.00  0.00     0.040 A 
ATOM     61  F   UNL A   1      45.846  30.928  32.773  1.00  0.00    -0.206 F 
ATOM     62  C   UNL A   1      47.558  28.449  34.784  1.00  0.00     0.006 A 
ENDBRANCH  38  55
ENDBRANCH  12  13
ENDBRANCH   5   7
ENDBRANCH   2   3
ENDBRANCH   1   2
BRANCH   1  63
ATOM     63  C   UNL A   1      32.539  28.107  22.867  1.00  0.00     0.117 C 
BRANCH  63  64
ATOM     64  N   UNL A   1      32.867  26.957  22.053  1.00  0.00    -0.354 N 
ATOM     65  C   UNL A   1      33.243  25.686  22.315  1.00  0.00     0.242 C 
ATOM     66  H   UNL A   1      32.798  27.142  21.088  1.00  0.00     0.163 HD
ATOM     67  O   UNL A   1      33.529  25.033  21.296  1.00  0.00    -0.273 OA
BRANCH  65  68
ATOM     68  C   UNL A   1      33.310  25.011  23.719  1.00  0.00     0.173 C 
ATOM     69  C   UNL A   1      32.492  25.526  24.903  1.00  0.00     0.035 C 
ATOM     70  N   UNL A   1      32.963  23.589  23.526  1.00  0.00    -0.344 N 
ATOM     71  C   UNL A   1      30.992  25.256  24.741  1.00  0.00     0.004 C 
ATOM     72  C   UNL A   1      31.561  23.263  23.300  1.00  0.00     0.119 C 
ATOM     73  C   UNL A   1      30.724  23.775  24.474  1.00  0.00     0.022 C 
BRANCH  70  74
ATOM     74  C   UNL A   1      33.790  22.643  24.097  1.00  0.00     0.133 A 
ATOM     75  C   UNL A   1      33.391  21.328  24.125  1.00  0.00     0.076 A 
ATOM     76  N   UNL A   1      34.983  23.021  24.578  1.00  0.00    -0.211 NA
ATOM     77  C   UNL A   1      34.273  20.407  24.651  1.00  0.00     0.076 A 
ATOM     78  C   UNL A   1      35.772  22.064  25.095  1.00  0.00     0.162 A 
ATOM     79  N   UNL A   1      35.471  20.758  25.155  1.00  0.00    -0.228 NA
BRANCH  77  80
ATOM     80  C   UNL A   1      33.940  18.981  24.679  1.00  0.00     0.000 A 
ATOM     81  C   UNL A   1      34.900  18.012  24.351  1.00  0.00     0.010 A 
ATOM     82  C   UNL A   1      32.662  18.549  25.074  1.00  0.00     0.010 A 
ATOM     83  C   UNL A   1      34.598  16.650  24.438  1.00  0.00     0.001 A 
ATOM     84  C   UNL A   1      32.357  17.189  25.153  1.00  0.00     0.001 A 
ATOM     85  C   UNL A   1      33.328  16.241  24.841  1.00  0.00     0.000 A 
ENDBRANCH  77  80
BRANCH  78  86
ATOM     86  C   UNL A   1      37.072  22.489  25.618  1.00  0.00     0.021 A 
ATOM     87  C   UNL A   1      37.304  23.828  25.982  1.00  0.00     0.012 A 
ATOM     88  C   UNL A   1      38.126  21.572  25.753  1.00  0.00     0.032 A 
ATOM     89  C   UNL A   1      38.544  24.237  26.481  1.00  0.00     0.002 A 
ATOM     90  C   UNL A   1      39.369  21.987  26.231  1.00  0.00     0.041 A 
ATOM     91  C   UNL A   1      39.580  23.313  26.601  1.00  0.00     0.020 A 
ATOM     92  Cl  UNL A   1      40.658  20.852  26.356  1.00  0.00    -0.084 Cl
ENDBRANCH  78  86
ENDBRANCH  70  74
ENDBRANCH  65  68
ENDBRANCH  63  64
ENDBRANCH   1  63
TORSDOF 13
ENDMDL
MODEL 2
REMARK VINA RESULT:     -13.7      0.262      6.025
REMARK SMILES O=C(NCCCNC(=O)[C@H]1CCCCN1c1cc(-c2ccccc2)nc(-c2cccc(Cl)c2)n1)c1ccc(-c2c3nc(c(-c4c(F)cccc4F)c4ccc([nH]4)c(-c4c(F)cccc4F)c4nc(c(-c5c(F)cccc5F)c5ccc2[nH]5)C=C4)C=C3)cc1
REMARK SMILES IDX 5 1 4 2 3 3 1 4 2 5 35 7 36 8 88 9 37 10 87 11 38 12 39 13
REMARK SMILES IDX 40 14 81 15 41 16 86 17 80 18 82 19 42 20 85 21 79 22 78 23
REMARK SMILES IDX 43 25 69 26 52 27 68 28 53 29 56 30 67 31 83 32 54 33 55 34
REMARK SMILES IDX 66 36 84 37 57 38 44 39 45 40 50 41 46 42 47 43 49 44 51 45
REMARK SMILES IDX 48 46 70 47 71 48 76 49 72 50 73 51 75 52 77 53 74 54 58 55
REMARK SMILES IDX 59 56 64 57 60 58 61 59 63 60 65 61 62 62 6 63 7 64 8 65
REMARK SMILES IDX 9 67 10 68 11 69 15 70 12 71 14 72 13 73 16 74 17 75 34 76
REMARK SMILES IDX 18 77 26 78 25 79 19 80 20 81 24 82 21 83 23 84 22 85 27 86
REMARK SMILES IDX 28 87 33 88 29 89 31 90 30 91 32 92
REMARK H PARENT 3 6 82 24 56 35 7 66
REMARK Flexibility Score: inf
ROOT
ATOM      1  C   UNL A   1      33.662  28.951  23.342  1.00  0.00     0.042 C 
ENDROOT
BRANCH   1   2
ATOM      2  C   UNL A   1      33.740  29.050  24.852  1.00  0.00     0.118 C 
BRANCH   2   3
ATOM      3  N   UNL A   1      32.906  30.132  25.368  1.00  0.00    -0.352 N 
ATOM      4  O   UNL A   1      32.038  31.480  26.955  1.00  0.00    -0.269 OA
ATOM      5  C   UNL A   1      32.981  30.804  26.566  1.00  0.00     0.251 C 
ATOM      6  H   UNL A   1      32.180  30.422  24.769  1.00  0.00     0.163 HD
BRANCH   5   7
ATOM      7  C   UNL A   1      34.210  30.699  27.374  1.00  0.00     0.039 A 
ATOM      8  C   UNL A   1      34.612  29.452  27.852  1.00  0.00     0.014 A 
ATOM      9  C   UNL A   1      34.982  31.834  27.639  1.00  0.00     0.014 A 
ATOM     10  C   UNL A   1      35.661  29.360  28.744  1.00  0.00     0.010 A 
ATOM     11  C   UNL A   1      36.139  31.713  28.414  1.00  0.00     0.010 A 
ATOM     12  C   UNL A   1      36.478  30.475  28.980  1.00  0.00    -0.014 A 
BRANCH  12  13
ATOM     13  C   UNL A   1      37.759  30.249  29.686  1.00  0.00     0.031 A 
ATOM     14  C   UNL A   1      38.900  29.529  29.038  1.00  0.00     0.074 A 
ATOM     15  C   UNL A   1      37.874  30.761  30.929  1.00  0.00     0.049 A 
ATOM     16  N   UNL A   1      40.083  29.266  29.531  1.00  0.00    -0.248 NA
ATOM     17  C   UNL A   1      38.696  29.030  27.669  1.00  0.00     0.031 C 
ATOM     18  C   UNL A   1      36.809  31.470  31.650  1.00  0.00     0.029 A 
ATOM     19  N   UNL A   1      38.931  30.795  31.798  1.00  0.00    -0.354 N 
ATOM     20  C   UNL A   1      40.754  28.550  28.551  1.00  0.00     0.074 A 
ATOM     21  C   UNL A   1      39.846  28.410  27.433  1.00  0.00     0.031 C 
ATOM     22  C   UNL A   1      37.284  31.921  32.816  1.00  0.00     0.029 A 
ATOM     23  C   UNL A   1      38.650  31.449  32.973  1.00  0.00     0.049 A 
ATOM     24  H   UNL A   1      39.807  30.392  31.599  1.00  0.00     0.167 HD
ATOM     25  C   UNL A   1      42.014  28.056  28.595  1.00  0.00     0.037 A 
ATOM     26  C   UNL A   1      39.395  31.613  34.080  1.00  0.00     0.037 A 
ATOM     27  C   UNL A   1      42.908  28.229  29.712  1.00  0.00     0.049 A 
ATOM     28  C   UNL A   1      40.773  31.028  34.099  1.00  0.00     0.074 A 
ATOM     29  C   UNL A   1      44.224  27.817  29.833  1.00  0.00     0.029 A 
ATOM     30  N   UNL A   1      42.575  28.859  30.903  1.00  0.00    -0.354 N 
ATOM     31  N   UNL A   1      41.409  30.389  33.148  1.00  0.00    -0.248 NA
ATOM     32  C   UNL A   1      41.531  31.169  35.348  1.00  0.00     0.031 C 
ATOM     33  C   UNL A   1      44.669  28.147  31.116  1.00  0.00     0.029 A 
ATOM     34  C   UNL A   1      43.649  28.812  31.777  1.00  0.00     0.049 A 
ATOM     35  H   UNL A   1      41.705  29.277  31.098  1.00  0.00     0.167 HD
ATOM     36  C   UNL A   1      42.644  30.053  33.679  1.00  0.00     0.074 A 
ATOM     37  C   UNL A   1      42.680  30.594  35.024  1.00  0.00     0.031 C 
ATOM     38  C   UNL A   1      43.655  29.351  33.113  1.00  0.00     0.037 A 
BRANCH  25  39
ATOM     39  C   UNL A   1      42.506  27.258  27.423  1.00  0.00     0.057 A 
ATOM     40  C   UNL A   1      42.384  25.865  27.366  1.00  0.00     0.134 A 
ATOM     41  C   UNL A   1      43.023  27.909  26.294  1.00  0.00     0.134 A 
ATOM     42  F   UNL A   1      41.907  25.181  28.417  1.00  0.00    -0.206 F 
ATOM     43  C   UNL A   1      42.758  25.146  26.229  1.00  0.00     0.040 A 
ATOM     44  C   UNL A   1      43.380  27.204  25.144  1.00  0.00     0.040 A 
ATOM     45  F   UNL A   1      43.162  29.242  26.282  1.00  0.00    -0.206 F 
ATOM     46  C   UNL A   1      43.247  25.818  25.109  1.00  0.00     0.006 A 
ENDBRANCH  25  39
BRANCH  26  47
ATOM     47  C   UNL A   1      38.828  32.302  35.266  1.00  0.00     0.057 A 
ATOM     48  C   UNL A   1      38.897  33.691  35.405  1.00  0.00     0.134 A 
ATOM     49  C   UNL A   1      38.208  31.582  36.296  1.00  0.00     0.134 A 
ATOM     50  F   UNL A   1      39.490  34.437  34.460  1.00  0.00    -0.206 F 
ATOM     51  C   UNL A   1      38.394  34.338  36.535  1.00  0.00     0.040 A 
ATOM     52  C   UNL A   1      37.669  32.217  37.414  1.00  0.00     0.040 A 
ATOM     53  F   UNL A   1      38.097  30.246  36.218  1.00  0.00    -0.206 F 
ATOM     54  C   UNL A   1      37.773  33.600  37.541  1.00  0.00     0.006 A 
ENDBRANCH  26  47
BRANCH  38  55
ATOM     55  C   UNL A   1      44.878  29.143  33.953  1.00  0.00     0.057 A 
ATOM     56  C   UNL A   1      45.926  30.071  33.964  1.00  0.00     0.134 A 
ATOM     57  C   UNL A   1      45.001  28.012  34.768  1.00  0.00     0.134 A 
ATOM     58  F   UNL A   1      45.875  31.165  33.188  1.00  0.00    -0.206 F 
ATOM     59  C   UNL A   1      47.069  29.869  34.739  1.00  0.00     0.040 A 
ATOM     60  C   UNL A   1      46.125  27.813  35.568  1.00  0.00     0.040 A 
ATOM     61  F   UNL A   1      44.028  27.088  34.804  1.00  0.00    -0.206 F 
ATOM     62  C   UNL A   1      47.165  28.739  35.550  1.00  0.00     0.006 A 
ENDBRANCH  38  55
ENDBRANCH  12  13
ENDBRANCH   5   7
ENDBRANCH   2   3
ENDBRANCH   1   2
BRANCH   1  63
ATOM     63  C   UNL A   1      32.468  28.131  22.899  1.00  0.00     0.117 C 
BRANCH  63  64
ATOM     64  N   UNL A   1      32.877  27.003  22.091  1.00  0.00    -0.354 N 
ATOM     65  C   UNL A   1      33.309  25.751  22.359  1.00  0.00     0.242 C 
ATOM     66  H   UNL A   1      32.828  27.189  21.125  1.00  0.00     0.163 HD
ATOM     67  O   UNL A   1      33.657  25.118  21.347  1.00  0.00    -0.273 OA
BRANCH  65  68
ATOM     68  C   UNL A   1      33.368  25.073  23.762  1.00  0.00     0.173 C 
ATOM     69  C   UNL A   1      32.553  25.592  24.946  1.00  0.00     0.035 C 
ATOM     70  N   UNL A   1      33.010  23.654  23.566  1.00  0.00    -0.344 N 
ATOM     71  C   UNL A   1      31.050  25.335  24.781  1.00  0.00     0.004 C 
ATOM     72  C   UNL A   1      31.605  23.340  23.338  1.00  0.00     0.119 C 
ATOM     73  C   UNL A   1      30.771  23.857  24.510  1.00  0.00     0.022 C 
BRANCH  70  74
ATOM     74  C   UNL A   1      33.828  22.700  24.137  1.00  0.00     0.133 A 
ATOM     75  C   UNL A   1      33.415  21.389  24.167  1.00  0.00     0.076 A 
ATOM     76  N   UNL A   1      35.026  23.067  24.615  1.00  0.00    -0.211 NA
ATOM     77  C   UNL A   1      34.289  20.460  24.693  1.00  0.00     0.076 A 
ATOM     78  C   UNL A   1      35.806  22.102  25.131  1.00  0.00     0.162 A 
ATOM     79  N   UNL A   1      35.491  20.800  25.194  1.00  0.00    -0.228 NA
BRANCH  77  80
ATOM     80  C   UNL A   1      33.941  19.038  24.724  1.00  0.00     0.000 A 
ATOM     81  C   UNL A   1      32.655  18.621  25.097  1.00  0.00     0.010 A 
ATOM     82  C   UNL A   1      34.876  18.060  24.342  1.00  0.00     0.010 A 
ATOM     83  C   UNL A   1      32.307  17.268  25.066  1.00  0.00     0.001 A 
ATOM     84  C   UNL A   1      34.532  16.708  24.320  1.00  0.00     0.001 A 
ATOM     85  C   UNL A   1      33.244  16.314  24.675  1.00  0.00     0.000 A 
ENDBRANCH  77  80
BRANCH  78  86
ATOM     86  C   UNL A   1      37.111  22.514  25.650  1.00  0.00     0.021 A 
ATOM     87  C   UNL A   1      37.353  23.848  26.029  1.00  0.00     0.012 A 
ATOM     88  C   UNL A   1      38.162  21.590  25.769  1.00  0.00     0.032 A 
ATOM     89  C   UNL A   1      38.599  24.244  26.525  1.00  0.00     0.002 A 
ATOM     90  C   UNL A   1      39.410  21.993  26.243  1.00  0.00     0.041 A 
ATOM     91  C   UNL A   1      39.630  23.314  26.627  1.00  0.00     0.020 A 
ATOM     92  Cl  UNL A   1      40.693  20.850  26.347  1.00  0.00    -0.084 Cl
ENDBRANCH  78  86
ENDBRANCH  70  74
ENDBRANCH  65  68
ENDBRANCH  63  64
ENDBRANCH   1  63
TORSDOF 13
ENDMDL
MODEL 3
REMARK VINA RESULT:     -13.5      0.858      2.917
REMARK SMILES O=C(NCCCNC(=O)[C@H]1CCCCN1c1cc(-c2ccccc2)nc(-c2cccc(Cl)c2)n1)c1ccc(-c2c3nc(c(-c4c(F)cccc4F)c4ccc([nH]4)c(-c4c(F)cccc4F)c4nc(c(-c5c(F)cccc5F)c5ccc2[nH]5)C=C4)C=C3)cc1
REMARK SMILES IDX 5 1 4 2 3 3 1 4 2 5 35 7 36 8 88 9 37 10 87 11 38 12 39 13
REMARK SMILES IDX 40 14 81 15 41 16 86 17 80 18 82 19 42 20 85 21 79 22 78 23
REMARK SMILES IDX 43 25 69 26 52 27 68 28 53 29 56 30 67 31 83 32 54 33 55 34
REMARK SMILES IDX 66 36 84 37 57 38 44 39 45 40 50 41 46 42 47 43 49 44 51 45
REMARK SMILES IDX 48 46 70 47 71 48 76 49 72 50 73 51 75 52 77 53 74 54 58 55
REMARK SMILES IDX 59 56 64 57 60 58 61 59 63 60 65 61 62 62 6 63 7 64 8 65
REMARK SMILES IDX 9 67 10 68 11 69 15 70 12 71 14 72 13 73 16 74 17 75 34 76
REMARK SMILES IDX 18 77 26 78 25 79 19 80 20 81 24 82 21 83 23 84 22 85 27 86
REMARK SMILES IDX 28 87 33 88 29 89 31 90 30 91 32 92
REMARK H PARENT 3 6 82 24 56 35 7 66
REMARK Flexibility Score: inf
ROOT
ATOM      1  C   UNL A   1      34.009  28.771  23.499  1.00  0.00     0.042 C 
ENDROOT
BRANCH   1   2
ATOM      2  C   UNL A   1      33.860  28.826  25.006  1.00  0.00     0.118 C 
BRANCH   2   3
ATOM      3  N   UNL A   1      33.053  29.968  25.429  1.00  0.00    -0.352 N 
ATOM      4  O   UNL A   1      32.201  31.451  26.901  1.00  0.00    -0.269 OA
ATOM      5  C   UNL A   1      33.128  30.719  26.579  1.00  0.00     0.251 C 
ATOM      6  H   UNL A   1      32.349  30.240  24.796  1.00  0.00     0.163 HD
BRANCH   5   7
ATOM      7  C   UNL A   1      34.338  30.631  27.419  1.00  0.00     0.039 A 
ATOM      8  C   UNL A   1      34.694  29.405  27.978  1.00  0.00     0.014 A 
ATOM      9  C   UNL A   1      35.135  31.758  27.631  1.00  0.00     0.014 A 
ATOM     10  C   UNL A   1      35.723  29.338  28.898  1.00  0.00     0.010 A 
ATOM     11  C   UNL A   1      36.273  31.654  28.437  1.00  0.00     0.010 A 
ATOM     12  C   UNL A   1      36.565  30.444  29.083  1.00  0.00    -0.014 A 
BRANCH  12  13
ATOM     13  C   UNL A   1      37.826  30.227  29.830  1.00  0.00     0.031 A 
ATOM     14  C   UNL A   1      38.003  30.715  31.234  1.00  0.00     0.074 A 
ATOM     15  C   UNL A   1      38.797  29.529  29.205  1.00  0.00     0.049 A 
ATOM     16  N   UNL A   1      39.046  30.590  32.013  1.00  0.00    -0.248 NA
ATOM     17  C   UNL A   1      36.880  31.441  31.846  1.00  0.00     0.031 C 
ATOM     18  C   UNL A   1      38.719  29.023  27.829  1.00  0.00     0.029 A 
ATOM     19  N   UNL A   1      40.021  29.099  29.641  1.00  0.00    -0.354 N 
ATOM     20  C   UNL A   1      38.721  31.242  33.193  1.00  0.00     0.074 A 
ATOM     21  C   UNL A   1      37.384  31.771  33.029  1.00  0.00     0.031 C 
ATOM     22  C   UNL A   1      39.812  28.302  27.557  1.00  0.00     0.029 A 
ATOM     23  C   UNL A   1      40.712  28.378  28.697  1.00  0.00     0.049 A 
ATOM     24  H   UNL A   1      40.372  29.287  30.541  1.00  0.00     0.167 HD
ATOM     25  C   UNL A   1      39.481  31.383  34.305  1.00  0.00     0.037 A 
ATOM     26  C   UNL A   1      41.956  27.869  28.726  1.00  0.00     0.037 A 
ATOM     27  C   UNL A   1      40.802  30.825  34.453  1.00  0.00     0.049 A 
ATOM     28  C   UNL A   1      42.775  28.070  29.964  1.00  0.00     0.074 A 
ATOM     29  C   UNL A   1      41.631  30.862  35.560  1.00  0.00     0.029 A 
ATOM     30  N   UNL A   1      41.487  30.138  33.462  1.00  0.00    -0.354 N 
ATOM     31  N   UNL A   1      42.437  28.654  31.088  1.00  0.00    -0.248 NA
ATOM     32  C   UNL A   1      44.150  27.559  29.934  1.00  0.00     0.031 C 
ATOM     33  C   UNL A   1      42.840  30.247  35.220  1.00  0.00     0.029 A 
ATOM     34  C   UNL A   1      42.745  29.780  33.920  1.00  0.00     0.049 A 
ATOM     35  H   UNL A   1      41.133  29.935  32.565  1.00  0.00     0.167 HD
ATOM     36  C   UNL A   1      43.555  28.579  31.902  1.00  0.00     0.074 A 
ATOM     37  C   UNL A   1      44.568  27.859  31.155  1.00  0.00     0.031 C 
ATOM     38  C   UNL A   1      43.736  29.071  33.152  1.00  0.00     0.037 A 
BRANCH  25  39
ATOM     39  C   UNL A   1      38.930  32.187  35.445  1.00  0.00     0.057 A 
ATOM     40  C   UNL A   1      38.250  31.593  36.516  1.00  0.00     0.134 A 
ATOM     41  C   UNL A   1      39.169  33.567  35.517  1.00  0.00     0.134 A 
ATOM     42  F   UNL A   1      37.981  30.279  36.505  1.00  0.00    -0.206 F 
ATOM     43  C   UNL A   1      37.828  32.342  37.616  1.00  0.00     0.040 A 
ATOM     44  C   UNL A   1      38.770  34.322  36.620  1.00  0.00     0.040 A 
ATOM     45  F   UNL A   1      39.818  34.196  34.526  1.00  0.00    -0.206 F 
ATOM     46  C   UNL A   1      38.098  33.709  37.675  1.00  0.00     0.006 A 
ENDBRANCH  25  39
BRANCH  26  47
ATOM     47  C   UNL A   1      42.511  27.186  27.531  1.00  0.00     0.057 A 
ATOM     48  C   UNL A   1      42.518  25.792  27.424  1.00  0.00     0.134 A 
ATOM     49  C   UNL A   1      43.058  27.916  26.467  1.00  0.00     0.134 A 
ATOM     50  F   UNL A   1      42.021  25.036  28.415  1.00  0.00    -0.206 F 
ATOM     51  C   UNL A   1      43.070  25.147  26.316  1.00  0.00     0.040 A 
ATOM     52  C   UNL A   1      43.581  27.287  25.338  1.00  0.00     0.040 A 
ATOM     53  F   UNL A   1      43.072  29.258  26.501  1.00  0.00    -0.206 F 
ATOM     54  C   UNL A   1      43.598  25.896  25.266  1.00  0.00     0.006 A 
ENDBRANCH  26  47
BRANCH  38  55
ATOM     55  C   UNL A   1      45.076  28.833  33.778  1.00  0.00     0.057 A 
ATOM     56  C   UNL A   1      45.344  27.677  34.522  1.00  0.00     0.134 A 
ATOM     57  C   UNL A   1      46.112  29.761  33.622  1.00  0.00     0.134 A 
ATOM     58  F   UNL A   1      44.384  26.760  34.723  1.00  0.00    -0.206 F 
ATOM     59  C   UNL A   1      46.590  27.464  35.112  1.00  0.00     0.040 A 
ATOM     60  C   UNL A   1      47.370  29.546  34.183  1.00  0.00     0.040 A 
ATOM     61  F   UNL A   1      45.919  30.886  32.916  1.00  0.00    -0.206 F 
ATOM     62  C   UNL A   1      47.609  28.398  34.936  1.00  0.00     0.006 A 
ENDBRANCH  38  55
ENDBRANCH  12  13
ENDBRANCH   5   7
ENDBRANCH   2   3
ENDBRANCH   1   2
BRANCH   1  63
ATOM     63  C   UNL A   1      32.730  28.309  22.831  1.00  0.00     0.117 C 
BRANCH  63  64
ATOM     64  N   UNL A   1      32.968  27.168  21.974  1.00  0.00    -0.354 N 
ATOM     65  C   UNL A   1      33.284  25.871  22.189  1.00  0.00     0.242 C 
ATOM     66  H   UNL A   1      32.879  27.384  21.018  1.00  0.00     0.163 HD
ATOM     67  O   UNL A   1      33.500  25.234  21.144  1.00  0.00    -0.273 OA
BRANCH  65  68
ATOM     68  C   UNL A   1      33.360  25.154  23.571  1.00  0.00     0.173 C 
ATOM     69  C   UNL A   1      32.509  25.597  24.761  1.00  0.00     0.035 C 
ATOM     70  N   UNL A   1      33.071  23.726  23.327  1.00  0.00    -0.344 N 
ATOM     71  C   UNL A   1      31.022  25.275  24.570  1.00  0.00     0.004 C 
ATOM     72  C   UNL A   1      31.685  23.355  23.073  1.00  0.00     0.119 C 
ATOM     73  C   UNL A   1      30.815  23.795  24.251  1.00  0.00     0.022 C 
BRANCH  70  74
ATOM     74  C   UNL A   1      33.927  22.795  23.878  1.00  0.00     0.133 A 
ATOM     75  C   UNL A   1      35.125  23.211  24.410  1.00  0.00     0.076 A 
ATOM     76  N   UNL A   1      33.555  21.508  23.919  1.00  0.00    -0.211 NA
ATOM     77  C   UNL A   1      35.924  22.255  25.003  1.00  0.00     0.076 A 
ATOM     78  C   UNL A   1      34.402  20.638  24.495  1.00  0.00     0.162 A 
ATOM     79  N   UNL A   1      35.584  20.954  25.046  1.00  0.00    -0.228 NA
BRANCH  77  80
ATOM     80  C   UNL A   1      37.196  22.625  25.628  1.00  0.00     0.000 A 
ATOM     81  C   UNL A   1      38.244  21.697  25.728  1.00  0.00     0.010 A 
ATOM     82  C   UNL A   1      37.410  23.929  26.107  1.00  0.00     0.010 A 
ATOM     83  C   UNL A   1      39.477  22.070  26.268  1.00  0.00     0.001 A 
ATOM     84  C   UNL A   1      38.639  24.299  26.655  1.00  0.00     0.001 A 
ATOM     85  C   UNL A   1      39.674  23.371  26.729  1.00  0.00     0.000 A 
ENDBRANCH  77  80
BRANCH  78  86
ATOM     86  C   UNL A   1      33.985  19.235  24.533  1.00  0.00     0.021 A 
ATOM     87  C   UNL A   1      32.648  18.869  24.293  1.00  0.00     0.012 A 
ATOM     88  C   UNL A   1      34.910  18.219  24.827  1.00  0.00     0.032 A 
ATOM     89  C   UNL A   1      32.247  17.530  24.330  1.00  0.00     0.002 A 
ATOM     90  C   UNL A   1      34.502  16.886  24.884  1.00  0.00     0.041 A 
ATOM     91  C   UNL A   1      33.177  16.538  24.631  1.00  0.00     0.020 A 
ATOM     92  Cl  UNL A   1      35.644  15.661  25.281  1.00  0.00    -0.084 Cl
ENDBRANCH  78  86
ENDBRANCH  70  74
ENDBRANCH  65  68
ENDBRANCH  63  64
ENDBRANCH   1  63
TORSDOF 13
ENDMDL
