MODEL 1
REMARK VINA RESULT:     -13.2      0.000      0.000
REMARK SMILES O=C(NCCCNC(=O)[C@H]1CCCN(C(=O)C2CCN(S(=O)(=O)c3ccccc3)CC2)C1)c1ccc(-c2c3nc(c(-c4c(F)cccc4F)c4ccc([nH]4)c(-c4c(F)cccc4F)c4nc(c(-c5c(F)cccc5F)c5ccc2[nH]5)C=C4)C=C3)cc1
REMARK SMILES IDX 6 1 5 2 4 3 3 4 1 5 2 6 33 8 34 9 86 10 35 11 85 12 36 13
REMARK SMILES IDX 37 14 38 15 79 16 39 17 84 18 78 19 80 20 40 21 83 22 77 23
REMARK SMILES IDX 76 24 41 26 67 27 50 28 66 29 51 30 54 31 65 32 81 33 52 34
REMARK SMILES IDX 53 35 64 37 82 38 55 39 42 40 43 41 48 42 44 43 45 44 47 45
REMARK SMILES IDX 49 46 46 47 68 48 69 49 74 50 70 51 71 52 73 53 75 54 72 55
REMARK SMILES IDX 56 56 57 57 62 58 58 59 59 60 61 61 63 62 60 63 7 64 8 65
REMARK SMILES IDX 9 67 10 68 11 69 32 70 12 71 14 72 13 73 15 74 16 75 17 76
REMARK SMILES IDX 18 77 31 78 19 79 30 80 20 81 21 82 22 83 23 84 24 85 25 86
REMARK SMILES IDX 29 87 26 88 28 89 27 90
REMARK H PARENT 3 7 80 25 54 36 7 66
REMARK Flexibility Score: inf
ROOT
ATOM      1  C   UNL A   1      36.587  20.630  25.034  1.00  0.00     0.117 C 
ENDROOT
BRANCH   1   2
ATOM      2  C   UNL A   1      37.796  19.695  24.971  1.00  0.00     0.042 C 
BRANCH   2   3
ATOM      3  C   UNL A   1      38.993  20.185  25.770  1.00  0.00     0.118 C 
BRANCH   3   4
ATOM      4  N   UNL A   1      40.077  19.214  25.795  1.00  0.00    -0.352 N 
ATOM      5  O   UNL A   1      42.194  18.462  25.813  1.00  0.00    -0.269 OA
ATOM      6  C   UNL A   1      41.421  19.394  26.019  1.00  0.00     0.251 C 
ATOM      7  H   UNL A   1      39.806  18.284  25.626  1.00  0.00     0.163 HD
BRANCH   6   8
ATOM      8  C   UNL A   1      41.951  20.694  26.496  1.00  0.00     0.039 A 
ATOM      9  C   UNL A   1      42.295  21.705  25.600  1.00  0.00     0.014 A 
ATOM     10  C   UNL A   1      42.044  20.929  27.875  1.00  0.00     0.014 A 
ATOM     11  C   UNL A   1      42.853  22.888  26.067  1.00  0.00     0.010 A 
ATOM     12  C   UNL A   1      42.508  22.163  28.348  1.00  0.00     0.010 A 
ATOM     13  C   UNL A   1      42.931  23.147  27.447  1.00  0.00    -0.014 A 
BRANCH  13  14
ATOM     14  C   UNL A   1      43.365  24.499  27.882  1.00  0.00     0.031 A 
ATOM     15  C   UNL A   1      44.801  24.929  27.807  1.00  0.00     0.074 A 
ATOM     16  C   UNL A   1      42.413  25.368  28.274  1.00  0.00     0.049 A 
ATOM     17  N   UNL A   1      45.315  26.110  28.046  1.00  0.00    -0.248 NA
ATOM     18  C   UNL A   1      45.789  23.910  27.426  1.00  0.00     0.031 C 
ATOM     19  C   UNL A   1      40.990  25.043  28.417  1.00  0.00     0.029 A 
ATOM     20  N   UNL A   1      42.478  26.703  28.575  1.00  0.00    -0.354 N 
ATOM     21  C   UNL A   1      46.684  25.975  27.857  1.00  0.00     0.074 A 
ATOM     22  C   UNL A   1      46.925  24.592  27.507  1.00  0.00     0.031 C 
ATOM     23  C   UNL A   1      40.308  26.163  28.692  1.00  0.00     0.029 A 
ATOM     24  C   UNL A   1      41.248  27.271  28.808  1.00  0.00     0.049 A 
ATOM     25  H   UNL A   1      43.323  27.207  28.619  1.00  0.00     0.167 HD
ATOM     26  C   UNL A   1      47.646  26.923  27.963  1.00  0.00     0.037 A 
ATOM     27  C   UNL A   1      40.911  28.543  29.082  1.00  0.00     0.037 A 
ATOM     28  C   UNL A   1      47.394  28.300  28.304  1.00  0.00     0.049 A 
ATOM     29  C   UNL A   1      41.994  29.575  29.159  1.00  0.00     0.074 A 
ATOM     30  C   UNL A   1      48.302  29.337  28.443  1.00  0.00     0.029 A 
ATOM     31  N   UNL A   1      46.139  28.835  28.556  1.00  0.00    -0.354 N 
ATOM     32  N   UNL A   1      43.283  29.431  28.971  1.00  0.00    -0.248 NA
ATOM     33  C   UNL A   1      41.580  30.945  29.492  1.00  0.00     0.031 C 
ATOM     34  C   UNL A   1      47.598  30.493  28.803  1.00  0.00     0.029 A 
ATOM     35  C   UNL A   1      46.248  30.183  28.854  1.00  0.00     0.049 A 
ATOM     36  H   UNL A   1      45.295  28.329  28.527  1.00  0.00     0.167 HD
ATOM     37  C   UNL A   1      43.837  30.685  29.173  1.00  0.00     0.074 A 
ATOM     38  C   UNL A   1      42.739  31.588  29.455  1.00  0.00     0.031 C 
ATOM     39  C   UNL A   1      45.141  31.055  29.147  1.00  0.00     0.037 A 
BRANCH  26  40
ATOM     40  C   UNL A   1      49.065  26.503  27.715  1.00  0.00     0.057 A 
ATOM     41  C   UNL A   1      49.629  26.531  26.433  1.00  0.00     0.134 A 
ATOM     42  C   UNL A   1      49.892  26.111  28.775  1.00  0.00     0.134 A 
ATOM     43  F   UNL A   1      48.887  26.883  25.372  1.00  0.00    -0.206 F 
ATOM     44  C   UNL A   1      50.962  26.175  26.212  1.00  0.00     0.040 A 
ATOM     45  C   UNL A   1      51.231  25.771  28.571  1.00  0.00     0.040 A 
ATOM     46  F   UNL A   1      49.417  26.065  30.028  1.00  0.00    -0.206 F 
ATOM     47  C   UNL A   1      51.768  25.800  27.285  1.00  0.00     0.006 A 
ENDBRANCH  26  40
BRANCH  27  48
ATOM     48  C   UNL A   1      39.488  28.899  29.306  1.00  0.00     0.057 A 
ATOM     49  C   UNL A   1      38.911  28.829  30.578  1.00  0.00     0.134 A 
ATOM     50  C   UNL A   1      38.677  29.340  28.252  1.00  0.00     0.134 A 
ATOM     51  F   UNL A   1      39.632  28.400  31.625  1.00  0.00    -0.206 F 
ATOM     52  C   UNL A   1      37.576  29.175  30.794  1.00  0.00     0.040 A 
ATOM     53  C   UNL A   1      37.350  29.715  28.458  1.00  0.00     0.040 A 
ATOM     54  F   UNL A   1      39.175  29.438  27.011  1.00  0.00    -0.206 F 
ATOM     55  C   UNL A   1      36.794  29.627  29.732  1.00  0.00     0.006 A 
ENDBRANCH  27  48
BRANCH  39  56
ATOM     56  C   UNL A   1      45.431  32.496  29.440  1.00  0.00     0.057 A 
ATOM     57  C   UNL A   1      45.685  32.938  30.745  1.00  0.00     0.134 A 
ATOM     58  C   UNL A   1      45.454  33.446  28.414  1.00  0.00     0.134 A 
ATOM     59  F   UNL A   1      45.660  32.075  31.772  1.00  0.00    -0.206 F 
ATOM     60  C   UNL A   1      45.925  34.284  31.023  1.00  0.00     0.040 A 
ATOM     61  C   UNL A   1      45.713  34.792  28.677  1.00  0.00     0.040 A 
ATOM     62  F   UNL A   1      45.222  33.085  27.144  1.00  0.00    -0.206 F 
ATOM     63  C   UNL A   1      45.943  35.214  29.985  1.00  0.00     0.006 A 
ENDBRANCH  39  56
ENDBRANCH  13  14
ENDBRANCH   6   8
ENDBRANCH   3   4
ENDBRANCH   2   3
ENDBRANCH   1   2
BRANCH   1  64
ATOM     64  N   UNL A   1      35.318  19.917  25.108  1.00  0.00    -0.356 N 
ATOM     65  C   UNL A   1      34.010  20.252  24.952  1.00  0.00     0.224 C 
ATOM     66  H   UNL A   1      35.436  18.963  25.320  1.00  0.00     0.163 HD
ATOM     67  O   UNL A   1      33.219  19.300  24.988  1.00  0.00    -0.275 OA
BRANCH  65  68
ATOM     68  C   UNL A   1      33.447  21.663  24.724  1.00  0.00     0.098 C 
ATOM     69  C   UNL A   1      33.014  22.019  23.300  1.00  0.00     0.017 C 
ATOM     70  C   UNL A   1      32.413  21.979  25.848  1.00  0.00     0.133 C 
ATOM     71  C   UNL A   1      32.078  23.199  23.218  1.00  0.00     0.022 C 
ATOM     72  N   UNL A   1      31.494  23.085  25.517  1.00  0.00    -0.342 N 
ATOM     73  C   UNL A   1      30.952  22.965  24.202  1.00  0.00     0.119 C 
BRANCH  72  74
ATOM     74  C   UNL A   1      31.240  24.130  26.388  1.00  0.00     0.225 C 
ATOM     75  O   UNL A   1      30.250  24.074  27.130  1.00  0.00    -0.275 OA
BRANCH  74  76
ATOM     76  C   UNL A   1      32.148  25.406  26.505  1.00  0.00     0.081 C 
ATOM     77  C   UNL A   1      31.492  26.759  26.733  1.00  0.00     0.030 C 
ATOM     78  C   UNL A   1      33.351  25.558  25.587  1.00  0.00     0.030 C 
ATOM     79  C   UNL A   1      31.306  27.674  25.528  1.00  0.00     0.103 C 
ATOM     80  C   UNL A   1      33.132  26.351  24.309  1.00  0.00     0.103 C 
ATOM     81  N   UNL A   1      32.307  27.576  24.400  1.00  0.00    -0.198 NA
BRANCH  81  82
ATOM     82  S   UNL A   1      31.523  28.111  22.919  1.00  0.00     0.243 S 
ATOM     83  O   UNL A   1      32.345  29.167  22.346  1.00  0.00    -0.207 OA
ATOM     84  O   UNL A   1      31.270  26.915  22.151  1.00  0.00    -0.207 OA
BRANCH  82  85
ATOM     85  C   UNL A   1      29.957  28.891  23.266  1.00  0.00     0.082 A 
ATOM     86  C   UNL A   1      28.789  28.149  23.062  1.00  0.00     0.022 A 
ATOM     87  C   UNL A   1      29.863  30.281  23.419  1.00  0.00     0.022 A 
ATOM     88  C   UNL A   1      27.547  28.792  23.038  1.00  0.00     0.001 A 
ATOM     89  C   UNL A   1      28.620  30.915  23.428  1.00  0.00     0.001 A 
ATOM     90  C   UNL A   1      27.462  30.171  23.228  1.00  0.00     0.000 A 
ENDBRANCH  82  85
ENDBRANCH  81  82
ENDBRANCH  74  76
ENDBRANCH  72  74
ENDBRANCH  65  68
ENDBRANCH   1  64
TORSDOF 14
ENDMDL
MODEL 2
REMARK VINA RESULT:     -13.2      2.442      8.239
REMARK SMILES O=C(NCCCNC(=O)[C@H]1CCCN(C(=O)C2CCN(S(=O)(=O)c3ccccc3)CC2)C1)c1ccc(-c2c3nc(c(-c4c(F)cccc4F)c4ccc([nH]4)c(-c4c(F)cccc4F)c4nc(c(-c5c(F)cccc5F)c5ccc2[nH]5)C=C4)C=C3)cc1
REMARK SMILES IDX 6 1 5 2 4 3 3 4 1 5 2 6 33 8 34 9 86 10 35 11 85 12 36 13
REMARK SMILES IDX 37 14 38 15 79 16 39 17 84 18 78 19 80 20 40 21 83 22 77 23
REMARK SMILES IDX 76 24 41 26 67 27 50 28 66 29 51 30 54 31 65 32 81 33 52 34
REMARK SMILES IDX 53 35 64 37 82 38 55 39 42 40 43 41 48 42 44 43 45 44 47 45
REMARK SMILES IDX 49 46 46 47 68 48 69 49 74 50 70 51 71 52 73 53 75 54 72 55
REMARK SMILES IDX 56 56 57 57 62 58 58 59 59 60 61 61 63 62 60 63 7 64 8 65
REMARK SMILES IDX 9 67 10 68 11 69 32 70 12 71 14 72 13 73 15 74 16 75 17 76
REMARK SMILES IDX 18 77 31 78 19 79 30 80 20 81 21 82 22 83 23 84 24 85 25 86
REMARK SMILES IDX 29 87 26 88 28 89 27 90
REMARK H PARENT 3 7 80 25 54 36 7 66
REMARK Flexibility Score: inf
ROOT
ATOM      1  C   UNL A   1      32.447  29.928  26.409  1.00  0.00     0.117 C 
ENDROOT
BRANCH   1   2
ATOM      2  C   UNL A   1      33.818  29.324  26.100  1.00  0.00     0.042 C 
BRANCH   2   3
ATOM      3  C   UNL A   1      34.627  28.973  27.339  1.00  0.00     0.118 C 
BRANCH   3   4
ATOM      4  N   UNL A   1      34.699  30.077  28.285  1.00  0.00    -0.352 N 
ATOM      5  O   UNL A   1      35.523  31.331  29.958  1.00  0.00    -0.269 OA
ATOM      6  C   UNL A   1      35.733  30.481  29.096  1.00  0.00     0.251 C 
ATOM      7  H   UNL A   1      33.882  30.620  28.354  1.00  0.00     0.163 HD
BRANCH   6   8
ATOM      8  C   UNL A   1      37.090  29.903  28.952  1.00  0.00     0.039 A 
ATOM      9  C   UNL A   1      37.803  30.023  27.759  1.00  0.00     0.014 A 
ATOM     10  C   UNL A   1      37.690  29.282  30.056  1.00  0.00     0.014 A 
ATOM     11  C   UNL A   1      39.044  29.415  27.626  1.00  0.00     0.010 A 
ATOM     12  C   UNL A   1      38.985  28.760  29.953  1.00  0.00     0.010 A 
ATOM     13  C   UNL A   1      39.667  28.809  28.730  1.00  0.00    -0.014 A 
BRANCH  13  14
ATOM     14  C   UNL A   1      41.066  28.339  28.574  1.00  0.00     0.031 A 
ATOM     15  C   UNL A   1      41.387  26.920  28.205  1.00  0.00     0.074 A 
ATOM     16  C   UNL A   1      42.052  29.250  28.695  1.00  0.00     0.049 A 
ATOM     17  N   UNL A   1      42.551  26.390  27.925  1.00  0.00    -0.248 NA
ATOM     18  C   UNL A   1      40.265  25.971  28.148  1.00  0.00     0.031 C 
ATOM     19  C   UNL A   1      41.856  30.650  29.086  1.00  0.00     0.029 A 
ATOM     20  N   UNL A   1      43.399  29.161  28.456  1.00  0.00    -0.354 N 
ATOM     21  C   UNL A   1      42.307  25.046  27.673  1.00  0.00     0.074 A 
ATOM     22  C   UNL A   1      40.887  24.836  27.854  1.00  0.00     0.031 C 
ATOM     23  C   UNL A   1      43.019  31.305  28.977  1.00  0.00     0.029 A 
ATOM     24  C   UNL A   1      44.054  30.363  28.572  1.00  0.00     0.049 A 
ATOM     25  H   UNL A   1      43.851  28.318  28.225  1.00  0.00     0.167 HD
ATOM     26  C   UNL A   1      43.190  24.082  27.317  1.00  0.00     0.037 A 
ATOM     27  C   UNL A   1      45.347  30.676  28.372  1.00  0.00     0.037 A 
ATOM     28  C   UNL A   1      44.602  24.304  27.130  1.00  0.00     0.049 A 
ATOM     29  C   UNL A   1      46.292  29.595  27.945  1.00  0.00     0.074 A 
ATOM     30  C   UNL A   1      45.581  23.391  26.775  1.00  0.00     0.029 A 
ATOM     31  N   UNL A   1      45.235  25.530  27.278  1.00  0.00    -0.354 N 
ATOM     32  N   UNL A   1      46.043  28.331  27.704  1.00  0.00    -0.248 NA
ATOM     33  C   UNL A   1      47.699  29.979  27.769  1.00  0.00     0.031 C 
ATOM     34  C   UNL A   1      46.811  24.060  26.734  1.00  0.00     0.029 A 
ATOM     35  C   UNL A   1      46.591  25.397  27.028  1.00  0.00     0.049 A 
ATOM     36  H   UNL A   1      44.786  26.370  27.524  1.00  0.00     0.167 HD
ATOM     37  C   UNL A   1      47.260  27.765  27.360  1.00  0.00     0.074 A 
ATOM     38  C   UNL A   1      48.239  28.833  27.380  1.00  0.00     0.031 C 
ATOM     39  C   UNL A   1      47.547  26.472  27.070  1.00  0.00     0.037 A 
BRANCH  26  40
ATOM     40  C   UNL A   1      42.658  22.694  27.113  1.00  0.00     0.057 A 
ATOM     41  C   UNL A   1      42.346  21.859  28.194  1.00  0.00     0.134 A 
ATOM     42  C   UNL A   1      42.409  22.203  25.826  1.00  0.00     0.134 A 
ATOM     43  F   UNL A   1      42.574  22.263  29.453  1.00  0.00    -0.206 F 
ATOM     44  C   UNL A   1      41.815  20.581  28.001  1.00  0.00     0.040 A 
ATOM     45  C   UNL A   1      41.861  20.935  25.620  1.00  0.00     0.040 A 
ATOM     46  F   UNL A   1      42.681  22.952  24.747  1.00  0.00    -0.206 F 
ATOM     47  C   UNL A   1      41.565  20.119  26.710  1.00  0.00     0.006 A 
ENDBRANCH  26  40
BRANCH  27  48
ATOM     48  C   UNL A   1      45.809  32.070  28.577  1.00  0.00     0.057 A 
ATOM     49  C   UNL A   1      46.313  32.497  29.811  1.00  0.00     0.134 A 
ATOM     50  C   UNL A   1      45.781  33.005  27.534  1.00  0.00     0.134 A 
ATOM     51  F   UNL A   1      46.352  31.652  30.853  1.00  0.00    -0.206 F 
ATOM     52  C   UNL A   1      46.761  33.804  30.005  1.00  0.00     0.040 A 
ATOM     53  C   UNL A   1      46.251  34.306  27.705  1.00  0.00     0.040 A 
ATOM     54  F   UNL A   1      45.320  32.654  26.325  1.00  0.00    -0.206 F 
ATOM     55  C   UNL A   1      46.737  34.711  28.946  1.00  0.00     0.006 A 
ENDBRANCH  27  48
BRANCH  39  56
ATOM     56  C   UNL A   1      48.980  26.160  26.763  1.00  0.00     0.057 A 
ATOM     57  C   UNL A   1      49.878  25.789  27.772  1.00  0.00     0.134 A 
ATOM     58  C   UNL A   1      49.465  26.232  25.454  1.00  0.00     0.134 A 
ATOM     59  F   UNL A   1      49.474  25.718  29.050  1.00  0.00    -0.206 F 
ATOM     60  C   UNL A   1      51.219  25.528  27.492  1.00  0.00     0.040 A 
ATOM     61  C   UNL A   1      50.800  25.953  25.157  1.00  0.00     0.040 A 
ATOM     62  F   UNL A   1      48.654  26.578  24.443  1.00  0.00    -0.206 F 
ATOM     63  C   UNL A   1      51.682  25.607  26.179  1.00  0.00     0.006 A 
ENDBRANCH  39  56
ENDBRANCH  13  14
ENDBRANCH   6   8
ENDBRANCH   3   4
ENDBRANCH   2   3
ENDBRANCH   1   2
BRANCH   1  64
ATOM     64  N   UNL A   1      31.571  29.980  25.245  1.00  0.00    -0.356 N 
ATOM     65  C   UNL A   1      31.028  29.062  24.402  1.00  0.00     0.224 C 
ATOM     66  H   UNL A   1      31.310  30.901  25.014  1.00  0.00     0.163 HD
ATOM     67  O   UNL A   1      30.225  29.521  23.579  1.00  0.00    -0.275 OA
BRANCH  65  68
ATOM     68  C   UNL A   1      31.303  27.551  24.393  1.00  0.00     0.098 C 
ATOM     69  C   UNL A   1      30.142  26.630  24.774  1.00  0.00     0.017 C 
ATOM     70  C   UNL A   1      32.057  27.185  23.078  1.00  0.00     0.133 C 
ATOM     71  C   UNL A   1      30.316  25.202  24.323  1.00  0.00     0.022 C 
ATOM     72  N   UNL A   1      31.995  25.751  22.736  1.00  0.00    -0.342 N 
ATOM     73  C   UNL A   1      30.674  25.222  22.852  1.00  0.00     0.119 C 
BRANCH  72  74
ATOM     74  C   UNL A   1      33.116  25.018  22.387  1.00  0.00     0.225 C 
ATOM     75  O   UNL A   1      33.278  24.682  21.207  1.00  0.00    -0.275 OA
BRANCH  74  76
ATOM     76  C   UNL A   1      34.223  24.581  23.411  1.00  0.00     0.081 C 
ATOM     77  C   UNL A   1      35.025  23.318  23.137  1.00  0.00     0.030 C 
ATOM     78  C   UNL A   1      33.962  24.719  24.904  1.00  0.00     0.030 C 
ATOM     79  C   UNL A   1      34.620  22.044  23.868  1.00  0.00     0.103 C 
ATOM     80  C   UNL A   1      33.420  23.489  25.613  1.00  0.00     0.103 C 
ATOM     81  N   UNL A   1      33.995  22.178  25.238  1.00  0.00    -0.198 NA
BRANCH  81  82
ATOM     82  S   UNL A   1      32.989  20.764  25.526  1.00  0.00     0.243 S 
ATOM     83  O   UNL A   1      33.278  20.288  26.870  1.00  0.00    -0.207 OA
ATOM     84  O   UNL A   1      31.642  21.162  25.190  1.00  0.00    -0.207 OA
BRANCH  82  85
ATOM     85  C   UNL A   1      33.453  19.415  24.456  1.00  0.00     0.082 A 
ATOM     86  C   UNL A   1      32.529  18.981  23.500  1.00  0.00     0.022 A 
ATOM     87  C   UNL A   1      34.552  18.600  24.760  1.00  0.00     0.022 A 
ATOM     88  C   UNL A   1      32.722  17.761  22.843  1.00  0.00     0.001 A 
ATOM     89  C   UNL A   1      34.761  17.401  24.079  1.00  0.00     0.001 A 
ATOM     90  C   UNL A   1      33.840  16.976  23.126  1.00  0.00     0.000 A 
ENDBRANCH  82  85
ENDBRANCH  81  82
ENDBRANCH  74  76
ENDBRANCH  72  74
ENDBRANCH  65  68
ENDBRANCH   1  64
TORSDOF 14
ENDMDL
MODEL 3
REMARK VINA RESULT:     -13.2      1.625      2.171
REMARK SMILES O=C(NCCCNC(=O)[C@H]1CCCN(C(=O)C2CCN(S(=O)(=O)c3ccccc3)CC2)C1)c1ccc(-c2c3nc(c(-c4c(F)cccc4F)c4ccc([nH]4)c(-c4c(F)cccc4F)c4nc(c(-c5c(F)cccc5F)c5ccc2[nH]5)C=C4)C=C3)cc1
REMARK SMILES IDX 6 1 5 2 4 3 3 4 1 5 2 6 33 8 34 9 86 10 35 11 85 12 36 13
REMARK SMILES IDX 37 14 38 15 79 16 39 17 84 18 78 19 80 20 40 21 83 22 77 23
REMARK SMILES IDX 76 24 41 26 67 27 50 28 66 29 51 30 54 31 65 32 81 33 52 34
REMARK SMILES IDX 53 35 64 37 82 38 55 39 42 40 43 41 48 42 44 43 45 44 47 45
REMARK SMILES IDX 49 46 46 47 68 48 69 49 74 50 70 51 71 52 73 53 75 54 72 55
REMARK SMILES IDX 56 56 57 57 62 58 58 59 59 60 61 61 63 62 60 63 7 64 8 65
REMARK SMILES IDX 9 67 10 68 11 69 32 70 12 71 14 72 13 73 15 74 16 75 17 76
REMARK SMILES IDX 18 77 31 78 19 79 30 80 20 81 21 82 22 83 23 84 24 85 25 86
REMARK SMILES IDX 29 87 26 88 28 89 27 90
REMARK H PARENT 3 7 80 25 54 36 7 66
REMARK Flexibility Score: inf
ROOT
ATOM      1  C   UNL A   1      37.508  20.612  24.655  1.00  0.00     0.117 C 
ENDROOT
BRANCH   1   2
ATOM      2  C   UNL A   1      38.375  19.397  24.987  1.00  0.00     0.042 C 
BRANCH   2   3
ATOM      3  C   UNL A   1      39.378  19.645  26.103  1.00  0.00     0.118 C 
BRANCH   3   4
ATOM      4  N   UNL A   1      40.683  19.071  25.812  1.00  0.00    -0.352 N 
ATOM      5  O   UNL A   1      42.893  19.030  25.405  1.00  0.00    -0.269 OA
ATOM      6  C   UNL A   1      41.934  19.639  25.871  1.00  0.00     0.251 C 
ATOM      7  H   UNL A   1      40.669  18.129  25.528  1.00  0.00     0.163 HD
BRANCH   6   8
ATOM      8  C   UNL A   1      42.139  20.974  26.482  1.00  0.00     0.039 A 
ATOM      9  C   UNL A   1      42.160  21.139  27.867  1.00  0.00     0.014 A 
ATOM     10  C   UNL A   1      42.382  22.076  25.650  1.00  0.00     0.014 A 
ATOM     11  C   UNL A   1      42.286  22.408  28.414  1.00  0.00     0.010 A 
ATOM     12  C   UNL A   1      42.614  23.340  26.207  1.00  0.00     0.010 A 
ATOM     13  C   UNL A   1      42.552  23.518  27.595  1.00  0.00    -0.014 A 
BRANCH  13  14
ATOM     14  C   UNL A   1      42.859  24.815  28.250  1.00  0.00     0.031 A 
ATOM     15  C   UNL A   1      44.266  25.226  28.569  1.00  0.00     0.074 A 
ATOM     16  C   UNL A   1      41.834  25.661  28.479  1.00  0.00     0.049 A 
ATOM     17  N   UNL A   1      44.699  26.369  29.037  1.00  0.00    -0.248 NA
ATOM     18  C   UNL A   1      45.324  24.230  28.344  1.00  0.00     0.031 C 
ATOM     19  C   UNL A   1      40.421  25.349  28.239  1.00  0.00     0.029 A 
ATOM     20  N   UNL A   1      41.816  26.961  28.912  1.00  0.00    -0.354 N 
ATOM     21  C   UNL A   1      46.074  26.229  29.176  1.00  0.00     0.074 A 
ATOM     22  C   UNL A   1      46.402  24.880  28.765  1.00  0.00     0.031 C 
ATOM     23  C   UNL A   1      39.686  26.450  28.445  1.00  0.00     0.029 A 
ATOM     24  C   UNL A   1      40.563  27.525  28.892  1.00  0.00     0.049 A 
ATOM     25  H   UNL A   1      42.622  27.442  29.209  1.00  0.00     0.167 HD
ATOM     26  C   UNL A   1      46.976  27.145  29.603  1.00  0.00     0.037 A 
ATOM     27  C   UNL A   1      40.162  28.772  29.196  1.00  0.00     0.037 A 
ATOM     28  C   UNL A   1      46.640  28.489  30.003  1.00  0.00     0.049 A 
ATOM     29  C   UNL A   1      41.187  29.773  29.632  1.00  0.00     0.074 A 
ATOM     30  C   UNL A   1      47.480  29.492  30.456  1.00  0.00     0.029 A 
ATOM     31  N   UNL A   1      45.358  29.019  29.991  1.00  0.00    -0.354 N 
ATOM     32  N   UNL A   1      42.484  29.625  29.751  1.00  0.00    -0.248 NA
ATOM     33  C   UNL A   1      40.697  31.112  29.983  1.00  0.00     0.031 C 
ATOM     34  C   UNL A   1      46.703  30.620  30.743  1.00  0.00     0.029 A 
ATOM     35  C   UNL A   1      45.383  30.331  30.433  1.00  0.00     0.049 A 
ATOM     36  H   UNL A   1      44.549  28.534  29.708  1.00  0.00     0.167 HD
ATOM     37  C   UNL A   1      42.965  30.844  30.202  1.00  0.00     0.074 A 
ATOM     38  C   UNL A   1      41.825  31.735  30.291  1.00  0.00     0.031 C 
ATOM     39  C   UNL A   1      44.233  31.192  30.529  1.00  0.00     0.037 A 
BRANCH  26  40
ATOM     40  C   UNL A   1      48.415  26.725  29.669  1.00  0.00     0.057 A 
ATOM     41  C   UNL A   1      48.936  26.054  30.784  1.00  0.00     0.134 A 
ATOM     42  C   UNL A   1      49.278  26.950  28.590  1.00  0.00     0.134 A 
ATOM     43  F   UNL A   1      48.166  25.821  31.857  1.00  0.00    -0.206 F 
ATOM     44  C   UNL A   1      50.266  25.632  30.826  1.00  0.00     0.040 A 
ATOM     45  C   UNL A   1      50.605  26.515  28.611  1.00  0.00     0.040 A 
ATOM     46  F   UNL A   1      48.842  27.583  27.490  1.00  0.00    -0.206 F 
ATOM     47  C   UNL A   1      51.103  25.856  29.734  1.00  0.00     0.006 A 
ENDBRANCH  26  40
BRANCH  27  48
ATOM     48  C   UNL A   1      38.725  29.130  29.098  1.00  0.00     0.057 A 
ATOM     49  C   UNL A   1      37.880  29.062  30.211  1.00  0.00     0.134 A 
ATOM     50  C   UNL A   1      38.169  29.573  27.892  1.00  0.00     0.134 A 
ATOM     51  F   UNL A   1      38.351  28.631  31.391  1.00  0.00    -0.206 F 
ATOM     52  C   UNL A   1      36.531  29.410  30.126  1.00  0.00     0.040 A 
ATOM     53  C   UNL A   1      36.830  29.950  27.798  1.00  0.00     0.040 A 
ATOM     54  F   UNL A   1      38.930  29.670  26.792  1.00  0.00    -0.206 F 
ATOM     55  C   UNL A   1      36.005  29.863  28.917  1.00  0.00     0.006 A 
ENDBRANCH  27  48
BRANCH  39  56
ATOM     56  C   UNL A   1      44.434  32.593  31.020  1.00  0.00     0.057 A 
ATOM     57  C   UNL A   1      44.364  32.905  32.384  1.00  0.00     0.134 A 
ATOM     58  C   UNL A   1      44.697  33.636  30.126  1.00  0.00     0.134 A 
ATOM     59  F   UNL A   1      44.099  31.949  33.288  1.00  0.00    -0.206 F 
ATOM     60  C   UNL A   1      44.521  34.215  32.839  1.00  0.00     0.040 A 
ATOM     61  C   UNL A   1      44.876  34.946  30.571  1.00  0.00     0.040 A 
ATOM     62  F   UNL A   1      44.779  33.400  28.808  1.00  0.00    -0.206 F 
ATOM     63  C   UNL A   1      44.781  35.239  31.931  1.00  0.00     0.006 A 
ENDBRANCH  39  56
ENDBRANCH  13  14
ENDBRANCH   6   8
ENDBRANCH   3   4
ENDBRANCH   2   3
ENDBRANCH   1   2
BRANCH   1  64
ATOM     64  N   UNL A   1      38.046  21.859  25.188  1.00  0.00    -0.356 N 
ATOM     65  C   UNL A   1      37.583  23.128  25.329  1.00  0.00     0.224 C 
ATOM     66  H   UNL A   1      38.964  21.755  25.527  1.00  0.00     0.163 HD
ATOM     67  O   UNL A   1      38.334  23.892  25.951  1.00  0.00    -0.275 OA
BRANCH  65  68
ATOM     68  C   UNL A   1      36.243  23.677  24.816  1.00  0.00     0.098 C 
ATOM     69  C   UNL A   1      35.787  23.219  23.430  1.00  0.00     0.017 C 
ATOM     70  C   UNL A   1      35.182  23.557  25.954  1.00  0.00     0.133 C 
ATOM     71  C   UNL A   1      34.313  23.408  23.173  1.00  0.00     0.022 C 
ATOM     72  N   UNL A   1      33.788  23.631  25.478  1.00  0.00    -0.342 N 
ATOM     73  C   UNL A   1      33.559  22.803  24.338  1.00  0.00     0.119 C 
BRANCH  72  74
ATOM     74  C   UNL A   1      32.841  24.453  26.065  1.00  0.00     0.225 C 
ATOM     75  O   UNL A   1      31.847  23.946  26.602  1.00  0.00    -0.275 OA
BRANCH  74  76
ATOM     76  C   UNL A   1      32.951  26.019  26.100  1.00  0.00     0.081 C 
ATOM     77  C   UNL A   1      31.781  26.829  26.637  1.00  0.00     0.030 C 
ATOM     78  C   UNL A   1      33.604  26.753  24.939  1.00  0.00     0.030 C 
ATOM     79  C   UNL A   1      30.833  27.466  25.628  1.00  0.00     0.103 C 
ATOM     80  C   UNL A   1      32.673  27.267  23.854  1.00  0.00     0.103 C 
ATOM     81  N   UNL A   1      31.394  27.874  24.285  1.00  0.00    -0.198 NA
BRANCH  81  82
ATOM     82  S   UNL A   1      30.082  27.864  23.113  1.00  0.00     0.243 S 
ATOM     83  O   UNL A   1      30.654  27.527  21.819  1.00  0.00    -0.207 OA
ATOM     84  O   UNL A   1      29.055  27.019  23.676  1.00  0.00    -0.207 OA
BRANCH  82  85
ATOM     85  C   UNL A   1      29.401  29.498  22.897  1.00  0.00     0.082 A 
ATOM     86  C   UNL A   1      29.726  30.480  23.840  1.00  0.00     0.022 A 
ATOM     87  C   UNL A   1      28.329  29.723  22.022  1.00  0.00     0.022 A 
ATOM     88  C   UNL A   1      29.001  31.675  23.884  1.00  0.00     0.001 A 
ATOM     89  C   UNL A   1      27.630  30.930  22.045  1.00  0.00     0.001 A 
ATOM     90  C   UNL A   1      27.960  31.903  22.983  1.00  0.00     0.000 A 
ENDBRANCH  82  85
ENDBRANCH  81  82
ENDBRANCH  74  76
ENDBRANCH  72  74
ENDBRANCH  65  68
ENDBRANCH   1  64
TORSDOF 14
ENDMDL
