MODEL 1
REMARK VINA RESULT:     -10.2      0.000      0.000
REMARK SMILES CC[N@@H+](CCC(C)(C)O)C[C@@H](C)C(=O)NCCCNC(=O)c1ccc(-c2c3nc(c(-c4c(F)cccc4F)c4ccc([nH]4)c(-c4c(F)cccc4F)c4nc(c(-c5c(F)cccc5F)c5ccc2[nH]5)C=C4)C=C3)cc1
REMARK SMILES IDX 13 1 14 2 15 3 11 5 12 6 10 7 3 8 2 10 1 11 4 12 5 13 6 14
REMARK SMILES IDX 7 15 8 16 9 17 16 19 17 20 18 21 19 22 20 23 21 25 22 26
REMARK SMILES IDX 23 27 75 28 24 29 74 30 25 31 26 32 27 33 68 34 28 35 73 36
REMARK SMILES IDX 67 37 69 38 29 39 72 40 66 41 65 42 30 44 56 45 39 46 55 47
REMARK SMILES IDX 40 48 43 49 54 50 70 51 41 52 42 53 53 55 71 56 44 57 31 58
REMARK SMILES IDX 32 59 37 60 33 61 34 62 36 63 38 64 35 65 57 66 58 67 63 68
REMARK SMILES IDX 59 69 60 70 62 71 64 72 61 73 45 74 46 75 51 76 47 77 48 78
REMARK SMILES IDX 50 79 52 80 49 81
REMARK H PARENT 15 4 3 9 9 18 19 24 69 43 43 54
REMARK Flexibility Score: inf
ROOT
ATOM      1  C   UNL A   1      33.545  29.108  26.194  1.00  0.00     0.228 C 
ATOM      2  O   UNL A   1      34.698  28.922  26.593  1.00  0.00    -0.275 OA
ATOM      3  N   UNL A   1      32.986  30.329  26.384  1.00  0.00    -0.356 N 
ATOM      4  H   UNL A   1      33.594  31.007  26.759  1.00  0.00     0.163 HD
ENDROOT
BRANCH   1   5
ATOM      5  C   UNL A   1      32.782  28.001  25.490  1.00  0.00     0.130 C 
ATOM      6  C   UNL A   1      33.149  26.642  26.080  1.00  0.00     0.024 C 
BRANCH   5   7
ATOM      7  C   UNL A   1      32.824  28.224  23.960  1.00  0.00     0.275 C 
BRANCH   7   8
ATOM      8  N   UNL A   1      31.665  27.892  23.131  1.00  0.00    -0.334 N 
ATOM      9  H   UNL A   1      31.693  28.666  22.467  1.00  0.00     0.348 HD
BRANCH   8  10
ATOM     10  C   UNL A   1      31.789  26.762  22.217  1.00  0.00     0.258 C 
ATOM     11  C   UNL A   1      31.488  25.409  22.868  1.00  0.00     0.071 C 
ENDBRANCH   8  10
BRANCH   8  12
ATOM     12  C   UNL A   1      30.351  28.046  23.777  1.00  0.00     0.265 C 
BRANCH  12  13
ATOM     13  C   UNL A   1      29.155  28.533  22.937  1.00  0.00     0.096 C 
BRANCH  13  14
ATOM     14  C   UNL A   1      29.275  29.945  22.288  1.00  0.00     0.064 C 
ATOM     15  C   UNL A   1      28.140  30.196  21.293  1.00  0.00     0.042 C 
ATOM     16  C   UNL A   1      29.244  31.022  23.383  1.00  0.00     0.042 C 
BRANCH  14  17
ATOM     17  O   UNL A   1      30.468  30.074  21.521  1.00  0.00    -0.390 OA
ATOM     18  H   UNL A   1      31.185  30.397  22.089  1.00  0.00     0.211 HD
ENDBRANCH  14  17
ENDBRANCH  13  14
ENDBRANCH  12  13
ENDBRANCH   8  12
ENDBRANCH   7   8
ENDBRANCH   5   7
ENDBRANCH   1   5
BRANCH   3  19
ATOM     19  C   UNL A   1      31.637  30.798  26.124  1.00  0.00     0.117 C 
BRANCH  19  20
ATOM     20  C   UNL A   1      31.384  32.149  26.772  1.00  0.00     0.042 C 
BRANCH  20  21
ATOM     21  C   UNL A   1      32.659  32.784  27.308  1.00  0.00     0.118 C 
BRANCH  21  22
ATOM     22  N   UNL A   1      32.485  34.212  27.559  1.00  0.00    -0.352 N 
ATOM     23  C   UNL A   1      32.998  34.983  28.568  1.00  0.00     0.251 C 
ATOM     24  H   UNL A   1      31.917  34.689  26.911  1.00  0.00     0.163 HD
ATOM     25  O   UNL A   1      32.497  36.072  28.840  1.00  0.00    -0.269 OA
BRANCH  23  26
ATOM     26  C   UNL A   1      34.158  34.484  29.322  1.00  0.00     0.039 A 
ATOM     27  C   UNL A   1      33.972  33.880  30.565  1.00  0.00     0.014 A 
ATOM     28  C   UNL A   1      35.435  34.609  28.770  1.00  0.00     0.014 A 
ATOM     29  C   UNL A   1      35.073  33.340  31.228  1.00  0.00     0.010 A 
ATOM     30  C   UNL A   1      36.505  33.972  29.375  1.00  0.00     0.010 A 
ATOM     31  C   UNL A   1      36.340  33.352  30.620  1.00  0.00    -0.014 A 
BRANCH  31  32
ATOM     32  C   UNL A   1      37.522  32.747  31.273  1.00  0.00     0.031 A 
ATOM     33  C   UNL A   1      38.186  31.555  30.643  1.00  0.00     0.074 A 
ATOM     34  C   UNL A   1      37.937  33.216  32.464  1.00  0.00     0.049 A 
ATOM     35  N   UNL A   1      39.171  30.822  31.095  1.00  0.00    -0.248 NA
ATOM     36  C   UNL A   1      37.647  31.099  29.349  1.00  0.00     0.031 C 
ATOM     37  C   UNL A   1      37.327  34.328  33.198  1.00  0.00     0.029 A 
ATOM     38  N   UNL A   1      38.966  32.810  33.274  1.00  0.00    -0.354 N 
ATOM     39  C   UNL A   1      39.350  29.815  30.155  1.00  0.00     0.074 A 
ATOM     40  C   UNL A   1      38.332  29.986  29.145  1.00  0.00     0.031 C 
ATOM     41  C   UNL A   1      38.012  34.533  34.334  1.00  0.00     0.029 A 
ATOM     42  C   UNL A   1      39.080  33.544  34.428  1.00  0.00     0.049 A 
ATOM     43  H   UNL A   1      39.565  32.062  33.048  1.00  0.00     0.167 HD
ATOM     44  C   UNL A   1      40.300  28.852  30.123  1.00  0.00     0.037 A 
ATOM     45  C   UNL A   1      39.949  33.425  35.449  1.00  0.00     0.037 A 
ATOM     46  C   UNL A   1      41.330  28.712  31.117  1.00  0.00     0.049 A 
ATOM     47  C   UNL A   1      41.000  32.352  35.386  1.00  0.00     0.074 A 
ATOM     48  C   UNL A   1      42.382  27.815  31.149  1.00  0.00     0.029 A 
ATOM     49  N   UNL A   1      41.433  29.495  32.258  1.00  0.00    -0.354 N 
ATOM     50  N   UNL A   1      41.209  31.452  34.454  1.00  0.00    -0.248 NA
ATOM     51  C   UNL A   1      41.941  32.279  36.512  1.00  0.00     0.031 C 
ATOM     52  C   UNL A   1      43.094  28.024  32.333  1.00  0.00     0.029 A 
ATOM     53  C   UNL A   1      42.519  29.088  33.012  1.00  0.00     0.049 A 
ATOM     54  H   UNL A   1      40.823  30.230  32.496  1.00  0.00     0.167 HD
ATOM     55  C   UNL A   1      42.320  30.729  34.865  1.00  0.00     0.074 A 
ATOM     56  C   UNL A   1      42.749  31.304  36.124  1.00  0.00     0.031 C 
ATOM     57  C   UNL A   1      42.933  29.685  34.256  1.00  0.00     0.037 A 
BRANCH  44  58
ATOM     58  C   UNL A   1      40.271  27.889  28.972  1.00  0.00     0.057 A 
ATOM     59  C   UNL A   1      40.980  28.129  27.787  1.00  0.00     0.134 A 
ATOM     60  C   UNL A   1      39.544  26.694  29.056  1.00  0.00     0.134 A 
ATOM     61  F   UNL A   1      41.684  29.261  27.632  1.00  0.00    -0.206 F 
ATOM     62  C   UNL A   1      40.942  27.233  26.717  1.00  0.00     0.040 A 
ATOM     63  C   UNL A   1      39.523  25.776  28.005  1.00  0.00     0.040 A 
ATOM     64  F   UNL A   1      38.846  26.398  30.162  1.00  0.00    -0.206 F 
ATOM     65  C   UNL A   1      40.218  26.048  26.828  1.00  0.00     0.006 A 
ENDBRANCH  44  58
BRANCH  45  66
ATOM     66  C   UNL A   1      39.884  34.365  36.596  1.00  0.00     0.057 A 
ATOM     67  C   UNL A   1      39.178  34.036  37.759  1.00  0.00     0.134 A 
ATOM     68  C   UNL A   1      40.520  35.612  36.561  1.00  0.00     0.134 A 
ATOM     69  F   UNL A   1      38.536  32.861  37.848  1.00  0.00    -0.206 F 
ATOM     70  C   UNL A   1      39.087  34.918  38.836  1.00  0.00     0.040 A 
ATOM     71  C   UNL A   1      40.460  36.494  37.642  1.00  0.00     0.040 A 
ATOM     72  F   UNL A   1      41.224  35.984  35.482  1.00  0.00    -0.206 F 
ATOM     73  C   UNL A   1      39.734  36.151  38.780  1.00  0.00     0.006 A 
ENDBRANCH  45  66
BRANCH  57  74
ATOM     74  C   UNL A   1      44.156  29.124  34.920  1.00  0.00     0.057 A 
ATOM     75  C   UNL A   1      45.440  29.605  34.636  1.00  0.00     0.134 A 
ATOM     76  C   UNL A   1      44.037  28.126  35.896  1.00  0.00     0.134 A 
ATOM     77  F   UNL A   1      45.621  30.552  33.705  1.00  0.00    -0.206 F 
ATOM     78  C   UNL A   1      46.566  29.096  35.286  1.00  0.00     0.040 A 
ATOM     79  C   UNL A   1      45.152  27.630  36.572  1.00  0.00     0.040 A 
ATOM     80  F   UNL A   1      42.833  27.630  36.221  1.00  0.00    -0.206 F 
ATOM     81  C   UNL A   1      46.422  28.113  36.262  1.00  0.00     0.006 A 
ENDBRANCH  57  74
ENDBRANCH  31  32
ENDBRANCH  23  26
ENDBRANCH  21  22
ENDBRANCH  20  21
ENDBRANCH  19  20
ENDBRANCH   3  19
TORSDOF 17
ENDMDL
MODEL 2
REMARK VINA RESULT:      -9.9      5.489      9.974
REMARK SMILES CC[N@@H+](CCC(C)(C)O)C[C@@H](C)C(=O)NCCCNC(=O)c1ccc(-c2c3nc(c(-c4c(F)cccc4F)c4ccc([nH]4)c(-c4c(F)cccc4F)c4nc(c(-c5c(F)cccc5F)c5ccc2[nH]5)C=C4)C=C3)cc1
REMARK SMILES IDX 13 1 14 2 15 3 11 5 12 6 10 7 3 8 2 10 1 11 4 12 5 13 6 14
REMARK SMILES IDX 7 15 8 16 9 17 16 19 17 20 18 21 19 22 20 23 21 25 22 26
REMARK SMILES IDX 23 27 75 28 24 29 74 30 25 31 26 32 27 33 68 34 28 35 73 36
REMARK SMILES IDX 67 37 69 38 29 39 72 40 66 41 65 42 30 44 56 45 39 46 55 47
REMARK SMILES IDX 40 48 43 49 54 50 70 51 41 52 42 53 53 55 71 56 44 57 31 58
REMARK SMILES IDX 32 59 37 60 33 61 34 62 36 63 38 64 35 65 57 66 58 67 63 68
REMARK SMILES IDX 59 69 60 70 62 71 64 72 61 73 45 74 46 75 51 76 47 77 48 78
REMARK SMILES IDX 50 79 52 80 49 81
REMARK H PARENT 15 4 3 9 9 18 19 24 69 43 43 54
REMARK Flexibility Score: inf
ROOT
ATOM      1  C   UNL A   1      35.910  22.713  24.932  1.00  0.00     0.228 C 
ATOM      2  O   UNL A   1      36.285  23.882  25.060  1.00  0.00    -0.275 OA
ATOM      3  N   UNL A   1      36.799  21.721  25.189  1.00  0.00    -0.356 N 
ATOM      4  H   UNL A   1      37.665  22.025  25.547  1.00  0.00     0.163 HD
ENDROOT
BRANCH   1   5
ATOM      5  C   UNL A   1      34.486  22.397  24.517  1.00  0.00     0.130 C 
ATOM      6  C   UNL A   1      34.085  23.236  23.306  1.00  0.00     0.024 C 
BRANCH   5   7
ATOM      7  C   UNL A   1      33.574  22.344  25.765  1.00  0.00     0.275 C 
BRANCH   7   8
ATOM      8  N   UNL A   1      32.346  21.547  25.752  1.00  0.00    -0.334 N 
ATOM      9  H   UNL A   1      32.418  21.096  26.664  1.00  0.00     0.348 HD
BRANCH   8  10
ATOM     10  C   UNL A   1      31.080  22.252  25.910  1.00  0.00     0.258 C 
ATOM     11  C   UNL A   1      31.220  23.626  26.571  1.00  0.00     0.071 C 
ENDBRANCH   8  10
BRANCH   8  12
ATOM     12  C   UNL A   1      32.331  20.413  24.813  1.00  0.00     0.265 C 
BRANCH  12  13
ATOM     13  C   UNL A   1      32.854  19.042  25.284  1.00  0.00     0.096 C 
BRANCH  13  14
ATOM     14  C   UNL A   1      32.897  17.900  24.224  1.00  0.00     0.064 C 
ATOM     15  C   UNL A   1      32.293  18.355  22.894  1.00  0.00     0.042 C 
ATOM     16  C   UNL A   1      34.350  17.457  24.001  1.00  0.00     0.042 C 
BRANCH  14  17
ATOM     17  O   UNL A   1      32.109  16.781  24.620  1.00  0.00    -0.390 OA
ATOM     18  H   UNL A   1      32.629  16.210  25.206  1.00  0.00     0.211 HD
ENDBRANCH  14  17
ENDBRANCH  13  14
ENDBRANCH  12  13
ENDBRANCH   8  12
ENDBRANCH   7   8
ENDBRANCH   5   7
ENDBRANCH   1   5
BRANCH   3  19
ATOM     19  C   UNL A   1      36.679  20.284  25.022  1.00  0.00     0.117 C 
BRANCH  19  20
ATOM     20  C   UNL A   1      38.039  19.631  24.839  1.00  0.00     0.042 C 
BRANCH  20  21
ATOM     21  C   UNL A   1      39.079  20.172  25.809  1.00  0.00     0.118 C 
BRANCH  21  22
ATOM     22  N   UNL A   1      40.178  19.230  26.003  1.00  0.00    -0.352 N 
ATOM     23  C   UNL A   1      41.511  19.480  26.191  1.00  0.00     0.251 C 
ATOM     24  H   UNL A   1      39.925  18.278  25.995  1.00  0.00     0.163 HD
ATOM     25  O   UNL A   1      42.346  18.599  25.999  1.00  0.00    -0.269 OA
BRANCH  23  26
ATOM     26  C   UNL A   1      41.925  20.822  26.628  1.00  0.00     0.039 A 
ATOM     27  C   UNL A   1      42.315  21.771  25.683  1.00  0.00     0.014 A 
ATOM     28  C   UNL A   1      41.906  21.133  27.990  1.00  0.00     0.014 A 
ATOM     29  C   UNL A   1      42.626  23.062  26.107  1.00  0.00     0.010 A 
ATOM     30  C   UNL A   1      42.104  22.442  28.394  1.00  0.00     0.010 A 
ATOM     31  C   UNL A   1      42.488  23.414  27.461  1.00  0.00    -0.014 A 
BRANCH  31  32
ATOM     32  C   UNL A   1      42.765  24.786  27.940  1.00  0.00     0.031 A 
ATOM     33  C   UNL A   1      44.175  25.179  28.285  1.00  0.00     0.074 A 
ATOM     34  C   UNL A   1      41.744  25.639  28.143  1.00  0.00     0.049 A 
ATOM     35  N   UNL A   1      44.618  26.293  28.806  1.00  0.00    -0.248 NA
ATOM     36  C   UNL A   1      45.222  24.170  28.051  1.00  0.00     0.031 C 
ATOM     37  C   UNL A   1      40.329  25.342  27.903  1.00  0.00     0.029 A 
ATOM     38  N   UNL A   1      41.738  26.928  28.608  1.00  0.00    -0.354 N 
ATOM     39  C   UNL A   1      45.984  26.109  28.979  1.00  0.00     0.074 A 
ATOM     40  C   UNL A   1      46.287  24.756  28.574  1.00  0.00     0.031 C 
ATOM     41  C   UNL A   1      39.597  26.430  28.193  1.00  0.00     0.029 A 
ATOM     42  C   UNL A   1      40.483  27.481  28.679  1.00  0.00     0.049 A 
ATOM     43  H   UNL A   1      42.555  27.412  28.867  1.00  0.00     0.167 HD
ATOM     44  C   UNL A   1      46.908  27.000  29.407  1.00  0.00     0.037 A 
ATOM     45  C   UNL A   1      40.095  28.701  29.094  1.00  0.00     0.037 A 
ATOM     46  C   UNL A   1      46.599  28.355  29.775  1.00  0.00     0.049 A 
ATOM     47  C   UNL A   1      41.141  29.676  29.559  1.00  0.00     0.074 A 
ATOM     48  C   UNL A   1      47.464  29.363  30.159  1.00  0.00     0.029 A 
ATOM     49  N   UNL A   1      45.319  28.890  29.805  1.00  0.00    -0.354 N 
ATOM     50  N   UNL A   1      42.440  29.516  29.645  1.00  0.00    -0.248 NA
ATOM     51  C   UNL A   1      40.670  31.003  29.978  1.00  0.00     0.031 C 
ATOM     52  C   UNL A   1      46.704  30.494  30.467  1.00  0.00     0.029 A 
ATOM     53  C   UNL A   1      45.369  30.208  30.221  1.00  0.00     0.049 A 
ATOM     54  H   UNL A   1      44.497  28.403  29.565  1.00  0.00     0.167 HD
ATOM     55  C   UNL A   1      42.944  30.728  30.097  1.00  0.00     0.074 A 
ATOM     56  C   UNL A   1      41.811  31.617  30.255  1.00  0.00     0.031 C 
ATOM     57  C   UNL A   1      44.228  31.077  30.357  1.00  0.00     0.037 A 
BRANCH  44  58
ATOM     58  C   UNL A   1      48.333  26.536  29.487  1.00  0.00     0.057 A 
ATOM     59  C   UNL A   1      49.216  26.666  28.407  1.00  0.00     0.134 A 
ATOM     60  C   UNL A   1      48.837  25.972  30.667  1.00  0.00     0.134 A 
ATOM     61  F   UNL A   1      48.795  27.183  27.242  1.00  0.00    -0.206 F 
ATOM     62  C   UNL A   1      50.539  26.225  28.485  1.00  0.00     0.040 A 
ATOM     63  C   UNL A   1      50.166  25.555  30.767  1.00  0.00     0.040 A 
ATOM     64  F   UNL A   1      48.049  25.820  31.740  1.00  0.00    -0.206 F 
ATOM     65  C   UNL A   1      51.019  25.674  29.672  1.00  0.00     0.006 A 
ENDBRANCH  44  58
BRANCH  45  66
ATOM     66  C   UNL A   1      38.660  29.079  29.059  1.00  0.00     0.057 A 
ATOM     67  C   UNL A   1      38.072  29.572  27.888  1.00  0.00     0.134 A 
ATOM     68  C   UNL A   1      37.841  28.959  30.188  1.00  0.00     0.134 A 
ATOM     69  F   UNL A   1      38.808  29.723  26.777  1.00  0.00    -0.206 F 
ATOM     70  C   UNL A   1      36.731  29.954  27.845  1.00  0.00     0.040 A 
ATOM     71  C   UNL A   1      36.490  29.312  30.153  1.00  0.00     0.040 A 
ATOM     72  F   UNL A   1      38.338  28.481  31.338  1.00  0.00    -0.206 F 
ATOM     73  C   UNL A   1      35.934  29.820  28.981  1.00  0.00     0.006 A 
ENDBRANCH  45  66
BRANCH  57  74
ATOM     74  C   UNL A   1      44.480  32.489  30.798  1.00  0.00     0.057 A 
ATOM     75  C   UNL A   1      44.583  32.835  32.151  1.00  0.00     0.134 A 
ATOM     76  C   UNL A   1      44.676  33.502  29.851  1.00  0.00     0.134 A 
ATOM     77  F   UNL A   1      44.395  31.913  33.106  1.00  0.00    -0.206 F 
ATOM     78  C   UNL A   1      44.850  34.148  32.545  1.00  0.00     0.040 A 
ATOM     79  C   UNL A   1      44.972  34.810  30.233  1.00  0.00     0.040 A 
ATOM     80  F   UNL A   1      44.601  33.232  28.538  1.00  0.00    -0.206 F 
ATOM     81  C   UNL A   1      45.053  35.136  31.586  1.00  0.00     0.006 A 
ENDBRANCH  57  74
ENDBRANCH  31  32
ENDBRANCH  23  26
ENDBRANCH  21  22
ENDBRANCH  20  21
ENDBRANCH  19  20
ENDBRANCH   3  19
TORSDOF 17
ENDMDL
MODEL 3
REMARK VINA RESULT:      -9.8      5.913     10.572
REMARK SMILES CC[N@@H+](CCC(C)(C)O)C[C@@H](C)C(=O)NCCCNC(=O)c1ccc(-c2c3nc(c(-c4c(F)cccc4F)c4ccc([nH]4)c(-c4c(F)cccc4F)c4nc(c(-c5c(F)cccc5F)c5ccc2[nH]5)C=C4)C=C3)cc1
REMARK SMILES IDX 13 1 14 2 15 3 11 5 12 6 10 7 3 8 2 10 1 11 4 12 5 13 6 14
REMARK SMILES IDX 7 15 8 16 9 17 16 19 17 20 18 21 19 22 20 23 21 25 22 26
REMARK SMILES IDX 23 27 75 28 24 29 74 30 25 31 26 32 27 33 68 34 28 35 73 36
REMARK SMILES IDX 67 37 69 38 29 39 72 40 66 41 65 42 30 44 56 45 39 46 55 47
REMARK SMILES IDX 40 48 43 49 54 50 70 51 41 52 42 53 53 55 71 56 44 57 31 58
REMARK SMILES IDX 32 59 37 60 33 61 34 62 36 63 38 64 35 65 57 66 58 67 63 68
REMARK SMILES IDX 59 69 60 70 62 71 64 72 61 73 45 74 46 75 51 76 47 77 48 78
REMARK SMILES IDX 50 79 52 80 49 81
REMARK H PARENT 15 4 3 9 9 18 19 24 69 43 43 54
REMARK Flexibility Score: inf
ROOT
ATOM      1  C   UNL A   1      35.273  21.701  25.889  1.00  0.00     0.228 C 
ATOM      2  O   UNL A   1      34.620  21.688  26.936  1.00  0.00    -0.275 OA
ATOM      3  N   UNL A   1      36.204  20.734  25.700  1.00  0.00    -0.356 N 
ATOM      4  H   UNL A   1      36.222  20.036  26.394  1.00  0.00     0.163 HD
ENDROOT
BRANCH   1   5
ATOM      5  C   UNL A   1      35.024  22.762  24.834  1.00  0.00     0.130 C 
ATOM      6  C   UNL A   1      35.155  24.157  25.440  1.00  0.00     0.024 C 
BRANCH   5   7
ATOM      7  C   UNL A   1      33.777  22.390  23.998  1.00  0.00     0.275 C 
BRANCH   7   8
ATOM      8  N   UNL A   1      32.669  21.654  24.607  1.00  0.00    -0.334 N 
ATOM      9  H   UNL A   1      33.010  21.580  25.565  1.00  0.00     0.348 HD
BRANCH   8  10
ATOM     10  C   UNL A   1      31.421  22.372  24.830  1.00  0.00     0.258 C 
ATOM     11  C   UNL A   1      31.146  22.683  26.305  1.00  0.00     0.071 C 
ENDBRANCH   8  10
BRANCH   8  12
ATOM     12  C   UNL A   1      32.528  20.249  24.187  1.00  0.00     0.265 C 
BRANCH  12  13
ATOM     13  C   UNL A   1      32.878  19.129  25.187  1.00  0.00     0.096 C 
BRANCH  13  14
ATOM     14  C   UNL A   1      33.597  17.871  24.614  1.00  0.00     0.064 C 
ATOM     15  C   UNL A   1      33.193  16.607  25.377  1.00  0.00     0.042 C 
ATOM     16  C   UNL A   1      33.246  17.706  23.128  1.00  0.00     0.042 C 
BRANCH  14  17
ATOM     17  O   UNL A   1      35.011  17.954  24.767  1.00  0.00    -0.390 OA
ATOM     18  H   UNL A   1      35.376  17.064  24.891  1.00  0.00     0.211 HD
ENDBRANCH  14  17
ENDBRANCH  13  14
ENDBRANCH  12  13
ENDBRANCH   8  12
ENDBRANCH   7   8
ENDBRANCH   5   7
ENDBRANCH   1   5
BRANCH   3  19
ATOM     19  C   UNL A   1      37.180  20.561  24.637  1.00  0.00     0.117 C 
BRANCH  19  20
ATOM     20  C   UNL A   1      38.214  19.508  25.000  1.00  0.00     0.042 C 
BRANCH  20  21
ATOM     21  C   UNL A   1      39.180  19.987  26.073  1.00  0.00     0.118 C 
BRANCH  21  22
ATOM     22  N   UNL A   1      40.412  19.203  26.079  1.00  0.00    -0.352 N 
ATOM     23  C   UNL A   1      41.712  19.631  26.137  1.00  0.00     0.251 C 
ATOM     24  H   UNL A   1      40.291  18.227  26.034  1.00  0.00     0.163 HD
ATOM     25  O   UNL A   1      42.630  18.891  25.793  1.00  0.00    -0.269 OA
BRANCH  23  26
ATOM     26  C   UNL A   1      41.988  20.993  26.617  1.00  0.00     0.039 A 
ATOM     27  C   UNL A   1      42.093  21.240  27.985  1.00  0.00     0.014 A 
ATOM     28  C   UNL A   1      42.157  22.024  25.688  1.00  0.00     0.014 A 
ATOM     29  C   UNL A   1      42.436  22.520  28.419  1.00  0.00     0.010 A 
ATOM     30  C   UNL A   1      42.607  23.261  26.115  1.00  0.00     0.010 A 
ATOM     31  C   UNL A   1      42.729  23.528  27.485  1.00  0.00    -0.014 A 
BRANCH  31  32
ATOM     32  C   UNL A   1      43.141  24.885  27.908  1.00  0.00     0.031 A 
ATOM     33  C   UNL A   1      42.088  25.909  28.234  1.00  0.00     0.074 A 
ATOM     34  C   UNL A   1      44.445  25.214  27.914  1.00  0.00     0.049 A 
ATOM     35  N   UNL A   1      42.231  27.174  28.534  1.00  0.00    -0.248 NA
ATOM     36  C   UNL A   1      40.685  25.462  28.178  1.00  0.00     0.031 C 
ATOM     37  C   UNL A   1      45.548  24.319  27.554  1.00  0.00     0.029 A 
ATOM     38  N   UNL A   1      45.066  26.396  28.226  1.00  0.00    -0.354 N 
ATOM     39  C   UNL A   1      40.943  27.672  28.679  1.00  0.00     0.074 A 
ATOM     40  C   UNL A   1      40.031  26.596  28.368  1.00  0.00     0.031 C 
ATOM     41  C   UNL A   1      46.710  24.975  27.694  1.00  0.00     0.029 A 
ATOM     42  C   UNL A   1      46.434  26.344  28.112  1.00  0.00     0.049 A 
ATOM     43  H   UNL A   1      44.578  27.204  28.503  1.00  0.00     0.167 HD
ATOM     44  C   UNL A   1      40.556  28.909  29.068  1.00  0.00     0.037 A 
ATOM     45  C   UNL A   1      47.357  27.301  28.320  1.00  0.00     0.037 A 
ATOM     46  C   UNL A   1      41.474  29.963  29.407  1.00  0.00     0.049 A 
ATOM     47  C   UNL A   1      46.903  28.666  28.758  1.00  0.00     0.074 A 
ATOM     48  C   UNL A   1      41.193  31.232  29.877  1.00  0.00     0.029 A 
ATOM     49  N   UNL A   1      42.854  29.865  29.310  1.00  0.00    -0.354 N 
ATOM     50  N   UNL A   1      45.684  29.104  28.967  1.00  0.00    -0.248 NA
ATOM     51  C   UNL A   1      47.950  29.668  28.996  1.00  0.00     0.031 C 
ATOM     52  C   UNL A   1      42.402  31.919  30.020  1.00  0.00     0.029 A 
ATOM     53  C   UNL A   1      43.439  31.059  29.692  1.00  0.00     0.049 A 
ATOM     54  H   UNL A   1      43.345  29.064  29.014  1.00  0.00     0.167 HD
ATOM     55  C   UNL A   1      45.819  30.419  29.390  1.00  0.00     0.074 A 
ATOM     56  C   UNL A   1      47.240  30.703  29.420  1.00  0.00     0.031 C 
ATOM     57  C   UNL A   1      44.856  31.312  29.726  1.00  0.00     0.037 A 
BRANCH  44  58
ATOM     58  C   UNL A   1      39.081  29.178  29.155  1.00  0.00     0.057 A 
ATOM     59  C   UNL A   1      38.379  29.070  30.363  1.00  0.00     0.134 A 
ATOM     60  C   UNL A   1      38.357  29.574  28.022  1.00  0.00     0.134 A 
ATOM     61  F   UNL A   1      39.007  28.680  31.483  1.00  0.00    -0.206 F 
ATOM     62  C   UNL A   1      37.006  29.313  30.436  1.00  0.00     0.040 A 
ATOM     63  C   UNL A   1      36.990  29.850  28.089  1.00  0.00     0.040 A 
ATOM     64  F   UNL A   1      38.967  29.701  26.835  1.00  0.00    -0.206 F 
ATOM     65  C   UNL A   1      36.310  29.713  29.297  1.00  0.00     0.006 A 
ENDBRANCH  44  58
BRANCH  45  66
ATOM     66  C   UNL A   1      48.799  26.994  28.148  1.00  0.00     0.057 A 
ATOM     67  C   UNL A   1      49.552  26.452  29.197  1.00  0.00     0.134 A 
ATOM     68  C   UNL A   1      49.462  27.234  26.938  1.00  0.00     0.134 A 
ATOM     69  F   UNL A   1      48.977  26.213  30.385  1.00  0.00    -0.206 F 
ATOM     70  C   UNL A   1      50.913  26.181  29.059  1.00  0.00     0.040 A 
ATOM     71  C   UNL A   1      50.818  26.943  26.777  1.00  0.00     0.040 A 
ATOM     72  F   UNL A   1      48.797  27.740  25.890  1.00  0.00    -0.206 F 
ATOM     73  C   UNL A   1      51.550  26.423  27.842  1.00  0.00     0.006 A 
ENDBRANCH  45  66
BRANCH  57  74
ATOM     74  C   UNL A   1      45.308  32.665  30.194  1.00  0.00     0.057 A 
ATOM     75  C   UNL A   1      45.438  33.747  29.316  1.00  0.00     0.134 A 
ATOM     76  C   UNL A   1      45.563  32.895  31.552  1.00  0.00     0.134 A 
ATOM     77  F   UNL A   1      45.218  33.589  28.003  1.00  0.00    -0.206 F 
ATOM     78  C   UNL A   1      45.828  35.008  29.771  1.00  0.00     0.040 A 
ATOM     79  C   UNL A   1      45.925  34.157  32.022  1.00  0.00     0.040 A 
ATOM     80  F   UNL A   1      45.446  31.901  32.446  1.00  0.00    -0.206 F 
ATOM     81  C   UNL A   1      46.064  35.217  31.128  1.00  0.00     0.006 A 
ENDBRANCH  57  74
ENDBRANCH  31  32
ENDBRANCH  23  26
ENDBRANCH  21  22
ENDBRANCH  20  21
ENDBRANCH  19  20
ENDBRANCH   3  19
TORSDOF 17
ENDMDL
