MODEL 1
REMARK VINA RESULT:      -9.3      0.000      0.000
REMARK SMILES C[C@H](C(=O)NCCCNC(=O)c1ccc(-c2c3nc(c(-c4c(F)cccc4F)c4ccc([nH]4)c(-c4c(F)cccc4F)c4nc(c(-c5c(F)cccc5F)c5ccc2[nH]5)C=C4)C=C3)cc1)c1ccc(-c2ccccc2)c(F)c1
REMARK SMILES IDX 7 1 6 2 5 3 3 4 4 5 2 7 1 8 66 9 67 10 78 11 68 12 76 13
REMARK SMILES IDX 69 14 77 15 70 16 71 17 75 18 72 19 74 20 73 21 8 22 9 23
REMARK SMILES IDX 10 24 11 26 12 27 13 28 65 29 14 30 64 31 15 32 16 33 17 34
REMARK SMILES IDX 58 35 18 36 63 37 57 38 59 39 19 40 62 41 56 42 55 43 20 45
REMARK SMILES IDX 46 46 29 47 45 48 30 49 33 50 44 51 60 52 31 53 32 54 43 56
REMARK SMILES IDX 61 57 34 58 21 59 22 60 27 61 23 62 24 63 26 64 28 65 25 66
REMARK SMILES IDX 47 67 48 68 53 69 49 70 50 71 52 72 54 73 51 74 35 75 36 76
REMARK SMILES IDX 41 77 37 78 38 79 40 80 42 81 39 82
REMARK H PARENT 5 6 9 25 59 44 33 55
REMARK Flexibility Score: inf
ROOT
ATOM      1  C   UNL A   1      34.813  32.329  30.998  1.00  0.00     0.042 C 
ENDROOT
BRANCH   1   2
ATOM      2  C   UNL A   1      35.352  33.463  31.870  1.00  0.00     0.117 C 
BRANCH   2   3
ATOM      3  N   UNL A   1      35.711  33.021  33.206  1.00  0.00    -0.356 N 
ATOM      4  C   UNL A   1      36.911  32.570  33.683  1.00  0.00     0.227 C 
ATOM      5  O   UNL A   1      36.964  32.231  34.867  1.00  0.00    -0.274 OA
ATOM      6  H   UNL A   1      34.981  33.049  33.866  1.00  0.00     0.163 HD
BRANCH   4   7
ATOM      7  C   UNL A   1      38.128  32.494  32.749  1.00  0.00     0.105 C 
ATOM      8  C   UNL A   1      38.917  33.807  32.777  1.00  0.00     0.023 C 
BRANCH   7   9
ATOM      9  C   UNL A   1      39.024  31.314  33.091  1.00  0.00    -0.033 A 
ATOM     10  C   UNL A   1      40.252  31.519  33.733  1.00  0.00     0.005 A 
ATOM     11  C   UNL A   1      38.672  30.007  32.732  1.00  0.00     0.044 A 
ATOM     12  C   UNL A   1      41.134  30.452  33.947  1.00  0.00     0.012 A 
ATOM     13  C   UNL A   1      39.550  28.948  32.967  1.00  0.00     0.131 A 
ATOM     14  C   UNL A   1      40.810  29.141  33.553  1.00  0.00     0.017 A 
ATOM     15  F   UNL A   1      39.155  27.720  32.592  1.00  0.00    -0.206 F 
BRANCH  14  16
ATOM     16  C   UNL A   1      41.781  28.038  33.722  1.00  0.00    -0.015 A 
ATOM     17  C   UNL A   1      41.637  27.084  34.745  1.00  0.00     0.009 A 
ATOM     18  C   UNL A   1      42.903  27.921  32.881  1.00  0.00     0.009 A 
ATOM     19  C   UNL A   1      42.577  26.064  34.926  1.00  0.00     0.001 A 
ATOM     20  C   UNL A   1      43.841  26.900  33.056  1.00  0.00     0.001 A 
ATOM     21  C   UNL A   1      43.679  25.973  34.082  1.00  0.00     0.000 A 
ENDBRANCH  14  16
ENDBRANCH   7   9
ENDBRANCH   4   7
ENDBRANCH   2   3
ENDBRANCH   1   2
BRANCH   1  22
ATOM     22  C   UNL A   1      34.796  32.626  29.501  1.00  0.00     0.118 C 
BRANCH  22  23
ATOM     23  N   UNL A   1      34.185  31.561  28.722  1.00  0.00    -0.352 N 
ATOM     24  C   UNL A   1      34.724  30.439  28.150  1.00  0.00     0.251 C 
ATOM     25  H   UNL A   1      33.216  31.664  28.581  1.00  0.00     0.163 HD
ATOM     26  O   UNL A   1      34.019  29.766  27.397  1.00  0.00    -0.269 OA
BRANCH  24  27
ATOM     27  C   UNL A   1      36.124  30.019  28.396  1.00  0.00     0.039 A 
ATOM     28  C   UNL A   1      37.062  30.239  27.379  1.00  0.00     0.014 A 
ATOM     29  C   UNL A   1      36.517  29.350  29.558  1.00  0.00     0.014 A 
ATOM     30  C   UNL A   1      38.388  29.830  27.543  1.00  0.00     0.010 A 
ATOM     31  C   UNL A   1      37.857  28.992  29.746  1.00  0.00     0.010 A 
ATOM     32  C   UNL A   1      38.802  29.222  28.738  1.00  0.00    -0.014 A 
BRANCH  32  33
ATOM     33  C   UNL A   1      40.225  28.839  28.929  1.00  0.00     0.031 A 
ATOM     34  C   UNL A   1      41.197  29.780  29.584  1.00  0.00     0.074 A 
ATOM     35  C   UNL A   1      40.648  27.637  28.493  1.00  0.00     0.049 A 
ATOM     36  N   UNL A   1      42.466  29.600  29.854  1.00  0.00    -0.248 NA
ATOM     37  C   UNL A   1      40.684  31.103  29.970  1.00  0.00     0.031 C 
ATOM     38  C   UNL A   1      39.820  26.652  27.794  1.00  0.00     0.029 A 
ATOM     39  N   UNL A   1      41.880  27.039  28.574  1.00  0.00    -0.354 N 
ATOM     40  C   UNL A   1      42.904  30.784  30.431  1.00  0.00     0.074 A 
ATOM     41  C   UNL A   1      41.777  31.692  30.434  1.00  0.00     0.031 C 
ATOM     42  C   UNL A   1      40.559  25.562  27.537  1.00  0.00     0.029 A 
ATOM     43  C   UNL A   1      41.915  25.778  28.032  1.00  0.00     0.049 A 
ATOM     44  H   UNL A   1      42.665  27.473  28.982  1.00  0.00     0.167 HD
ATOM     45  C   UNL A   1      44.128  31.083  30.931  1.00  0.00     0.037 A 
ATOM     46  C   UNL A   1      42.923  24.889  27.954  1.00  0.00     0.037 A 
ATOM     47  C   UNL A   1      45.246  30.175  30.951  1.00  0.00     0.049 A 
ATOM     48  C   UNL A   1      44.261  25.233  28.541  1.00  0.00     0.074 A 
ATOM     49  C   UNL A   1      46.507  30.370  31.489  1.00  0.00     0.029 A 
ATOM     50  N   UNL A   1      45.236  28.900  30.408  1.00  0.00    -0.354 N 
ATOM     51  N   UNL A   1      44.640  26.333  29.143  1.00  0.00    -0.248 NA
ATOM     52  C   UNL A   1      45.309  24.206  28.444  1.00  0.00     0.031 C 
ATOM     53  C   UNL A   1      47.270  29.221  31.245  1.00  0.00     0.029 A 
ATOM     54  C   UNL A   1      46.474  28.301  30.584  1.00  0.00     0.049 A 
ATOM     55  H   UNL A   1      44.464  28.482  29.962  1.00  0.00     0.167 HD
ATOM     56  C   UNL A   1      45.963  26.127  29.511  1.00  0.00     0.074 A 
ATOM     57  C   UNL A   1      46.314  24.789  29.082  1.00  0.00     0.031 C 
ATOM     58  C   UNL A   1      46.811  26.972  30.145  1.00  0.00     0.037 A 
BRANCH  45  59
ATOM     59  C   UNL A   1      44.320  32.453  31.508  1.00  0.00     0.057 A 
ATOM     60  C   UNL A   1      44.578  33.564  30.695  1.00  0.00     0.134 A 
ATOM     61  C   UNL A   1      44.209  32.673  32.887  1.00  0.00     0.134 A 
ATOM     62  F   UNL A   1      44.706  33.419  29.368  1.00  0.00    -0.206 F 
ATOM     63  C   UNL A   1      44.740  34.841  31.233  1.00  0.00     0.040 A 
ATOM     64  C   UNL A   1      44.349  33.949  33.435  1.00  0.00     0.040 A 
ATOM     65  F   UNL A   1      43.958  31.653  33.722  1.00  0.00    -0.206 F 
ATOM     66  C   UNL A   1      44.621  35.037  32.608  1.00  0.00     0.006 A 
ENDBRANCH  45  59
BRANCH  46  67
ATOM     67  C   UNL A   1      42.691  23.567  27.324  1.00  0.00     0.057 A 
ATOM     68  C   UNL A   1      42.274  22.471  28.088  1.00  0.00     0.134 A 
ATOM     69  C   UNL A   1      42.874  23.370  25.952  1.00  0.00     0.134 A 
ATOM     70  F   UNL A   1      42.099  22.598  29.411  1.00  0.00    -0.206 F 
ATOM     71  C   UNL A   1      42.062  21.219  27.510  1.00  0.00     0.040 A 
ATOM     72  C   UNL A   1      42.647  22.128  25.357  1.00  0.00     0.040 A 
ATOM     73  F   UNL A   1      43.268  24.385  25.168  1.00  0.00    -0.206 F 
ATOM     74  C   UNL A   1      42.243  21.047  26.139  1.00  0.00     0.006 A 
ENDBRANCH  46  67
BRANCH  58  75
ATOM     75  C   UNL A   1      48.195  26.465  30.419  1.00  0.00     0.057 A 
ATOM     76  C   UNL A   1      48.505  25.785  31.604  1.00  0.00     0.134 A 
ATOM     77  C   UNL A   1      49.223  26.649  29.487  1.00  0.00     0.134 A 
ATOM     78  F   UNL A   1      47.567  25.592  32.542  1.00  0.00    -0.206 F 
ATOM     79  C   UNL A   1      49.798  25.324  31.861  1.00  0.00     0.040 A 
ATOM     80  C   UNL A   1      50.514  26.175  29.724  1.00  0.00     0.040 A 
ATOM     81  F   UNL A   1      48.989  27.288  28.331  1.00  0.00    -0.206 F 
ATOM     82  C   UNL A   1      50.805  25.516  30.918  1.00  0.00     0.006 A 
ENDBRANCH  58  75
ENDBRANCH  32  33
ENDBRANCH  24  27
ENDBRANCH  22  23
ENDBRANCH   1  22
TORSDOF 12
ENDMDL
MODEL 2
REMARK VINA RESULT:      -9.3      4.123      9.816
REMARK SMILES C[C@H](C(=O)NCCCNC(=O)c1ccc(-c2c3nc(c(-c4c(F)cccc4F)c4ccc([nH]4)c(-c4c(F)cccc4F)c4nc(c(-c5c(F)cccc5F)c5ccc2[nH]5)C=C4)C=C3)cc1)c1ccc(-c2ccccc2)c(F)c1
REMARK SMILES IDX 7 1 6 2 5 3 3 4 4 5 2 7 1 8 66 9 67 10 78 11 68 12 76 13
REMARK SMILES IDX 69 14 77 15 70 16 71 17 75 18 72 19 74 20 73 21 8 22 9 23
REMARK SMILES IDX 10 24 11 26 12 27 13 28 65 29 14 30 64 31 15 32 16 33 17 34
REMARK SMILES IDX 58 35 18 36 63 37 57 38 59 39 19 40 62 41 56 42 55 43 20 45
REMARK SMILES IDX 46 46 29 47 45 48 30 49 33 50 44 51 60 52 31 53 32 54 43 56
REMARK SMILES IDX 61 57 34 58 21 59 22 60 27 61 23 62 24 63 26 64 28 65 25 66
REMARK SMILES IDX 47 67 48 68 53 69 49 70 50 71 52 72 54 73 51 74 35 75 36 76
REMARK SMILES IDX 41 77 37 78 38 79 40 80 42 81 39 82
REMARK H PARENT 5 6 9 25 59 44 33 55
REMARK Flexibility Score: inf
ROOT
ATOM      1  C   UNL A   1      36.454  23.699  24.414  1.00  0.00     0.042 C 
ENDROOT
BRANCH   1   2
ATOM      2  C   UNL A   1      35.708  22.666  23.569  1.00  0.00     0.117 C 
BRANCH   2   3
ATOM      3  N   UNL A   1      34.661  21.986  24.310  1.00  0.00    -0.356 N 
ATOM      4  C   UNL A   1      33.326  22.271  24.394  1.00  0.00     0.227 C 
ATOM      5  O   UNL A   1      32.631  21.548  25.111  1.00  0.00    -0.274 OA
ATOM      6  H   UNL A   1      34.956  21.204  24.830  1.00  0.00     0.163 HD
BRANCH   4   7
ATOM      7  C   UNL A   1      32.745  23.461  23.615  1.00  0.00     0.105 C 
ATOM      8  C   UNL A   1      31.240  23.283  23.393  1.00  0.00     0.023 C 
BRANCH   7   9
ATOM      9  C   UNL A   1      33.040  24.782  24.307  1.00  0.00    -0.033 A 
ATOM     10  C   UNL A   1      32.806  24.931  25.680  1.00  0.00     0.005 A 
ATOM     11  C   UNL A   1      33.502  25.891  23.589  1.00  0.00     0.044 A 
ATOM     12  C   UNL A   1      32.965  26.175  26.303  1.00  0.00     0.012 A 
ATOM     13  C   UNL A   1      33.676  27.123  24.222  1.00  0.00     0.131 A 
ATOM     14  C   UNL A   1      33.389  27.308  25.582  1.00  0.00     0.017 A 
ATOM     15  F   UNL A   1      34.115  28.148  23.474  1.00  0.00    -0.206 F 
BRANCH  14  16
ATOM     16  C   UNL A   1      33.484  28.629  26.238  1.00  0.00    -0.015 A 
ATOM     17  C   UNL A   1      34.642  29.022  26.936  1.00  0.00     0.009 A 
ATOM     18  C   UNL A   1      32.407  29.534  26.215  1.00  0.00     0.009 A 
ATOM     19  C   UNL A   1      34.714  30.257  27.587  1.00  0.00     0.001 A 
ATOM     20  C   UNL A   1      32.478  30.771  26.860  1.00  0.00     0.001 A 
ATOM     21  C   UNL A   1      33.633  31.131  27.549  1.00  0.00     0.000 A 
ENDBRANCH  14  16
ENDBRANCH   7   9
ENDBRANCH   4   7
ENDBRANCH   2   3
ENDBRANCH   1   2
BRANCH   1  22
ATOM     22  C   UNL A   1      36.658  23.304  25.874  1.00  0.00     0.118 C 
BRANCH  22  23
ATOM     23  N   UNL A   1      37.782  22.401  26.062  1.00  0.00    -0.352 N 
ATOM     24  C   UNL A   1      39.085  22.641  26.411  1.00  0.00     0.251 C 
ATOM     25  H   UNL A   1      37.570  21.451  25.910  1.00  0.00     0.163 HD
ATOM     26  O   UNL A   1      39.892  21.713  26.347  1.00  0.00    -0.269 OA
BRANCH  24  27
ATOM     27  C   UNL A   1      39.553  23.978  26.847  1.00  0.00     0.039 A 
ATOM     28  C   UNL A   1      39.400  24.317  28.198  1.00  0.00     0.014 A 
ATOM     29  C   UNL A   1      40.060  24.927  25.955  1.00  0.00     0.014 A 
ATOM     30  C   UNL A   1      39.789  25.578  28.656  1.00  0.00     0.010 A 
ATOM     31  C   UNL A   1      40.504  26.168  26.424  1.00  0.00     0.010 A 
ATOM     32  C   UNL A   1      40.366  26.508  27.777  1.00  0.00    -0.014 A 
BRANCH  32  33
ATOM     33  C   UNL A   1      40.830  27.827  28.280  1.00  0.00     0.031 A 
ATOM     34  C   UNL A   1      42.292  28.176  28.297  1.00  0.00     0.074 A 
ATOM     35  C   UNL A   1      39.925  28.711  28.742  1.00  0.00     0.049 A 
ATOM     36  N   UNL A   1      42.870  29.288  28.677  1.00  0.00    -0.248 NA
ATOM     37  C   UNL A   1      43.229  27.136  27.846  1.00  0.00     0.031 C 
ATOM     38  C   UNL A   1      38.483  28.476  28.830  1.00  0.00     0.029 A 
ATOM     39  N   UNL A   1      40.086  29.986  29.223  1.00  0.00    -0.354 N 
ATOM     40  C   UNL A   1      44.234  29.080  28.520  1.00  0.00     0.074 A 
ATOM     41  C   UNL A   1      44.401  27.721  28.051  1.00  0.00     0.031 C 
ATOM     42  C   UNL A   1      37.888  29.581  29.306  1.00  0.00     0.029 A 
ATOM     43  C   UNL A   1      38.905  30.592  29.576  1.00  0.00     0.049 A 
ATOM     44  H   UNL A   1      40.963  30.425  29.306  1.00  0.00     0.167 HD
ATOM     45  C   UNL A   1      45.254  29.948  28.729  1.00  0.00     0.037 A 
ATOM     46  C   UNL A   1      38.667  31.828  30.053  1.00  0.00     0.037 A 
ATOM     47  C   UNL A   1      45.092  31.308  29.174  1.00  0.00     0.049 A 
ATOM     48  C   UNL A   1      39.811  32.780  30.249  1.00  0.00     0.074 A 
ATOM     49  C   UNL A   1      46.062  32.279  29.358  1.00  0.00     0.029 A 
ATOM     50  N   UNL A   1      43.878  31.890  29.505  1.00  0.00    -0.354 N 
ATOM     51  N   UNL A   1      41.089  32.589  30.032  1.00  0.00    -0.248 NA
ATOM     52  C   UNL A   1      39.477  34.122  30.746  1.00  0.00     0.031 C 
ATOM     53  C   UNL A   1      45.438  33.441  29.829  1.00  0.00     0.029 A 
ATOM     54  C   UNL A   1      44.076  33.202  29.906  1.00  0.00     0.049 A 
ATOM     55  H   UNL A   1      43.004  31.438  29.462  1.00  0.00     0.167 HD
ATOM     56  C   UNL A   1      41.710  33.789  30.352  1.00  0.00     0.074 A 
ATOM     57  C   UNL A   1      40.666  34.707  30.758  1.00  0.00     0.031 C 
ATOM     58  C   UNL A   1      43.029  34.101  30.315  1.00  0.00     0.037 A 
BRANCH  45  59
ATOM     59  C   UNL A   1      46.645  29.451  28.469  1.00  0.00     0.057 A 
ATOM     60  C   UNL A   1      47.407  28.840  29.473  1.00  0.00     0.134 A 
ATOM     61  C   UNL A   1      47.215  29.549  27.194  1.00  0.00     0.134 A 
ATOM     62  F   UNL A   1      46.922  28.725  30.718  1.00  0.00    -0.206 F 
ATOM     63  C   UNL A   1      48.695  28.364  29.224  1.00  0.00     0.040 A 
ATOM     64  C   UNL A   1      48.494  29.058  26.927  1.00  0.00     0.040 A 
ATOM     65  F   UNL A   1      46.536  30.118  26.185  1.00  0.00    -0.206 F 
ATOM     66  C   UNL A   1      49.240  28.468  27.946  1.00  0.00     0.006 A 
ENDBRANCH  45  59
BRANCH  46  67
ATOM     67  C   UNL A   1      37.276  32.249  30.343  1.00  0.00     0.057 A 
ATOM     68  C   UNL A   1      36.670  31.936  31.565  1.00  0.00     0.134 A 
ATOM     69  C   UNL A   1      36.524  32.975  29.413  1.00  0.00     0.134 A 
ATOM     70  F   UNL A   1      37.338  31.228  32.487  1.00  0.00    -0.206 F 
ATOM     71  C   UNL A   1      35.358  32.317  31.847  1.00  0.00     0.040 A 
ATOM     72  C   UNL A   1      35.217  33.379  29.689  1.00  0.00     0.040 A 
ATOM     73  F   UNL A   1      37.053  33.309  28.227  1.00  0.00    -0.206 F 
ATOM     74  C   UNL A   1      34.629  33.046  30.908  1.00  0.00     0.006 A 
ENDBRANCH  46  67
BRANCH  58  75
ATOM     75  C   UNL A   1      43.407  35.496  30.714  1.00  0.00     0.057 A 
ATOM     76  C   UNL A   1      43.463  36.536  29.779  1.00  0.00     0.134 A 
ATOM     77  C   UNL A   1      43.707  35.802  32.047  1.00  0.00     0.134 A 
ATOM     78  F   UNL A   1      43.201  36.302  28.485  1.00  0.00    -0.206 F 
ATOM     79  C   UNL A   1      43.827  37.832  30.152  1.00  0.00     0.040 A 
ATOM     80  C   UNL A   1      44.053  37.097  32.436  1.00  0.00     0.040 A 
ATOM     81  F   UNL A   1      43.667  34.850  32.991  1.00  0.00    -0.206 F 
ATOM     82  C   UNL A   1      44.120  38.115  31.485  1.00  0.00     0.006 A 
ENDBRANCH  58  75
ENDBRANCH  32  33
ENDBRANCH  24  27
ENDBRANCH  22  23
ENDBRANCH   1  22
TORSDOF 12
ENDMDL
MODEL 3
REMARK VINA RESULT:      -9.3      4.426      8.196
REMARK SMILES C[C@H](C(=O)NCCCNC(=O)c1ccc(-c2c3nc(c(-c4c(F)cccc4F)c4ccc([nH]4)c(-c4c(F)cccc4F)c4nc(c(-c5c(F)cccc5F)c5ccc2[nH]5)C=C4)C=C3)cc1)c1ccc(-c2ccccc2)c(F)c1
REMARK SMILES IDX 7 1 6 2 5 3 3 4 4 5 2 7 1 8 66 9 67 10 78 11 68 12 76 13
REMARK SMILES IDX 69 14 77 15 70 16 71 17 75 18 72 19 74 20 73 21 8 22 9 23
REMARK SMILES IDX 10 24 11 26 12 27 13 28 65 29 14 30 64 31 15 32 16 33 17 34
REMARK SMILES IDX 58 35 18 36 63 37 57 38 59 39 19 40 62 41 56 42 55 43 20 45
REMARK SMILES IDX 46 46 29 47 45 48 30 49 33 50 44 51 60 52 31 53 32 54 43 56
REMARK SMILES IDX 61 57 34 58 21 59 22 60 27 61 23 62 24 63 26 64 28 65 25 66
REMARK SMILES IDX 47 67 48 68 53 69 49 70 50 71 52 72 54 73 51 74 35 75 36 76
REMARK SMILES IDX 41 77 37 78 38 79 40 80 42 81 39 82
REMARK H PARENT 5 6 9 25 59 44 33 55
REMARK Flexibility Score: inf
ROOT
ATOM      1  C   UNL A   1      32.876  27.921  26.550  1.00  0.00     0.042 C 
ENDROOT
BRANCH   1   2
ATOM      2  C   UNL A   1      33.125  26.437  26.282  1.00  0.00     0.117 C 
BRANCH   2   3
ATOM      3  N   UNL A   1      31.990  25.605  26.640  1.00  0.00    -0.356 N 
ATOM      4  C   UNL A   1      31.103  24.945  25.835  1.00  0.00     0.227 C 
ATOM      5  O   UNL A   1      30.201  24.307  26.382  1.00  0.00    -0.274 OA
ATOM      6  H   UNL A   1      31.836  25.501  27.607  1.00  0.00     0.163 HD
BRANCH   4   7
ATOM      7  C   UNL A   1      31.250  25.021  24.308  1.00  0.00     0.105 C 
ATOM      8  C   UNL A   1      30.642  23.783  23.641  1.00  0.00     0.023 C 
BRANCH   7   9
ATOM      9  C   UNL A   1      30.638  26.295  23.749  1.00  0.00    -0.033 A 
ATOM     10  C   UNL A   1      31.450  27.273  23.161  1.00  0.00     0.005 A 
ATOM     11  C   UNL A   1      29.264  26.547  23.851  1.00  0.00     0.044 A 
ATOM     12  C   UNL A   1      30.911  28.498  22.748  1.00  0.00     0.012 A 
ATOM     13  C   UNL A   1      28.733  27.764  23.420  1.00  0.00     0.131 A 
ATOM     14  C   UNL A   1      29.539  28.780  22.884  1.00  0.00     0.017 A 
ATOM     15  F   UNL A   1      27.409  27.944  23.552  1.00  0.00    -0.206 F 
BRANCH  14  16
ATOM     16  C   UNL A   1      28.997  30.103  22.509  1.00  0.00    -0.015 A 
ATOM     17  C   UNL A   1      28.525  30.363  21.210  1.00  0.00     0.009 A 
ATOM     18  C   UNL A   1      28.963  31.164  23.433  1.00  0.00     0.009 A 
ATOM     19  C   UNL A   1      28.048  31.627  20.848  1.00  0.00     0.001 A 
ATOM     20  C   UNL A   1      28.483  32.427  23.076  1.00  0.00     0.001 A 
ATOM     21  C   UNL A   1      28.028  32.658  21.781  1.00  0.00     0.000 A 
ENDBRANCH  14  16
ENDBRANCH   7   9
ENDBRANCH   4   7
ENDBRANCH   2   3
ENDBRANCH   1   2
BRANCH   1  22
ATOM     22  C   UNL A   1      33.967  28.856  26.033  1.00  0.00     0.118 C 
BRANCH  22  23
ATOM     23  N   UNL A   1      33.836  30.211  26.546  1.00  0.00    -0.352 N 
ATOM     24  C   UNL A   1      34.554  30.890  27.494  1.00  0.00     0.251 C 
ATOM     25  H   UNL A   1      33.103  30.730  26.143  1.00  0.00     0.163 HD
ATOM     26  O   UNL A   1      34.142  31.988  27.871  1.00  0.00    -0.269 OA
BRANCH  24  27
ATOM     27  C   UNL A   1      35.797  30.342  28.088  1.00  0.00     0.039 A 
ATOM     28  C   UNL A   1      36.977  30.434  27.338  1.00  0.00     0.014 A 
ATOM     29  C   UNL A   1      35.816  29.677  29.317  1.00  0.00     0.014 A 
ATOM     30  C   UNL A   1      38.170  29.900  27.833  1.00  0.00     0.010 A 
ATOM     31  C   UNL A   1      37.021  29.194  29.838  1.00  0.00     0.010 A 
ATOM     32  C   UNL A   1      38.207  29.295  29.098  1.00  0.00    -0.014 A 
BRANCH  32  33
ATOM     33  C   UNL A   1      39.489  28.779  29.644  1.00  0.00     0.031 A 
ATOM     34  C   UNL A   1      40.101  29.381  30.878  1.00  0.00     0.074 A 
ATOM     35  C   UNL A   1      40.117  27.770  29.011  1.00  0.00     0.049 A 
ATOM     36  N   UNL A   1      41.198  29.039  31.506  1.00  0.00    -0.248 NA
ATOM     37  C   UNL A   1      39.400  30.527  31.477  1.00  0.00     0.031 C 
ATOM     38  C   UNL A   1      39.657  27.133  27.775  1.00  0.00     0.029 A 
ATOM     39  N   UNL A   1      41.274  27.102  29.320  1.00  0.00    -0.354 N 
ATOM     40  C   UNL A   1      41.324  29.929  32.564  1.00  0.00     0.074 A 
ATOM     41  C   UNL A   1      40.215  30.854  32.470  1.00  0.00     0.031 C 
ATOM     42  C   UNL A   1      40.508  26.148  27.448  1.00  0.00     0.029 A 
ATOM     43  C   UNL A   1      41.581  26.096  28.436  1.00  0.00     0.049 A 
ATOM     44  H   UNL A   1      41.832  27.321  30.102  1.00  0.00     0.167 HD
ATOM     45  C   UNL A   1      42.268  29.963  33.537  1.00  0.00     0.037 A 
ATOM     46  C   UNL A   1      42.605  25.223  28.429  1.00  0.00     0.037 A 
ATOM     47  C   UNL A   1      43.361  29.032  33.648  1.00  0.00     0.049 A 
ATOM     48  C   UNL A   1      43.621  25.263  29.534  1.00  0.00     0.074 A 
ATOM     49  C   UNL A   1      44.331  28.952  34.633  1.00  0.00     0.029 A 
ATOM     50  N   UNL A   1      43.627  28.017  32.743  1.00  0.00    -0.354 N 
ATOM     51  N   UNL A   1      43.688  26.069  30.564  1.00  0.00    -0.248 NA
ATOM     52  C   UNL A   1      44.697  24.263  29.478  1.00  0.00     0.031 C 
ATOM     53  C   UNL A   1      45.203  27.906  34.306  1.00  0.00     0.029 A 
ATOM     54  C   UNL A   1      44.756  27.316  33.137  1.00  0.00     0.049 A 
ATOM     55  H   UNL A   1      43.094  27.824  31.938  1.00  0.00     0.167 HD
ATOM     56  C   UNL A   1      44.802  25.667  31.287  1.00  0.00     0.074 A 
ATOM     57  C   UNL A   1      45.369  24.532  30.589  1.00  0.00     0.031 C 
ATOM     58  C   UNL A   1      45.312  26.193  32.427  1.00  0.00     0.037 A 
BRANCH  45  59
ATOM     59  C   UNL A   1      42.152  31.044  34.570  1.00  0.00     0.057 A 
ATOM     60  C   UNL A   1      41.399  30.867  35.738  1.00  0.00     0.134 A 
ATOM     61  C   UNL A   1      42.828  32.260  34.415  1.00  0.00     0.134 A 
ATOM     62  F   UNL A   1      40.720  29.729  35.942  1.00  0.00    -0.206 F 
ATOM     63  C   UNL A   1      41.305  31.869  36.705  1.00  0.00     0.040 A 
ATOM     64  C   UNL A   1      42.758  33.262  35.384  1.00  0.00     0.040 A 
ATOM     65  F   UNL A   1      43.571  32.493  33.322  1.00  0.00    -0.206 F 
ATOM     66  C   UNL A   1      41.991  33.070  36.531  1.00  0.00     0.006 A 
ENDBRANCH  45  59
BRANCH  46  67
ATOM     67  C   UNL A   1      42.699  24.208  27.353  1.00  0.00     0.057 A 
ATOM     68  C   UNL A   1      42.169  22.925  27.527  1.00  0.00     0.134 A 
ATOM     69  C   UNL A   1      43.312  24.496  26.128  1.00  0.00     0.134 A 
ATOM     70  F   UNL A   1      41.586  22.588  28.687  1.00  0.00    -0.206 F 
ATOM     71  C   UNL A   1      42.259  21.956  26.527  1.00  0.00     0.040 A 
ATOM     72  C   UNL A   1      43.391  23.544  25.111  1.00  0.00     0.040 A 
ATOM     73  F   UNL A   1      43.832  25.711  25.900  1.00  0.00    -0.206 F 
ATOM     74  C   UNL A   1      42.867  22.268  25.312  1.00  0.00     0.006 A 
ENDBRANCH  46  67
BRANCH  58  75
ATOM     75  C   UNL A   1      46.537  25.536  32.990  1.00  0.00     0.057 A 
ATOM     76  C   UNL A   1      47.823  25.933  32.606  1.00  0.00     0.134 A 
ATOM     77  C   UNL A   1      46.428  24.506  33.932  1.00  0.00     0.134 A 
ATOM     78  F   UNL A   1      47.992  26.904  31.696  1.00  0.00    -0.206 F 
ATOM     79  C   UNL A   1      48.962  25.311  33.122  1.00  0.00     0.040 A 
ATOM     80  C   UNL A   1      47.559  23.890  34.471  1.00  0.00     0.040 A 
ATOM     81  F   UNL A   1      45.223  24.083  34.344  1.00  0.00    -0.206 F 
ATOM     82  C   UNL A   1      48.830  24.289  34.061  1.00  0.00     0.006 A 
ENDBRANCH  58  75
ENDBRANCH  32  33
ENDBRANCH  24  27
ENDBRANCH  22  23
ENDBRANCH   1  22
TORSDOF 12
ENDMDL
