MODEL 1
REMARK VINA RESULT:     -11.8      0.000      0.000
REMARK SMILES CC[C@H](C(=O)NCCCNC(=O)c1ccc(-c2c3nc(c(-c4c(F)cccc4F)c4ccc([nH]4)c(-c4c(F)cccc4F)c4nc(c(-c5c(F)cccc5F)c5ccc2[nH]5)C=C4)C=C3)cc1)N1C(=O)/C(=C\c2cc(OC)ccc2OC)SC1=S
REMARK SMILES IDX 7 1 6 2 4 3 5 4 3 6 2 7 1 8 67 9 68 10 83 11 69 12 70 13
REMARK SMILES IDX 82 14 84 15 71 16 72 17 73 18 79 19 74 20 78 21 77 22 80 23
REMARK SMILES IDX 81 24 75 25 76 26 8 27 9 28 10 29 11 30 12 32 13 33 14 34
REMARK SMILES IDX 66 35 15 36 65 37 16 38 17 39 18 40 59 41 19 42 64 43 58 44
REMARK SMILES IDX 60 45 20 46 63 47 57 48 56 49 21 51 47 52 30 53 46 54 31 55
REMARK SMILES IDX 34 56 45 57 61 58 32 59 33 60 44 62 62 63 35 64 22 65 23 66
REMARK SMILES IDX 28 67 24 68 25 69 27 70 29 71 26 72 48 73 49 74 54 75 50 76
REMARK SMILES IDX 51 77 53 78 55 79 52 80 36 81 37 82 42 83 38 84 39 85 41 86
REMARK SMILES IDX 43 87 40 88
REMARK H PARENT 6 5 10 31 60 50 34 61
REMARK Flexibility Score: inf
ROOT
ATOM      1  C   UNL A   1      31.577  31.108  26.090  1.00  0.00     0.117 C 
ENDROOT
BRANCH   1   2
ATOM      2  N   UNL A   1      31.396  29.952  26.947  1.00  0.00    -0.354 N 
ATOM      3  C   UNL A   1      31.856  28.675  26.842  1.00  0.00     0.243 C 
ATOM      4  O   UNL A   1      31.439  27.860  27.672  1.00  0.00    -0.273 OA
ATOM      5  H   UNL A   1      30.846  30.121  27.745  1.00  0.00     0.163 HD
BRANCH   3   6
ATOM      6  C   UNL A   1      32.779  28.212  25.699  1.00  0.00     0.181 C 
BRANCH   6   7
ATOM      7  C   UNL A   1      34.157  27.839  26.342  1.00  0.00     0.032 C 
ATOM      8  C   UNL A   1      34.801  28.982  27.118  1.00  0.00     0.006 C 
ENDBRANCH   6   7
BRANCH   6   9
ATOM      9  N   UNL A   1      32.243  27.138  24.810  1.00  0.00    -0.280 N 
ATOM     10  C   UNL A   1      32.820  25.884  24.949  1.00  0.00     0.266 C 
ATOM     11  C   UNL A   1      31.619  27.287  23.581  1.00  0.00     0.149 C 
ATOM     12  O   UNL A   1      33.864  25.636  25.544  1.00  0.00    -0.268 OA
ATOM     13  C   UNL A   1      32.117  24.886  24.113  1.00  0.00     0.081 C 
ATOM     14  S   UNL A   1      31.268  25.700  22.875  1.00  0.00    -0.054 SA
ATOM     15  S   UNL A   1      31.166  28.653  22.739  1.00  0.00    -0.052 S 
ATOM     16  C   UNL A   1      32.071  23.565  24.324  1.00  0.00     0.033 C 
BRANCH  16  17
ATOM     17  C   UNL A   1      32.686  22.911  25.485  1.00  0.00     0.021 A 
ATOM     18  C   UNL A   1      33.911  22.258  25.256  1.00  0.00     0.058 A 
ATOM     19  C   UNL A   1      32.178  22.970  26.794  1.00  0.00     0.126 A 
ATOM     20  C   UNL A   1      34.643  21.693  26.305  1.00  0.00     0.119 A 
ATOM     21  C   UNL A   1      32.926  22.416  27.841  1.00  0.00     0.051 A 
ATOM     22  C   UNL A   1      34.147  21.780  27.602  1.00  0.00     0.050 A 
BRANCH  19  23
ATOM     23  O   UNL A   1      31.042  23.612  27.218  1.00  0.00    -0.496 OA
ATOM     24  C   UNL A   1      29.818  22.889  27.172  1.00  0.00     0.278 C 
ENDBRANCH  19  23
BRANCH  20  25
ATOM     25  O   UNL A   1      35.823  21.112  25.929  1.00  0.00    -0.497 OA
ATOM     26  C   UNL A   1      36.653  21.856  25.045  1.00  0.00     0.278 C 
ENDBRANCH  20  25
ENDBRANCH  16  17
ENDBRANCH   6   9
ENDBRANCH   3   6
ENDBRANCH   1   2
BRANCH   1  27
ATOM     27  C   UNL A   1      31.363  32.402  26.873  1.00  0.00     0.042 C 
BRANCH  27  28
ATOM     28  C   UNL A   1      32.667  33.068  27.306  1.00  0.00     0.118 C 
BRANCH  28  29
ATOM     29  N   UNL A   1      32.464  34.446  27.729  1.00  0.00    -0.352 N 
ATOM     30  C   UNL A   1      33.050  35.132  28.763  1.00  0.00     0.251 C 
ATOM     31  H   UNL A   1      31.813  34.959  27.198  1.00  0.00     0.163 HD
ATOM     32  O   UNL A   1      32.603  36.221  29.108  1.00  0.00    -0.269 OA
BRANCH  30  33
ATOM     33  C   UNL A   1      34.212  34.553  29.470  1.00  0.00     0.039 A 
ATOM     34  C   UNL A   1      34.013  33.944  30.711  1.00  0.00     0.014 A 
ATOM     35  C   UNL A   1      35.494  34.631  28.920  1.00  0.00     0.014 A 
ATOM     36  C   UNL A   1      35.095  33.365  31.377  1.00  0.00     0.010 A 
ATOM     37  C   UNL A   1      36.557  33.992  29.549  1.00  0.00     0.010 A 
ATOM     38  C   UNL A   1      36.370  33.361  30.788  1.00  0.00    -0.014 A 
BRANCH  38  39
ATOM     39  C   UNL A   1      37.523  32.711  31.457  1.00  0.00     0.031 A 
ATOM     40  C   UNL A   1      38.207  31.540  30.809  1.00  0.00     0.074 A 
ATOM     41  C   UNL A   1      37.909  33.132  32.676  1.00  0.00     0.049 A 
ATOM     42  N   UNL A   1      39.182  30.796  31.265  1.00  0.00    -0.248 NA
ATOM     43  C   UNL A   1      37.710  31.134  29.485  1.00  0.00     0.031 C 
ATOM     44  C   UNL A   1      37.289  34.225  33.430  1.00  0.00     0.029 A 
ATOM     45  N   UNL A   1      38.907  32.683  33.502  1.00  0.00    -0.354 N 
ATOM     46  C   UNL A   1      39.399  29.825  30.296  1.00  0.00     0.074 A 
ATOM     47  C   UNL A   1      38.423  30.043  29.251  1.00  0.00     0.031 C 
ATOM     48  C   UNL A   1      37.936  34.375  34.597  1.00  0.00     0.029 A 
ATOM     49  C   UNL A   1      38.989  33.370  34.689  1.00  0.00     0.049 A 
ATOM     50  H   UNL A   1      39.509  31.940  33.267  1.00  0.00     0.167 HD
ATOM     51  C   UNL A   1      40.343  28.853  30.268  1.00  0.00     0.037 A 
ATOM     52  C   UNL A   1      39.820  33.203  35.736  1.00  0.00     0.037 A 
ATOM     53  C   UNL A   1      41.331  28.660  31.296  1.00  0.00     0.049 A 
ATOM     54  C   UNL A   1      40.867  32.127  35.677  1.00  0.00     0.074 A 
ATOM     55  C   UNL A   1      42.373  27.750  31.331  1.00  0.00     0.029 A 
ATOM     56  N   UNL A   1      41.399  29.393  32.472  1.00  0.00    -0.354 N 
ATOM     57  N   UNL A   1      41.106  31.259  34.723  1.00  0.00    -0.248 NA
ATOM     58  C   UNL A   1      41.762  32.010  36.836  1.00  0.00     0.031 C 
ATOM     59  C   UNL A   1      43.047  27.905  32.547  1.00  0.00     0.029 A 
ATOM     60  C   UNL A   1      42.454  28.943  33.249  1.00  0.00     0.049 A 
ATOM     61  H   UNL A   1      40.789  30.126  32.717  1.00  0.00     0.167 HD
ATOM     62  C   UNL A   1      42.193  30.511  35.154  1.00  0.00     0.074 A 
ATOM     63  C   UNL A   1      42.575  31.037  36.450  1.00  0.00     0.031 C 
ATOM     64  C   UNL A   1      42.820  29.482  34.533  1.00  0.00     0.037 A 
BRANCH  51  65
ATOM     65  C   UNL A   1      40.349  27.930  29.084  1.00  0.00     0.057 A 
ATOM     66  C   UNL A   1      39.605  26.743  29.069  1.00  0.00     0.134 A 
ATOM     67  C   UNL A   1      41.093  28.239  27.939  1.00  0.00     0.134 A 
ATOM     68  F   UNL A   1      38.881  26.381  30.139  1.00  0.00    -0.206 F 
ATOM     69  C   UNL A   1      39.625  25.882  27.970  1.00  0.00     0.040 A 
ATOM     70  C   UNL A   1      41.099  27.401  26.823  1.00  0.00     0.040 A 
ATOM     71  F   UNL A   1      41.824  29.363  27.884  1.00  0.00    -0.206 F 
ATOM     72  C   UNL A   1      40.369  26.214  26.840  1.00  0.00     0.006 A 
ENDBRANCH  51  65
BRANCH  52  73
ATOM     73  C   UNL A   1      39.713  34.099  36.913  1.00  0.00     0.057 A 
ATOM     74  C   UNL A   1      40.361  35.340  36.934  1.00  0.00     0.134 A 
ATOM     75  C   UNL A   1      38.956  33.746  38.037  1.00  0.00     0.134 A 
ATOM     76  F   UNL A   1      41.113  35.726  35.893  1.00  0.00    -0.206 F 
ATOM     77  C   UNL A   1      40.274  36.191  38.036  1.00  0.00     0.040 A 
ATOM     78  C   UNL A   1      38.843  34.598  39.137  1.00  0.00     0.040 A 
ATOM     79  F   UNL A   1      38.304  32.575  38.074  1.00  0.00    -0.206 F 
ATOM     80  C   UNL A   1      39.509  35.822  39.141  1.00  0.00     0.006 A 
ENDBRANCH  52  73
BRANCH  64  81
ATOM     81  C   UNL A   1      44.000  28.878  35.234  1.00  0.00     0.057 A 
ATOM     82  C   UNL A   1      43.860  27.819  36.139  1.00  0.00     0.134 A 
ATOM     83  C   UNL A   1      45.297  29.336  34.967  1.00  0.00     0.134 A 
ATOM     84  F   UNL A   1      42.644  27.344  36.447  1.00  0.00    -0.206 F 
ATOM     85  C   UNL A   1      44.967  27.250  36.771  1.00  0.00     0.040 A 
ATOM     86  C   UNL A   1      46.413  28.758  35.573  1.00  0.00     0.040 A 
ATOM     87  F   UNL A   1      45.500  30.342  34.103  1.00  0.00    -0.206 F 
ATOM     88  C   UNL A   1      46.249  27.716  36.483  1.00  0.00     0.006 A 
ENDBRANCH  64  81
ENDBRANCH  38  39
ENDBRANCH  30  33
ENDBRANCH  28  29
ENDBRANCH  27  28
ENDBRANCH   1  27
TORSDOF 15
ENDMDL
MODEL 2
REMARK VINA RESULT:     -11.7      1.115      6.150
REMARK SMILES CC[C@H](C(=O)NCCCNC(=O)c1ccc(-c2c3nc(c(-c4c(F)cccc4F)c4ccc([nH]4)c(-c4c(F)cccc4F)c4nc(c(-c5c(F)cccc5F)c5ccc2[nH]5)C=C4)C=C3)cc1)N1C(=O)/C(=C\c2cc(OC)ccc2OC)SC1=S
REMARK SMILES IDX 7 1 6 2 4 3 5 4 3 6 2 7 1 8 67 9 68 10 83 11 69 12 70 13
REMARK SMILES IDX 82 14 84 15 71 16 72 17 73 18 79 19 74 20 78 21 77 22 80 23
REMARK SMILES IDX 81 24 75 25 76 26 8 27 9 28 10 29 11 30 12 32 13 33 14 34
REMARK SMILES IDX 66 35 15 36 65 37 16 38 17 39 18 40 59 41 19 42 64 43 58 44
REMARK SMILES IDX 60 45 20 46 63 47 57 48 56 49 21 51 47 52 30 53 46 54 31 55
REMARK SMILES IDX 34 56 45 57 61 58 32 59 33 60 44 62 62 63 35 64 22 65 23 66
REMARK SMILES IDX 28 67 24 68 25 69 27 70 29 71 26 72 48 73 49 74 54 75 50 76
REMARK SMILES IDX 51 77 53 78 55 79 52 80 36 81 37 82 42 83 38 84 39 85 41 86
REMARK SMILES IDX 43 87 40 88
REMARK H PARENT 6 5 10 31 60 50 34 61
REMARK Flexibility Score: inf
ROOT
ATOM      1  C   UNL A   1      31.515  31.099  26.053  1.00  0.00     0.117 C 
ENDROOT
BRANCH   1   2
ATOM      2  N   UNL A   1      31.362  29.972  26.954  1.00  0.00    -0.354 N 
ATOM      3  C   UNL A   1      31.841  28.700  26.890  1.00  0.00     0.243 C 
ATOM      4  O   UNL A   1      31.446  27.909  27.754  1.00  0.00    -0.273 OA
ATOM      5  H   UNL A   1      30.817  30.161  27.751  1.00  0.00     0.163 HD
BRANCH   3   6
ATOM      6  C   UNL A   1      32.760  28.211  25.755  1.00  0.00     0.181 C 
BRANCH   6   7
ATOM      7  C   UNL A   1      34.128  27.819  26.405  1.00  0.00     0.032 C 
ATOM      8  C   UNL A   1      34.857  28.989  27.054  1.00  0.00     0.006 C 
ENDBRANCH   6   7
BRANCH   6   9
ATOM      9  N   UNL A   1      32.207  27.138  24.873  1.00  0.00    -0.280 N 
ATOM     10  C   UNL A   1      32.786  25.884  24.998  1.00  0.00     0.266 C 
ATOM     11  C   UNL A   1      31.562  27.291  23.655  1.00  0.00     0.149 C 
ATOM     12  O   UNL A   1      33.840  25.634  25.574  1.00  0.00    -0.268 OA
ATOM     13  C   UNL A   1      32.068  24.888  24.173  1.00  0.00     0.081 C 
ATOM     14  S   UNL A   1      31.197  25.705  22.952  1.00  0.00    -0.054 SA
ATOM     15  S   UNL A   1      31.094  28.659  22.825  1.00  0.00    -0.052 S 
ATOM     16  C   UNL A   1      32.025  23.567  24.382  1.00  0.00     0.033 C 
BRANCH  16  17
ATOM     17  C   UNL A   1      32.661  22.910  25.530  1.00  0.00     0.021 A 
ATOM     18  C   UNL A   1      33.893  22.278  25.283  1.00  0.00     0.058 A 
ATOM     19  C   UNL A   1      32.163  22.948  26.844  1.00  0.00     0.126 A 
ATOM     20  C   UNL A   1      34.643  21.714  26.319  1.00  0.00     0.119 A 
ATOM     21  C   UNL A   1      32.929  22.394  27.878  1.00  0.00     0.051 A 
ATOM     22  C   UNL A   1      34.158  21.779  27.621  1.00  0.00     0.050 A 
BRANCH  19  23
ATOM     23  O   UNL A   1      31.022  23.567  27.285  1.00  0.00    -0.496 OA
ATOM     24  C   UNL A   1      29.789  22.879  27.117  1.00  0.00     0.278 C 
ENDBRANCH  19  23
BRANCH  20  25
ATOM     25  O   UNL A   1      35.828  21.155  25.926  1.00  0.00    -0.497 OA
ATOM     26  C   UNL A   1      36.556  21.837  24.912  1.00  0.00     0.278 C 
ENDBRANCH  20  25
ENDBRANCH  16  17
ENDBRANCH   6   9
ENDBRANCH   3   6
ENDBRANCH   1   2
BRANCH   1  27
ATOM     27  C   UNL A   1      31.358  32.419  26.806  1.00  0.00     0.042 C 
BRANCH  27  28
ATOM     28  C   UNL A   1      32.690  33.042  27.215  1.00  0.00     0.118 C 
BRANCH  28  29
ATOM     29  N   UNL A   1      32.520  34.360  27.811  1.00  0.00    -0.352 N 
ATOM     30  C   UNL A   1      33.195  34.932  28.858  1.00  0.00     0.251 C 
ATOM     31  H   UNL A   1      31.820  34.919  27.404  1.00  0.00     0.163 HD
ATOM     32  O   UNL A   1      32.775  35.968  29.366  1.00  0.00    -0.269 OA
BRANCH  30  33
ATOM     33  C   UNL A   1      34.421  34.296  29.384  1.00  0.00     0.039 A 
ATOM     34  C   UNL A   1      34.326  33.470  30.507  1.00  0.00     0.014 A 
ATOM     35  C   UNL A   1      35.661  34.531  28.785  1.00  0.00     0.014 A 
ATOM     36  C   UNL A   1      35.469  32.837  30.997  1.00  0.00     0.010 A 
ATOM     37  C   UNL A   1      36.786  33.844  29.230  1.00  0.00     0.010 A 
ATOM     38  C   UNL A   1      36.703  32.998  30.346  1.00  0.00    -0.014 A 
BRANCH  38  39
ATOM     39  C   UNL A   1      37.921  32.299  30.823  1.00  0.00     0.031 A 
ATOM     40  C   UNL A   1      38.678  32.829  32.007  1.00  0.00     0.074 A 
ATOM     41  C   UNL A   1      38.381  31.228  30.147  1.00  0.00     0.049 A 
ATOM     42  N   UNL A   1      39.799  32.404  32.531  1.00  0.00    -0.248 NA
ATOM     43  C   UNL A   1      38.116  34.014  32.675  1.00  0.00     0.031 C 
ATOM     44  C   UNL A   1      37.762  30.652  28.952  1.00  0.00     0.029 A 
ATOM     45  N   UNL A   1      39.484  30.442  30.364  1.00  0.00    -0.354 N 
ATOM     46  C   UNL A   1      40.084  33.278  33.572  1.00  0.00     0.074 A 
ATOM     47  C   UNL A   1      39.048  34.286  33.575  1.00  0.00     0.031 C 
ATOM     48  C   UNL A   1      38.482  29.590  28.554  1.00  0.00     0.029 A 
ATOM     49  C   UNL A   1      39.629  29.434  29.443  1.00  0.00     0.049 A 
ATOM     50  H   UNL A   1      40.111  30.586  31.109  1.00  0.00     0.167 HD
ATOM     51  C   UNL A   1      41.106  33.230  34.460  1.00  0.00     0.037 A 
ATOM     52  C   UNL A   1      40.584  28.491  29.326  1.00  0.00     0.037 A 
ATOM     53  C   UNL A   1      42.118  32.207  34.471  1.00  0.00     0.049 A 
ATOM     54  C   UNL A   1      41.700  28.451  30.331  1.00  0.00     0.074 A 
ATOM     55  C   UNL A   1      43.156  32.030  35.369  1.00  0.00     0.029 A 
ATOM     56  N   UNL A   1      42.217  31.186  33.537  1.00  0.00    -0.354 N 
ATOM     57  N   UNL A   1      41.920  29.243  31.353  1.00  0.00    -0.248 NA
ATOM     58  C   UNL A   1      42.697  27.384  30.170  1.00  0.00     0.031 C 
ATOM     59  C   UNL A   1      43.907  30.924  34.955  1.00  0.00     0.029 A 
ATOM     60  C   UNL A   1      43.310  30.386  33.826  1.00  0.00     0.049 A 
ATOM     61  H   UNL A   1      41.600  31.050  32.782  1.00  0.00     0.167 HD
ATOM     62  C   UNL A   1      43.064  28.756  31.971  1.00  0.00     0.074 A 
ATOM     63  C   UNL A   1      43.484  27.592  31.217  1.00  0.00     0.031 C 
ATOM     64  C   UNL A   1      43.709  29.230  33.066  1.00  0.00     0.037 A 
BRANCH  51  65
ATOM     65  C   UNL A   1      41.173  34.317  35.494  1.00  0.00     0.057 A 
ATOM     66  C   UNL A   1      40.482  34.224  36.710  1.00  0.00     0.134 A 
ATOM     67  C   UNL A   1      41.951  35.461  35.281  1.00  0.00     0.134 A 
ATOM     68  F   UNL A   1      39.707  33.160  36.971  1.00  0.00    -0.206 F 
ATOM     69  C   UNL A   1      40.537  35.243  37.662  1.00  0.00     0.040 A 
ATOM     70  C   UNL A   1      42.037  36.474  36.237  1.00  0.00     0.040 A 
ATOM     71  F   UNL A   1      42.643  35.612  34.142  1.00  0.00    -0.206 F 
ATOM     72  C   UNL A   1      41.323  36.370  37.430  1.00  0.00     0.006 A 
ENDBRANCH  51  65
BRANCH  52  73
ATOM     73  C   UNL A   1      40.505  27.490  28.234  1.00  0.00     0.057 A 
ATOM     74  C   UNL A   1      39.735  26.330  28.376  1.00  0.00     0.134 A 
ATOM     75  C   UNL A   1      41.183  27.672  27.023  1.00  0.00     0.134 A 
ATOM     76  F   UNL A   1      39.074  26.094  29.519  1.00  0.00    -0.206 F 
ATOM     77  C   UNL A   1      39.655  25.378  27.359  1.00  0.00     0.040 A 
ATOM     78  C   UNL A   1      41.094  26.737  25.989  1.00  0.00     0.040 A 
ATOM     79  F   UNL A   1      41.930  28.767  26.822  1.00  0.00    -0.206 F 
ATOM     80  C   UNL A   1      40.333  25.583  26.159  1.00  0.00     0.006 A 
ENDBRANCH  52  73
BRANCH  64  81
ATOM     81  C   UNL A   1      44.916  28.471  33.529  1.00  0.00     0.057 A 
ATOM     82  C   UNL A   1      44.815  27.391  34.415  1.00  0.00     0.134 A 
ATOM     83  C   UNL A   1      46.191  28.802  33.051  1.00  0.00     0.134 A 
ATOM     84  F   UNL A   1      43.625  27.034  34.919  1.00  0.00    -0.206 F 
ATOM     85  C   UNL A   1      45.943  26.679  34.825  1.00  0.00     0.040 A 
ATOM     86  C   UNL A   1      47.322  28.080  33.435  1.00  0.00     0.040 A 
ATOM     87  F   UNL A   1      46.355  29.821  32.194  1.00  0.00    -0.206 F 
ATOM     88  C   UNL A   1      47.201  27.019  34.329  1.00  0.00     0.006 A 
ENDBRANCH  64  81
ENDBRANCH  38  39
ENDBRANCH  30  33
ENDBRANCH  28  29
ENDBRANCH  27  28
ENDBRANCH   1  27
TORSDOF 15
ENDMDL
MODEL 3
REMARK VINA RESULT:     -11.6      4.933     10.079
REMARK SMILES CC[C@H](C(=O)NCCCNC(=O)c1ccc(-c2c3nc(c(-c4c(F)cccc4F)c4ccc([nH]4)c(-c4c(F)cccc4F)c4nc(c(-c5c(F)cccc5F)c5ccc2[nH]5)C=C4)C=C3)cc1)N1C(=O)/C(=C\c2cc(OC)ccc2OC)SC1=S
REMARK SMILES IDX 7 1 6 2 4 3 5 4 3 6 2 7 1 8 67 9 68 10 83 11 69 12 70 13
REMARK SMILES IDX 82 14 84 15 71 16 72 17 73 18 79 19 74 20 78 21 77 22 80 23
REMARK SMILES IDX 81 24 75 25 76 26 8 27 9 28 10 29 11 30 12 32 13 33 14 34
REMARK SMILES IDX 66 35 15 36 65 37 16 38 17 39 18 40 59 41 19 42 64 43 58 44
REMARK SMILES IDX 60 45 20 46 63 47 57 48 56 49 21 51 47 52 30 53 46 54 31 55
REMARK SMILES IDX 34 56 45 57 61 58 32 59 33 60 44 62 62 63 35 64 22 65 23 66
REMARK SMILES IDX 28 67 24 68 25 69 27 70 29 71 26 72 48 73 49 74 54 75 50 76
REMARK SMILES IDX 51 77 53 78 55 79 52 80 36 81 37 82 42 83 38 84 39 85 41 86
REMARK SMILES IDX 43 87 40 88
REMARK H PARENT 6 5 10 31 60 50 34 61
REMARK Flexibility Score: inf
ROOT
ATOM      1  C   UNL A   1      36.651  20.966  24.648  1.00  0.00     0.117 C 
ENDROOT
BRANCH   1   2
ATOM      2  N   UNL A   1      36.937  22.097  25.510  1.00  0.00    -0.354 N 
ATOM      3  C   UNL A   1      36.350  23.321  25.609  1.00  0.00     0.243 C 
ATOM      4  O   UNL A   1      36.887  24.140  26.363  1.00  0.00    -0.273 OA
ATOM      5  H   UNL A   1      37.685  21.954  26.133  1.00  0.00     0.163 HD
BRANCH   3   6
ATOM      6  C   UNL A   1      35.128  23.731  24.765  1.00  0.00     0.181 C 
BRANCH   6   7
ATOM      7  C   UNL A   1      35.106  22.804  23.505  1.00  0.00     0.032 C 
ATOM      8  C   UNL A   1      33.827  22.915  22.684  1.00  0.00     0.006 C 
ENDBRANCH   6   7
BRANCH   6   9
ATOM      9  N   UNL A   1      33.816  23.772  25.480  1.00  0.00    -0.280 N 
ATOM     10  C   UNL A   1      33.299  25.033  25.737  1.00  0.00     0.266 C 
ATOM     11  C   UNL A   1      33.280  22.811  26.323  1.00  0.00     0.149 C 
ATOM     12  O   UNL A   1      33.912  26.092  25.651  1.00  0.00    -0.268 OA
ATOM     13  C   UNL A   1      31.946  24.937  26.326  1.00  0.00     0.081 C 
ATOM     14  S   UNL A   1      31.748  23.382  27.007  1.00  0.00    -0.054 SA
ATOM     15  S   UNL A   1      33.822  21.291  26.740  1.00  0.00    -0.052 S 
ATOM     16  C   UNL A   1      30.988  25.869  26.273  1.00  0.00     0.033 C 
BRANCH  16  17
ATOM     17  C   UNL A   1      31.135  27.137  25.547  1.00  0.00     0.021 A 
ATOM     18  C   UNL A   1      30.500  27.216  24.295  1.00  0.00     0.058 A 
ATOM     19  C   UNL A   1      31.785  28.275  26.057  1.00  0.00     0.126 A 
ATOM     20  C   UNL A   1      30.478  28.406  23.562  1.00  0.00     0.119 A 
ATOM     21  C   UNL A   1      31.745  29.467  25.323  1.00  0.00     0.051 A 
ATOM     22  C   UNL A   1      31.100  29.536  24.085  1.00  0.00     0.050 A 
BRANCH  19  23
ATOM     23  O   UNL A   1      32.399  28.407  27.276  1.00  0.00    -0.496 OA
ATOM     24  C   UNL A   1      33.568  29.213  27.344  1.00  0.00     0.278 C 
ENDBRANCH  19  23
BRANCH  20  25
ATOM     25  O   UNL A   1      29.805  28.333  22.374  1.00  0.00    -0.497 OA
ATOM     26  C   UNL A   1      28.693  29.205  22.211  1.00  0.00     0.278 C 
ENDBRANCH  20  25
ENDBRANCH  16  17
ENDBRANCH   6   9
ENDBRANCH   3   6
ENDBRANCH   1   2
BRANCH   1  27
ATOM     27  C   UNL A   1      37.750  19.910  24.759  1.00  0.00     0.042 C 
BRANCH  27  28
ATOM     28  C   UNL A   1      38.835  20.272  25.770  1.00  0.00     0.118 C 
BRANCH  28  29
ATOM     29  N   UNL A   1      39.877  19.258  25.843  1.00  0.00    -0.352 N 
ATOM     30  C   UNL A   1      41.223  19.410  26.058  1.00  0.00     0.251 C 
ATOM     31  H   UNL A   1      39.572  18.330  25.720  1.00  0.00     0.163 HD
ATOM     32  O   UNL A   1      41.985  18.465  25.874  1.00  0.00    -0.269 OA
BRANCH  30  33
ATOM     33  C   UNL A   1      41.759  20.715  26.498  1.00  0.00     0.039 A 
ATOM     34  C   UNL A   1      42.152  21.645  25.532  1.00  0.00     0.014 A 
ATOM     35  C   UNL A   1      41.892  21.011  27.857  1.00  0.00     0.014 A 
ATOM     36  C   UNL A   1      42.630  22.895  25.931  1.00  0.00     0.010 A 
ATOM     37  C   UNL A   1      42.301  22.281  28.252  1.00  0.00     0.010 A 
ATOM     38  C   UNL A   1      42.683  23.231  27.294  1.00  0.00    -0.014 A 
BRANCH  38  39
ATOM     39  C   UNL A   1      43.144  24.569  27.737  1.00  0.00     0.031 A 
ATOM     40  C   UNL A   1      42.143  25.620  28.126  1.00  0.00     0.074 A 
ATOM     41  C   UNL A   1      44.460  24.857  27.723  1.00  0.00     0.049 A 
ATOM     42  N   UNL A   1      42.343  26.866  28.472  1.00  0.00    -0.248 NA
ATOM     43  C   UNL A   1      40.726  25.226  28.095  1.00  0.00     0.031 C 
ATOM     44  C   UNL A   1      45.524  23.937  27.315  1.00  0.00     0.029 A 
ATOM     45  N   UNL A   1      45.125  26.012  28.050  1.00  0.00    -0.354 N 
ATOM     46  C   UNL A   1      41.081  27.407  28.678  1.00  0.00     0.074 A 
ATOM     47  C   UNL A   1      40.120  26.371  28.371  1.00  0.00     0.031 C 
ATOM     48  C   UNL A   1      46.709  24.556  27.437  1.00  0.00     0.029 A 
ATOM     49  C   UNL A   1      46.486  25.923  27.897  1.00  0.00     0.049 A 
ATOM     50  H   UNL A   1      44.670  26.825  28.365  1.00  0.00     0.167 HD
ATOM     51  C   UNL A   1      40.753  28.650  29.107  1.00  0.00     0.037 A 
ATOM     52  C   UNL A   1      47.448  26.844  28.102  1.00  0.00     0.037 A 
ATOM     53  C   UNL A   1      41.715  29.667  29.441  1.00  0.00     0.049 A 
ATOM     54  C   UNL A   1      47.060  28.211  28.590  1.00  0.00     0.074 A 
ATOM     55  C   UNL A   1      41.488  30.934  29.949  1.00  0.00     0.029 A 
ATOM     56  N   UNL A   1      43.088  29.531  29.298  1.00  0.00    -0.354 N 
ATOM     57  N   UNL A   1      45.867  28.689  28.847  1.00  0.00    -0.248 NA
ATOM     58  C   UNL A   1      48.153  29.165  28.822  1.00  0.00     0.031 C 
ATOM     59  C   UNL A   1      42.723  31.580  30.077  1.00  0.00     0.029 A 
ATOM     60  C   UNL A   1      43.721  30.699  29.691  1.00  0.00     0.049 A 
ATOM     61  H   UNL A   1      43.544  28.724  28.967  1.00  0.00     0.167 HD
ATOM     62  C   UNL A   1      46.065  29.987  29.294  1.00  0.00     0.074 A 
ATOM     63  C   UNL A   1      47.496  30.218  29.286  1.00  0.00     0.031 C 
ATOM     64  C   UNL A   1      45.146  30.907  29.679  1.00  0.00     0.037 A 
BRANCH  51  65
ATOM     65  C   UNL A   1      39.293  28.970  29.243  1.00  0.00     0.057 A 
ATOM     66  C   UNL A   1      38.537  29.447  28.163  1.00  0.00     0.134 A 
ATOM     67  C   UNL A   1      38.629  28.783  30.461  1.00  0.00     0.134 A 
ATOM     68  F   UNL A   1      39.115  29.661  26.971  1.00  0.00    -0.206 F 
ATOM     69  C   UNL A   1      37.182  29.756  28.299  1.00  0.00     0.040 A 
ATOM     70  C   UNL A   1      37.268  29.062  30.602  1.00  0.00     0.040 A 
ATOM     71  F   UNL A   1      39.291  28.324  31.534  1.00  0.00    -0.206 F 
ATOM     72  C   UNL A   1      36.543  29.557  29.520  1.00  0.00     0.006 A 
ENDBRANCH  51  65
BRANCH  52  73
ATOM     73  C   UNL A   1      48.871  26.490  27.875  1.00  0.00     0.057 A 
ATOM     74  C   UNL A   1      49.462  26.662  26.618  1.00  0.00     0.134 A 
ATOM     75  C   UNL A   1      49.674  25.984  28.904  1.00  0.00     0.134 A 
ATOM     76  F   UNL A   1      48.740  27.128  25.589  1.00  0.00    -0.206 F 
ATOM     77  C   UNL A   1      50.798  26.328  26.388  1.00  0.00     0.040 A 
ATOM     78  C   UNL A   1      51.017  25.667  28.693  1.00  0.00     0.040 A 
ATOM     79  F   UNL A   1      49.167  25.806  30.133  1.00  0.00    -0.206 F 
ATOM     80  C   UNL A   1      51.581  25.833  27.429  1.00  0.00     0.006 A 
ENDBRANCH  52  73
BRANCH  64  81
ATOM     81  C   UNL A   1      45.662  32.234  30.150  1.00  0.00     0.057 A 
ATOM     82  C   UNL A   1      46.010  32.459  31.487  1.00  0.00     0.134 A 
ATOM     83  C   UNL A   1      45.849  33.287  29.244  1.00  0.00     0.134 A 
ATOM     84  F   UNL A   1      45.842  31.495  32.405  1.00  0.00    -0.206 F 
ATOM     85  C   UNL A   1      46.508  33.691  31.912  1.00  0.00     0.040 A 
ATOM     86  C   UNL A   1      46.371  34.515  29.653  1.00  0.00     0.040 A 
ATOM     87  F   UNL A   1      45.543  33.134  27.948  1.00  0.00    -0.206 F 
ATOM     88  C   UNL A   1      46.696  34.722  30.992  1.00  0.00     0.006 A 
ENDBRANCH  64  81
ENDBRANCH  38  39
ENDBRANCH  30  33
ENDBRANCH  28  29
ENDBRANCH  27  28
ENDBRANCH   1  27
TORSDOF 15
ENDMDL
