MODEL 1
REMARK VINA RESULT:     -10.8      0.000      0.000
REMARK SMILES COc1ccc(CN(CC(=O)NCCCNC(=O)c2ccc(-c3c4nc(c(-c5c(F)cccc5F)c5ccc([nH]5)c(-c5c(F)cccc5F)c5nc(c(-c6c(F)cccc6F)c6ccc3[nH]6)C=C5)C=C4)cc2)N=O)cc1
REMARK SMILES IDX 13 1 12 2 10 3 11 4 9 6 8 7 7 8 6 9 3 10 4 11 76 12 5 13
REMARK SMILES IDX 75 14 2 15 1 16 73 17 74 18 14 19 15 20 16 21 17 22 18 24
REMARK SMILES IDX 19 25 20 26 72 27 21 28 71 29 22 30 23 31 24 32 65 33 25 34
REMARK SMILES IDX 70 35 64 36 66 37 26 38 69 39 63 40 62 41 27 43 53 44 36 45
REMARK SMILES IDX 52 46 37 47 40 48 51 49 67 50 38 51 39 52 50 54 68 55 41 56
REMARK SMILES IDX 28 57 29 58 34 59 30 60 31 61 33 62 35 63 32 64 54 65 55 66
REMARK SMILES IDX 60 67 56 68 57 69 59 70 61 71 58 72 42 73 43 74 48 75 44 76
REMARK SMILES IDX 45 77 47 78 49 79 46 80
REMARK H PARENT 12 5 16 23 66 42 40 53
REMARK Flexibility Score: inf
ROOT
ATOM      1  C   UNL A   1      42.224  21.112  27.556  1.00  0.00     0.117 C 
ENDROOT
BRANCH   1   2
ATOM      2  N   UNL A   1      42.369  19.672  27.632  1.00  0.00    -0.354 N 
ATOM      3  C   UNL A   1      42.749  18.774  26.676  1.00  0.00     0.241 C 
ATOM      4  O   UNL A   1      42.849  17.593  27.023  1.00  0.00    -0.273 OA
ATOM      5  H   UNL A   1      42.159  19.280  28.510  1.00  0.00     0.163 HD
BRANCH   3   6
ATOM      6  C   UNL A   1      43.130  19.228  25.266  1.00  0.00     0.242 C 
BRANCH   6   7
ATOM      7  N   UNL A   1      44.564  19.109  25.017  1.00  0.00    -0.247 NA
BRANCH   7   8
ATOM      8  C   UNL A   1      45.213  20.192  24.289  1.00  0.00     0.178 C 
BRANCH   8   9
ATOM      9  C   UNL A   1      44.999  21.582  24.849  1.00  0.00    -0.027 A 
ATOM     10  C   UNL A   1      44.734  24.195  25.852  1.00  0.00     0.118 A 
ATOM     11  C   UNL A   1      44.109  23.830  24.660  1.00  0.00     0.047 A 
ATOM     12  C   UNL A   1      45.460  23.244  26.567  1.00  0.00     0.047 A 
ATOM     13  C   UNL A   1      44.247  22.536  24.152  1.00  0.00     0.009 A 
ATOM     14  C   UNL A   1      45.593  21.946  26.067  1.00  0.00     0.009 A 
BRANCH  10  15
ATOM     15  O   UNL A   1      44.540  25.489  26.252  1.00  0.00    -0.497 OA
ATOM     16  C   UNL A   1      45.198  26.469  25.454  1.00  0.00     0.278 C 
ENDBRANCH  10  15
ENDBRANCH   8   9
ENDBRANCH   7   8
BRANCH   7  17
ATOM     17  N   UNL A   1      45.310  18.146  25.490  1.00  0.00     0.053 NA
ATOM     18  O   UNL A   1      46.478  18.197  25.097  1.00  0.00    -0.125 OA
ENDBRANCH   7  17
ENDBRANCH   6   7
ENDBRANCH   3   6
ENDBRANCH   1   2
BRANCH   1  19
ATOM     19  C   UNL A   1      40.838  21.535  27.078  1.00  0.00     0.042 C 
BRANCH  19  20
ATOM     20  C   UNL A   1      40.510  23.007  27.316  1.00  0.00     0.118 C 
BRANCH  20  21
ATOM     21  N   UNL A   1      40.909  23.858  26.204  1.00  0.00    -0.352 N 
ATOM     22  C   UNL A   1      40.985  25.223  26.108  1.00  0.00     0.251 C 
ATOM     23  H   UNL A   1      41.166  23.373  25.387  1.00  0.00     0.163 HD
ATOM     24  O   UNL A   1      41.180  25.735  25.005  1.00  0.00    -0.269 OA
BRANCH  22  25
ATOM     25  C   UNL A   1      40.819  26.092  27.295  1.00  0.00     0.039 A 
ATOM     26  C   UNL A   1      41.740  27.128  27.498  1.00  0.00     0.014 A 
ATOM     27  C   UNL A   1      39.812  25.869  28.236  1.00  0.00     0.014 A 
ATOM     28  C   UNL A   1      41.613  27.971  28.605  1.00  0.00     0.010 A 
ATOM     29  C   UNL A   1      39.647  26.750  29.306  1.00  0.00     0.010 A 
ATOM     30  C   UNL A   1      40.546  27.809  29.503  1.00  0.00    -0.014 A 
BRANCH  30  31
ATOM     31  C   UNL A   1      40.350  28.741  30.643  1.00  0.00     0.031 A 
ATOM     32  C   UNL A   1      39.294  29.811  30.581  1.00  0.00     0.074 A 
ATOM     33  C   UNL A   1      41.171  28.670  31.710  1.00  0.00     0.049 A 
ATOM     34  N   UNL A   1      39.036  30.769  31.435  1.00  0.00    -0.248 NA
ATOM     35  C   UNL A   1      38.431  29.825  29.389  1.00  0.00     0.031 C 
ATOM     36  C   UNL A   1      42.265  27.710  31.873  1.00  0.00     0.029 A 
ATOM     37  N   UNL A   1      41.227  29.432  32.850  1.00  0.00    -0.354 N 
ATOM     38  C   UNL A   1      38.003  31.510  30.876  1.00  0.00     0.074 A 
ATOM     39  C   UNL A   1      37.700  30.911  29.593  1.00  0.00     0.031 C 
ATOM     40  C   UNL A   1      42.879  27.939  33.046  1.00  0.00     0.029 A 
ATOM     41  C   UNL A   1      42.246  29.078  33.700  1.00  0.00     0.049 A 
ATOM     42  H   UNL A   1      40.596  30.163  33.040  1.00  0.00     0.167 HD
ATOM     43  C   UNL A   1      37.358  32.584  31.389  1.00  0.00     0.037 A 
ATOM     44  C   UNL A   1      42.638  29.620  34.869  1.00  0.00     0.037 A 
ATOM     45  C   UNL A   1      37.627  33.152  32.685  1.00  0.00     0.049 A 
ATOM     46  C   UNL A   1      41.884  30.797  35.427  1.00  0.00     0.074 A 
ATOM     47  C   UNL A   1      36.963  34.184  33.326  1.00  0.00     0.029 A 
ATOM     48  N   UNL A   1      38.638  32.735  33.536  1.00  0.00    -0.354 N 
ATOM     49  N   UNL A   1      40.858  31.435  34.922  1.00  0.00    -0.248 NA
ATOM     50  C   UNL A   1      42.341  31.324  36.721  1.00  0.00     0.031 C 
ATOM     51  C   UNL A   1      37.597  34.417  34.550  1.00  0.00     0.029 A 
ATOM     52  C   UNL A   1      38.630  33.504  34.688  1.00  0.00     0.049 A 
ATOM     53  H   UNL A   1      39.269  32.003  33.348  1.00  0.00     0.167 HD
ATOM     54  C   UNL A   1      40.529  32.416  35.846  1.00  0.00     0.074 A 
ATOM     55  C   UNL A   1      41.455  32.283  36.950  1.00  0.00     0.031 C 
ATOM     56  C   UNL A   1      39.547  33.348  35.786  1.00  0.00     0.037 A 
BRANCH  43  57
ATOM     57  C   UNL A   1      36.285  33.222  30.559  1.00  0.00     0.057 A 
ATOM     58  C   UNL A   1      34.928  33.062  30.860  1.00  0.00     0.134 A 
ATOM     59  C   UNL A   1      36.617  34.068  29.493  1.00  0.00     0.134 A 
ATOM     60  F   UNL A   1      34.544  32.259  31.865  1.00  0.00    -0.206 F 
ATOM     61  C   UNL A   1      33.936  33.714  30.124  1.00  0.00     0.040 A 
ATOM     62  C   UNL A   1      35.636  34.741  28.763  1.00  0.00     0.040 A 
ATOM     63  F   UNL A   1      37.900  34.269  29.158  1.00  0.00    -0.206 F 
ATOM     64  C   UNL A   1      34.291  34.564  29.079  1.00  0.00     0.006 A 
ENDBRANCH  43  57
BRANCH  44  65
ATOM     65  C   UNL A   1      43.798  29.058  35.605  1.00  0.00     0.057 A 
ATOM     66  C   UNL A   1      45.098  29.508  35.358  1.00  0.00     0.134 A 
ATOM     67  C   UNL A   1      43.637  28.033  36.546  1.00  0.00     0.134 A 
ATOM     68  F   UNL A   1      45.318  30.473  34.452  1.00  0.00    -0.206 F 
ATOM     69  C   UNL A   1      46.203  28.942  35.999  1.00  0.00     0.040 A 
ATOM     70  C   UNL A   1      44.729  27.476  37.212  1.00  0.00     0.040 A 
ATOM     71  F   UNL A   1      42.414  27.563  36.834  1.00  0.00    -0.206 F 
ATOM     72  C   UNL A   1      46.018  27.925  36.930  1.00  0.00     0.006 A 
ENDBRANCH  44  65
BRANCH  56  73
ATOM     73  C   UNL A   1      39.398  34.267  36.960  1.00  0.00     0.057 A 
ATOM     74  C   UNL A   1      38.731  33.871  38.126  1.00  0.00     0.134 A 
ATOM     75  C   UNL A   1      39.962  35.548  36.937  1.00  0.00     0.134 A 
ATOM     76  F   UNL A   1      38.157  32.661  38.204  1.00  0.00    -0.206 F 
ATOM     77  C   UNL A   1      38.613  34.727  39.222  1.00  0.00     0.040 A 
ATOM     78  C   UNL A   1      39.871  36.404  38.036  1.00  0.00     0.040 A 
ATOM     79  F   UNL A   1      40.621  35.984  35.853  1.00  0.00    -0.206 F 
ATOM     80  C   UNL A   1      39.190  35.995  39.181  1.00  0.00     0.006 A 
ENDBRANCH  56  73
ENDBRANCH  30  31
ENDBRANCH  22  25
ENDBRANCH  20  21
ENDBRANCH  19  20
ENDBRANCH   1  19
TORSDOF 15
ENDMDL
MODEL 2
REMARK VINA RESULT:     -10.7      2.362      6.943
REMARK SMILES COc1ccc(CN(CC(=O)NCCCNC(=O)c2ccc(-c3c4nc(c(-c5c(F)cccc5F)c5ccc([nH]5)c(-c5c(F)cccc5F)c5nc(c(-c6c(F)cccc6F)c6ccc3[nH]6)C=C5)C=C4)cc2)N=O)cc1
REMARK SMILES IDX 13 1 12 2 10 3 11 4 9 6 8 7 7 8 6 9 3 10 4 11 76 12 5 13
REMARK SMILES IDX 75 14 2 15 1 16 73 17 74 18 14 19 15 20 16 21 17 22 18 24
REMARK SMILES IDX 19 25 20 26 72 27 21 28 71 29 22 30 23 31 24 32 65 33 25 34
REMARK SMILES IDX 70 35 64 36 66 37 26 38 69 39 63 40 62 41 27 43 53 44 36 45
REMARK SMILES IDX 52 46 37 47 40 48 51 49 67 50 38 51 39 52 50 54 68 55 41 56
REMARK SMILES IDX 28 57 29 58 34 59 30 60 31 61 33 62 35 63 32 64 54 65 55 66
REMARK SMILES IDX 60 67 56 68 57 69 59 70 61 71 58 72 42 73 43 74 48 75 44 76
REMARK SMILES IDX 45 77 47 78 49 79 46 80
REMARK H PARENT 12 5 16 23 66 42 40 53
REMARK Flexibility Score: inf
ROOT
ATOM      1  C   UNL A   1      42.324  20.545  27.751  1.00  0.00     0.117 C 
ENDROOT
BRANCH   1   2
ATOM      2  N   UNL A   1      42.560  19.119  27.669  1.00  0.00    -0.354 N 
ATOM      3  C   UNL A   1      42.999  18.357  26.623  1.00  0.00     0.241 C 
ATOM      4  O   UNL A   1      43.173  17.154  26.839  1.00  0.00    -0.273 OA
ATOM      5  H   UNL A   1      42.375  18.620  28.497  1.00  0.00     0.163 HD
BRANCH   3   6
ATOM      6  C   UNL A   1      43.351  18.987  25.275  1.00  0.00     0.242 C 
BRANCH   6   7
ATOM      7  N   UNL A   1      44.792  19.015  25.039  1.00  0.00    -0.247 NA
BRANCH   7   8
ATOM      8  C   UNL A   1      45.335  20.158  24.317  1.00  0.00     0.178 C 
BRANCH   8   9
ATOM      9  C   UNL A   1      44.985  21.518  24.881  1.00  0.00    -0.027 A 
ATOM     10  C   UNL A   1      44.200  24.001  25.941  1.00  0.00     0.118 A 
ATOM     11  C   UNL A   1      44.967  23.119  26.703  1.00  0.00     0.047 A 
ATOM     12  C   UNL A   1      43.858  23.662  24.633  1.00  0.00     0.047 A 
ATOM     13  C   UNL A   1      45.349  21.879  26.184  1.00  0.00     0.009 A 
ATOM     14  C   UNL A   1      44.247  22.428  24.107  1.00  0.00     0.009 A 
BRANCH  10  15
ATOM     15  O   UNL A   1      43.874  25.182  26.551  1.00  0.00    -0.497 OA
ATOM     16  C   UNL A   1      43.953  26.331  25.714  1.00  0.00     0.278 C 
ENDBRANCH  10  15
ENDBRANCH   8   9
ENDBRANCH   7   8
BRANCH   7  17
ATOM     17  N   UNL A   1      45.628  18.132  25.520  1.00  0.00     0.053 NA
ATOM     18  O   UNL A   1      46.789  18.545  25.583  1.00  0.00    -0.125 OA
ENDBRANCH   7  17
ENDBRANCH   6   7
ENDBRANCH   3   6
ENDBRANCH   1   2
BRANCH   1  19
ATOM     19  C   UNL A   1      40.947  20.941  27.225  1.00  0.00     0.042 C 
BRANCH  19  20
ATOM     20  C   UNL A   1      40.960  22.092  26.222  1.00  0.00     0.118 C 
BRANCH  20  21
ATOM     21  N   UNL A   1      39.633  22.409  25.714  1.00  0.00    -0.352 N 
ATOM     22  C   UNL A   1      38.794  23.454  26.003  1.00  0.00     0.251 C 
ATOM     23  H   UNL A   1      39.280  21.767  25.056  1.00  0.00     0.163 HD
ATOM     24  O   UNL A   1      37.637  23.425  25.582  1.00  0.00    -0.269 OA
BRANCH  22  25
ATOM     25  C   UNL A   1      39.244  24.603  26.820  1.00  0.00     0.039 A 
ATOM     26  C   UNL A   1      40.049  25.578  26.217  1.00  0.00     0.014 A 
ATOM     27  C   UNL A   1      38.934  24.706  28.178  1.00  0.00     0.014 A 
ATOM     28  C   UNL A   1      40.488  26.679  26.956  1.00  0.00     0.010 A 
ATOM     29  C   UNL A   1      39.319  25.838  28.899  1.00  0.00     0.010 A 
ATOM     30  C   UNL A   1      40.101  26.835  28.296  1.00  0.00    -0.014 A 
BRANCH  30  31
ATOM     31  C   UNL A   1      40.495  28.037  29.077  1.00  0.00     0.031 A 
ATOM     32  C   UNL A   1      41.835  28.098  29.759  1.00  0.00     0.074 A 
ATOM     33  C   UNL A   1      39.616  29.046  29.233  1.00  0.00     0.049 A 
ATOM     34  N   UNL A   1      42.316  29.019  30.555  1.00  0.00    -0.248 NA
ATOM     35  C   UNL A   1      42.745  26.962  29.539  1.00  0.00     0.031 C 
ATOM     36  C   UNL A   1      38.267  29.089  28.664  1.00  0.00     0.029 A 
ATOM     37  N   UNL A   1      39.718  30.222  29.934  1.00  0.00    -0.354 N 
ATOM     38  C   UNL A   1      43.568  28.564  30.949  1.00  0.00     0.074 A 
ATOM     39  C   UNL A   1      43.763  27.271  30.330  1.00  0.00     0.031 C 
ATOM     40  C   UNL A   1      37.670  30.235  29.035  1.00  0.00     0.029 A 
ATOM     41  C   UNL A   1      38.579  30.989  29.892  1.00  0.00     0.049 A 
ATOM     42  H   UNL A   1      40.530  30.491  30.420  1.00  0.00     0.167 HD
ATOM     43  C   UNL A   1      44.477  29.175  31.744  1.00  0.00     0.037 A 
ATOM     44  C   UNL A   1      38.291  32.162  30.489  1.00  0.00     0.037 A 
ATOM     45  C   UNL A   1      44.305  30.483  32.323  1.00  0.00     0.049 A 
ATOM     46  C   UNL A   1      39.332  32.829  31.346  1.00  0.00     0.074 A 
ATOM     47  C   UNL A   1      45.210  31.220  33.068  1.00  0.00     0.029 A 
ATOM     48  N   UNL A   1      43.154  31.247  32.219  1.00  0.00    -0.354 N 
ATOM     49  N   UNL A   1      40.542  32.423  31.642  1.00  0.00    -0.248 NA
ATOM     50  C   UNL A   1      38.969  34.121  31.945  1.00  0.00     0.031 C 
ATOM     51  C   UNL A   1      44.592  32.415  33.447  1.00  0.00     0.029 A 
ATOM     52  C   UNL A   1      43.318  32.439  32.905  1.00  0.00     0.049 A 
ATOM     53  H   UNL A   1      42.340  30.981  31.732  1.00  0.00     0.167 HD
ATOM     54  C   UNL A   1      41.092  33.419  32.436  1.00  0.00     0.074 A 
ATOM     55  C   UNL A   1      40.091  34.456  32.565  1.00  0.00     0.031 C 
ATOM     56  C   UNL A   1      42.318  33.470  33.010  1.00  0.00     0.037 A 
BRANCH  43  57
ATOM     57  C   UNL A   1      45.755  28.448  32.038  1.00  0.00     0.057 A 
ATOM     58  C   UNL A   1      46.893  28.606  31.238  1.00  0.00     0.134 A 
ATOM     59  C   UNL A   1      45.870  27.641  33.177  1.00  0.00     0.134 A 
ATOM     60  F   UNL A   1      46.846  29.360  30.129  1.00  0.00    -0.206 F 
ATOM     61  C   UNL A   1      48.100  27.979  31.555  1.00  0.00     0.040 A 
ATOM     62  C   UNL A   1      47.076  27.026  33.516  1.00  0.00     0.040 A 
ATOM     63  F   UNL A   1      44.819  27.455  33.989  1.00  0.00    -0.206 F 
ATOM     64  C   UNL A   1      48.195  27.194  32.703  1.00  0.00     0.006 A 
ENDBRANCH  43  57
BRANCH  44  65
ATOM     65  C   UNL A   1      36.961  32.794  30.298  1.00  0.00     0.057 A 
ATOM     66  C   UNL A   1      35.904  32.532  31.174  1.00  0.00     0.134 A 
ATOM     67  C   UNL A   1      36.709  33.647  29.216  1.00  0.00     0.134 A 
ATOM     68  F   UNL A   1      36.079  31.706  32.216  1.00  0.00    -0.206 F 
ATOM     69  C   UNL A   1      34.632  33.072  30.968  1.00  0.00     0.040 A 
ATOM     70  C   UNL A   1      35.450  34.213  29.012  1.00  0.00     0.040 A 
ATOM     71  F   UNL A   1      37.684  33.944  28.345  1.00  0.00    -0.206 F 
ATOM     72  C   UNL A   1      34.404  33.917  29.885  1.00  0.00     0.006 A 
ENDBRANCH  44  65
BRANCH  56  73
ATOM     73  C   UNL A   1      42.661  34.701  33.793  1.00  0.00     0.057 A 
ATOM     74  C   UNL A   1      43.176  35.848  33.176  1.00  0.00     0.134 A 
ATOM     75  C   UNL A   1      42.436  34.752  35.174  1.00  0.00     0.134 A 
ATOM     76  F   UNL A   1      43.426  35.857  31.858  1.00  0.00    -0.206 F 
ATOM     77  C   UNL A   1      43.474  36.997  33.910  1.00  0.00     0.040 A 
ATOM     78  C   UNL A   1      42.708  35.903  35.914  1.00  0.00     0.040 A 
ATOM     79  F   UNL A   1      41.937  33.689  35.823  1.00  0.00    -0.206 F 
ATOM     80  C   UNL A   1      43.234  37.028  35.283  1.00  0.00     0.006 A 
ENDBRANCH  56  73
ENDBRANCH  30  31
ENDBRANCH  22  25
ENDBRANCH  20  21
ENDBRANCH  19  20
ENDBRANCH   1  19
TORSDOF 15
ENDMDL
MODEL 3
REMARK VINA RESULT:     -10.6      5.305     10.677
REMARK SMILES COc1ccc(CN(CC(=O)NCCCNC(=O)c2ccc(-c3c4nc(c(-c5c(F)cccc5F)c5ccc([nH]5)c(-c5c(F)cccc5F)c5nc(c(-c6c(F)cccc6F)c6ccc3[nH]6)C=C5)C=C4)cc2)N=O)cc1
REMARK SMILES IDX 13 1 12 2 10 3 11 4 9 6 8 7 7 8 6 9 3 10 4 11 76 12 5 13
REMARK SMILES IDX 75 14 2 15 1 16 73 17 74 18 14 19 15 20 16 21 17 22 18 24
REMARK SMILES IDX 19 25 20 26 72 27 21 28 71 29 22 30 23 31 24 32 65 33 25 34
REMARK SMILES IDX 70 35 64 36 66 37 26 38 69 39 63 40 62 41 27 43 53 44 36 45
REMARK SMILES IDX 52 46 37 47 40 48 51 49 67 50 38 51 39 52 50 54 68 55 41 56
REMARK SMILES IDX 28 57 29 58 34 59 30 60 31 61 33 62 35 63 32 64 54 65 55 66
REMARK SMILES IDX 60 67 56 68 57 69 59 70 61 71 58 72 42 73 43 74 48 75 44 76
REMARK SMILES IDX 45 77 47 78 49 79 46 80
REMARK H PARENT 12 5 16 23 66 42 40 53
REMARK Flexibility Score: inf
ROOT
ATOM      1  C   UNL A   1      30.790  31.327  25.379  1.00  0.00     0.117 C 
ENDROOT
BRANCH   1   2
ATOM      2  N   UNL A   1      29.946  32.148  24.537  1.00  0.00    -0.354 N 
ATOM      3  C   UNL A   1      28.914  31.796  23.713  1.00  0.00     0.241 C 
ATOM      4  O   UNL A   1      28.313  32.711  23.142  1.00  0.00    -0.273 OA
ATOM      5  H   UNL A   1      30.148  33.111  24.560  1.00  0.00     0.163 HD
BRANCH   3   6
ATOM      6  C   UNL A   1      28.463  30.340  23.583  1.00  0.00     0.242 C 
BRANCH   6   7
ATOM      7  N   UNL A   1      29.133  29.652  22.483  1.00  0.00    -0.247 NA
BRANCH   7   8
ATOM      8  C   UNL A   1      29.719  28.347  22.760  1.00  0.00     0.178 C 
BRANCH   8   9
ATOM      9  C   UNL A   1      30.997  28.359  23.570  1.00  0.00    -0.027 A 
ATOM     10  C   UNL A   1      33.358  28.522  25.089  1.00  0.00     0.118 A 
ATOM     11  C   UNL A   1      32.200  27.975  25.641  1.00  0.00     0.047 A 
ATOM     12  C   UNL A   1      33.351  28.952  23.763  1.00  0.00     0.047 A 
ATOM     13  C   UNL A   1      31.022  27.903  24.894  1.00  0.00     0.009 A 
ATOM     14  C   UNL A   1      32.177  28.873  23.009  1.00  0.00     0.009 A 
BRANCH  10  15
ATOM     15  O   UNL A   1      34.451  28.552  25.911  1.00  0.00    -0.497 OA
ATOM     16  C   UNL A   1      34.182  28.950  27.252  1.00  0.00     0.278 C 
ENDBRANCH  10  15
ENDBRANCH   8   9
ENDBRANCH   7   8
BRANCH   7  17
ATOM     17  N   UNL A   1      29.152  30.090  21.251  1.00  0.00     0.053 NA
ATOM     18  O   UNL A   1      28.030  30.170  20.745  1.00  0.00    -0.125 OA
ENDBRANCH   7  17
ENDBRANCH   6   7
ENDBRANCH   3   6
ENDBRANCH   1   2
BRANCH   1  19
ATOM     19  C   UNL A   1      31.018  31.944  26.757  1.00  0.00     0.042 C 
BRANCH  19  20
ATOM     20  C   UNL A   1      32.371  32.631  26.925  1.00  0.00     0.118 C 
BRANCH  20  21
ATOM     21  N   UNL A   1      32.247  34.010  27.376  1.00  0.00    -0.352 N 
ATOM     22  C   UNL A   1      32.923  34.692  28.355  1.00  0.00     0.251 C 
ATOM     23  H   UNL A   1      31.567  34.539  26.900  1.00  0.00     0.163 HD
ATOM     24  O   UNL A   1      32.528  35.810  28.686  1.00  0.00    -0.269 OA
BRANCH  22  25
ATOM     25  C   UNL A   1      34.101  34.106  29.032  1.00  0.00     0.039 A 
ATOM     26  C   UNL A   1      33.888  33.228  30.103  1.00  0.00     0.014 A 
ATOM     27  C   UNL A   1      35.406  34.449  28.669  1.00  0.00     0.014 A 
ATOM     28  C   UNL A   1      34.976  32.651  30.763  1.00  0.00     0.010 A 
ATOM     29  C   UNL A   1      36.490  33.824  29.287  1.00  0.00     0.010 A 
ATOM     30  C   UNL A   1      36.287  32.920  30.341  1.00  0.00    -0.014 A 
BRANCH  30  31
ATOM     31  C   UNL A   1      37.454  32.259  30.980  1.00  0.00     0.031 A 
ATOM     32  C   UNL A   1      38.201  31.167  30.263  1.00  0.00     0.074 A 
ATOM     33  C   UNL A   1      37.800  32.592  32.240  1.00  0.00     0.049 A 
ATOM     34  N   UNL A   1      39.182  30.416  30.693  1.00  0.00    -0.248 NA
ATOM     35  C   UNL A   1      37.771  30.861  28.888  1.00  0.00     0.031 C 
ATOM     36  C   UNL A   1      37.127  33.600  33.063  1.00  0.00     0.029 A 
ATOM     37  N   UNL A   1      38.790  32.104  33.056  1.00  0.00    -0.354 N 
ATOM     38  C   UNL A   1      39.469  29.536  29.658  1.00  0.00     0.074 A 
ATOM     39  C   UNL A   1      38.539  29.824  28.587  1.00  0.00     0.031 C 
ATOM     40  C   UNL A   1      37.728  33.658  34.264  1.00  0.00     0.029 A 
ATOM     41  C   UNL A   1      38.803  32.672  34.307  1.00  0.00     0.049 A 
ATOM     42  H   UNL A   1      39.431  31.414  32.771  1.00  0.00     0.167 HD
ATOM     43  C   UNL A   1      40.429  28.582  29.601  1.00  0.00     0.037 A 
ATOM     44  C   UNL A   1      39.582  32.417  35.375  1.00  0.00     0.037 A 
ATOM     45  C   UNL A   1      41.385  28.326  30.647  1.00  0.00     0.049 A 
ATOM     46  C   UNL A   1      40.657  31.369  35.272  1.00  0.00     0.074 A 
ATOM     47  C   UNL A   1      42.450  27.441  30.640  1.00  0.00     0.029 A 
ATOM     48  N   UNL A   1      41.393  28.953  31.882  1.00  0.00    -0.354 N 
ATOM     49  N   UNL A   1      40.967  30.602  34.257  1.00  0.00    -0.248 NA
ATOM     50  C   UNL A   1      41.494  31.158  36.462  1.00  0.00     0.031 C 
ATOM     51  C   UNL A   1      43.080  27.507  31.887  1.00  0.00     0.029 A 
ATOM     52  C   UNL A   1      42.432  28.460  32.653  1.00  0.00     0.049 A 
ATOM     53  H   UNL A   1      40.754  29.646  32.168  1.00  0.00     0.167 HD
ATOM     54  C   UNL A   1      42.049  29.840  34.674  1.00  0.00     0.074 A 
ATOM     55  C   UNL A   1      42.352  30.245  36.030  1.00  0.00     0.031 C 
ATOM     56  C   UNL A   1      42.731  28.887  33.995  1.00  0.00     0.037 A 
BRANCH  43  57
ATOM     57  C   UNL A   1      40.510  27.741  28.362  1.00  0.00     0.057 A 
ATOM     58  C   UNL A   1      41.266  28.134  27.252  1.00  0.00     0.134 A 
ATOM     59  C   UNL A   1      39.887  26.487  28.311  1.00  0.00     0.134 A 
ATOM     60  F   UNL A   1      41.881  29.327  27.236  1.00  0.00    -0.206 F 
ATOM     61  C   UNL A   1      41.392  27.315  26.128  1.00  0.00     0.040 A 
ATOM     62  C   UNL A   1      40.023  25.650  27.202  1.00  0.00     0.040 A 
ATOM     63  F   UNL A   1      39.154  26.048  29.345  1.00  0.00    -0.206 F 
ATOM     64  C   UNL A   1      40.777  26.064  26.107  1.00  0.00     0.006 A 
ENDBRANCH  43  57
BRANCH  44  65
ATOM     65  C   UNL A   1      39.386  33.166  36.642  1.00  0.00     0.057 A 
ATOM     66  C   UNL A   1      40.102  34.337  36.907  1.00  0.00     0.134 A 
ATOM     67  C   UNL A   1      38.505  32.709  37.630  1.00  0.00     0.134 A 
ATOM     68  F   UNL A   1      40.976  34.813  36.008  1.00  0.00    -0.206 F 
ATOM     69  C   UNL A   1      39.971  35.015  38.122  1.00  0.00     0.040 A 
ATOM     70  C   UNL A   1      38.347  33.389  38.837  1.00  0.00     0.040 A 
ATOM     71  F   UNL A   1      37.783  31.596  37.433  1.00  0.00    -0.206 F 
ATOM     72  C   UNL A   1      39.090  34.542  39.089  1.00  0.00     0.006 A 
ENDBRANCH  44  65
BRANCH  56  73
ATOM     73  C   UNL A   1      43.895  28.247  34.690  1.00  0.00     0.057 A 
ATOM     74  C   UNL A   1      45.180  28.801  34.638  1.00  0.00     0.134 A 
ATOM     75  C   UNL A   1      43.719  27.085  35.451  1.00  0.00     0.134 A 
ATOM     76  F   UNL A   1      45.416  29.906  33.914  1.00  0.00    -0.206 F 
ATOM     77  C   UNL A   1      46.255  28.209  35.304  1.00  0.00     0.040 A 
ATOM     78  C   UNL A   1      44.780  26.498  36.141  1.00  0.00     0.040 A 
ATOM     79  F   UNL A   1      42.511  26.510  35.548  1.00  0.00    -0.206 F 
ATOM     80  C   UNL A   1      46.054  27.058  36.064  1.00  0.00     0.006 A 
ENDBRANCH  56  73
ENDBRANCH  30  31
ENDBRANCH  22  25
ENDBRANCH  20  21
ENDBRANCH  19  20
ENDBRANCH   1  19
TORSDOF 15
ENDMDL
