MODEL 1
REMARK VINA RESULT:     -12.6      0.000      0.000
REMARK SMILES NS(=O)(=O)c1ccc(-n2nc(C(F)(F)F)cc2-c2ccc(C(=O)NCCCNC(=O)c3ccc(-c4c5nc(c(-c6c(F)cccc6F)c6ccc([nH]6)c(-c6c(F)cccc6F)c6nc(c(-c7c(F)cccc7F)c7ccc4[nH]7)C=C6)C=C5)cc3)cc2)cc1
REMARK SMILES IDX 25 1 24 2 22 3 23 4 21 6 18 7 19 8 86 9 20 10 85 11 17 12
REMARK SMILES IDX 9 13 10 14 11 15 16 16 8 17 5 18 6 19 88 20 7 21 87 22 2 23
REMARK SMILES IDX 3 24 4 25 1 26 12 29 13 30 14 31 15 32 26 33 27 34 28 35
REMARK SMILES IDX 29 36 30 38 31 39 32 40 84 41 33 42 83 43 34 44 35 45 36 46
REMARK SMILES IDX 77 47 37 48 82 49 76 50 78 51 38 52 81 53 75 54 74 55 39 57
REMARK SMILES IDX 65 58 48 59 64 60 49 61 52 62 63 63 79 64 50 65 51 66 62 68
REMARK SMILES IDX 80 69 53 70 40 71 41 72 46 73 42 74 43 75 45 76 47 77 44 78
REMARK SMILES IDX 66 79 67 80 72 81 68 82 69 83 71 84 73 85 70 86 54 87 55 88
REMARK SMILES IDX 60 89 56 90 57 91 59 92 61 93 58 94
REMARK H PARENT 24 5 1 27 1 28 28 37 78 56 52 67
REMARK Flexibility Score: inf
ROOT
ATOM      1  C   UNL A   1      37.749  20.819  25.033  1.00  0.00     0.118 C 
ENDROOT
BRANCH   1   2
ATOM      2  N   UNL A   1      38.476  22.039  25.356  1.00  0.00    -0.352 N 
ATOM      3  C   UNL A   1      38.070  23.351  25.420  1.00  0.00     0.251 C 
ATOM      4  O   UNL A   1      38.880  24.193  25.803  1.00  0.00    -0.269 OA
ATOM      5  H   UNL A   1      39.428  21.900  25.566  1.00  0.00     0.163 HD
BRANCH   3   6
ATOM      6  C   UNL A   1      36.682  23.774  25.084  1.00  0.00     0.039 A 
ATOM      7  C   UNL A   1      34.099  24.585  24.346  1.00  0.00     0.000 A 
ATOM      8  C   UNL A   1      34.973  24.069  23.382  1.00  0.00     0.011 A 
ATOM      9  C   UNL A   1      34.510  24.686  25.669  1.00  0.00     0.011 A 
ATOM     10  C   UNL A   1      36.263  23.673  23.750  1.00  0.00     0.014 A 
ATOM     11  C   UNL A   1      35.770  24.232  26.034  1.00  0.00     0.014 A 
BRANCH   7  12
ATOM     12  C   UNL A   1      32.723  24.918  24.030  1.00  0.00     0.075 A 
ATOM     13  N   UNL A   1      31.753  23.995  23.671  1.00  0.00    -0.233 N 
ATOM     14  N   UNL A   1      30.602  24.603  23.288  1.00  0.00    -0.163 NA
ATOM     15  C   UNL A   1      30.761  25.894  23.648  1.00  0.00     0.167 A 
ATOM     16  C   UNL A   1      32.090  26.140  24.068  1.00  0.00     0.064 A 
BRANCH  13  17
ATOM     17  C   UNL A   1      31.865  22.579  23.701  1.00  0.00     0.065 A 
ATOM     18  C   UNL A   1      32.298  19.828  23.765  1.00  0.00     0.082 A 
ATOM     19  C   UNL A   1      32.180  20.529  24.965  1.00  0.00     0.024 A 
ATOM     20  C   UNL A   1      32.166  20.486  22.536  1.00  0.00     0.024 A 
ATOM     21  C   UNL A   1      31.968  21.906  24.930  1.00  0.00     0.030 A 
ATOM     22  C   UNL A   1      31.919  21.864  22.502  1.00  0.00     0.030 A 
BRANCH  18  23
ATOM     23  S   UNL A   1      32.641  18.095  23.806  1.00  0.00     0.238 S 
ATOM     24  O   UNL A   1      31.837  17.480  24.840  1.00  0.00    -0.207 OA
ATOM     25  O   UNL A   1      34.065  17.908  23.703  1.00  0.00    -0.207 OA
BRANCH  23  26
ATOM     26  N   UNL A   1      31.990  17.534  22.360  1.00  0.00    -0.225 NA
ATOM     27  H   UNL A   1      31.657  18.325  21.807  1.00  0.00     0.137 HD
ATOM     28  H   UNL A   1      31.211  16.907  22.557  1.00  0.00     0.137 HD
ENDBRANCH  23  26
ENDBRANCH  18  23
ENDBRANCH  13  17
BRANCH  15  29
ATOM     29  C   UNL A   1      29.657  26.918  23.609  1.00  0.00     0.435 C 
ATOM     30  F   UNL A   1      29.568  27.560  22.417  1.00  0.00    -0.164 F 
ATOM     31  F   UNL A   1      28.441  26.367  23.867  1.00  0.00    -0.164 F 
ATOM     32  F   UNL A   1      29.841  27.883  24.556  1.00  0.00    -0.164 F 
ENDBRANCH  15  29
ENDBRANCH   7  12
ENDBRANCH   3   6
ENDBRANCH   1   2
BRANCH   1  33
ATOM     33  C   UNL A   1      38.556  19.559  25.385  1.00  0.00     0.042 C 
BRANCH  33  34
ATOM     34  C   UNL A   1      39.729  19.857  26.294  1.00  0.00     0.118 C 
BRANCH  34  35
ATOM     35  N   UNL A   1      40.954  19.194  25.845  1.00  0.00    -0.352 N 
ATOM     36  C   UNL A   1      42.212  19.735  25.683  1.00  0.00     0.251 C 
ATOM     37  H   UNL A   1      40.868  18.237  25.631  1.00  0.00     0.163 HD
ATOM     38  O   UNL A   1      43.046  19.181  24.978  1.00  0.00    -0.269 OA
BRANCH  36  39
ATOM     39  C   UNL A   1      42.527  20.999  26.365  1.00  0.00     0.039 A 
ATOM     40  C   UNL A   1      42.676  22.190  25.654  1.00  0.00     0.014 A 
ATOM     41  C   UNL A   1      42.606  20.982  27.754  1.00  0.00     0.014 A 
ATOM     42  C   UNL A   1      42.811  23.378  26.367  1.00  0.00     0.010 A 
ATOM     43  C   UNL A   1      42.534  22.160  28.447  1.00  0.00     0.010 A 
ATOM     44  C   UNL A   1      42.705  23.357  27.769  1.00  0.00    -0.014 A 
BRANCH  44  45
ATOM     45  C   UNL A   1      42.667  24.594  28.539  1.00  0.00     0.031 A 
ATOM     46  C   UNL A   1      41.462  25.425  28.290  1.00  0.00     0.074 A 
ATOM     47  C   UNL A   1      43.542  24.882  29.528  1.00  0.00     0.049 A 
ATOM     48  N   UNL A   1      41.403  26.520  27.611  1.00  0.00    -0.248 NA
ATOM     49  C   UNL A   1      40.146  24.909  28.700  1.00  0.00     0.031 C 
ATOM     50  C   UNL A   1      44.595  24.021  30.085  1.00  0.00     0.029 A 
ATOM     51  N   UNL A   1      43.621  25.994  30.313  1.00  0.00    -0.354 N 
ATOM     52  C   UNL A   1      40.087  26.961  27.713  1.00  0.00     0.074 A 
ATOM     53  C   UNL A   1      39.328  25.844  28.208  1.00  0.00     0.031 C 
ATOM     54  C   UNL A   1      45.047  24.542  31.246  1.00  0.00     0.029 A 
ATOM     55  C   UNL A   1      44.468  25.861  31.407  1.00  0.00     0.049 A 
ATOM     56  H   UNL A   1      43.122  26.821  30.121  1.00  0.00     0.167 HD
ATOM     57  C   UNL A   1      39.806  28.293  27.658  1.00  0.00     0.037 A 
ATOM     58  C   UNL A   1      44.711  26.782  32.370  1.00  0.00     0.037 A 
ATOM     59  C   UNL A   1      40.969  29.036  27.241  1.00  0.00     0.049 A 
ATOM     60  C   UNL A   1      44.378  28.104  31.803  1.00  0.00     0.074 A 
ATOM     61  C   UNL A   1      41.652  29.259  26.067  1.00  0.00     0.029 A 
ATOM     62  N   UNL A   1      41.810  29.360  28.273  1.00  0.00    -0.354 N 
ATOM     63  N   UNL A   1      45.057  28.657  30.837  1.00  0.00    -0.248 NA
ATOM     64  C   UNL A   1      43.065  28.683  32.055  1.00  0.00     0.031 C 
ATOM     65  C   UNL A   1      43.001  29.538  26.442  1.00  0.00     0.029 A 
ATOM     66  C   UNL A   1      43.095  29.518  27.832  1.00  0.00     0.049 A 
ATOM     67  H   UNL A   1      41.526  29.464  29.210  1.00  0.00     0.167 HD
ATOM     68  C   UNL A   1      44.105  29.327  30.095  1.00  0.00     0.074 A 
ATOM     69  C   UNL A   1      42.957  29.469  30.981  1.00  0.00     0.031 C 
ATOM     70  C   UNL A   1      44.216  29.411  28.738  1.00  0.00     0.037 A 
BRANCH  57  71
ATOM     71  C   UNL A   1      38.703  28.990  28.427  1.00  0.00     0.057 A 
ATOM     72  C   UNL A   1      38.603  28.771  29.815  1.00  0.00     0.134 A 
ATOM     73  C   UNL A   1      37.572  29.583  27.835  1.00  0.00     0.134 A 
ATOM     74  F   UNL A   1      39.608  28.202  30.497  1.00  0.00    -0.206 F 
ATOM     75  C   UNL A   1      37.437  29.052  30.540  1.00  0.00     0.040 A 
ATOM     76  C   UNL A   1      36.421  29.914  28.560  1.00  0.00     0.040 A 
ATOM     77  F   UNL A   1      37.469  29.779  26.515  1.00  0.00    -0.206 F 
ATOM     78  C   UNL A   1      36.337  29.619  29.910  1.00  0.00     0.006 A 
ENDBRANCH  57  71
BRANCH  58  79
ATOM     79  C   UNL A   1      45.059  26.601  33.792  1.00  0.00     0.057 A 
ATOM     80  C   UNL A   1      46.197  27.205  34.346  1.00  0.00     0.134 A 
ATOM     81  C   UNL A   1      44.122  26.085  34.701  1.00  0.00     0.134 A 
ATOM     82  F   UNL A   1      47.134  27.746  33.555  1.00  0.00    -0.206 F 
ATOM     83  C   UNL A   1      46.370  27.333  35.730  1.00  0.00     0.040 A 
ATOM     84  C   UNL A   1      44.283  26.205  36.085  1.00  0.00     0.040 A 
ATOM     85  F   UNL A   1      42.976  25.537  34.270  1.00  0.00    -0.206 F 
ATOM     86  C   UNL A   1      45.401  26.848  36.604  1.00  0.00     0.006 A 
ENDBRANCH  58  79
BRANCH  70  87
ATOM     87  C   UNL A   1      45.581  29.208  28.154  1.00  0.00     0.057 A 
ATOM     88  C   UNL A   1      46.071  27.985  27.678  1.00  0.00     0.134 A 
ATOM     89  C   UNL A   1      46.408  30.325  28.008  1.00  0.00     0.134 A 
ATOM     90  F   UNL A   1      45.321  26.877  27.710  1.00  0.00    -0.206 F 
ATOM     91  C   UNL A   1      47.347  27.873  27.117  1.00  0.00     0.040 A 
ATOM     92  C   UNL A   1      47.671  30.234  27.422  1.00  0.00     0.040 A 
ATOM     93  F   UNL A   1      45.985  31.535  28.406  1.00  0.00    -0.206 F 
ATOM     94  C   UNL A   1      48.150  29.002  26.984  1.00  0.00     0.006 A 
ENDBRANCH  70  87
ENDBRANCH  44  45
ENDBRANCH  36  39
ENDBRANCH  34  35
ENDBRANCH  33  34
ENDBRANCH   1  33
TORSDOF 15
ENDMDL
MODEL 2
REMARK VINA RESULT:     -12.4      3.470      7.501
REMARK SMILES NS(=O)(=O)c1ccc(-n2nc(C(F)(F)F)cc2-c2ccc(C(=O)NCCCNC(=O)c3ccc(-c4c5nc(c(-c6c(F)cccc6F)c6ccc([nH]6)c(-c6c(F)cccc6F)c6nc(c(-c7c(F)cccc7F)c7ccc4[nH]7)C=C6)C=C5)cc3)cc2)cc1
REMARK SMILES IDX 25 1 24 2 22 3 23 4 21 6 18 7 19 8 86 9 20 10 85 11 17 12
REMARK SMILES IDX 9 13 10 14 11 15 16 16 8 17 5 18 6 19 88 20 7 21 87 22 2 23
REMARK SMILES IDX 3 24 4 25 1 26 12 29 13 30 14 31 15 32 26 33 27 34 28 35
REMARK SMILES IDX 29 36 30 38 31 39 32 40 84 41 33 42 83 43 34 44 35 45 36 46
REMARK SMILES IDX 77 47 37 48 82 49 76 50 78 51 38 52 81 53 75 54 74 55 39 57
REMARK SMILES IDX 65 58 48 59 64 60 49 61 52 62 63 63 79 64 50 65 51 66 62 68
REMARK SMILES IDX 80 69 53 70 40 71 41 72 46 73 42 74 43 75 45 76 47 77 44 78
REMARK SMILES IDX 66 79 67 80 72 81 68 82 69 83 71 84 73 85 70 86 54 87 55 88
REMARK SMILES IDX 60 89 56 90 57 91 59 92 61 93 58 94
REMARK H PARENT 24 5 1 27 1 28 28 37 78 56 52 67
REMARK Flexibility Score: inf
ROOT
ATOM      1  C   UNL A   1      32.809  27.706  26.859  1.00  0.00     0.118 C 
ENDROOT
BRANCH   1   2
ATOM      2  N   UNL A   1      32.066  27.122  25.750  1.00  0.00    -0.352 N 
ATOM      3  C   UNL A   1      32.280  25.983  25.011  1.00  0.00     0.251 C 
ATOM      4  O   UNL A   1      31.442  25.671  24.167  1.00  0.00    -0.269 OA
ATOM      5  H   UNL A   1      31.270  27.636  25.481  1.00  0.00     0.163 HD
BRANCH   3   6
ATOM      6  C   UNL A   1      33.462  25.102  25.226  1.00  0.00     0.039 A 
ATOM      7  C   UNL A   1      35.702  23.438  25.522  1.00  0.00     0.000 A 
ATOM      8  C   UNL A   1      35.545  24.201  24.358  1.00  0.00     0.011 A 
ATOM      9  C   UNL A   1      34.751  23.514  26.532  1.00  0.00     0.011 A 
ATOM     10  C   UNL A   1      34.424  25.024  24.209  1.00  0.00     0.014 A 
ATOM     11  C   UNL A   1      33.675  24.380  26.400  1.00  0.00     0.014 A 
BRANCH   7  12
ATOM     12  C   UNL A   1      36.893  22.646  25.762  1.00  0.00     0.075 A 
ATOM     13  N   UNL A   1      36.959  21.267  25.632  1.00  0.00    -0.233 N 
ATOM     14  N   UNL A   1      38.150  20.781  26.064  1.00  0.00    -0.163 NA
ATOM     15  C   UNL A   1      38.926  21.874  26.229  1.00  0.00     0.167 A 
ATOM     16  C   UNL A   1      38.163  23.058  26.098  1.00  0.00     0.064 A 
BRANCH  13  17
ATOM     17  C   UNL A   1      35.962  20.408  25.096  1.00  0.00     0.065 A 
ATOM     18  C   UNL A   1      33.963  18.665  24.248  1.00  0.00     0.082 A 
ATOM     19  C   UNL A   1      33.634  19.987  24.548  1.00  0.00     0.024 A 
ATOM     20  C   UNL A   1      35.287  18.219  24.337  1.00  0.00     0.024 A 
ATOM     21  C   UNL A   1      34.636  20.856  24.976  1.00  0.00     0.030 A 
ATOM     22  C   UNL A   1      36.299  19.102  24.734  1.00  0.00     0.030 A 
BRANCH  18  23
ATOM     23  S   UNL A   1      32.683  17.542  23.776  1.00  0.00     0.238 S 
ATOM     24  O   UNL A   1      32.261  17.848  22.426  1.00  0.00    -0.207 OA
ATOM     25  O   UNL A   1      31.761  17.409  24.875  1.00  0.00    -0.207 OA
BRANCH  23  26
ATOM     26  N   UNL A   1      33.483  16.067  23.656  1.00  0.00    -0.225 NA
ATOM     27  H   UNL A   1      33.225  15.610  22.780  1.00  0.00     0.137 HD
ATOM     28  H   UNL A   1      33.218  15.471  24.440  1.00  0.00     0.137 HD
ENDBRANCH  23  26
ENDBRANCH  18  23
ENDBRANCH  13  17
BRANCH  15  29
ATOM     29  C   UNL A   1      40.406  21.818  26.503  1.00  0.00     0.435 C 
ATOM     30  F   UNL A   1      41.152  22.374  25.515  1.00  0.00    -0.164 F 
ATOM     31  F   UNL A   1      40.734  22.445  27.663  1.00  0.00    -0.164 F 
ATOM     32  F   UNL A   1      40.838  20.531  26.635  1.00  0.00    -0.164 F 
ENDBRANCH  15  29
ENDBRANCH   7  12
ENDBRANCH   3   6
ENDBRANCH   1   2
BRANCH   1  33
ATOM     33  C   UNL A   1      33.785  28.795  26.387  1.00  0.00     0.042 C 
BRANCH  33  34
ATOM     34  C   UNL A   1      35.138  28.693  27.056  1.00  0.00     0.118 C 
BRANCH  34  35
ATOM     35  N   UNL A   1      35.239  29.563  28.228  1.00  0.00    -0.352 N 
ATOM     36  C   UNL A   1      36.271  29.662  29.136  1.00  0.00     0.251 C 
ATOM     37  H   UNL A   1      34.468  30.154  28.389  1.00  0.00     0.163 HD
ATOM     38  O   UNL A   1      36.088  30.152  30.244  1.00  0.00    -0.269 OA
BRANCH  36  39
ATOM     39  C   UNL A   1      37.597  29.156  28.751  1.00  0.00     0.039 A 
ATOM     40  C   UNL A   1      38.284  29.679  27.655  1.00  0.00     0.014 A 
ATOM     41  C   UNL A   1      38.176  28.181  29.557  1.00  0.00     0.014 A 
ATOM     42  C   UNL A   1      39.599  29.275  27.439  1.00  0.00     0.010 A 
ATOM     43  C   UNL A   1      39.521  27.941  29.465  1.00  0.00     0.010 A 
ATOM     44  C   UNL A   1      40.222  28.428  28.372  1.00  0.00    -0.014 A 
BRANCH  44  45
ATOM     45  C   UNL A   1      41.644  28.121  28.277  1.00  0.00     0.031 A 
ATOM     46  C   UNL A   1      41.946  26.883  27.517  1.00  0.00     0.074 A 
ATOM     47  C   UNL A   1      42.617  28.970  28.676  1.00  0.00     0.049 A 
ATOM     48  N   UNL A   1      42.320  25.748  28.001  1.00  0.00    -0.248 NA
ATOM     49  C   UNL A   1      41.651  26.845  26.076  1.00  0.00     0.031 C 
ATOM     50  C   UNL A   1      42.471  30.349  29.165  1.00  0.00     0.029 A 
ATOM     51  N   UNL A   1      43.970  28.806  28.650  1.00  0.00    -0.354 N 
ATOM     52  C   UNL A   1      42.543  24.920  26.905  1.00  0.00     0.074 A 
ATOM     53  C   UNL A   1      41.926  25.571  25.780  1.00  0.00     0.031 C 
ATOM     54  C   UNL A   1      43.673  30.963  29.172  1.00  0.00     0.029 A 
ATOM     55  C   UNL A   1      44.691  29.971  28.887  1.00  0.00     0.049 A 
ATOM     56  H   UNL A   1      44.400  27.937  28.480  1.00  0.00     0.167 HD
ATOM     57  C   UNL A   1      43.470  23.924  26.977  1.00  0.00     0.037 A 
ATOM     58  C   UNL A   1      46.037  30.113  28.884  1.00  0.00     0.037 A 
ATOM     59  C   UNL A   1      43.910  23.745  28.338  1.00  0.00     0.049 A 
ATOM     60  C   UNL A   1      46.618  28.778  29.131  1.00  0.00     0.074 A 
ATOM     61  C   UNL A   1      43.407  23.190  29.493  1.00  0.00     0.029 A 
ATOM     62  N   UNL A   1      44.933  24.583  28.696  1.00  0.00    -0.354 N 
ATOM     63  N   UNL A   1      46.497  28.147  30.265  1.00  0.00    -0.248 NA
ATOM     64  C   UNL A   1      47.042  27.960  28.002  1.00  0.00     0.031 C 
ATOM     65  C   UNL A   1      44.037  23.883  30.570  1.00  0.00     0.029 A 
ATOM     66  C   UNL A   1      44.936  24.809  30.045  1.00  0.00     0.049 A 
ATOM     67  H   UNL A   1      45.581  24.972  28.065  1.00  0.00     0.167 HD
ATOM     68  C   UNL A   1      46.392  26.818  29.904  1.00  0.00     0.074 A 
ATOM     69  C   UNL A   1      46.921  26.747  28.547  1.00  0.00     0.031 C 
ATOM     70  C   UNL A   1      45.591  25.969  30.608  1.00  0.00     0.037 A 
BRANCH  57  71
ATOM     71  C   UNL A   1      44.345  23.454  25.834  1.00  0.00     0.057 A 
ATOM     72  C   UNL A   1      44.494  22.070  25.620  1.00  0.00     0.134 A 
ATOM     73  C   UNL A   1      45.280  24.264  25.161  1.00  0.00     0.134 A 
ATOM     74  F   UNL A   1      43.674  21.189  26.212  1.00  0.00    -0.206 F 
ATOM     75  C   UNL A   1      45.539  21.533  24.857  1.00  0.00     0.040 A 
ATOM     76  C   UNL A   1      46.298  23.740  24.357  1.00  0.00     0.040 A 
ATOM     77  F   UNL A   1      45.332  25.591  25.325  1.00  0.00    -0.206 F 
ATOM     78  C   UNL A   1      46.452  22.369  24.229  1.00  0.00     0.006 A 
ENDBRANCH  57  71
BRANCH  58  79
ATOM     79  C   UNL A   1      46.870  31.279  28.532  1.00  0.00     0.057 A 
ATOM     80  C   UNL A   1      47.749  31.854  29.460  1.00  0.00     0.134 A 
ATOM     81  C   UNL A   1      47.040  31.660  27.191  1.00  0.00     0.134 A 
ATOM     82  F   UNL A   1      47.676  31.531  30.759  1.00  0.00    -0.206 F 
ATOM     83  C   UNL A   1      48.776  32.723  29.070  1.00  0.00     0.040 A 
ATOM     84  C   UNL A   1      48.061  32.528  26.789  1.00  0.00     0.040 A 
ATOM     85  F   UNL A   1      46.284  31.125  26.223  1.00  0.00    -0.206 F 
ATOM     86  C   UNL A   1      48.946  33.048  27.727  1.00  0.00     0.006 A 
ENDBRANCH  58  79
BRANCH  70  87
ATOM     87  C   UNL A   1      45.241  26.369  32.009  1.00  0.00     0.057 A 
ATOM     88  C   UNL A   1      44.065  27.035  32.377  1.00  0.00     0.134 A 
ATOM     89  C   UNL A   1      46.111  25.997  33.037  1.00  0.00     0.134 A 
ATOM     90  F   UNL A   1      43.140  27.366  31.468  1.00  0.00    -0.206 F 
ATOM     91  C   UNL A   1      43.788  27.353  33.710  1.00  0.00     0.040 A 
ATOM     92  C   UNL A   1      45.833  26.280  34.375  1.00  0.00     0.040 A 
ATOM     93  F   UNL A   1      47.236  25.320  32.758  1.00  0.00    -0.206 F 
ATOM     94  C   UNL A   1      44.672  26.970  34.715  1.00  0.00     0.006 A 
ENDBRANCH  70  87
ENDBRANCH  44  45
ENDBRANCH  36  39
ENDBRANCH  34  35
ENDBRANCH  33  34
ENDBRANCH   1  33
TORSDOF 15
ENDMDL
MODEL 3
REMARK VINA RESULT:     -12.4      4.749      8.939
REMARK SMILES NS(=O)(=O)c1ccc(-n2nc(C(F)(F)F)cc2-c2ccc(C(=O)NCCCNC(=O)c3ccc(-c4c5nc(c(-c6c(F)cccc6F)c6ccc([nH]6)c(-c6c(F)cccc6F)c6nc(c(-c7c(F)cccc7F)c7ccc4[nH]7)C=C6)C=C5)cc3)cc2)cc1
REMARK SMILES IDX 25 1 24 2 22 3 23 4 21 6 18 7 19 8 86 9 20 10 85 11 17 12
REMARK SMILES IDX 9 13 10 14 11 15 16 16 8 17 5 18 6 19 88 20 7 21 87 22 2 23
REMARK SMILES IDX 3 24 4 25 1 26 12 29 13 30 14 31 15 32 26 33 27 34 28 35
REMARK SMILES IDX 29 36 30 38 31 39 32 40 84 41 33 42 83 43 34 44 35 45 36 46
REMARK SMILES IDX 77 47 37 48 82 49 76 50 78 51 38 52 81 53 75 54 74 55 39 57
REMARK SMILES IDX 65 58 48 59 64 60 49 61 52 62 63 63 79 64 50 65 51 66 62 68
REMARK SMILES IDX 80 69 53 70 40 71 41 72 46 73 42 74 43 75 45 76 47 77 44 78
REMARK SMILES IDX 66 79 67 80 72 81 68 82 69 83 71 84 73 85 70 86 54 87 55 88
REMARK SMILES IDX 60 89 56 90 57 91 59 92 61 93 58 94
REMARK H PARENT 24 5 1 27 1 28 28 37 78 56 52 67
REMARK Flexibility Score: inf
ROOT
ATOM      1  C   UNL A   1      32.428  31.580  26.858  1.00  0.00     0.118 C 
ENDROOT
BRANCH   1   2
ATOM      2  N   UNL A   1      33.453  31.080  27.764  1.00  0.00    -0.352 N 
ATOM      3  C   UNL A   1      33.983  29.823  27.934  1.00  0.00     0.251 C 
ATOM      4  O   UNL A   1      34.912  29.686  28.729  1.00  0.00    -0.269 OA
ATOM      5  H   UNL A   1      33.834  31.765  28.362  1.00  0.00     0.163 HD
BRANCH   3   6
ATOM      6  C   UNL A   1      33.501  28.643  27.165  1.00  0.00     0.039 A 
ATOM      7  C   UNL A   1      32.662  26.445  25.635  1.00  0.00     0.000 A 
ATOM      8  C   UNL A   1      33.909  27.032  25.392  1.00  0.00     0.011 A 
ATOM      9  C   UNL A   1      31.845  26.948  26.641  1.00  0.00     0.011 A 
ATOM     10  C   UNL A   1      34.323  28.133  26.150  1.00  0.00     0.014 A 
ATOM     11  C   UNL A   1      32.292  27.999  27.428  1.00  0.00     0.014 A 
BRANCH   7  12
ATOM     12  C   UNL A   1      32.232  25.246  24.941  1.00  0.00     0.075 A 
ATOM     13  N   UNL A   1      31.159  25.188  24.064  1.00  0.00    -0.233 N 
ATOM     14  N   UNL A   1      30.896  23.913  23.681  1.00  0.00    -0.163 NA
ATOM     15  C   UNL A   1      31.957  23.200  24.114  1.00  0.00     0.167 A 
ATOM     16  C   UNL A   1      32.787  23.987  24.948  1.00  0.00     0.064 A 
BRANCH  13  17
ATOM     17  C   UNL A   1      30.402  26.280  23.562  1.00  0.00     0.065 A 
ATOM     18  C   UNL A   1      28.988  28.537  22.747  1.00  0.00     0.082 A 
ATOM     19  C   UNL A   1      30.302  28.362  22.316  1.00  0.00     0.024 A 
ATOM     20  C   UNL A   1      28.365  27.575  23.553  1.00  0.00     0.024 A 
ATOM     21  C   UNL A   1      31.010  27.235  22.729  1.00  0.00     0.030 A 
ATOM     22  C   UNL A   1      29.065  26.426  23.939  1.00  0.00     0.030 A 
BRANCH  18  23
ATOM     23  S   UNL A   1      28.113  30.002  22.286  1.00  0.00     0.238 S 
ATOM     24  O   UNL A   1      26.976  30.169  23.166  1.00  0.00    -0.207 OA
ATOM     25  O   UNL A   1      28.005  30.037  20.850  1.00  0.00    -0.207 OA
BRANCH  23  26
ATOM     26  N   UNL A   1      29.173  31.238  22.706  1.00  0.00    -0.225 NA
ATOM     27  H   UNL A   1      29.313  31.236  23.717  1.00  0.00     0.137 HD
ATOM     28  H   UNL A   1      28.781  32.134  22.420  1.00  0.00     0.137 HD
ENDBRANCH  23  26
ENDBRANCH  18  23
ENDBRANCH  13  17
BRANCH  15  29
ATOM     29  C   UNL A   1      32.210  21.763  23.741  1.00  0.00     0.435 C 
ATOM     30  F   UNL A   1      31.694  20.881  24.634  1.00  0.00    -0.164 F 
ATOM     31  F   UNL A   1      31.697  21.455  22.520  1.00  0.00    -0.164 F 
ATOM     32  F   UNL A   1      33.547  21.498  23.664  1.00  0.00    -0.164 F 
ENDBRANCH  15  29
ENDBRANCH   7  12
ENDBRANCH   3   6
ENDBRANCH   1   2
BRANCH   1  33
ATOM     33  C   UNL A   1      31.974  33.000  27.232  1.00  0.00     0.042 C 
BRANCH  33  34
ATOM     34  C   UNL A   1      33.121  33.875  27.691  1.00  0.00     0.118 C 
BRANCH  34  35
ATOM     35  N   UNL A   1      32.758  34.695  28.846  1.00  0.00    -0.352 N 
ATOM     36  C   UNL A   1      33.369  34.757  30.080  1.00  0.00     0.251 C 
ATOM     37  H   UNL A   1      31.974  35.279  28.726  1.00  0.00     0.163 HD
ATOM     38  O   UNL A   1      32.772  35.201  31.054  1.00  0.00    -0.269 OA
BRANCH  36  39
ATOM     39  C   UNL A   1      34.750  34.267  30.206  1.00  0.00     0.039 A 
ATOM     40  C   UNL A   1      35.137  33.451  31.270  1.00  0.00     0.014 A 
ATOM     41  C   UNL A   1      35.645  34.591  29.192  1.00  0.00     0.014 A 
ATOM     42  C   UNL A   1      36.409  32.887  31.247  1.00  0.00     0.010 A 
ATOM     43  C   UNL A   1      36.810  33.882  29.070  1.00  0.00     0.010 A 
ATOM     44  C   UNL A   1      37.230  33.083  30.122  1.00  0.00    -0.014 A 
BRANCH  44  45
ATOM     45  C   UNL A   1      38.495  32.372  29.982  1.00  0.00     0.031 A 
ATOM     46  C   UNL A   1      38.368  31.024  29.373  1.00  0.00     0.074 A 
ATOM     47  C   UNL A   1      39.699  32.944  30.205  1.00  0.00     0.049 A 
ATOM     48  N   UNL A   1      38.456  29.889  29.978  1.00  0.00    -0.248 NA
ATOM     49  C   UNL A   1      37.936  30.917  27.970  1.00  0.00     0.031 C 
ATOM     50  C   UNL A   1      39.989  34.351  30.517  1.00  0.00     0.029 A 
ATOM     51  N   UNL A   1      40.945  32.396  30.118  1.00  0.00    -0.354 N 
ATOM     52  C   UNL A   1      38.334  28.919  28.988  1.00  0.00     0.074 A 
ATOM     53  C   UNL A   1      37.817  29.593  27.828  1.00  0.00     0.031 C 
ATOM     54  C   UNL A   1      41.310  34.591  30.369  1.00  0.00     0.029 A 
ATOM     55  C   UNL A   1      41.980  33.323  30.155  1.00  0.00     0.049 A 
ATOM     56  H   UNL A   1      41.097  31.427  30.037  1.00  0.00     0.167 HD
ATOM     57  C   UNL A   1      38.951  27.712  29.133  1.00  0.00     0.037 A 
ATOM     58  C   UNL A   1      43.306  33.072  30.051  1.00  0.00     0.037 A 
ATOM     59  C   UNL A   1      39.452  27.562  30.476  1.00  0.00     0.049 A 
ATOM     60  C   UNL A   1      43.514  31.661  30.435  1.00  0.00     0.074 A 
ATOM     61  C   UNL A   1      38.928  27.304  31.723  1.00  0.00     0.029 A 
ATOM     62  N   UNL A   1      40.697  28.105  30.658  1.00  0.00    -0.354 N 
ATOM     63  N   UNL A   1      43.332  31.218  31.648  1.00  0.00    -0.248 NA
ATOM     64  C   UNL A   1      43.584  30.639  29.399  1.00  0.00     0.031 C 
ATOM     65  C   UNL A   1      39.827  27.899  32.659  1.00  0.00     0.029 A 
ATOM     66  C   UNL A   1      40.893  28.466  31.963  1.00  0.00     0.049 A 
ATOM     67  H   UNL A   1      41.364  28.221  29.942  1.00  0.00     0.167 HD
ATOM     68  C   UNL A   1      42.829  29.944  31.470  1.00  0.00     0.074 A 
ATOM     69  C   UNL A   1      43.184  29.578  30.105  1.00  0.00     0.031 C 
ATOM     70  C   UNL A   1      41.894  29.442  32.327  1.00  0.00     0.037 A 
BRANCH  57  71
ATOM     71  C   UNL A   1      39.547  26.890  28.010  1.00  0.00     0.057 A 
ATOM     72  C   UNL A   1      39.428  25.487  28.061  1.00  0.00     0.134 A 
ATOM     73  C   UNL A   1      40.488  27.374  27.081  1.00  0.00     0.134 A 
ATOM     74  F   UNL A   1      38.576  24.898  28.913  1.00  0.00    -0.206 F 
ATOM     75  C   UNL A   1      40.239  24.634  27.301  1.00  0.00     0.040 A 
ATOM     76  C   UNL A   1      41.267  26.531  26.280  1.00  0.00     0.040 A 
ATOM     77  F   UNL A   1      40.784  28.674  26.967  1.00  0.00    -0.206 F 
ATOM     78  C   UNL A   1      41.169  25.156  26.411  1.00  0.00     0.006 A 
ENDBRANCH  57  71
BRANCH  58  79
ATOM     79  C   UNL A   1      44.391  33.904  29.499  1.00  0.00     0.057 A 
ATOM     80  C   UNL A   1      44.514  34.121  28.120  1.00  0.00     0.134 A 
ATOM     81  C   UNL A   1      45.144  34.748  30.332  1.00  0.00     0.134 A 
ATOM     82  F   UNL A   1      43.815  33.379  27.249  1.00  0.00    -0.206 F 
ATOM     83  C   UNL A   1      45.305  35.152  27.597  1.00  0.00     0.040 A 
ATOM     84  C   UNL A   1      45.938  35.781  29.824  1.00  0.00     0.040 A 
ATOM     85  F   UNL A   1      45.053  34.655  31.667  1.00  0.00    -0.206 F 
ATOM     86  C   UNL A   1      46.005  35.998  28.452  1.00  0.00     0.006 A 
ENDBRANCH  58  79
BRANCH  70  87
ATOM     87  C   UNL A   1      41.805  30.075  33.683  1.00  0.00     0.057 A 
ATOM     88  C   UNL A   1      40.933  31.118  34.019  1.00  0.00     0.134 A 
ATOM     89  C   UNL A   1      42.597  29.551  34.708  1.00  0.00     0.134 A 
ATOM     90  F   UNL A   1      40.087  31.634  33.119  1.00  0.00    -0.206 F 
ATOM     91  C   UNL A   1      40.882  31.644  35.314  1.00  0.00     0.040 A 
ATOM     92  C   UNL A   1      42.534  30.044  36.012  1.00  0.00     0.040 A 
ATOM     93  F   UNL A   1      43.425  28.523  34.464  1.00  0.00    -0.206 F 
ATOM     94  C   UNL A   1      41.681  31.102  36.317  1.00  0.00     0.006 A 
ENDBRANCH  70  87
ENDBRANCH  44  45
ENDBRANCH  36  39
ENDBRANCH  34  35
ENDBRANCH  33  34
ENDBRANCH   1  33
TORSDOF 15
ENDMDL
