MODEL 1
REMARK VINA RESULT:     -11.1      0.000      0.000
REMARK SMILES CSCc1ccc(C(=O)N[C@@H](Cc2cnc[nH]2)C(=O)NCCCNC(=O)c2ccc(-c3c4nc(c(-c5c(F)cccc5F)c5ccc([nH]5)c(-c5c(F)cccc5F)c5nc(c(-c6c(F)cccc6F)c6ccc3[nH]6)C=C5)C=C4)cc2)o1
REMARK SMILES IDX 21 1 20 2 18 3 19 4 11 6 10 7 8 8 9 9 7 11 4 12 5 13 81 14
REMARK SMILES IDX 6 15 3 16 2 17 1 18 12 19 13 20 14 21 17 22 15 23 16 24
REMARK SMILES IDX 22 26 23 27 24 28 25 29 26 31 27 32 28 33 80 34 29 35 79 36
REMARK SMILES IDX 30 37 31 38 32 39 73 40 33 41 78 42 72 43 74 44 34 45 77 46
REMARK SMILES IDX 71 47 70 48 35 50 61 51 44 52 60 53 45 54 48 55 59 56 75 57
REMARK SMILES IDX 46 58 47 59 58 61 76 62 49 63 36 64 37 65 42 66 38 67 39 68
REMARK SMILES IDX 41 69 43 70 40 71 62 72 63 73 68 74 64 75 65 76 67 77 69 78
REMARK SMILES IDX 66 79 50 80 51 81 56 82 52 83 53 84 55 85 57 86 54 87
REMARK H PARENT 20 5 10 10 17 25 24 30 74 49 48 60
REMARK Flexibility Score: inf
ROOT
ATOM      1  C   UNL A   1      36.393  20.927  25.184  1.00  0.00     0.117 C 
ENDROOT
BRANCH   1   2
ATOM      2  N   UNL A   1      35.410  19.877  25.020  1.00  0.00    -0.354 N 
ATOM      3  C   UNL A   1      34.110  19.963  24.618  1.00  0.00     0.242 C 
ATOM      4  O   UNL A   1      33.560  18.917  24.258  1.00  0.00    -0.273 OA
ATOM      5  H   UNL A   1      35.726  18.968  25.229  1.00  0.00     0.163 HD
BRANCH   3   6
ATOM      6  C   UNL A   1      33.318  21.291  24.598  1.00  0.00     0.177 C 
BRANCH   6   7
ATOM      7  N   UNL A   1      33.384  21.933  23.288  1.00  0.00    -0.337 N 
ATOM      8  C   UNL A   1      33.655  23.231  22.911  1.00  0.00     0.287 C 
ATOM      9  O   UNL A   1      33.774  23.375  21.689  1.00  0.00    -0.266 OA
ATOM     10  H   UNL A   1      33.202  21.326  22.534  1.00  0.00     0.164 HD
BRANCH   8  11
ATOM     11  C   UNL A   1      33.756  24.347  23.843  1.00  0.00     0.191 A 
ATOM     12  C   UNL A   1      32.984  26.278  24.660  1.00  0.00     0.114 A 
ATOM     13  C   UNL A   1      34.084  25.947  25.415  1.00  0.00     0.047 A 
ATOM     14  O   UNL A   1      32.790  25.324  23.706  1.00  0.00    -0.455 OA
ATOM     15  C   UNL A   1      34.594  24.739  24.874  1.00  0.00     0.056 A 
BRANCH  12  16
ATOM     16  C   UNL A   1      32.086  27.465  24.701  1.00  0.00     0.144 C 
BRANCH  16  17
ATOM     17  S   UNL A   1      32.901  29.085  24.659  1.00  0.00    -0.157 SA
ATOM     18  C   UNL A   1      33.680  28.972  23.028  1.00  0.00     0.085 C 
ENDBRANCH  16  17
ENDBRANCH  12  16
ENDBRANCH   8  11
ENDBRANCH   6   7
BRANCH   6  19
ATOM     19  C   UNL A   1      31.937  21.316  25.276  1.00  0.00     0.090 C 
BRANCH  19  20
ATOM     20  C   UNL A   1      31.446  22.596  25.850  1.00  0.00     0.037 A 
ATOM     21  C   UNL A   1      31.813  23.269  26.998  1.00  0.00     0.134 A 
ATOM     22  N   UNL A   1      30.521  23.418  25.250  1.00  0.00    -0.348 N 
ATOM     23  N   UNL A   1      31.055  24.396  27.164  1.00  0.00    -0.245 NA
ATOM     24  C   UNL A   1      30.286  24.461  26.103  1.00  0.00     0.196 A 
ATOM     25  H   UNL A   1      30.105  23.282  24.369  1.00  0.00     0.167 HD
ENDBRANCH  19  20
ENDBRANCH   6  19
ENDBRANCH   3   6
ENDBRANCH   1   2
BRANCH   1  26
ATOM     26  C   UNL A   1      37.794  20.560  24.738  1.00  0.00     0.042 C 
BRANCH  26  27
ATOM     27  C   UNL A   1      38.830  20.674  25.844  1.00  0.00     0.118 C 
BRANCH  27  28
ATOM     28  N   UNL A   1      39.803  19.584  25.847  1.00  0.00    -0.352 N 
ATOM     29  C   UNL A   1      41.153  19.570  26.123  1.00  0.00     0.251 C 
ATOM     30  H   UNL A   1      39.428  18.705  25.610  1.00  0.00     0.163 HD
ATOM     31  O   UNL A   1      41.805  18.549  25.957  1.00  0.00    -0.269 OA
BRANCH  29  32
ATOM     32  C   UNL A   1      41.830  20.802  26.583  1.00  0.00     0.039 A 
ATOM     33  C   UNL A   1      42.243  21.748  25.640  1.00  0.00     0.014 A 
ATOM     34  C   UNL A   1      42.045  21.031  27.938  1.00  0.00     0.014 A 
ATOM     35  C   UNL A   1      42.766  22.972  26.069  1.00  0.00     0.010 A 
ATOM     36  C   UNL A   1      42.446  22.287  28.366  1.00  0.00     0.010 A 
ATOM     37  C   UNL A   1      42.816  23.273  27.437  1.00  0.00    -0.014 A 
BRANCH  37  38
ATOM     38  C   UNL A   1      43.276  24.585  27.958  1.00  0.00     0.031 A 
ATOM     39  C   UNL A   1      42.252  25.626  28.324  1.00  0.00     0.074 A 
ATOM     40  C   UNL A   1      44.588  24.890  27.980  1.00  0.00     0.049 A 
ATOM     41  N   UNL A   1      42.408  26.906  28.538  1.00  0.00    -0.248 NA
ATOM     42  C   UNL A   1      40.854  25.169  28.401  1.00  0.00     0.031 C 
ATOM     43  C   UNL A   1      45.683  23.986  27.618  1.00  0.00     0.029 A 
ATOM     44  N   UNL A   1      45.223  26.064  28.301  1.00  0.00    -0.354 N 
ATOM     45  C   UNL A   1      41.127  27.414  28.717  1.00  0.00     0.074 A 
ATOM     46  C   UNL A   1      40.205  26.314  28.543  1.00  0.00     0.031 C 
ATOM     47  C   UNL A   1      46.852  24.633  27.756  1.00  0.00     0.029 A 
ATOM     48  C   UNL A   1      46.589  26.009  28.163  1.00  0.00     0.049 A 
ATOM     49  H   UNL A   1      44.745  26.871  28.601  1.00  0.00     0.167 HD
ATOM     50  C   UNL A   1      40.754  28.679  29.019  1.00  0.00     0.037 A 
ATOM     51  C   UNL A   1      47.521  26.967  28.329  1.00  0.00     0.037 A 
ATOM     52  C   UNL A   1      41.680  29.752  29.264  1.00  0.00     0.049 A 
ATOM     53  C   UNL A   1      47.086  28.354  28.714  1.00  0.00     0.074 A 
ATOM     54  C   UNL A   1      41.410  31.058  29.633  1.00  0.00     0.029 A 
ATOM     55  N   UNL A   1      43.058  29.630  29.190  1.00  0.00    -0.354 N 
ATOM     56  N   UNL A   1      45.872  28.819  28.894  1.00  0.00    -0.248 NA
ATOM     57  C   UNL A   1      48.147  29.350  28.919  1.00  0.00     0.031 C 
ATOM     58  C   UNL A   1      42.629  31.731  29.770  1.00  0.00     0.029 A 
ATOM     59  C   UNL A   1      43.655  30.835  29.514  1.00  0.00     0.049 A 
ATOM     60  H   UNL A   1      43.541  28.808  28.942  1.00  0.00     0.167 HD
ATOM     61  C   UNL A   1      46.026  30.147  29.268  1.00  0.00     0.074 A 
ATOM     62  C   UNL A   1      47.449  30.415  29.291  1.00  0.00     0.031 C 
ATOM     63  C   UNL A   1      45.075  31.063  29.567  1.00  0.00     0.037 A 
BRANCH  50  64
ATOM     64  C   UNL A   1      39.284  28.961  29.117  1.00  0.00     0.057 A 
ATOM     65  C   UNL A   1      38.583  28.814  30.321  1.00  0.00     0.134 A 
ATOM     66  C   UNL A   1      38.563  29.397  27.998  1.00  0.00     0.134 A 
ATOM     67  F   UNL A   1      39.213  28.383  31.425  1.00  0.00    -0.206 F 
ATOM     68  C   UNL A   1      37.211  29.058  30.402  1.00  0.00     0.040 A 
ATOM     69  C   UNL A   1      37.196  29.672  28.074  1.00  0.00     0.040 A 
ATOM     70  F   UNL A   1      39.173  29.564  26.816  1.00  0.00    -0.206 F 
ATOM     71  C   UNL A   1      36.515  29.496  29.276  1.00  0.00     0.006 A 
ENDBRANCH  50  64
BRANCH  51  72
ATOM     72  C   UNL A   1      48.961  26.647  28.162  1.00  0.00     0.057 A 
ATOM     73  C   UNL A   1      49.591  26.823  26.925  1.00  0.00     0.134 A 
ATOM     74  C   UNL A   1      49.734  26.152  29.217  1.00  0.00     0.134 A 
ATOM     75  F   UNL A   1      48.896  27.278  25.873  1.00  0.00    -0.206 F 
ATOM     76  C   UNL A   1      50.936  26.496  26.736  1.00  0.00     0.040 A 
ATOM     77  C   UNL A   1      51.086  25.842  29.048  1.00  0.00     0.040 A 
ATOM     78  F   UNL A   1      49.191  25.969  30.429  1.00  0.00    -0.206 F 
ATOM     79  C   UNL A   1      51.687  26.006  27.801  1.00  0.00     0.006 A 
ENDBRANCH  51  72
BRANCH  63  80
ATOM     80  C   UNL A   1      45.538  32.416  30.011  1.00  0.00     0.057 A 
ATOM     81  C   UNL A   1      45.813  32.701  31.353  1.00  0.00     0.134 A 
ATOM     82  C   UNL A   1      45.774  33.426  29.070  1.00  0.00     0.134 A 
ATOM     83  F   UNL A   1      45.595  31.778  32.303  1.00  0.00    -0.206 F 
ATOM     84  C   UNL A   1      46.295  33.950  31.746  1.00  0.00     0.040 A 
ATOM     85  C   UNL A   1      46.277  34.671  29.447  1.00  0.00     0.040 A 
ATOM     86  F   UNL A   1      45.537  33.210  27.767  1.00  0.00    -0.206 F 
ATOM     87  C   UNL A   1      46.537  34.936  30.790  1.00  0.00     0.006 A 
ENDBRANCH  63  80
ENDBRANCH  37  38
ENDBRANCH  29  32
ENDBRANCH  27  28
ENDBRANCH  26  27
ENDBRANCH   1  26
TORSDOF 16
ENDMDL
MODEL 2
REMARK VINA RESULT:     -10.9      1.188      6.184
REMARK SMILES CSCc1ccc(C(=O)N[C@@H](Cc2cnc[nH]2)C(=O)NCCCNC(=O)c2ccc(-c3c4nc(c(-c5c(F)cccc5F)c5ccc([nH]5)c(-c5c(F)cccc5F)c5nc(c(-c6c(F)cccc6F)c6ccc3[nH]6)C=C5)C=C4)cc2)o1
REMARK SMILES IDX 21 1 20 2 18 3 19 4 11 6 10 7 8 8 9 9 7 11 4 12 5 13 81 14
REMARK SMILES IDX 6 15 3 16 2 17 1 18 12 19 13 20 14 21 17 22 15 23 16 24
REMARK SMILES IDX 22 26 23 27 24 28 25 29 26 31 27 32 28 33 80 34 29 35 79 36
REMARK SMILES IDX 30 37 31 38 32 39 73 40 33 41 78 42 72 43 74 44 34 45 77 46
REMARK SMILES IDX 71 47 70 48 35 50 61 51 44 52 60 53 45 54 48 55 59 56 75 57
REMARK SMILES IDX 46 58 47 59 58 61 76 62 49 63 36 64 37 65 42 66 38 67 39 68
REMARK SMILES IDX 41 69 43 70 40 71 62 72 63 73 68 74 64 75 65 76 67 77 69 78
REMARK SMILES IDX 66 79 50 80 51 81 56 82 52 83 53 84 55 85 57 86 54 87
REMARK H PARENT 20 5 10 10 17 25 24 30 74 49 48 60
REMARK Flexibility Score: inf
ROOT
ATOM      1  C   UNL A   1      36.443  20.512  25.085  1.00  0.00     0.117 C 
ENDROOT
BRANCH   1   2
ATOM      2  N   UNL A   1      35.354  19.558  25.118  1.00  0.00    -0.354 N 
ATOM      3  C   UNL A   1      34.035  19.739  24.824  1.00  0.00     0.242 C 
ATOM      4  O   UNL A   1      33.357  18.725  24.623  1.00  0.00    -0.273 OA
ATOM      5  H   UNL A   1      35.603  18.645  25.390  1.00  0.00     0.163 HD
BRANCH   3   6
ATOM      6  C   UNL A   1      33.372  21.134  24.738  1.00  0.00     0.177 C 
BRANCH   6   7
ATOM      7  N   UNL A   1      33.734  21.821  23.500  1.00  0.00    -0.337 N 
ATOM      8  C   UNL A   1      34.136  23.115  23.250  1.00  0.00     0.287 C 
ATOM      9  O   UNL A   1      34.509  23.300  22.086  1.00  0.00    -0.266 OA
ATOM     10  H   UNL A   1      33.683  21.254  22.697  1.00  0.00     0.164 HD
BRANCH   8  11
ATOM     11  C   UNL A   1      34.095  24.188  24.238  1.00  0.00     0.191 A 
ATOM     12  C   UNL A   1      33.190  26.068  25.032  1.00  0.00     0.114 A 
ATOM     13  C   UNL A   1      34.188  25.715  25.909  1.00  0.00     0.047 A 
ATOM     14  O   UNL A   1      33.138  25.159  24.020  1.00  0.00    -0.455 OA
ATOM     15  C   UNL A   1      34.785  24.540  25.386  1.00  0.00     0.056 A 
BRANCH  12  16
ATOM     16  C   UNL A   1      32.273  27.243  25.010  1.00  0.00     0.144 C 
BRANCH  16  17
ATOM     17  S   UNL A   1      32.948  28.770  24.302  1.00  0.00    -0.157 SA
ATOM     18  C   UNL A   1      32.175  28.694  22.666  1.00  0.00     0.085 C 
ENDBRANCH  16  17
ENDBRANCH  12  16
ENDBRANCH   8  11
ENDBRANCH   6   7
BRANCH   6  19
ATOM     19  C   UNL A   1      31.896  21.256  25.153  1.00  0.00     0.090 C 
BRANCH  19  20
ATOM     20  C   UNL A   1      31.441  22.506  25.815  1.00  0.00     0.037 A 
ATOM     21  C   UNL A   1      31.834  23.091  27.002  1.00  0.00     0.134 A 
ATOM     22  N   UNL A   1      30.532  23.389  25.280  1.00  0.00    -0.348 N 
ATOM     23  N   UNL A   1      31.105  24.223  27.250  1.00  0.00    -0.245 NA
ATOM     24  C   UNL A   1      30.330  24.378  26.203  1.00  0.00     0.196 A 
ATOM     25  H   UNL A   1      30.107  23.322  24.396  1.00  0.00     0.167 HD
ENDBRANCH  19  20
ENDBRANCH   6  19
ENDBRANCH   3   6
ENDBRANCH   1   2
BRANCH   1  26
ATOM     26  C   UNL A   1      37.796  19.920  24.750  1.00  0.00     0.042 C 
BRANCH  26  27
ATOM     27  C   UNL A   1      38.893  20.332  25.719  1.00  0.00     0.118 C 
BRANCH  27  28
ATOM     28  N   UNL A   1      39.998  19.379  25.787  1.00  0.00    -0.352 N 
ATOM     29  C   UNL A   1      41.323  19.546  26.130  1.00  0.00     0.251 C 
ATOM     30  H   UNL A   1      39.755  18.456  25.546  1.00  0.00     0.163 HD
ATOM     31  O   UNL A   1      42.110  18.617  26.012  1.00  0.00    -0.269 OA
BRANCH  29  32
ATOM     32  C   UNL A   1      41.809  20.859  26.602  1.00  0.00     0.039 A 
ATOM     33  C   UNL A   1      42.305  21.779  25.673  1.00  0.00     0.014 A 
ATOM     34  C   UNL A   1      41.762  21.191  27.952  1.00  0.00     0.014 A 
ATOM     35  C   UNL A   1      42.647  23.070  26.089  1.00  0.00     0.010 A 
ATOM     36  C   UNL A   1      41.981  22.503  28.345  1.00  0.00     0.010 A 
ATOM     37  C   UNL A   1      42.430  23.459  27.419  1.00  0.00    -0.014 A 
BRANCH  37  38
ATOM     38  C   UNL A   1      42.686  24.837  27.908  1.00  0.00     0.031 A 
ATOM     39  C   UNL A   1      44.072  25.207  28.362  1.00  0.00     0.074 A 
ATOM     40  C   UNL A   1      41.667  25.705  28.069  1.00  0.00     0.049 A 
ATOM     41  N   UNL A   1      44.471  26.235  29.063  1.00  0.00    -0.248 NA
ATOM     42  C   UNL A   1      45.145  24.255  28.027  1.00  0.00     0.031 C 
ATOM     43  C   UNL A   1      40.270  25.462  27.703  1.00  0.00     0.029 A 
ATOM     44  N   UNL A   1      41.651  26.966  28.610  1.00  0.00    -0.354 N 
ATOM     45  C   UNL A   1      45.823  26.024  29.302  1.00  0.00     0.074 A 
ATOM     46  C   UNL A   1      46.166  24.750  28.709  1.00  0.00     0.031 C 
ATOM     47  C   UNL A   1      39.538  26.546  28.012  1.00  0.00     0.029 A 
ATOM     48  C   UNL A   1      40.402  27.537  28.645  1.00  0.00     0.049 A 
ATOM     49  H   UNL A   1      42.459  27.421  28.943  1.00  0.00     0.167 HD
ATOM     50  C   UNL A   1      46.705  26.829  29.940  1.00  0.00     0.037 A 
ATOM     51  C   UNL A   1      39.997  28.719  29.147  1.00  0.00     0.037 A 
ATOM     52  C   UNL A   1      46.374  28.127  30.461  1.00  0.00     0.049 A 
ATOM     53  C   UNL A   1      41.005  29.618  29.808  1.00  0.00     0.074 A 
ATOM     54  C   UNL A   1      47.204  29.047  31.075  1.00  0.00     0.029 A 
ATOM     55  N   UNL A   1      45.112  28.697  30.404  1.00  0.00    -0.354 N 
ATOM     56  N   UNL A   1      42.284  29.413  30.015  1.00  0.00    -0.248 NA
ATOM     57  C   UNL A   1      40.516  30.912  30.305  1.00  0.00     0.031 C 
ATOM     58  C   UNL A   1      46.440  30.173  31.402  1.00  0.00     0.029 A 
ATOM     59  C   UNL A   1      45.142  29.961  30.964  1.00  0.00     0.049 A 
ATOM     60  H   UNL A   1      44.314  28.265  30.023  1.00  0.00     0.167 HD
ATOM     61  C   UNL A   1      42.758  30.564  30.631  1.00  0.00     0.074 A 
ATOM     62  C   UNL A   1      41.631  31.464  30.763  1.00  0.00     0.031 C 
ATOM     63  C   UNL A   1      44.014  30.851  31.048  1.00  0.00     0.037 A 
BRANCH  50  64
ATOM     64  C   UNL A   1      48.112  26.329  30.089  1.00  0.00     0.057 A 
ATOM     65  C   UNL A   1      48.528  25.628  31.228  1.00  0.00     0.134 A 
ATOM     66  C   UNL A   1      49.057  26.541  29.078  1.00  0.00     0.134 A 
ATOM     67  F   UNL A   1      47.675  25.408  32.240  1.00  0.00    -0.206 F 
ATOM     68  C   UNL A   1      49.843  25.183  31.371  1.00  0.00     0.040 A 
ATOM     69  C   UNL A   1      50.368  26.075  29.197  1.00  0.00     0.040 A 
ATOM     70  F   UNL A   1      48.723  27.201  27.959  1.00  0.00    -0.206 F 
ATOM     71  C   UNL A   1      50.766  25.401  30.349  1.00  0.00     0.006 A 
ENDBRANCH  50  64
BRANCH  51  72
ATOM     72  C   UNL A   1      38.578  29.138  29.024  1.00  0.00     0.057 A 
ATOM     73  C   UNL A   1      38.086  29.641  27.814  1.00  0.00     0.134 A 
ATOM     74  C   UNL A   1      37.689  29.061  30.101  1.00  0.00     0.134 A 
ATOM     75  F   UNL A   1      38.896  29.755  26.752  1.00  0.00    -0.206 F 
ATOM     76  C   UNL A   1      36.765  30.074  27.684  1.00  0.00     0.040 A 
ATOM     77  C   UNL A   1      36.359  29.470  29.979  1.00  0.00     0.040 A 
ATOM     78  F   UNL A   1      38.097  28.581  31.284  1.00  0.00    -0.206 F 
ATOM     79  C   UNL A   1      35.897  29.985  28.769  1.00  0.00     0.006 A 
ENDBRANCH  51  72
BRANCH  63  80
ATOM     80  C   UNL A   1      44.254  32.214  31.622  1.00  0.00     0.057 A 
ATOM     81  C   UNL A   1      44.166  32.464  32.995  1.00  0.00     0.134 A 
ATOM     82  C   UNL A   1      44.640  33.272  30.790  1.00  0.00     0.134 A 
ATOM     83  F   UNL A   1      43.788  31.492  33.841  1.00  0.00    -0.206 F 
ATOM     84  C   UNL A   1      44.443  33.725  33.523  1.00  0.00     0.040 A 
ATOM     85  C   UNL A   1      44.942  34.532  31.307  1.00  0.00     0.040 A 
ATOM     86  F   UNL A   1      44.750  33.092  29.465  1.00  0.00    -0.206 F 
ATOM     87  C   UNL A   1      44.841  34.761  32.678  1.00  0.00     0.006 A 
ENDBRANCH  63  80
ENDBRANCH  37  38
ENDBRANCH  29  32
ENDBRANCH  27  28
ENDBRANCH  26  27
ENDBRANCH   1  26
TORSDOF 16
ENDMDL
MODEL 3
REMARK VINA RESULT:     -10.9      2.142      3.388
REMARK SMILES CSCc1ccc(C(=O)N[C@@H](Cc2cnc[nH]2)C(=O)NCCCNC(=O)c2ccc(-c3c4nc(c(-c5c(F)cccc5F)c5ccc([nH]5)c(-c5c(F)cccc5F)c5nc(c(-c6c(F)cccc6F)c6ccc3[nH]6)C=C5)C=C4)cc2)o1
REMARK SMILES IDX 21 1 20 2 18 3 19 4 11 6 10 7 8 8 9 9 7 11 4 12 5 13 81 14
REMARK SMILES IDX 6 15 3 16 2 17 1 18 12 19 13 20 14 21 17 22 15 23 16 24
REMARK SMILES IDX 22 26 23 27 24 28 25 29 26 31 27 32 28 33 80 34 29 35 79 36
REMARK SMILES IDX 30 37 31 38 32 39 73 40 33 41 78 42 72 43 74 44 34 45 77 46
REMARK SMILES IDX 71 47 70 48 35 50 61 51 44 52 60 53 45 54 48 55 59 56 75 57
REMARK SMILES IDX 46 58 47 59 58 61 76 62 49 63 36 64 37 65 42 66 38 67 39 68
REMARK SMILES IDX 41 69 43 70 40 71 62 72 63 73 68 74 64 75 65 76 67 77 69 78
REMARK SMILES IDX 66 79 50 80 51 81 56 82 52 83 53 84 55 85 57 86 54 87
REMARK H PARENT 20 5 10 10 17 25 24 30 74 49 48 60
REMARK Flexibility Score: inf
ROOT
ATOM      1  C   UNL A   1      35.929  20.802  25.135  1.00  0.00     0.117 C 
ENDROOT
BRANCH   1   2
ATOM      2  N   UNL A   1      35.690  21.449  26.408  1.00  0.00    -0.354 N 
ATOM      3  C   UNL A   1      34.734  22.359  26.751  1.00  0.00     0.242 C 
ATOM      4  O   UNL A   1      34.530  22.536  27.957  1.00  0.00    -0.273 OA
ATOM      5  H   UNL A   1      36.307  21.196  27.131  1.00  0.00     0.163 HD
BRANCH   3   6
ATOM      6  C   UNL A   1      33.916  23.158  25.709  1.00  0.00     0.177 C 
BRANCH   6   7
ATOM      7  N   UNL A   1      32.480  22.966  25.897  1.00  0.00    -0.337 N 
ATOM      8  C   UNL A   1      31.607  22.018  25.409  1.00  0.00     0.287 C 
ATOM      9  O   UNL A   1      30.478  22.083  25.909  1.00  0.00    -0.266 OA
ATOM     10  H   UNL A   1      32.058  23.638  26.480  1.00  0.00     0.164 HD
BRANCH   8  11
ATOM     11  C   UNL A   1      31.949  21.049  24.374  1.00  0.00     0.191 A 
ATOM     12  C   UNL A   1      32.432  18.960  23.747  1.00  0.00     0.114 A 
ATOM     13  C   UNL A   1      32.419  19.719  22.601  1.00  0.00     0.047 A 
ATOM     14  O   UNL A   1      32.161  19.758  24.817  1.00  0.00    -0.455 OA
ATOM     15  C   UNL A   1      32.146  21.051  23.004  1.00  0.00     0.056 A 
BRANCH  12  16
ATOM     16  C   UNL A   1      32.734  17.518  23.966  1.00  0.00     0.144 C 
BRANCH  16  17
ATOM     17  S   UNL A   1      32.940  16.998  25.690  1.00  0.00    -0.157 SA
ATOM     18  C   UNL A   1      32.545  15.239  25.509  1.00  0.00     0.085 C 
ENDBRANCH  16  17
ENDBRANCH  12  16
ENDBRANCH   8  11
ENDBRANCH   6   7
BRANCH   6  19
ATOM     19  C   UNL A   1      34.354  24.601  25.403  1.00  0.00     0.090 C 
BRANCH  19  20
ATOM     20  C   UNL A   1      34.026  25.181  24.075  1.00  0.00     0.037 A 
ATOM     21  C   UNL A   1      33.934  24.590  22.831  1.00  0.00     0.134 A 
ATOM     22  N   UNL A   1      33.665  26.491  23.861  1.00  0.00    -0.348 N 
ATOM     23  N   UNL A   1      33.653  25.522  21.870  1.00  0.00    -0.245 NA
ATOM     24  C   UNL A   1      33.499  26.655  22.514  1.00  0.00     0.196 A 
ATOM     25  H   UNL A   1      33.547  27.182  24.551  1.00  0.00     0.167 HD
ENDBRANCH  19  20
ENDBRANCH   6  19
ENDBRANCH   3   6
ENDBRANCH   1   2
BRANCH   1  26
ATOM     26  C   UNL A   1      37.347  20.923  24.618  1.00  0.00     0.042 C 
BRANCH  26  27
ATOM     27  C   UNL A   1      38.392  20.975  25.721  1.00  0.00     0.118 C 
BRANCH  27  28
ATOM     28  N   UNL A   1      39.392  19.914  25.628  1.00  0.00    -0.352 N 
ATOM     29  C   UNL A   1      40.736  19.902  25.937  1.00  0.00     0.251 C 
ATOM     30  H   UNL A   1      39.047  19.060  25.285  1.00  0.00     0.163 HD
ATOM     31  O   UNL A   1      41.418  18.921  25.675  1.00  0.00    -0.269 OA
BRANCH  29  32
ATOM     32  C   UNL A   1      41.369  21.089  26.549  1.00  0.00     0.039 A 
ATOM     33  C   UNL A   1      41.894  22.087  25.722  1.00  0.00     0.014 A 
ATOM     34  C   UNL A   1      41.432  21.228  27.932  1.00  0.00     0.014 A 
ATOM     35  C   UNL A   1      42.378  23.272  26.286  1.00  0.00     0.010 A 
ATOM     36  C   UNL A   1      41.795  22.447  28.484  1.00  0.00     0.010 A 
ATOM     37  C   UNL A   1      42.276  23.484  27.668  1.00  0.00    -0.014 A 
BRANCH  37  38
ATOM     38  C   UNL A   1      42.688  24.752  28.322  1.00  0.00     0.031 A 
ATOM     39  C   UNL A   1      41.652  25.815  28.572  1.00  0.00     0.074 A 
ATOM     40  C   UNL A   1      43.988  25.003  28.569  1.00  0.00     0.049 A 
ATOM     41  N   UNL A   1      41.812  27.077  28.874  1.00  0.00    -0.248 NA
ATOM     42  C   UNL A   1      40.246  25.411  28.402  1.00  0.00     0.031 C 
ATOM     43  C   UNL A   1      45.098  24.074  28.341  1.00  0.00     0.029 A 
ATOM     44  N   UNL A   1      44.600  26.135  29.046  1.00  0.00    -0.354 N 
ATOM     45  C   UNL A   1      40.536  27.627  28.871  1.00  0.00     0.074 A 
ATOM     46  C   UNL A   1      39.619  26.573  28.496  1.00  0.00     0.031 C 
ATOM     47  C   UNL A   1      46.250  24.666  28.697  1.00  0.00     0.029 A 
ATOM     48  C   UNL A   1      45.968  26.033  29.126  1.00  0.00     0.049 A 
ATOM     49  H   UNL A   1      44.106  26.946  29.307  1.00  0.00     0.167 HD
ATOM     50  C   UNL A   1      40.160  28.891  29.174  1.00  0.00     0.037 A 
ATOM     51  C   UNL A   1      46.891  26.944  29.488  1.00  0.00     0.037 A 
ATOM     52  C   UNL A   1      41.067  29.913  29.618  1.00  0.00     0.049 A 
ATOM     53  C   UNL A   1      46.444  28.329  29.868  1.00  0.00     0.074 A 
ATOM     54  C   UNL A   1      40.784  31.211  30.004  1.00  0.00     0.029 A 
ATOM     55  N   UNL A   1      42.435  29.741  29.759  1.00  0.00    -0.354 N 
ATOM     56  N   UNL A   1      45.232  28.833  29.875  1.00  0.00    -0.248 NA
ATOM     57  C   UNL A   1      47.489  29.272  30.291  1.00  0.00     0.031 C 
ATOM     58  C   UNL A   1      41.985  31.829  30.369  1.00  0.00     0.029 A 
ATOM     59  C   UNL A   1      43.010  30.905  30.235  1.00  0.00     0.049 A 
ATOM     60  H   UNL A   1      42.925  28.913  29.550  1.00  0.00     0.167 HD
ATOM     61  C   UNL A   1      45.367  30.136  30.336  1.00  0.00     0.074 A 
ATOM     62  C   UNL A   1      46.775  30.345  30.600  1.00  0.00     0.031 C 
ATOM     63  C   UNL A   1      44.409  31.074  30.526  1.00  0.00     0.037 A 
BRANCH  50  64
ATOM     64  C   UNL A   1      38.703  29.226  29.050  1.00  0.00     0.057 A 
ATOM     65  C   UNL A   1      37.834  29.157  30.147  1.00  0.00     0.134 A 
ATOM     66  C   UNL A   1      38.164  29.634  27.823  1.00  0.00     0.134 A 
ATOM     67  F   UNL A   1      38.284  28.757  31.345  1.00  0.00    -0.206 F 
ATOM     68  C   UNL A   1      36.476  29.451  30.021  1.00  0.00     0.040 A 
ATOM     69  C   UNL A   1      36.813  29.958  27.692  1.00  0.00     0.040 A 
ATOM     70  F   UNL A   1      38.942  29.726  26.734  1.00  0.00    -0.206 F 
ATOM     71  C   UNL A   1      35.963  29.860  28.791  1.00  0.00     0.006 A 
ENDBRANCH  50  64
BRANCH  51  72
ATOM     72  C   UNL A   1      48.328  26.575  29.537  1.00  0.00     0.057 A 
ATOM     73  C   UNL A   1      49.168  26.832  28.447  1.00  0.00     0.134 A 
ATOM     74  C   UNL A   1      48.893  25.953  30.655  1.00  0.00     0.134 A 
ATOM     75  F   UNL A   1      48.679  27.411  27.341  1.00  0.00    -0.206 F 
ATOM     76  C   UNL A   1      50.514  26.462  28.457  1.00  0.00     0.040 A 
ATOM     77  C   UNL A   1      50.243  25.598  30.688  1.00  0.00     0.040 A 
ATOM     78  F   UNL A   1      48.143  25.688  31.735  1.00  0.00    -0.206 F 
ATOM     79  C   UNL A   1      51.055  25.846  29.583  1.00  0.00     0.006 A 
ENDBRANCH  51  72
BRANCH  63  80
ATOM     80  C   UNL A   1      44.838  32.386  31.107  1.00  0.00     0.057 A 
ATOM     81  C   UNL A   1      44.912  32.595  32.488  1.00  0.00     0.134 A 
ATOM     82  C   UNL A   1      45.242  33.431  30.267  1.00  0.00     0.134 A 
ATOM     83  F   UNL A   1      44.526  31.636  33.343  1.00  0.00    -0.206 F 
ATOM     84  C   UNL A   1      45.364  33.805  33.016  1.00  0.00     0.040 A 
ATOM     85  C   UNL A   1      45.717  34.638  30.782  1.00  0.00     0.040 A 
ATOM     86  F   UNL A   1      45.201  33.288  28.934  1.00  0.00    -0.206 F 
ATOM     87  C   UNL A   1      45.777  34.827  32.161  1.00  0.00     0.006 A 
ENDBRANCH  63  80
ENDBRANCH  37  38
ENDBRANCH  29  32
ENDBRANCH  27  28
ENDBRANCH  26  27
ENDBRANCH   1  26
TORSDOF 16
ENDMDL
