MODEL 1
REMARK VINA RESULT:     -12.6      0.000      0.000
REMARK SMILES Nc1cc(C(=O)NCCCNC(=O)c2ccc(-c3c4nc(c(-c5c(F)cccc5F)c5ccc([nH]5)c(-c5c(F)cccc5F)c5nc(c(-c6c(F)cccc6F)c6ccc3[nH]6)C=C5)C=C4)cc2)ccc1N1CC2(CCOCC2)C1
REMARK SMILES IDX 9 1 8 2 7 3 5 4 6 5 4 7 2 8 3 9 70 10 69 11 68 12 1 13 71 16
REMARK SMILES IDX 72 17 79 18 73 19 74 20 78 21 75 22 77 23 76 24 10 25 11 26
REMARK SMILES IDX 12 27 13 29 14 30 15 31 67 32 16 33 66 34 17 35 18 36 19 37
REMARK SMILES IDX 60 38 20 39 65 40 59 41 61 42 21 43 64 44 58 45 57 46 22 48
REMARK SMILES IDX 48 49 31 50 47 51 32 52 35 53 46 54 62 55 33 56 34 57 45 59
REMARK SMILES IDX 63 60 36 61 23 62 24 63 29 64 25 65 26 66 28 67 30 68 27 69
REMARK SMILES IDX 49 70 50 71 55 72 51 73 52 74 54 75 56 76 53 77 37 78 38 79
REMARK SMILES IDX 43 80 39 81 40 82 42 83 44 84 41 85
REMARK H PARENT 7 6 1 14 1 15 11 28 61 47 35 58
REMARK Flexibility Score: inf
ROOT
ATOM      1  C   UNL A   1      33.593  28.543  25.594  1.00  0.00     0.042 C 
ENDROOT
BRANCH   1   2
ATOM      2  C   UNL A   1      33.270  27.131  25.105  1.00  0.00     0.118 C 
BRANCH   2   3
ATOM      3  N   UNL A   1      33.446  27.033  23.670  1.00  0.00    -0.352 N 
ATOM      4  C   UNL A   1      33.654  25.982  22.819  1.00  0.00     0.251 C 
ATOM      5  O   UNL A   1      33.790  26.267  21.627  1.00  0.00    -0.269 OA
ATOM      6  H   UNL A   1      33.409  27.903  23.214  1.00  0.00     0.163 HD
BRANCH   4   7
ATOM      7  C   UNL A   1      33.675  24.548  23.228  1.00  0.00     0.041 A 
ATOM      8  C   UNL A   1      32.774  22.320  22.746  1.00  0.00     0.056 A 
ATOM      9  C   UNL A   1      32.869  23.687  22.467  1.00  0.00     0.041 A 
ATOM     10  C   UNL A   1      33.459  21.793  23.862  1.00  0.00     0.060 A 
ATOM     11  C   UNL A   1      34.280  22.643  24.611  1.00  0.00     0.029 A 
ATOM     12  C   UNL A   1      34.418  23.997  24.273  1.00  0.00     0.016 A 
BRANCH   8  13
ATOM     13  N   UNL A   1      31.859  21.555  22.023  1.00  0.00    -0.397 N 
ATOM     14  H   UNL A   1      31.969  21.447  21.050  1.00  0.00     0.156 HD
ATOM     15  H   UNL A   1      31.104  21.125  22.484  1.00  0.00     0.156 HD
ENDBRANCH   8  13
BRANCH  10  16
ATOM     16  N   UNL A   1      33.292  20.454  24.232  1.00  0.00    -0.369 N 
ATOM     17  C   UNL A   1      34.231  19.468  24.650  1.00  0.00     0.125 C 
ATOM     18  C   UNL A   1      32.154  19.713  24.664  1.00  0.00     0.125 C 
ATOM     19  C   UNL A   1      33.057  18.456  24.540  1.00  0.00     0.010 C 
ATOM     20  C   UNL A   1      32.935  17.421  25.654  1.00  0.00     0.039 C 
ATOM     21  C   UNL A   1      32.959  17.760  23.168  1.00  0.00     0.039 C 
ATOM     22  C   UNL A   1      33.995  16.344  25.440  1.00  0.00     0.161 C 
ATOM     23  C   UNL A   1      34.025  16.674  23.093  1.00  0.00     0.161 C 
ATOM     24  O   UNL A   1      33.844  15.736  24.155  1.00  0.00    -0.381 OA
ENDBRANCH  10  16
ENDBRANCH   4   7
ENDBRANCH   2   3
ENDBRANCH   1   2
BRANCH   1  25
ATOM     25  C   UNL A   1      33.995  28.590  27.068  1.00  0.00     0.118 C 
BRANCH  25  26
ATOM     26  N   UNL A   1      33.898  29.938  27.613  1.00  0.00    -0.352 N 
ATOM     27  C   UNL A   1      34.778  30.640  28.395  1.00  0.00     0.251 C 
ATOM     28  H   UNL A   1      33.070  30.419  27.385  1.00  0.00     0.163 HD
ATOM     29  O   UNL A   1      34.404  31.668  28.952  1.00  0.00    -0.269 OA
BRANCH  27  30
ATOM     30  C   UNL A   1      36.171  30.176  28.575  1.00  0.00     0.039 A 
ATOM     31  C   UNL A   1      37.045  30.237  27.485  1.00  0.00     0.014 A 
ATOM     32  C   UNL A   1      36.600  29.620  29.784  1.00  0.00     0.014 A 
ATOM     33  C   UNL A   1      38.359  29.785  27.621  1.00  0.00     0.010 A 
ATOM     34  C   UNL A   1      37.928  29.228  29.937  1.00  0.00     0.010 A 
ATOM     35  C   UNL A   1      38.818  29.299  28.855  1.00  0.00    -0.014 A 
BRANCH  35  36
ATOM     36  C   UNL A   1      40.223  28.854  29.032  1.00  0.00     0.031 A 
ATOM     37  C   UNL A   1      41.252  29.796  29.593  1.00  0.00     0.074 A 
ATOM     38  C   UNL A   1      40.584  27.620  28.628  1.00  0.00     0.049 A 
ATOM     39  N   UNL A   1      42.540  29.620  29.744  1.00  0.00    -0.248 NA
ATOM     40  C   UNL A   1      40.773  31.121  30.018  1.00  0.00     0.031 C 
ATOM     41  C   UNL A   1      39.687  26.629  28.034  1.00  0.00     0.029 A 
ATOM     42  N   UNL A   1      41.805  26.996  28.645  1.00  0.00    -0.354 N 
ATOM     43  C   UNL A   1      43.027  30.813  30.261  1.00  0.00     0.074 A 
ATOM     44  C   UNL A   1      41.904  31.721  30.358  1.00  0.00     0.031 C 
ATOM     45  C   UNL A   1      40.384  25.514  27.759  1.00  0.00     0.029 A 
ATOM     46  C   UNL A   1      41.781  25.726  28.124  1.00  0.00     0.049 A 
ATOM     47  H   UNL A   1      42.622  27.420  28.997  1.00  0.00     0.167 HD
ATOM     48  C   UNL A   1      44.291  31.118  30.640  1.00  0.00     0.037 A 
ATOM     49  C   UNL A   1      42.776  24.835  27.952  1.00  0.00     0.037 A 
ATOM     50  C   UNL A   1      45.401  30.204  30.568  1.00  0.00     0.049 A 
ATOM     51  C   UNL A   1      44.169  25.197  28.380  1.00  0.00     0.074 A 
ATOM     52  C   UNL A   1      46.708  30.399  30.979  1.00  0.00     0.029 A 
ATOM     53  N   UNL A   1      45.331  28.918  30.052  1.00  0.00    -0.354 N 
ATOM     54  N   UNL A   1      44.605  26.311  28.918  1.00  0.00    -0.248 NA
ATOM     55  C   UNL A   1      45.209  24.178  28.180  1.00  0.00     0.031 C 
ATOM     56  C   UNL A   1      47.438  29.243  30.678  1.00  0.00     0.029 A 
ATOM     57  C   UNL A   1      46.575  28.314  30.120  1.00  0.00     0.049 A 
ATOM     58  H   UNL A   1      44.518  28.497  29.692  1.00  0.00     0.167 HD
ATOM     59  C   UNL A   1      45.961  26.117  29.145  1.00  0.00     0.074 A 
ATOM     60  C   UNL A   1      46.273  24.776  28.698  1.00  0.00     0.031 C 
ATOM     61  C   UNL A   1      46.866  26.975  29.677  1.00  0.00     0.037 A 
BRANCH  48  62
ATOM     62  C   UNL A   1      44.540  32.500  31.171  1.00  0.00     0.057 A 
ATOM     63  C   UNL A   1      44.902  33.559  30.327  1.00  0.00     0.134 A 
ATOM     64  C   UNL A   1      44.384  32.784  32.533  1.00  0.00     0.134 A 
ATOM     65  F   UNL A   1      45.079  33.352  29.014  1.00  0.00    -0.206 F 
ATOM     66  C   UNL A   1      45.126  34.844  30.824  1.00  0.00     0.040 A 
ATOM     67  C   UNL A   1      44.581  34.071  33.038  1.00  0.00     0.040 A 
ATOM     68  F   UNL A   1      44.032  31.818  33.394  1.00  0.00    -0.206 F 
ATOM     69  C   UNL A   1      44.960  35.104  32.183  1.00  0.00     0.006 A 
ENDBRANCH  48  62
BRANCH  49  70
ATOM     70  C   UNL A   1      42.483  23.501  27.370  1.00  0.00     0.057 A 
ATOM     71  C   UNL A   1      42.586  23.281  25.992  1.00  0.00     0.134 A 
ATOM     72  C   UNL A   1      42.096  22.421  28.171  1.00  0.00     0.134 A 
ATOM     73  F   UNL A   1      42.935  24.283  25.172  1.00  0.00    -0.206 F 
ATOM     74  C   UNL A   1      42.297  22.037  25.428  1.00  0.00     0.040 A 
ATOM     75  C   UNL A   1      41.827  21.166  27.623  1.00  0.00     0.040 A 
ATOM     76  F   UNL A   1      41.988  22.567  29.500  1.00  0.00    -0.206 F 
ATOM     77  C   UNL A   1      41.921  20.973  26.246  1.00  0.00     0.006 A 
ENDBRANCH  49  70
BRANCH  61  78
ATOM     78  C   UNL A   1      48.271  26.474  29.836  1.00  0.00     0.057 A 
ATOM     79  C   UNL A   1      49.228  26.630  28.826  1.00  0.00     0.134 A 
ATOM     80  C   UNL A   1      48.677  25.861  31.028  1.00  0.00     0.134 A 
ATOM     81  F   UNL A   1      48.897  27.195  27.656  1.00  0.00    -0.206 F 
ATOM     82  C   UNL A   1      50.538  26.176  28.990  1.00  0.00     0.040 A 
ATOM     83  C   UNL A   1      49.990  25.424  31.212  1.00  0.00     0.040 A 
ATOM     84  F   UNL A   1      47.809  25.688  32.036  1.00  0.00    -0.206 F 
ATOM     85  C   UNL A   1      50.923  25.577  30.188  1.00  0.00     0.006 A 
ENDBRANCH  61  78
ENDBRANCH  35  36
ENDBRANCH  27  30
ENDBRANCH  25  26
ENDBRANCH   1  25
TORSDOF 12
ENDMDL
MODEL 2
REMARK VINA RESULT:     -12.3      2.161      7.878
REMARK SMILES Nc1cc(C(=O)NCCCNC(=O)c2ccc(-c3c4nc(c(-c5c(F)cccc5F)c5ccc([nH]5)c(-c5c(F)cccc5F)c5nc(c(-c6c(F)cccc6F)c6ccc3[nH]6)C=C5)C=C4)cc2)ccc1N1CC2(CCOCC2)C1
REMARK SMILES IDX 9 1 8 2 7 3 5 4 6 5 4 7 2 8 3 9 70 10 69 11 68 12 1 13 71 16
REMARK SMILES IDX 72 17 79 18 73 19 74 20 78 21 75 22 77 23 76 24 10 25 11 26
REMARK SMILES IDX 12 27 13 29 14 30 15 31 67 32 16 33 66 34 17 35 18 36 19 37
REMARK SMILES IDX 60 38 20 39 65 40 59 41 61 42 21 43 64 44 58 45 57 46 22 48
REMARK SMILES IDX 48 49 31 50 47 51 32 52 35 53 46 54 62 55 33 56 34 57 45 59
REMARK SMILES IDX 63 60 36 61 23 62 24 63 29 64 25 65 26 66 28 67 30 68 27 69
REMARK SMILES IDX 49 70 50 71 55 72 51 73 52 74 54 75 56 76 53 77 37 78 38 79
REMARK SMILES IDX 43 80 39 81 40 82 42 83 44 84 41 85
REMARK H PARENT 7 6 1 14 1 15 11 28 61 47 35 58
REMARK Flexibility Score: inf
ROOT
ATOM      1  C   UNL A   1      37.415  19.462  24.966  1.00  0.00     0.042 C 
ENDROOT
BRANCH   1   2
ATOM      2  C   UNL A   1      36.188  20.372  24.952  1.00  0.00     0.118 C 
BRANCH   2   3
ATOM      3  N   UNL A   1      34.969  19.591  24.984  1.00  0.00    -0.352 N 
ATOM      4  C   UNL A   1      33.650  19.912  25.162  1.00  0.00     0.251 C 
ATOM      5  O   UNL A   1      32.855  18.969  25.158  1.00  0.00    -0.269 OA
ATOM      6  H   UNL A   1      35.121  18.628  24.851  1.00  0.00     0.163 HD
BRANCH   4   7
ATOM      7  C   UNL A   1      33.126  21.301  25.305  1.00  0.00     0.041 A 
ATOM      8  C   UNL A   1      32.165  23.207  24.101  1.00  0.00     0.056 A 
ATOM      9  C   UNL A   1      32.666  21.902  24.123  1.00  0.00     0.041 A 
ATOM     10  C   UNL A   1      32.174  23.971  25.288  1.00  0.00     0.060 A 
ATOM     11  C   UNL A   1      32.612  23.369  26.472  1.00  0.00     0.029 A 
ATOM     12  C   UNL A   1      33.045  22.035  26.489  1.00  0.00     0.016 A 
BRANCH   8  13
ATOM     13  N   UNL A   1      31.843  23.775  22.869  1.00  0.00    -0.397 N 
ATOM     14  H   UNL A   1      31.034  23.485  22.390  1.00  0.00     0.156 HD
ATOM     15  H   UNL A   1      32.426  24.466  22.478  1.00  0.00     0.156 HD
ENDBRANCH   8  13
BRANCH  10  16
ATOM     16  N   UNL A   1      31.785  25.315  25.271  1.00  0.00    -0.369 N 
ATOM     17  C   UNL A   1      32.512  26.501  24.967  1.00  0.00     0.125 C 
ATOM     18  C   UNL A   1      30.509  25.944  25.193  1.00  0.00     0.125 C 
ATOM     19  C   UNL A   1      31.263  27.271  25.480  1.00  0.00     0.010 C 
ATOM     20  C   UNL A   1      30.825  28.487  24.669  1.00  0.00     0.039 C 
ATOM     21  C   UNL A   1      31.323  27.634  26.976  1.00  0.00     0.039 C 
ATOM     22  C   UNL A   1      31.769  29.647  24.977  1.00  0.00     0.161 C 
ATOM     23  C   UNL A   1      32.248  28.833  27.152  1.00  0.00     0.161 C 
ATOM     24  O   UNL A   1      31.773  29.936  26.378  1.00  0.00    -0.381 OA
ENDBRANCH  10  16
ENDBRANCH   4   7
ENDBRANCH   2   3
ENDBRANCH   1   2
BRANCH   1  25
ATOM     25  C   UNL A   1      38.701  20.193  25.354  1.00  0.00     0.118 C 
BRANCH  25  26
ATOM     26  N   UNL A   1      39.794  19.266  25.612  1.00  0.00    -0.352 N 
ATOM     27  C   UNL A   1      41.080  19.508  26.022  1.00  0.00     0.251 C 
ATOM     28  H   UNL A   1      39.576  18.317  25.470  1.00  0.00     0.163 HD
ATOM     29  O   UNL A   1      41.916  18.613  25.945  1.00  0.00    -0.269 OA
BRANCH  27  30
ATOM     30  C   UNL A   1      41.470  20.832  26.554  1.00  0.00     0.039 A 
ATOM     31  C   UNL A   1      41.340  21.069  27.926  1.00  0.00     0.014 A 
ATOM     32  C   UNL A   1      41.898  21.857  25.705  1.00  0.00     0.014 A 
ATOM     33  C   UNL A   1      41.680  22.317  28.452  1.00  0.00     0.010 A 
ATOM     34  C   UNL A   1      42.297  23.081  26.238  1.00  0.00     0.010 A 
ATOM     35  C   UNL A   1      42.185  23.325  27.616  1.00  0.00    -0.014 A 
BRANCH  35  36
ATOM     36  C   UNL A   1      42.593  24.643  28.161  1.00  0.00     0.031 A 
ATOM     37  C   UNL A   1      41.569  25.722  28.382  1.00  0.00     0.074 A 
ATOM     38  C   UNL A   1      43.897  24.889  28.400  1.00  0.00     0.049 A 
ATOM     39  N   UNL A   1      41.743  26.960  28.769  1.00  0.00    -0.248 NA
ATOM     40  C   UNL A   1      40.168  25.370  28.105  1.00  0.00     0.031 C 
ATOM     41  C   UNL A   1      44.988  23.937  28.190  1.00  0.00     0.029 A 
ATOM     42  N   UNL A   1      44.524  26.019  28.858  1.00  0.00    -0.354 N 
ATOM     43  C   UNL A   1      40.480  27.538  28.766  1.00  0.00     0.074 A 
ATOM     44  C   UNL A   1      39.555  26.530  28.296  1.00  0.00     0.031 C 
ATOM     45  C   UNL A   1      46.149  24.516  28.536  1.00  0.00     0.029 A 
ATOM     46  C   UNL A   1      45.888  25.889  28.956  1.00  0.00     0.049 A 
ATOM     47  H   UNL A   1      44.042  26.845  29.093  1.00  0.00     0.167 HD
ATOM     48  C   UNL A   1      40.121  28.790  29.139  1.00  0.00     0.037 A 
ATOM     49  C   UNL A   1      46.823  26.781  29.334  1.00  0.00     0.037 A 
ATOM     50  C   UNL A   1      41.039  29.783  29.632  1.00  0.00     0.049 A 
ATOM     51  C   UNL A   1      46.399  28.162  29.743  1.00  0.00     0.074 A 
ATOM     52  C   UNL A   1      40.766  31.061  30.088  1.00  0.00     0.029 A 
ATOM     53  N   UNL A   1      42.411  29.606  29.735  1.00  0.00    -0.354 N 
ATOM     54  N   UNL A   1      45.194  28.678  29.785  1.00  0.00    -0.248 NA
ATOM     55  C   UNL A   1      47.464  29.086  30.159  1.00  0.00     0.031 C 
ATOM     56  C   UNL A   1      41.977  31.670  30.433  1.00  0.00     0.029 A 
ATOM     57  C   UNL A   1      42.999  30.757  30.232  1.00  0.00     0.049 A 
ATOM     58  H   UNL A   1      42.894  28.785  29.491  1.00  0.00     0.167 HD
ATOM     59  C   UNL A   1      45.353  29.974  30.258  1.00  0.00     0.074 A 
ATOM     60  C   UNL A   1      46.769  30.162  30.499  1.00  0.00     0.031 C 
ATOM     61  C   UNL A   1      44.409  30.923  30.473  1.00  0.00     0.037 A 
BRANCH  48  62
ATOM     62  C   UNL A   1      38.668  29.154  29.031  1.00  0.00     0.057 A 
ATOM     63  C   UNL A   1      37.808  29.087  30.135  1.00  0.00     0.134 A 
ATOM     64  C   UNL A   1      38.132  29.607  27.820  1.00  0.00     0.134 A 
ATOM     65  F   UNL A   1      38.256  28.650  31.321  1.00  0.00    -0.206 F 
ATOM     66  C   UNL A   1      36.459  29.432  30.030  1.00  0.00     0.040 A 
ATOM     67  C   UNL A   1      36.790  29.979  27.709  1.00  0.00     0.040 A 
ATOM     68  F   UNL A   1      38.902  29.702  26.726  1.00  0.00    -0.206 F 
ATOM     69  C   UNL A   1      35.948  29.886  28.816  1.00  0.00     0.006 A 
ENDBRANCH  48  62
BRANCH  49  70
ATOM     70  C   UNL A   1      48.253  26.384  29.369  1.00  0.00     0.057 A 
ATOM     71  C   UNL A   1      49.089  26.613  28.271  1.00  0.00     0.134 A 
ATOM     72  C   UNL A   1      48.816  25.770  30.494  1.00  0.00     0.134 A 
ATOM     73  F   UNL A   1      48.602  27.182  27.158  1.00  0.00    -0.206 F 
ATOM     74  C   UNL A   1      50.431  26.230  28.282  1.00  0.00     0.040 A 
ATOM     75  C   UNL A   1      50.162  25.403  30.528  1.00  0.00     0.040 A 
ATOM     76  F   UNL A   1      48.068  25.531  31.581  1.00  0.00    -0.206 F 
ATOM     77  C   UNL A   1      50.972  25.627  29.416  1.00  0.00     0.006 A 
ENDBRANCH  49  70
BRANCH  61  78
ATOM     78  C   UNL A   1      44.876  32.237  31.028  1.00  0.00     0.057 A 
ATOM     79  C   UNL A   1      45.234  33.303  30.195  1.00  0.00     0.134 A 
ATOM     80  C   UNL A   1      44.930  32.446  32.411  1.00  0.00     0.134 A 
ATOM     81  F   UNL A   1      45.217  33.161  28.861  1.00  0.00    -0.206 F 
ATOM     82  C   UNL A   1      45.650  34.528  30.720  1.00  0.00     0.040 A 
ATOM     83  C   UNL A   1      45.322  33.673  32.948  1.00  0.00     0.040 A 
ATOM     84  F   UNL A   1      44.593  31.465  33.263  1.00  0.00    -0.206 F 
ATOM     85  C   UNL A   1      45.688  34.717  32.100  1.00  0.00     0.006 A 
ENDBRANCH  61  78
ENDBRANCH  35  36
ENDBRANCH  27  30
ENDBRANCH  25  26
ENDBRANCH   1  25
TORSDOF 12
ENDMDL
MODEL 3
REMARK VINA RESULT:     -12.2      3.184      6.843
REMARK SMILES Nc1cc(C(=O)NCCCNC(=O)c2ccc(-c3c4nc(c(-c5c(F)cccc5F)c5ccc([nH]5)c(-c5c(F)cccc5F)c5nc(c(-c6c(F)cccc6F)c6ccc3[nH]6)C=C5)C=C4)cc2)ccc1N1CC2(CCOCC2)C1
REMARK SMILES IDX 9 1 8 2 7 3 5 4 6 5 4 7 2 8 3 9 70 10 69 11 68 12 1 13 71 16
REMARK SMILES IDX 72 17 79 18 73 19 74 20 78 21 75 22 77 23 76 24 10 25 11 26
REMARK SMILES IDX 12 27 13 29 14 30 15 31 67 32 16 33 66 34 17 35 18 36 19 37
REMARK SMILES IDX 60 38 20 39 65 40 59 41 61 42 21 43 64 44 58 45 57 46 22 48
REMARK SMILES IDX 48 49 31 50 47 51 32 52 35 53 46 54 62 55 33 56 34 57 45 59
REMARK SMILES IDX 63 60 36 61 23 62 24 63 29 64 25 65 26 66 28 67 30 68 27 69
REMARK SMILES IDX 49 70 50 71 55 72 51 73 52 74 54 75 56 76 53 77 37 78 38 79
REMARK SMILES IDX 43 80 39 81 40 82 42 83 44 84 41 85
REMARK H PARENT 7 6 1 14 1 15 11 28 61 47 35 58
REMARK Flexibility Score: inf
ROOT
ATOM      1  C   UNL A   1      32.434  27.825  25.681  1.00  0.00     0.042 C 
ENDROOT
BRANCH   1   2
ATOM      2  C   UNL A   1      31.811  27.023  24.539  1.00  0.00     0.118 C 
BRANCH   2   3
ATOM      3  N   UNL A   1      32.681  27.018  23.381  1.00  0.00    -0.352 N 
ATOM      4  C   UNL A   1      33.451  26.055  22.787  1.00  0.00     0.251 C 
ATOM      5  O   UNL A   1      34.104  26.411  21.803  1.00  0.00    -0.269 OA
ATOM      6  H   UNL A   1      32.728  27.890  22.927  1.00  0.00     0.163 HD
BRANCH   4   7
ATOM      7  C   UNL A   1      33.507  24.628  23.215  1.00  0.00     0.041 A 
ATOM      8  C   UNL A   1      32.756  22.354  22.691  1.00  0.00     0.056 A 
ATOM      9  C   UNL A   1      32.808  23.722  22.402  1.00  0.00     0.041 A 
ATOM     10  C   UNL A   1      33.371  21.872  23.867  1.00  0.00     0.060 A 
ATOM     11  C   UNL A   1      34.085  22.768  24.669  1.00  0.00     0.029 A 
ATOM     12  C   UNL A   1      34.186  24.124  24.325  1.00  0.00     0.016 A 
BRANCH   8  13
ATOM     13  N   UNL A   1      31.942  21.539  21.906  1.00  0.00    -0.397 N 
ATOM     14  H   UNL A   1      31.958  21.627  20.925  1.00  0.00     0.156 HD
ATOM     15  H   UNL A   1      31.352  20.877  22.331  1.00  0.00     0.156 HD
ENDBRANCH   8  13
BRANCH  10  16
ATOM     16  N   UNL A   1      33.238  20.530  24.240  1.00  0.00    -0.369 N 
ATOM     17  C   UNL A   1      34.207  19.559  24.622  1.00  0.00     0.125 C 
ATOM     18  C   UNL A   1      32.128  19.771  24.711  1.00  0.00     0.125 C 
ATOM     19  C   UNL A   1      33.046  18.528  24.552  1.00  0.00     0.010 C 
ATOM     20  C   UNL A   1      32.980  17.490  25.668  1.00  0.00     0.039 C 
ATOM     21  C   UNL A   1      32.909  17.833  23.184  1.00  0.00     0.039 C 
ATOM     22  C   UNL A   1      34.048  16.429  25.414  1.00  0.00     0.161 C 
ATOM     23  C   UNL A   1      33.988  16.764  23.068  1.00  0.00     0.161 C 
ATOM     24  O   UNL A   1      33.860  15.821  24.133  1.00  0.00    -0.381 OA
ENDBRANCH  10  16
ENDBRANCH   4   7
ENDBRANCH   2   3
ENDBRANCH   1   2
BRANCH   1  25
ATOM     25  C   UNL A   1      33.183  29.070  25.202  1.00  0.00     0.118 C 
BRANCH  25  26
ATOM     26  N   UNL A   1      32.559  30.295  25.684  1.00  0.00    -0.352 N 
ATOM     27  C   UNL A   1      32.863  31.072  26.772  1.00  0.00     0.251 C 
ATOM     28  H   UNL A   1      31.800  30.615  25.145  1.00  0.00     0.163 HD
ATOM     29  O   UNL A   1      32.065  31.927  27.145  1.00  0.00    -0.269 OA
BRANCH  27  30
ATOM     30  C   UNL A   1      34.137  30.893  27.500  1.00  0.00     0.039 A 
ATOM     31  C   UNL A   1      34.987  31.994  27.648  1.00  0.00     0.014 A 
ATOM     32  C   UNL A   1      34.531  29.639  27.977  1.00  0.00     0.014 A 
ATOM     33  C   UNL A   1      36.207  31.848  28.312  1.00  0.00     0.010 A 
ATOM     34  C   UNL A   1      35.718  29.508  28.694  1.00  0.00     0.010 A 
ATOM     35  C   UNL A   1      36.571  30.609  28.862  1.00  0.00    -0.014 A 
BRANCH  35  36
ATOM     36  C   UNL A   1      37.842  30.444  29.609  1.00  0.00     0.031 A 
ATOM     37  C   UNL A   1      38.983  29.675  29.002  1.00  0.00     0.074 A 
ATOM     38  C   UNL A   1      37.947  30.934  30.860  1.00  0.00     0.049 A 
ATOM     39  N   UNL A   1      40.137  29.353  29.529  1.00  0.00    -0.248 NA
ATOM     40  C   UNL A   1      38.792  29.181  27.629  1.00  0.00     0.031 C 
ATOM     41  C   UNL A   1      36.898  31.664  31.571  1.00  0.00     0.029 A 
ATOM     42  N   UNL A   1      38.982  30.879  31.758  1.00  0.00    -0.354 N 
ATOM     43  C   UNL A   1      40.799  28.606  28.563  1.00  0.00     0.074 A 
ATOM     44  C   UNL A   1      39.902  28.485  27.435  1.00  0.00     0.031 C 
ATOM     45  C   UNL A   1      37.348  32.006  32.789  1.00  0.00     0.029 A 
ATOM     46  C   UNL A   1      38.702  31.488  32.957  1.00  0.00     0.049 A 
ATOM     47  H   UNL A   1      39.843  30.444  31.562  1.00  0.00     0.167 HD
ATOM     48  C   UNL A   1      42.049  28.085  28.606  1.00  0.00     0.037 A 
ATOM     49  C   UNL A   1      39.451  31.606  34.069  1.00  0.00     0.037 A 
ATOM     50  C   UNL A   1      42.949  28.230  29.720  1.00  0.00     0.049 A 
ATOM     51  C   UNL A   1      40.833  31.019  34.091  1.00  0.00     0.074 A 
ATOM     52  C   UNL A   1      44.255  27.787  29.837  1.00  0.00     0.029 A 
ATOM     53  N   UNL A   1      42.636  28.871  30.909  1.00  0.00    -0.354 N 
ATOM     54  N   UNL A   1      41.466  30.361  33.150  1.00  0.00    -0.248 NA
ATOM     55  C   UNL A   1      41.608  31.193  35.329  1.00  0.00     0.031 C 
ATOM     56  C   UNL A   1      44.720  28.128  31.112  1.00  0.00     0.029 A 
ATOM     57  C   UNL A   1      43.718  28.821  31.772  1.00  0.00     0.049 A 
ATOM     58  H   UNL A   1      41.772  29.298  31.110  1.00  0.00     0.167 HD
ATOM     59  C   UNL A   1      42.720  30.067  33.670  1.00  0.00     0.074 A 
ATOM     60  C   UNL A   1      42.762  30.628  35.005  1.00  0.00     0.031 C 
ATOM     61  C   UNL A   1      43.745  29.392  33.094  1.00  0.00     0.037 A 
BRANCH  48  62
ATOM     62  C   UNL A   1      42.516  27.310  27.408  1.00  0.00     0.057 A 
ATOM     63  C   UNL A   1      42.384  25.917  27.334  1.00  0.00     0.134 A 
ATOM     64  C   UNL A   1      43.074  27.966  26.303  1.00  0.00     0.134 A 
ATOM     65  F   UNL A   1      41.869  25.228  28.362  1.00  0.00    -0.206 F 
ATOM     66  C   UNL A   1      42.814  25.202  26.215  1.00  0.00     0.040 A 
ATOM     67  C   UNL A   1      43.484  27.264  25.168  1.00  0.00     0.040 A 
ATOM     68  F   UNL A   1      43.223  29.299  26.306  1.00  0.00    -0.206 F 
ATOM     69  C   UNL A   1      43.361  25.876  25.125  1.00  0.00     0.006 A 
ENDBRANCH  48  62
BRANCH  49  70
ATOM     70  C   UNL A   1      38.917  32.334  35.247  1.00  0.00     0.057 A 
ATOM     71  C   UNL A   1      38.289  31.649  36.292  1.00  0.00     0.134 A 
ATOM     72  C   UNL A   1      39.021  33.726  35.357  1.00  0.00     0.134 A 
ATOM     73  F   UNL A   1      38.144  30.317  36.234  1.00  0.00    -0.206 F 
ATOM     74  C   UNL A   1      37.766  32.321  37.398  1.00  0.00     0.040 A 
ATOM     75  C   UNL A   1      38.524  34.409  36.468  1.00  0.00     0.040 A 
ATOM     76  F   UNL A   1      39.620  34.439  34.393  1.00  0.00    -0.206 F 
ATOM     77  C   UNL A   1      37.888  33.707  37.490  1.00  0.00     0.006 A 
ENDBRANCH  49  70
BRANCH  61  78
ATOM     78  C   UNL A   1      45.008  29.256  33.891  1.00  0.00     0.057 A 
ATOM     79  C   UNL A   1      46.013  30.230  33.851  1.00  0.00     0.134 A 
ATOM     80  C   UNL A   1      45.201  28.155  34.734  1.00  0.00     0.134 A 
ATOM     81  F   UNL A   1      45.893  31.300  33.052  1.00  0.00    -0.206 F 
ATOM     82  C   UNL A   1      47.178  30.103  34.610  1.00  0.00     0.040 A 
ATOM     83  C   UNL A   1      46.352  28.029  35.515  1.00  0.00     0.040 A 
ATOM     84  F   UNL A   1      44.273  27.191  34.821  1.00  0.00    -0.206 F 
ATOM     85  C   UNL A   1      47.346  29.003  35.449  1.00  0.00     0.006 A 
ENDBRANCH  61  78
ENDBRANCH  35  36
ENDBRANCH  27  30
ENDBRANCH  25  26
ENDBRANCH   1  25
TORSDOF 12
ENDMDL
