MODEL 1
REMARK VINA RESULT:     -12.3      0.000      0.000
REMARK SMILES O=C(CNC(=O)N1CC(NCCCNC(=O)c2ccc(-c3c4nc(c(-c5c(F)cccc5F)c5ccc([nH]5)c(-c5c(F)cccc5F)c5nc(c(-c6c(F)cccc6F)c6ccc3[nH]6)C=C5)C=C4)cc2)=[NH+]c2ccccc21)N[C@H](C(=O)[O-])c1ccccc1
REMARK SMILES IDX 11 1 10 2 7 3 8 4 77 5 9 6 72 7 76 8 71 9 73 10 75 11 74 14
REMARK SMILES IDX 5 15 4 16 6 18 3 19 2 20 1 21 78 22 79 24 83 25 84 26 88 27
REMARK SMILES IDX 85 28 87 29 86 30 80 31 81 32 82 33 12 34 13 35 14 36 15 37
REMARK SMILES IDX 16 39 17 40 18 41 70 42 19 43 69 44 20 45 21 46 22 47 63 48
REMARK SMILES IDX 23 49 68 50 62 51 64 52 24 53 67 54 61 55 60 56 25 58 51 59
REMARK SMILES IDX 34 60 50 61 35 62 38 63 49 64 65 65 36 66 37 67 48 69 66 70
REMARK SMILES IDX 39 71 26 72 27 73 32 74 28 75 29 76 31 77 33 78 30 79 52 80
REMARK SMILES IDX 53 81 58 82 54 83 55 84 57 85 59 86 56 87 40 88 41 89 46 90
REMARK SMILES IDX 42 91 43 92 45 93 47 94 44 95
REMARK H PARENT 10 12 71 13 4 17 78 23 14 38 64 57 38 68
REMARK Flexibility Score: inf
ROOT
ATOM      1  C   UNL A   1      36.066  21.438  26.048  1.00  0.00     0.235 C 
ENDROOT
BRANCH   1   2
ATOM      2  N   UNL A   1      35.767  22.762  25.556  1.00  0.00    -0.277 N 
ATOM      3  N   UNL A   1      32.405  23.795  26.591  1.00  0.00    -0.278 N 
ATOM      4  C   UNL A   1      33.674  23.164  26.931  1.00  0.00     0.255 C 
ATOM      5  C   UNL A   1      32.500  25.191  26.347  1.00  0.00     0.093 A 
ATOM      6  C   UNL A   1      34.743  23.598  25.921  1.00  0.00     0.268 C 
ATOM      7  C   UNL A   1      33.689  25.662  25.757  1.00  0.00     0.148 A 
ATOM      8  C   UNL A   1      31.465  26.081  26.659  1.00  0.00     0.031 A 
ATOM      9  N   UNL A   1      34.741  24.794  25.393  1.00  0.00    -0.241 N 
ATOM     10  C   UNL A   1      33.795  27.015  25.432  1.00  0.00     0.054 A 
ATOM     11  C   UNL A   1      31.593  27.434  26.345  1.00  0.00     0.002 A 
ATOM     12  H   UNL A   1      36.378  23.109  24.866  1.00  0.00     0.304 HD
ATOM     13  H   UNL A   1      35.445  25.078  24.767  1.00  0.00     0.312 HD
ATOM     14  C   UNL A   1      32.751  27.898  25.721  1.00  0.00     0.005 A 
BRANCH   3  15
ATOM     15  C   UNL A   1      31.260  23.047  26.662  1.00  0.00     0.323 C 
ATOM     16  N   UNL A   1      30.961  22.186  25.654  1.00  0.00    -0.329 N 
ATOM     17  H   UNL A   1      30.010  21.947  25.566  1.00  0.00     0.165 HD
ATOM     18  O   UNL A   1      30.532  23.041  27.655  1.00  0.00    -0.248 OA
BRANCH  16  19
ATOM     19  C   UNL A   1      31.859  21.569  24.686  1.00  0.00     0.218 C 
BRANCH  19  20
ATOM     20  C   UNL A   1      31.799  22.333  23.368  1.00  0.00     0.240 C 
ATOM     21  O   UNL A   1      31.751  21.759  22.283  1.00  0.00    -0.273 OA
ATOM     22  N   UNL A   1      31.866  23.703  23.512  1.00  0.00    -0.342 N 
ATOM     23  H   UNL A   1      32.029  24.081  24.406  1.00  0.00     0.164 HD
BRANCH  22  24
ATOM     24  C   UNL A   1      31.702  24.614  22.374  1.00  0.00     0.158 C 
BRANCH  24  25
ATOM     25  C   UNL A   1      30.864  25.850  22.703  1.00  0.00    -0.020 A 
ATOM     26  C   UNL A   1      29.691  25.800  23.473  1.00  0.00     0.006 A 
ATOM     27  C   UNL A   1      31.313  27.123  22.293  1.00  0.00     0.006 A 
ATOM     28  C   UNL A   1      28.981  26.962  23.790  1.00  0.00     0.000 A 
ATOM     29  C   UNL A   1      30.599  28.284  22.604  1.00  0.00     0.000 A 
ATOM     30  C   UNL A   1      29.430  28.203  23.353  1.00  0.00     0.000 A 
ENDBRANCH  24  25
BRANCH  24  31
ATOM     31  C   UNL A   1      33.053  24.818  21.646  1.00  0.00     0.068 C 
ATOM     32  O   UNL A   1      33.254  24.851  20.436  1.00  0.00    -0.548 OA
ATOM     33  O   UNL A   1      34.133  24.808  22.466  1.00  0.00    -0.548 OA
ENDBRANCH  24  31
ENDBRANCH  22  24
ENDBRANCH  19  20
ENDBRANCH  16  19
ENDBRANCH   3  15
ENDBRANCH   1   2
BRANCH   1  34
ATOM     34  C   UNL A   1      36.904  20.653  25.044  1.00  0.00     0.067 C 
BRANCH  34  35
ATOM     35  C   UNL A   1      38.386  21.028  25.031  1.00  0.00     0.120 C 
BRANCH  35  36
ATOM     36  N   UNL A   1      39.263  19.904  25.334  1.00  0.00    -0.352 N 
ATOM     37  C   UNL A   1      40.497  19.867  25.936  1.00  0.00     0.251 C 
ATOM     38  H   UNL A   1      38.913  19.025  25.061  1.00  0.00     0.163 HD
ATOM     39  O   UNL A   1      41.133  18.814  25.940  1.00  0.00    -0.269 OA
BRANCH  37  40
ATOM     40  C   UNL A   1      41.080  21.074  26.558  1.00  0.00     0.039 A 
ATOM     41  C   UNL A   1      41.723  22.007  25.738  1.00  0.00     0.014 A 
ATOM     42  C   UNL A   1      41.028  21.278  27.939  1.00  0.00     0.014 A 
ATOM     43  C   UNL A   1      42.233  23.185  26.290  1.00  0.00     0.010 A 
ATOM     44  C   UNL A   1      41.477  22.481  28.480  1.00  0.00     0.010 A 
ATOM     45  C   UNL A   1      42.071  23.452  27.659  1.00  0.00    -0.014 A 
BRANCH  45  46
ATOM     46  C   UNL A   1      42.475  24.755  28.244  1.00  0.00     0.031 A 
ATOM     47  C   UNL A   1      41.469  25.849  28.450  1.00  0.00     0.074 A 
ATOM     48  C   UNL A   1      43.776  24.979  28.515  1.00  0.00     0.049 A 
ATOM     49  N   UNL A   1      41.655  27.076  28.866  1.00  0.00    -0.248 NA
ATOM     50  C   UNL A   1      40.071  25.527  28.127  1.00  0.00     0.031 C 
ATOM     51  C   UNL A   1      44.857  24.010  28.329  1.00  0.00     0.029 A 
ATOM     52  N   UNL A   1      44.410  26.098  28.993  1.00  0.00    -0.354 N 
ATOM     53  C   UNL A   1      40.404  27.679  28.838  1.00  0.00     0.074 A 
ATOM     54  C   UNL A   1      39.475  26.693  28.325  1.00  0.00     0.031 C 
ATOM     55  C   UNL A   1      46.016  24.567  28.714  1.00  0.00     0.029 A 
ATOM     56  C   UNL A   1      45.768  25.944  29.129  1.00  0.00     0.049 A 
ATOM     57  H   UNL A   1      43.937  26.932  29.216  1.00  0.00     0.167 HD
ATOM     58  C   UNL A   1      40.059  28.931  29.221  1.00  0.00     0.037 A 
ATOM     59  C   UNL A   1      46.710  26.816  29.532  1.00  0.00     0.037 A 
ATOM     60  C   UNL A   1      40.983  29.905  29.744  1.00  0.00     0.049 A 
ATOM     61  C   UNL A   1      46.310  28.214  29.907  1.00  0.00     0.074 A 
ATOM     62  C   UNL A   1      40.717  31.176  30.224  1.00  0.00     0.029 A 
ATOM     63  N   UNL A   1      42.354  29.719  29.843  1.00  0.00    -0.354 N 
ATOM     64  N   UNL A   1      45.116  28.751  29.937  1.00  0.00    -0.248 NA
ATOM     65  C   UNL A   1      47.392  29.128  30.297  1.00  0.00     0.031 C 
ATOM     66  C   UNL A   1      41.933  31.777  30.570  1.00  0.00     0.029 A 
ATOM     67  C   UNL A   1      42.952  30.864  30.346  1.00  0.00     0.049 A 
ATOM     68  H   UNL A   1      42.831  28.896  29.593  1.00  0.00     0.167 HD
ATOM     69  C   UNL A   1      45.296  30.057  30.371  1.00  0.00     0.074 A 
ATOM     70  C   UNL A   1      46.717  30.228  30.600  1.00  0.00     0.031 C 
ATOM     71  C   UNL A   1      44.367  31.025  30.564  1.00  0.00     0.037 A 
BRANCH  58  72
ATOM     72  C   UNL A   1      38.615  29.318  29.076  1.00  0.00     0.057 A 
ATOM     73  C   UNL A   1      37.737  29.324  30.168  1.00  0.00     0.134 A 
ATOM     74  C   UNL A   1      38.098  29.696  27.830  1.00  0.00     0.134 A 
ATOM     75  F   UNL A   1      38.166  28.963  31.387  1.00  0.00    -0.206 F 
ATOM     76  C   UNL A   1      36.388  29.654  30.020  1.00  0.00     0.040 A 
ATOM     77  C   UNL A   1      36.757  30.054  27.675  1.00  0.00     0.040 A 
ATOM     78  F   UNL A   1      38.884  29.721  26.744  1.00  0.00    -0.206 F 
ATOM     79  C   UNL A   1      35.897  30.025  28.770  1.00  0.00     0.006 A 
ENDBRANCH  58  72
BRANCH  59  80
ATOM     80  C   UNL A   1      48.124  26.378  29.630  1.00  0.00     0.057 A 
ATOM     81  C   UNL A   1      48.994  26.533  28.546  1.00  0.00     0.134 A 
ATOM     82  C   UNL A   1      48.644  25.820  30.804  1.00  0.00     0.134 A 
ATOM     83  F   UNL A   1      48.545  27.045  27.390  1.00  0.00    -0.206 F 
ATOM     84  C   UNL A   1      50.331  26.144  28.621  1.00  0.00     0.040 A 
ATOM     85  C   UNL A   1      49.985  25.444  30.900  1.00  0.00     0.040 A 
ATOM     86  F   UNL A   1      47.861  25.650  31.879  1.00  0.00    -0.206 F 
ATOM     87  C   UNL A   1      50.831  25.604  29.804  1.00  0.00     0.006 A 
ENDBRANCH  59  80
BRANCH  71  88
ATOM     88  C   UNL A   1      44.857  32.350  31.069  1.00  0.00     0.057 A 
ATOM     89  C   UNL A   1      45.204  33.389  30.197  1.00  0.00     0.134 A 
ATOM     90  C   UNL A   1      44.947  32.601  32.445  1.00  0.00     0.134 A 
ATOM     91  F   UNL A   1      45.155  33.206  28.869  1.00  0.00    -0.206 F 
ATOM     92  C   UNL A   1      45.640  34.626  30.675  1.00  0.00     0.040 A 
ATOM     93  C   UNL A   1      45.359  33.841  32.934  1.00  0.00     0.040 A 
ATOM     94  F   UNL A   1      44.625  31.649  33.333  1.00  0.00    -0.206 F 
ATOM     95  C   UNL A   1      45.711  34.856  32.047  1.00  0.00     0.006 A 
ENDBRANCH  71  88
ENDBRANCH  45  46
ENDBRANCH  37  40
ENDBRANCH  35  36
ENDBRANCH  34  35
ENDBRANCH   1  34
TORSDOF 15
ENDMDL
MODEL 2
REMARK VINA RESULT:     -12.0      3.208      8.089
REMARK SMILES O=C(CNC(=O)N1CC(NCCCNC(=O)c2ccc(-c3c4nc(c(-c5c(F)cccc5F)c5ccc([nH]5)c(-c5c(F)cccc5F)c5nc(c(-c6c(F)cccc6F)c6ccc3[nH]6)C=C5)C=C4)cc2)=[NH+]c2ccccc21)N[C@H](C(=O)[O-])c1ccccc1
REMARK SMILES IDX 11 1 10 2 7 3 8 4 77 5 9 6 72 7 76 8 71 9 73 10 75 11 74 14
REMARK SMILES IDX 5 15 4 16 6 18 3 19 2 20 1 21 78 22 79 24 83 25 84 26 88 27
REMARK SMILES IDX 85 28 87 29 86 30 80 31 81 32 82 33 12 34 13 35 14 36 15 37
REMARK SMILES IDX 16 39 17 40 18 41 70 42 19 43 69 44 20 45 21 46 22 47 63 48
REMARK SMILES IDX 23 49 68 50 62 51 64 52 24 53 67 54 61 55 60 56 25 58 51 59
REMARK SMILES IDX 34 60 50 61 35 62 38 63 49 64 65 65 36 66 37 67 48 69 66 70
REMARK SMILES IDX 39 71 26 72 27 73 32 74 28 75 29 76 31 77 33 78 30 79 52 80
REMARK SMILES IDX 53 81 58 82 54 83 55 84 57 85 59 86 56 87 40 88 41 89 46 90
REMARK SMILES IDX 42 91 43 92 45 93 47 94 44 95
REMARK H PARENT 10 12 71 13 4 17 78 23 14 38 64 57 38 68
REMARK Flexibility Score: inf
ROOT
ATOM      1  C   UNL A   1      32.542  29.694  24.971  1.00  0.00     0.235 C 
ENDROOT
BRANCH   1   2
ATOM      2  N   UNL A   1      32.974  28.433  25.526  1.00  0.00    -0.277 N 
ATOM      3  N   UNL A   1      33.519  25.972  22.863  1.00  0.00    -0.278 N 
ATOM      4  C   UNL A   1      33.678  27.336  23.350  1.00  0.00     0.255 C 
ATOM      5  C   UNL A   1      34.276  25.009  23.580  1.00  0.00     0.093 A 
ATOM      6  C   UNL A   1      33.514  27.354  24.874  1.00  0.00     0.268 C 
ATOM      7  C   UNL A   1      34.467  25.237  24.958  1.00  0.00     0.148 A 
ATOM      8  C   UNL A   1      34.811  23.867  22.972  1.00  0.00     0.031 A 
ATOM      9  N   UNL A   1      33.915  26.355  25.617  1.00  0.00    -0.241 N 
ATOM     10  C   UNL A   1      35.143  24.279  25.715  1.00  0.00     0.054 A 
ATOM     11  C   UNL A   1      35.500  22.927  23.740  1.00  0.00     0.002 A 
ATOM     12  H   UNL A   1      32.865  28.335  26.499  1.00  0.00     0.304 HD
ATOM     13  H   UNL A   1      33.834  26.383  26.597  1.00  0.00     0.312 HD
ATOM     14  C   UNL A   1      35.655  23.127  25.111  1.00  0.00     0.005 A 
BRANCH   3  15
ATOM     15  C   UNL A   1      32.788  25.763  21.724  1.00  0.00     0.323 C 
ATOM     16  N   UNL A   1      31.433  25.853  21.773  1.00  0.00    -0.329 N 
ATOM     17  H   UNL A   1      30.946  25.371  21.066  1.00  0.00     0.165 HD
ATOM     18  O   UNL A   1      33.311  25.595  20.621  1.00  0.00    -0.248 OA
BRANCH  16  19
ATOM     19  C   UNL A   1      30.602  26.571  22.732  1.00  0.00     0.218 C 
BRANCH  19  20
ATOM     20  C   UNL A   1      30.171  25.626  23.848  1.00  0.00     0.240 C 
ATOM     21  O   UNL A   1      29.122  25.783  24.467  1.00  0.00    -0.273 OA
ATOM     22  N   UNL A   1      31.090  24.637  24.130  1.00  0.00    -0.342 N 
ATOM     23  H   UNL A   1      31.963  24.653  23.674  1.00  0.00     0.164 HD
BRANCH  22  24
ATOM     24  C   UNL A   1      30.807  23.560  25.085  1.00  0.00     0.158 C 
BRANCH  24  25
ATOM     25  C   UNL A   1      31.633  22.298  24.839  1.00  0.00    -0.020 A 
ATOM     26  C   UNL A   1      31.772  21.706  23.573  1.00  0.00     0.006 A 
ATOM     27  C   UNL A   1      32.365  21.727  25.902  1.00  0.00     0.006 A 
ATOM     28  C   UNL A   1      32.577  20.578  23.383  1.00  0.00     0.000 A 
ATOM     29  C   UNL A   1      33.163  20.595  25.713  1.00  0.00     0.000 A 
ATOM     30  C   UNL A   1      33.268  20.019  24.452  1.00  0.00     0.000 A 
ENDBRANCH  24  25
BRANCH  24  31
ATOM     31  C   UNL A   1      30.740  24.121  26.526  1.00  0.00     0.068 C 
ATOM     32  O   UNL A   1      31.500  24.928  27.052  1.00  0.00    -0.548 OA
ATOM     33  O   UNL A   1      29.814  23.519  27.314  1.00  0.00    -0.548 OA
ENDBRANCH  24  31
ENDBRANCH  22  24
ENDBRANCH  19  20
ENDBRANCH  16  19
ENDBRANCH   3  15
ENDBRANCH   1   2
BRANCH   1  34
ATOM     34  C   UNL A   1      31.702  30.478  25.974  1.00  0.00     0.067 C 
BRANCH  34  35
ATOM     35  C   UNL A   1      32.500  31.084  27.128  1.00  0.00     0.120 C 
BRANCH  35  36
ATOM     36  N   UNL A   1      32.278  32.516  27.287  1.00  0.00    -0.352 N 
ATOM     37  C   UNL A   1      33.016  33.470  27.944  1.00  0.00     0.251 C 
ATOM     38  H   UNL A   1      31.464  32.856  26.850  1.00  0.00     0.163 HD
ATOM     39  O   UNL A   1      32.548  34.598  28.088  1.00  0.00    -0.269 OA
BRANCH  37  40
ATOM     40  C   UNL A   1      34.348  33.155  28.501  1.00  0.00     0.039 A 
ATOM     41  C   UNL A   1      34.424  32.534  29.752  1.00  0.00     0.014 A 
ATOM     42  C   UNL A   1      35.519  33.495  27.819  1.00  0.00     0.014 A 
ATOM     43  C   UNL A   1      35.667  32.173  30.276  1.00  0.00     0.010 A 
ATOM     44  C   UNL A   1      36.754  33.077  28.310  1.00  0.00     0.010 A 
ATOM     45  C   UNL A   1      36.839  32.400  29.537  1.00  0.00    -0.014 A 
BRANCH  45  46
ATOM     46  C   UNL A   1      38.156  31.900  30.004  1.00  0.00     0.031 A 
ATOM     47  C   UNL A   1      38.708  30.600  29.497  1.00  0.00     0.074 A 
ATOM     48  C   UNL A   1      38.820  32.586  30.956  1.00  0.00     0.049 A 
ATOM     49  N   UNL A   1      39.796  29.967  29.857  1.00  0.00    -0.248 NA
ATOM     50  C   UNL A   1      37.923  29.910  28.463  1.00  0.00     0.031 C 
ATOM     51  C   UNL A   1      38.376  33.846  31.555  1.00  0.00     0.029 A 
ATOM     52  N   UNL A   1      40.003  32.312  31.595  1.00  0.00    -0.354 N 
ATOM     53  C   UNL A   1      39.818  28.797  29.109  1.00  0.00     0.074 A 
ATOM     54  C   UNL A   1      38.613  28.790  28.305  1.00  0.00     0.031 C 
ATOM     55  C   UNL A   1      39.287  34.249  32.454  1.00  0.00     0.029 A 
ATOM     56  C   UNL A   1      40.354  33.256  32.528  1.00  0.00     0.049 A 
ATOM     57  H   UNL A   1      40.548  31.515  31.403  1.00  0.00     0.167 HD
ATOM     58  C   UNL A   1      40.763  27.827  29.080  1.00  0.00     0.037 A 
ATOM     59  C   UNL A   1      41.411  33.312  33.359  1.00  0.00     0.037 A 
ATOM     60  C   UNL A   1      41.968  27.843  29.870  1.00  0.00     0.049 A 
ATOM     61  C   UNL A   1      42.423  32.203  33.343  1.00  0.00     0.074 A 
ATOM     62  C   UNL A   1      43.018  26.942  29.860  1.00  0.00     0.029 A 
ATOM     63  N   UNL A   1      42.275  28.805  30.822  1.00  0.00    -0.354 N 
ATOM     64  N   UNL A   1      42.465  31.135  32.585  1.00  0.00    -0.248 NA
ATOM     65  C   UNL A   1      43.529  32.304  34.304  1.00  0.00     0.031 C 
ATOM     66  C   UNL A   1      43.940  27.333  30.838  1.00  0.00     0.029 A 
ATOM     67  C   UNL A   1      43.485  28.501  31.428  1.00  0.00     0.049 A 
ATOM     68  H   UNL A   1      41.718  29.587  31.034  1.00  0.00     0.167 HD
ATOM     69  C   UNL A   1      43.611  30.447  32.958  1.00  0.00     0.074 A 
ATOM     70  C   UNL A   1      44.241  31.225  34.007  1.00  0.00     0.031 C 
ATOM     71  C   UNL A   1      44.099  29.279  32.474  1.00  0.00     0.037 A 
BRANCH  58  72
ATOM     72  C   UNL A   1      40.520  26.661  28.166  1.00  0.00     0.057 A 
ATOM     73  C   UNL A   1      39.629  25.632  28.501  1.00  0.00     0.134 A 
ATOM     74  C   UNL A   1      41.178  26.569  26.933  1.00  0.00     0.134 A 
ATOM     75  F   UNL A   1      38.973  25.655  29.671  1.00  0.00    -0.206 F 
ATOM     76  C   UNL A   1      39.431  24.535  27.661  1.00  0.00     0.040 A 
ATOM     77  C   UNL A   1      40.968  25.489  26.073  1.00  0.00     0.040 A 
ATOM     78  F   UNL A   1      42.038  27.523  26.546  1.00  0.00    -0.206 F 
ATOM     79  C   UNL A   1      40.099  24.464  26.440  1.00  0.00     0.006 A 
ENDBRANCH  58  72
BRANCH  59  80
ATOM     80  C   UNL A   1      41.581  34.482  34.255  1.00  0.00     0.057 A 
ATOM     81  C   UNL A   1      42.232  35.635  33.804  1.00  0.00     0.134 A 
ATOM     82  C   UNL A   1      41.084  34.488  35.563  1.00  0.00     0.134 A 
ATOM     83  F   UNL A   1      42.745  35.679  32.566  1.00  0.00    -0.206 F 
ATOM     84  C   UNL A   1      42.388  36.753  34.623  1.00  0.00     0.040 A 
ATOM     85  C   UNL A   1      41.216  35.607  36.388  1.00  0.00     0.040 A 
ATOM     86  F   UNL A   1      40.446  33.414  36.051  1.00  0.00    -0.206 F 
ATOM     87  C   UNL A   1      41.873  36.742  35.918  1.00  0.00     0.006 A 
ENDBRANCH  59  80
BRANCH  71  88
ATOM     88  C   UNL A   1      45.388  28.782  33.058  1.00  0.00     0.057 A 
ATOM     89  C   UNL A   1      46.630  29.177  32.546  1.00  0.00     0.134 A 
ATOM     90  C   UNL A   1      45.386  27.928  34.168  1.00  0.00     0.134 A 
ATOM     91  F   UNL A   1      46.699  29.982  31.474  1.00  0.00    -0.206 F 
ATOM     92  C   UNL A   1      47.825  28.726  33.107  1.00  0.00     0.040 A 
ATOM     93  C   UNL A   1      46.575  27.489  34.752  1.00  0.00     0.040 A 
ATOM     94  F   UNL A   1      44.230  27.516  34.709  1.00  0.00    -0.206 F 
ATOM     95  C   UNL A   1      47.800  27.885  34.217  1.00  0.00     0.006 A 
ENDBRANCH  71  88
ENDBRANCH  45  46
ENDBRANCH  37  40
ENDBRANCH  35  36
ENDBRANCH  34  35
ENDBRANCH   1  34
TORSDOF 15
ENDMDL
MODEL 3
REMARK VINA RESULT:     -12.0      1.823      2.552
REMARK SMILES O=C(CNC(=O)N1CC(NCCCNC(=O)c2ccc(-c3c4nc(c(-c5c(F)cccc5F)c5ccc([nH]5)c(-c5c(F)cccc5F)c5nc(c(-c6c(F)cccc6F)c6ccc3[nH]6)C=C5)C=C4)cc2)=[NH+]c2ccccc21)N[C@H](C(=O)[O-])c1ccccc1
REMARK SMILES IDX 11 1 10 2 7 3 8 4 77 5 9 6 72 7 76 8 71 9 73 10 75 11 74 14
REMARK SMILES IDX 5 15 4 16 6 18 3 19 2 20 1 21 78 22 79 24 83 25 84 26 88 27
REMARK SMILES IDX 85 28 87 29 86 30 80 31 81 32 82 33 12 34 13 35 14 36 15 37
REMARK SMILES IDX 16 39 17 40 18 41 70 42 19 43 69 44 20 45 21 46 22 47 63 48
REMARK SMILES IDX 23 49 68 50 62 51 64 52 24 53 67 54 61 55 60 56 25 58 51 59
REMARK SMILES IDX 34 60 50 61 35 62 38 63 49 64 65 65 36 66 37 67 48 69 66 70
REMARK SMILES IDX 39 71 26 72 27 73 32 74 28 75 29 76 31 77 33 78 30 79 52 80
REMARK SMILES IDX 53 81 58 82 54 83 55 84 57 85 59 86 56 87 40 88 41 89 46 90
REMARK SMILES IDX 42 91 43 92 45 93 47 94 44 95
REMARK H PARENT 10 12 71 13 4 17 78 23 14 38 64 57 38 68
REMARK Flexibility Score: inf
ROOT
ATOM      1  C   UNL A   1      35.739  21.494  26.134  1.00  0.00     0.235 C 
ENDROOT
BRANCH   1   2
ATOM      2  N   UNL A   1      35.493  22.837  25.665  1.00  0.00    -0.277 N 
ATOM      3  N   UNL A   1      32.136  23.948  26.633  1.00  0.00    -0.278 N 
ATOM      4  C   UNL A   1      33.376  23.272  26.992  1.00  0.00     0.255 C 
ATOM      5  C   UNL A   1      32.279  25.345  26.425  1.00  0.00     0.093 A 
ATOM      6  C   UNL A   1      34.484  23.695  26.021  1.00  0.00     0.268 C 
ATOM      7  C   UNL A   1      33.497  25.793  25.877  1.00  0.00     0.148 A 
ATOM      8  C   UNL A   1      31.263  26.259  26.729  1.00  0.00     0.031 A 
ATOM      9  N   UNL A   1      34.533  24.903  25.522  1.00  0.00    -0.241 N 
ATOM     10  C   UNL A   1      33.652  27.150  25.588  1.00  0.00     0.054 A 
ATOM     11  C   UNL A   1      31.439  27.615  26.450  1.00  0.00     0.002 A 
ATOM     12  H   UNL A   1      36.133  23.181  25.000  1.00  0.00     0.304 HD
ATOM     13  H   UNL A   1      35.262  25.179  24.922  1.00  0.00     0.312 HD
ATOM     14  C   UNL A   1      32.627  28.058  25.869  1.00  0.00     0.005 A 
BRANCH   3  15
ATOM     15  C   UNL A   1      30.968  23.234  26.656  1.00  0.00     0.323 C 
ATOM     16  N   UNL A   1      30.705  22.350  25.658  1.00  0.00    -0.329 N 
ATOM     17  H   UNL A   1      29.755  22.134  25.519  1.00  0.00     0.165 HD
ATOM     18  O   UNL A   1      30.181  23.279  27.603  1.00  0.00    -0.248 OA
BRANCH  16  19
ATOM     19  C   UNL A   1      31.642  21.679  24.766  1.00  0.00     0.218 C 
BRANCH  19  20
ATOM     20  C   UNL A   1      31.774  22.470  23.469  1.00  0.00     0.240 C 
ATOM     21  O   UNL A   1      31.923  21.920  22.382  1.00  0.00    -0.273 OA
ATOM     22  N   UNL A   1      31.773  23.838  23.646  1.00  0.00    -0.342 N 
ATOM     23  H   UNL A   1      31.775  24.201  24.561  1.00  0.00     0.164 HD
BRANCH  22  24
ATOM     24  C   UNL A   1      31.768  24.769  22.512  1.00  0.00     0.158 C 
BRANCH  24  25
ATOM     25  C   UNL A   1      30.989  26.055  22.787  1.00  0.00    -0.020 A 
ATOM     26  C   UNL A   1      31.415  27.319  22.348  1.00  0.00     0.006 A 
ATOM     27  C   UNL A   1      29.740  25.986  23.440  1.00  0.00     0.006 A 
ATOM     28  C   UNL A   1      30.647  28.465  22.579  1.00  0.00     0.000 A 
ATOM     29  C   UNL A   1      28.976  27.133  23.677  1.00  0.00     0.000 A 
ATOM     30  C   UNL A   1      29.431  28.374  23.247  1.00  0.00     0.000 A 
ENDBRANCH  24  25
BRANCH  24  31
ATOM     31  C   UNL A   1      33.188  24.890  21.906  1.00  0.00     0.068 C 
ATOM     32  O   UNL A   1      34.254  24.982  22.507  1.00  0.00    -0.548 OA
ATOM     33  O   UNL A   1      33.204  25.059  20.560  1.00  0.00    -0.548 OA
ENDBRANCH  24  31
ENDBRANCH  22  24
ENDBRANCH  19  20
ENDBRANCH  16  19
ENDBRANCH   3  15
ENDBRANCH   1   2
BRANCH   1  34
ATOM     34  C   UNL A   1      36.303  20.616  25.022  1.00  0.00     0.067 C 
BRANCH  34  35
ATOM     35  C   UNL A   1      37.775  20.875  24.701  1.00  0.00     0.120 C 
BRANCH  35  36
ATOM     36  N   UNL A   1      38.670  19.879  25.279  1.00  0.00    -0.352 N 
ATOM     37  C   UNL A   1      39.832  20.027  25.995  1.00  0.00     0.251 C 
ATOM     38  H   UNL A   1      38.395  18.946  25.130  1.00  0.00     0.163 HD
ATOM     39  O   UNL A   1      40.516  19.034  26.243  1.00  0.00    -0.269 OA
BRANCH  37  40
ATOM     40  C   UNL A   1      40.285  21.357  26.451  1.00  0.00     0.039 A 
ATOM     41  C   UNL A   1      41.372  21.433  27.328  1.00  0.00     0.014 A 
ATOM     42  C   UNL A   1      39.630  22.525  26.049  1.00  0.00     0.014 A 
ATOM     43  C   UNL A   1      41.857  22.680  27.730  1.00  0.00     0.010 A 
ATOM     44  C   UNL A   1      40.154  23.768  26.396  1.00  0.00     0.010 A 
ATOM     45  C   UNL A   1      41.280  23.858  27.229  1.00  0.00    -0.014 A 
BRANCH  45  46
ATOM     46  C   UNL A   1      41.864  25.190  27.525  1.00  0.00     0.031 A 
ATOM     47  C   UNL A   1      41.077  26.222  28.280  1.00  0.00     0.074 A 
ATOM     48  C   UNL A   1      43.082  25.498  27.038  1.00  0.00     0.049 A 
ATOM     49  N   UNL A   1      41.390  27.464  28.552  1.00  0.00    -0.248 NA
ATOM     50  C   UNL A   1      39.756  25.810  28.775  1.00  0.00     0.031 C 
ATOM     51  C   UNL A   1      43.934  24.596  26.261  1.00  0.00     0.029 A 
ATOM     52  N   UNL A   1      43.807  26.660  27.112  1.00  0.00    -0.354 N 
ATOM     53  C   UNL A   1      40.300  27.987  29.235  1.00  0.00     0.074 A 
ATOM     54  C   UNL A   1      39.302  26.940  29.297  1.00  0.00     0.031 C 
ATOM     55  C   UNL A   1      45.078  25.229  25.955  1.00  0.00     0.029 A 
ATOM     56  C   UNL A   1      45.020  26.592  26.471  1.00  0.00     0.049 A 
ATOM     57  H   UNL A   1      43.489  27.466  27.579  1.00  0.00     0.167 HD
ATOM     58  C   UNL A   1      40.151  29.221  29.776  1.00  0.00     0.037 A 
ATOM     59  C   UNL A   1      45.975  27.526  26.307  1.00  0.00     0.037 A 
ATOM     60  C   UNL A   1      41.151  30.256  29.724  1.00  0.00     0.049 A 
ATOM     61  C   UNL A   1      45.769  28.901  26.875  1.00  0.00     0.074 A 
ATOM     62  C   UNL A   1      41.122  31.514  30.301  1.00  0.00     0.029 A 
ATOM     63  N   UNL A   1      42.357  30.157  29.044  1.00  0.00    -0.354 N 
ATOM     64  N   UNL A   1      44.761  29.363  27.573  1.00  0.00    -0.248 NA
ATOM     65  C   UNL A   1      46.830  29.885  26.624  1.00  0.00     0.031 C 
ATOM     66  C   UNL A   1      42.289  32.193  29.932  1.00  0.00     0.029 A 
ATOM     67  C   UNL A   1      43.065  31.343  29.161  1.00  0.00     0.049 A 
ATOM     68  H   UNL A   1      42.664  29.362  28.552  1.00  0.00     0.167 HD
ATOM     69  C   UNL A   1      45.074  30.683  27.866  1.00  0.00     0.074 A 
ATOM     70  C   UNL A   1      46.372  30.945  27.276  1.00  0.00     0.031 C 
ATOM     71  C   UNL A   1      44.353  31.594  28.564  1.00  0.00     0.037 A 
BRANCH  58  72
ATOM     72  C   UNL A   1      38.849  29.515  30.461  1.00  0.00     0.057 A 
ATOM     73  C   UNL A   1      37.768  30.093  29.781  1.00  0.00     0.134 A 
ATOM     74  C   UNL A   1      38.669  29.210  31.817  1.00  0.00     0.134 A 
ATOM     75  F   UNL A   1      37.877  30.418  28.484  1.00  0.00    -0.206 F 
ATOM     76  C   UNL A   1      36.570  30.392  30.433  1.00  0.00     0.040 A 
ATOM     77  C   UNL A   1      37.467  29.480  32.472  1.00  0.00     0.040 A 
ATOM     78  F   UNL A   1      39.659  28.648  32.526  1.00  0.00    -0.206 F 
ATOM     79  C   UNL A   1      36.416  30.082  31.782  1.00  0.00     0.006 A 
ENDBRANCH  58  72
BRANCH  59  80
ATOM     80  C   UNL A   1      47.230  27.178  25.597  1.00  0.00     0.057 A 
ATOM     81  C   UNL A   1      47.374  27.450  24.233  1.00  0.00     0.134 A 
ATOM     82  C   UNL A   1      48.315  26.593  26.260  1.00  0.00     0.134 A 
ATOM     83  F   UNL A   1      46.360  27.993  23.543  1.00  0.00    -0.206 F 
ATOM     84  C   UNL A   1      48.551  27.147  23.548  1.00  0.00     0.040 A 
ATOM     85  C   UNL A   1      49.506  26.302  25.592  1.00  0.00     0.040 A 
ATOM     86  F   UNL A   1      48.240  26.313  27.569  1.00  0.00    -0.206 F 
ATOM     87  C   UNL A   1      49.624  26.577  24.231  1.00  0.00     0.006 A 
ENDBRANCH  59  80
BRANCH  71  88
ATOM     88  C   UNL A   1      44.961  32.953  28.746  1.00  0.00     0.057 A 
ATOM     89  C   UNL A   1      45.837  33.233  29.802  1.00  0.00     0.134 A 
ATOM     90  C   UNL A   1      44.696  33.982  27.834  1.00  0.00     0.134 A 
ATOM     91  F   UNL A   1      46.119  32.294  30.719  1.00  0.00    -0.206 F 
ATOM     92  C   UNL A   1      46.415  34.494  29.954  1.00  0.00     0.040 A 
ATOM     93  C   UNL A   1      45.286  35.240  27.962  1.00  0.00     0.040 A 
ATOM     94  F   UNL A   1      43.869  33.778  26.798  1.00  0.00    -0.206 F 
ATOM     95  C   UNL A   1      46.145  35.500  29.028  1.00  0.00     0.006 A 
ENDBRANCH  71  88
ENDBRANCH  45  46
ENDBRANCH  37  40
ENDBRANCH  35  36
ENDBRANCH  34  35
ENDBRANCH   1  34
TORSDOF 15
ENDMDL
