MODEL 1
REMARK VINA RESULT:     -11.9      0.000      0.000
REMARK SMILES C[C@H]1[C@H](C(=O)NCCCNC(=O)c2ccc(-c3c4nc(c(-c5c(F)cccc5F)c5ccc([nH]5)c(-c5c(F)cccc5F)c5nc(c(-c6c(F)cccc6F)c6ccc3[nH]6)C=C5)C=C4)cc2)CC[N@@H+]1Cc1cnn(-c2ccccc2)c1
REMARK SMILES IDX 7 1 6 2 4 3 5 4 3 6 1 7 2 8 69 9 67 10 68 11 70 13 71 14
REMARK SMILES IDX 72 15 81 16 73 17 74 18 75 19 76 20 80 21 77 22 79 23 78 24
REMARK SMILES IDX 8 25 9 26 10 27 11 28 12 30 13 31 14 32 66 33 15 34 65 35
REMARK SMILES IDX 16 36 17 37 18 38 59 39 19 40 64 41 58 42 60 43 20 44 63 45
REMARK SMILES IDX 57 46 56 47 21 49 47 50 30 51 46 52 31 53 34 54 45 55 61 56
REMARK SMILES IDX 32 57 33 58 44 60 62 61 35 62 22 63 23 64 28 65 24 66 25 67
REMARK SMILES IDX 27 68 29 69 26 70 48 71 49 72 54 73 50 74 51 75 53 76 55 77
REMARK SMILES IDX 52 78 36 79 37 80 42 81 38 82 39 83 41 84 43 85 40 86
REMARK H PARENT 6 5 69 12 10 29 60 48 34 59
REMARK Flexibility Score: inf
ROOT
ATOM      1  C   UNL A   1      31.758  30.058  25.650  1.00  0.00     0.117 C 
ENDROOT
BRANCH   1   2
ATOM      2  N   UNL A   1      32.676  29.029  25.234  1.00  0.00    -0.356 N 
ATOM      3  C   UNL A   1      32.410  27.806  24.713  1.00  0.00     0.229 C 
ATOM      4  O   UNL A   1      33.222  27.382  23.883  1.00  0.00    -0.275 OA
ATOM      5  H   UNL A   1      33.630  29.244  25.343  1.00  0.00     0.163 HD
BRANCH   3   6
ATOM      6  C   UNL A   1      31.224  26.939  25.109  1.00  0.00     0.142 C 
ATOM      7  C   UNL A   1      29.168  26.624  23.735  1.00  0.00     0.076 C 
ATOM      8  C   UNL A   1      30.544  26.020  24.080  1.00  0.00     0.193 C 
ATOM      9  N   UNL A   1      30.351  24.716  24.749  1.00  0.00    -0.328 N 
ATOM     10  C   UNL A   1      31.467  26.062  26.329  1.00  0.00     0.081 C 
ATOM     11  C   UNL A   1      30.411  24.974  26.182  1.00  0.00     0.263 C 
ATOM     12  H   UNL A   1      29.432  24.362  24.484  1.00  0.00     0.348 HD
BRANCH   9  13
ATOM     13  C   UNL A   1      31.069  23.527  24.245  1.00  0.00     0.302 C 
BRANCH  13  14
ATOM     14  C   UNL A   1      32.538  23.653  23.914  1.00  0.00     0.045 A 
ATOM     15  C   UNL A   1      33.196  23.835  22.675  1.00  0.00     0.145 A 
ATOM     16  C   UNL A   1      33.601  23.780  24.797  1.00  0.00     0.124 A 
ATOM     17  N   UNL A   1      34.520  23.705  22.748  1.00  0.00    -0.176 NA
ATOM     18  N   UNL A   1      34.774  23.658  24.069  1.00  0.00    -0.240 N 
BRANCH  18  19
ATOM     19  C   UNL A   1      35.994  23.127  24.548  1.00  0.00     0.065 A 
ATOM     20  C   UNL A   1      36.804  23.875  25.400  1.00  0.00     0.028 A 
ATOM     21  C   UNL A   1      36.320  21.798  24.243  1.00  0.00     0.028 A 
ATOM     22  C   UNL A   1      37.920  23.269  25.988  1.00  0.00     0.002 A 
ATOM     23  C   UNL A   1      37.404  21.186  24.875  1.00  0.00     0.002 A 
ATOM     24  C   UNL A   1      38.202  21.921  25.751  1.00  0.00     0.000 A 
ENDBRANCH  18  19
ENDBRANCH  13  14
ENDBRANCH   9  13
ENDBRANCH   3   6
ENDBRANCH   1   2
BRANCH   1  25
ATOM     25  C   UNL A   1      32.209  30.854  26.874  1.00  0.00     0.042 C 
BRANCH  25  26
ATOM     26  C   UNL A   1      33.646  30.500  27.257  1.00  0.00     0.118 C 
BRANCH  26  27
ATOM     27  N   UNL A   1      34.172  31.374  28.294  1.00  0.00    -0.352 N 
ATOM     28  C   UNL A   1      35.248  31.292  29.136  1.00  0.00     0.251 C 
ATOM     29  H   UNL A   1      33.645  32.197  28.415  1.00  0.00     0.163 HD
ATOM     30  O   UNL A   1      35.312  32.060  30.097  1.00  0.00    -0.269 OA
BRANCH  28  31
ATOM     31  C   UNL A   1      36.267  30.242  28.995  1.00  0.00     0.039 A 
ATOM     32  C   UNL A   1      36.977  30.188  27.790  1.00  0.00     0.014 A 
ATOM     33  C   UNL A   1      36.627  29.421  30.058  1.00  0.00     0.014 A 
ATOM     34  C   UNL A   1      38.175  29.494  27.736  1.00  0.00     0.010 A 
ATOM     35  C   UNL A   1      37.879  28.847  30.057  1.00  0.00     0.010 A 
ATOM     36  C   UNL A   1      38.682  28.943  28.917  1.00  0.00    -0.014 A 
BRANCH  36  37
ATOM     37  C   UNL A   1      40.108  28.606  29.037  1.00  0.00     0.031 A 
ATOM     38  C   UNL A   1      41.074  29.639  29.507  1.00  0.00     0.074 A 
ATOM     39  C   UNL A   1      40.504  27.407  28.566  1.00  0.00     0.049 A 
ATOM     40  N   UNL A   1      42.374  29.568  29.589  1.00  0.00    -0.248 NA
ATOM     41  C   UNL A   1      40.512  30.948  29.882  1.00  0.00     0.031 C 
ATOM     42  C   UNL A   1      39.621  26.395  27.968  1.00  0.00     0.029 A 
ATOM     43  N   UNL A   1      41.743  26.834  28.500  1.00  0.00    -0.354 N 
ATOM     44  C   UNL A   1      42.784  30.822  30.013  1.00  0.00     0.074 A 
ATOM     45  C   UNL A   1      41.608  31.658  30.093  1.00  0.00     0.031 C 
ATOM     46  C   UNL A   1      40.341  25.311  27.644  1.00  0.00     0.029 A 
ATOM     47  C   UNL A   1      41.734  25.563  27.976  1.00  0.00     0.049 A 
ATOM     48  H   UNL A   1      42.563  27.288  28.800  1.00  0.00     0.167 HD
ATOM     49  C   UNL A   1      44.034  31.220  30.340  1.00  0.00     0.037 A 
ATOM     50  C   UNL A   1      42.748  24.699  27.800  1.00  0.00     0.037 A 
ATOM     51  C   UNL A   1      45.176  30.351  30.257  1.00  0.00     0.049 A 
ATOM     52  C   UNL A   1      44.113  25.139  28.239  1.00  0.00     0.074 A 
ATOM     53  C   UNL A   1      46.490  30.607  30.595  1.00  0.00     0.029 A 
ATOM     54  N   UNL A   1      45.125  29.039  29.801  1.00  0.00    -0.354 N 
ATOM     55  N   UNL A   1      44.486  26.301  28.725  1.00  0.00    -0.248 NA
ATOM     56  C   UNL A   1      45.192  24.154  28.129  1.00  0.00     0.031 C 
ATOM     57  C   UNL A   1      47.239  29.455  30.323  1.00  0.00     0.029 A 
ATOM     58  C   UNL A   1      46.384  28.470  29.847  1.00  0.00     0.049 A 
ATOM     59  H   UNL A   1      44.310  28.581  29.490  1.00  0.00     0.167 HD
ATOM     60  C   UNL A   1      45.840  26.186  28.991  1.00  0.00     0.074 A 
ATOM     61  C   UNL A   1      46.215  24.829  28.636  1.00  0.00     0.031 C 
ATOM     62  C   UNL A   1      46.703  27.113  29.477  1.00  0.00     0.037 A 
BRANCH  49  63
ATOM     63  C   UNL A   1      44.192  32.633  30.818  1.00  0.00     0.057 A 
ATOM     64  C   UNL A   1      44.090  32.962  32.178  1.00  0.00     0.134 A 
ATOM     65  C   UNL A   1      44.396  33.682  29.916  1.00  0.00     0.134 A 
ATOM     66  F   UNL A   1      43.866  32.006  33.094  1.00  0.00    -0.206 F 
ATOM     67  C   UNL A   1      44.141  34.286  32.619  1.00  0.00     0.040 A 
ATOM     68  C   UNL A   1      44.480  35.009  30.347  1.00  0.00     0.040 A 
ATOM     69  F   UNL A   1      44.498  33.442  28.601  1.00  0.00    -0.206 F 
ATOM     70  C   UNL A   1      44.341  35.314  31.700  1.00  0.00     0.006 A 
ENDBRANCH  49  63
BRANCH  50  71
ATOM     71  C   UNL A   1      42.491  23.343  27.257  1.00  0.00     0.057 A 
ATOM     72  C   UNL A   1      42.685  23.062  25.899  1.00  0.00     0.134 A 
ATOM     73  C   UNL A   1      42.087  22.284  28.080  1.00  0.00     0.134 A 
ATOM     74  F   UNL A   1      43.070  24.033  25.059  1.00  0.00    -0.206 F 
ATOM     75  C   UNL A   1      42.468  21.787  25.375  1.00  0.00     0.040 A 
ATOM     76  C   UNL A   1      41.887  20.997  27.573  1.00  0.00     0.040 A 
ATOM     77  F   UNL A   1      41.906  22.478  29.395  1.00  0.00    -0.206 F 
ATOM     78  C   UNL A   1      42.072  20.748  26.214  1.00  0.00     0.006 A 
ENDBRANCH  50  71
BRANCH  62  79
ATOM     79  C   UNL A   1      48.120  26.668  29.653  1.00  0.00     0.057 A 
ATOM     80  C   UNL A   1      48.531  25.971  30.796  1.00  0.00     0.134 A 
ATOM     81  C   UNL A   1      49.071  26.913  28.657  1.00  0.00     0.134 A 
ATOM     82  F   UNL A   1      47.664  25.723  31.790  1.00  0.00    -0.206 F 
ATOM     83  C   UNL A   1      49.851  25.552  30.952  1.00  0.00     0.040 A 
ATOM     84  C   UNL A   1      50.387  26.477  28.790  1.00  0.00     0.040 A 
ATOM     85  F   UNL A   1      48.732  27.571  27.538  1.00  0.00    -0.206 F 
ATOM     86  C   UNL A   1      50.782  25.799  29.944  1.00  0.00     0.006 A 
ENDBRANCH  62  79
ENDBRANCH  36  37
ENDBRANCH  28  31
ENDBRANCH  26  27
ENDBRANCH  25  26
ENDBRANCH   1  25
TORSDOF 13
ENDMDL
MODEL 2
REMARK VINA RESULT:     -11.9      3.028      4.321
REMARK SMILES C[C@H]1[C@H](C(=O)NCCCNC(=O)c2ccc(-c3c4nc(c(-c5c(F)cccc5F)c5ccc([nH]5)c(-c5c(F)cccc5F)c5nc(c(-c6c(F)cccc6F)c6ccc3[nH]6)C=C5)C=C4)cc2)CC[N@@H+]1Cc1cnn(-c2ccccc2)c1
REMARK SMILES IDX 7 1 6 2 4 3 5 4 3 6 1 7 2 8 69 9 67 10 68 11 70 13 71 14
REMARK SMILES IDX 72 15 81 16 73 17 74 18 75 19 76 20 80 21 77 22 79 23 78 24
REMARK SMILES IDX 8 25 9 26 10 27 11 28 12 30 13 31 14 32 66 33 15 34 65 35
REMARK SMILES IDX 16 36 17 37 18 38 59 39 19 40 64 41 58 42 60 43 20 44 63 45
REMARK SMILES IDX 57 46 56 47 21 49 47 50 30 51 46 52 31 53 34 54 45 55 61 56
REMARK SMILES IDX 32 57 33 58 44 60 62 61 35 62 22 63 23 64 28 65 24 66 25 67
REMARK SMILES IDX 27 68 29 69 26 70 48 71 49 72 54 73 50 74 51 75 53 76 55 77
REMARK SMILES IDX 52 78 36 79 37 80 42 81 38 82 39 83 41 84 43 85 40 86
REMARK H PARENT 6 5 69 12 10 29 60 48 34 59
REMARK Flexibility Score: inf
ROOT
ATOM      1  C   UNL A   1      31.929  30.455  25.901  1.00  0.00     0.117 C 
ENDROOT
BRANCH   1   2
ATOM      2  N   UNL A   1      32.392  29.685  24.776  1.00  0.00    -0.356 N 
ATOM      3  C   UNL A   1      31.708  28.806  24.003  1.00  0.00     0.229 C 
ATOM      4  O   UNL A   1      32.036  28.761  22.812  1.00  0.00    -0.275 OA
ATOM      5  H   UNL A   1      33.336  29.814  24.534  1.00  0.00     0.163 HD
BRANCH   3   6
ATOM      6  C   UNL A   1      30.616  27.876  24.513  1.00  0.00     0.142 C 
ATOM      7  C   UNL A   1      28.436  27.476  23.371  1.00  0.00     0.076 C 
ATOM      8  C   UNL A   1      29.870  26.937  23.549  1.00  0.00     0.193 C 
ATOM      9  N   UNL A   1      29.816  25.617  24.211  1.00  0.00    -0.328 N 
ATOM     10  C   UNL A   1      31.036  26.996  25.681  1.00  0.00     0.081 C 
ATOM     11  C   UNL A   1      30.024  25.859  25.634  1.00  0.00     0.263 C 
ATOM     12  H   UNL A   1      28.892  25.221  24.045  1.00  0.00     0.348 HD
BRANCH   9  13
ATOM     13  C   UNL A   1      30.530  24.471  23.609  1.00  0.00     0.302 C 
BRANCH  13  14
ATOM     14  C   UNL A   1      32.020  24.581  23.386  1.00  0.00     0.045 A 
ATOM     15  C   UNL A   1      32.761  24.902  22.224  1.00  0.00     0.145 A 
ATOM     16  C   UNL A   1      33.028  24.546  24.338  1.00  0.00     0.124 A 
ATOM     17  N   UNL A   1      34.073  24.710  22.356  1.00  0.00    -0.176 NA
ATOM     18  N   UNL A   1      34.241  24.476  23.671  1.00  0.00    -0.240 N 
BRANCH  18  19
ATOM     19  C   UNL A   1      35.410  23.837  24.144  1.00  0.00     0.065 A 
ATOM     20  C   UNL A   1      35.888  24.096  25.427  1.00  0.00     0.028 A 
ATOM     21  C   UNL A   1      36.016  22.856  23.345  1.00  0.00     0.028 A 
ATOM     22  C   UNL A   1      36.948  23.332  25.929  1.00  0.00     0.002 A 
ATOM     23  C   UNL A   1      37.037  22.064  23.873  1.00  0.00     0.002 A 
ATOM     24  C   UNL A   1      37.500  22.300  25.167  1.00  0.00     0.000 A 
ENDBRANCH  18  19
ENDBRANCH  13  14
ENDBRANCH   9  13
ENDBRANCH   3   6
ENDBRANCH   1   2
BRANCH   1  25
ATOM     25  C   UNL A   1      32.625  30.131  27.222  1.00  0.00     0.042 C 
BRANCH  25  26
ATOM     26  C   UNL A   1      33.681  31.186  27.557  1.00  0.00     0.118 C 
BRANCH  26  27
ATOM     27  N   UNL A   1      33.123  32.528  27.606  1.00  0.00    -0.352 N 
ATOM     28  C   UNL A   1      33.431  33.647  28.332  1.00  0.00     0.251 C 
ATOM     29  H   UNL A   1      32.366  32.659  26.991  1.00  0.00     0.163 HD
ATOM     30  O   UNL A   1      32.626  34.579  28.359  1.00  0.00    -0.269 OA
BRANCH  28  31
ATOM     31  C   UNL A   1      34.638  33.724  29.167  1.00  0.00     0.039 A 
ATOM     32  C   UNL A   1      34.567  33.179  30.455  1.00  0.00     0.014 A 
ATOM     33  C   UNL A   1      35.849  34.183  28.665  1.00  0.00     0.014 A 
ATOM     34  C   UNL A   1      35.739  32.882  31.133  1.00  0.00     0.010 A 
ATOM     35  C   UNL A   1      37.016  33.767  29.267  1.00  0.00     0.010 A 
ATOM     36  C   UNL A   1      36.958  33.054  30.469  1.00  0.00    -0.014 A 
BRANCH  36  37
ATOM     37  C   UNL A   1      38.168  32.357  30.927  1.00  0.00     0.031 A 
ATOM     38  C   UNL A   1      38.992  32.947  32.020  1.00  0.00     0.074 A 
ATOM     39  C   UNL A   1      38.567  31.279  30.224  1.00  0.00     0.049 A 
ATOM     40  N   UNL A   1      40.136  32.539  32.497  1.00  0.00    -0.248 NA
ATOM     41  C   UNL A   1      38.493  34.196  32.623  1.00  0.00     0.031 C 
ATOM     42  C   UNL A   1      37.872  30.723  29.053  1.00  0.00     0.029 A 
ATOM     43  N   UNL A   1      39.651  30.460  30.375  1.00  0.00    -0.354 N 
ATOM     44  C   UNL A   1      40.497  33.484  33.444  1.00  0.00     0.074 A 
ATOM     45  C   UNL A   1      39.497  34.527  33.419  1.00  0.00     0.031 C 
ATOM     46  C   UNL A   1      38.521  29.631  28.627  1.00  0.00     0.029 A 
ATOM     47  C   UNL A   1      39.692  29.429  29.466  1.00  0.00     0.049 A 
ATOM     48  H   UNL A   1      40.336  30.596  31.067  1.00  0.00     0.167 HD
ATOM     49  C   UNL A   1      41.557  33.455  34.283  1.00  0.00     0.037 A 
ATOM     50  C   UNL A   1      40.578  28.427  29.343  1.00  0.00     0.037 A 
ATOM     51  C   UNL A   1      42.523  32.390  34.282  1.00  0.00     0.049 A 
ATOM     52  C   UNL A   1      41.704  28.377  30.334  1.00  0.00     0.074 A 
ATOM     53  C   UNL A   1      43.619  32.210  35.102  1.00  0.00     0.029 A 
ATOM     54  N   UNL A   1      42.494  31.312  33.405  1.00  0.00    -0.354 N 
ATOM     55  N   UNL A   1      41.996  29.229  31.290  1.00  0.00    -0.248 NA
ATOM     56  C   UNL A   1      42.609  27.227  30.247  1.00  0.00     0.031 C 
ATOM     57  C   UNL A   1      44.266  31.033  34.706  1.00  0.00     0.029 A 
ATOM     58  C   UNL A   1      43.553  30.461  33.662  1.00  0.00     0.049 A 
ATOM     59  H   UNL A   1      41.817  31.174  32.703  1.00  0.00     0.167 HD
ATOM     60  C   UNL A   1      43.111  28.715  31.930  1.00  0.00     0.074 A 
ATOM     61  C   UNL A   1      43.425  27.461  31.266  1.00  0.00     0.031 C 
ATOM     62  C   UNL A   1      43.821  29.226  32.966  1.00  0.00     0.037 A 
BRANCH  49  63
ATOM     63  C   UNL A   1      41.687  34.593  35.250  1.00  0.00     0.057 A 
ATOM     64  C   UNL A   1      42.483  35.712  34.962  1.00  0.00     0.134 A 
ATOM     65  C   UNL A   1      41.057  34.556  36.498  1.00  0.00     0.134 A 
ATOM     66  F   UNL A   1      43.138  35.798  33.794  1.00  0.00    -0.206 F 
ATOM     67  C   UNL A   1      42.683  36.730  35.897  1.00  0.00     0.040 A 
ATOM     68  C   UNL A   1      41.225  35.583  37.431  1.00  0.00     0.040 A 
ATOM     69  F   UNL A   1      40.285  33.515  36.843  1.00  0.00    -0.206 F 
ATOM     70  C   UNL A   1      42.048  36.668  37.135  1.00  0.00     0.006 A 
ENDBRANCH  49  63
BRANCH  50  71
ATOM     71  C   UNL A   1      40.390  27.383  28.307  1.00  0.00     0.057 A 
ATOM     72  C   UNL A   1      41.033  27.475  27.067  1.00  0.00     0.134 A 
ATOM     73  C   UNL A   1      39.601  26.248  28.538  1.00  0.00     0.134 A 
ATOM     74  F   UNL A   1      41.801  28.537  26.784  1.00  0.00    -0.206 F 
ATOM     75  C   UNL A   1      40.884  26.492  26.087  1.00  0.00     0.040 A 
ATOM     76  C   UNL A   1      39.460  25.246  27.575  1.00  0.00     0.040 A 
ATOM     77  F   UNL A   1      38.976  26.086  29.713  1.00  0.00    -0.206 F 
ATOM     78  C   UNL A   1      40.099  25.370  26.342  1.00  0.00     0.006 A 
ENDBRANCH  50  71
BRANCH  62  79
ATOM     79  C   UNL A   1      44.989  28.416  33.432  1.00  0.00     0.057 A 
ATOM     80  C   UNL A   1      44.844  27.418  34.403  1.00  0.00     0.134 A 
ATOM     81  C   UNL A   1      46.259  28.617  32.881  1.00  0.00     0.134 A 
ATOM     82  F   UNL A   1      43.652  27.194  34.977  1.00  0.00    -0.206 F 
ATOM     83  C   UNL A   1      45.934  26.660  34.830  1.00  0.00     0.040 A 
ATOM     84  C   UNL A   1      47.350  27.848  33.280  1.00  0.00     0.040 A 
ATOM     85  F   UNL A   1      46.454  29.555  31.942  1.00  0.00    -0.206 F 
ATOM     86  C   UNL A   1      47.190  26.870  34.262  1.00  0.00     0.006 A 
ENDBRANCH  62  79
ENDBRANCH  36  37
ENDBRANCH  28  31
ENDBRANCH  26  27
ENDBRANCH  25  26
ENDBRANCH   1  25
TORSDOF 13
ENDMDL
MODEL 3
REMARK VINA RESULT:     -11.9      4.376      9.061
REMARK SMILES C[C@H]1[C@H](C(=O)NCCCNC(=O)c2ccc(-c3c4nc(c(-c5c(F)cccc5F)c5ccc([nH]5)c(-c5c(F)cccc5F)c5nc(c(-c6c(F)cccc6F)c6ccc3[nH]6)C=C5)C=C4)cc2)CC[N@@H+]1Cc1cnn(-c2ccccc2)c1
REMARK SMILES IDX 7 1 6 2 4 3 5 4 3 6 1 7 2 8 69 9 67 10 68 11 70 13 71 14
REMARK SMILES IDX 72 15 81 16 73 17 74 18 75 19 76 20 80 21 77 22 79 23 78 24
REMARK SMILES IDX 8 25 9 26 10 27 11 28 12 30 13 31 14 32 66 33 15 34 65 35
REMARK SMILES IDX 16 36 17 37 18 38 59 39 19 40 64 41 58 42 60 43 20 44 63 45
REMARK SMILES IDX 57 46 56 47 21 49 47 50 30 51 46 52 31 53 34 54 45 55 61 56
REMARK SMILES IDX 32 57 33 58 44 60 62 61 35 62 22 63 23 64 28 65 24 66 25 67
REMARK SMILES IDX 27 68 29 69 26 70 48 71 49 72 54 73 50 74 51 75 53 76 55 77
REMARK SMILES IDX 52 78 36 79 37 80 42 81 38 82 39 83 41 84 43 85 40 86
REMARK H PARENT 6 5 69 12 10 29 60 48 34 59
REMARK Flexibility Score: inf
ROOT
ATOM      1  C   UNL A   1      38.378  22.137  25.678  1.00  0.00     0.117 C 
ENDROOT
BRANCH   1   2
ATOM      2  N   UNL A   1      37.172  22.338  26.438  1.00  0.00    -0.356 N 
ATOM      3  C   UNL A   1      35.928  22.652  26.000  1.00  0.00     0.229 C 
ATOM      4  O   UNL A   1      34.989  22.173  26.644  1.00  0.00    -0.275 OA
ATOM      5  H   UNL A   1      37.263  22.233  27.412  1.00  0.00     0.163 HD
BRANCH   3   6
ATOM      6  C   UNL A   1      35.634  23.563  24.816  1.00  0.00     0.142 C 
ATOM      7  C   UNL A   1      36.444  23.181  22.489  1.00  0.00     0.076 C 
ATOM      8  C   UNL A   1      35.253  22.974  23.448  1.00  0.00     0.193 C 
ATOM      9  N   UNL A   1      34.096  23.758  22.964  1.00  0.00    -0.328 N 
ATOM     10  C   UNL A   1      34.593  24.637  25.094  1.00  0.00     0.081 C 
ATOM     11  C   UNL A   1      34.115  25.017  23.698  1.00  0.00     0.263 C 
ATOM     12  H   UNL A   1      34.224  23.921  21.966  1.00  0.00     0.348 HD
BRANCH   9  13
ATOM     13  C   UNL A   1      32.787  23.093  22.795  1.00  0.00     0.302 C 
BRANCH  13  14
ATOM     14  C   UNL A   1      32.478  21.876  23.633  1.00  0.00     0.045 A 
ATOM     15  C   UNL A   1      31.991  21.763  24.957  1.00  0.00     0.145 A 
ATOM     16  C   UNL A   1      32.452  20.548  23.230  1.00  0.00     0.124 A 
ATOM     17  N   UNL A   1      32.026  20.519  25.436  1.00  0.00    -0.176 NA
ATOM     18  N   UNL A   1      32.326  19.762  24.364  1.00  0.00    -0.240 N 
BRANCH  18  19
ATOM     19  C   UNL A   1      32.844  18.458  24.529  1.00  0.00     0.065 A 
ATOM     20  C   UNL A   1      32.569  17.727  25.683  1.00  0.00     0.028 A 
ATOM     21  C   UNL A   1      33.545  17.869  23.466  1.00  0.00     0.028 A 
ATOM     22  C   UNL A   1      32.956  16.383  25.750  1.00  0.00     0.002 A 
ATOM     23  C   UNL A   1      33.880  16.514  23.521  1.00  0.00     0.002 A 
ATOM     24  C   UNL A   1      33.581  15.771  24.662  1.00  0.00     0.000 A 
ENDBRANCH  18  19
ENDBRANCH  13  14
ENDBRANCH   9  13
ENDBRANCH   3   6
ENDBRANCH   1   2
BRANCH   1  25
ATOM     25  C   UNL A   1      39.638  21.955  26.523  1.00  0.00     0.042 C 
BRANCH  25  26
ATOM     26  C   UNL A   1      40.122  23.296  27.077  1.00  0.00     0.118 C 
BRANCH  26  27
ATOM     27  N   UNL A   1      41.144  23.903  26.238  1.00  0.00    -0.352 N 
ATOM     28  C   UNL A   1      41.428  25.196  25.890  1.00  0.00     0.251 C 
ATOM     29  H   UNL A   1      41.760  23.248  25.838  1.00  0.00     0.163 HD
ATOM     30  O   UNL A   1      42.201  25.404  24.954  1.00  0.00    -0.269 OA
BRANCH  28  31
ATOM     31  C   UNL A   1      40.753  26.338  26.523  1.00  0.00     0.039 A 
ATOM     32  C   UNL A   1      39.757  26.057  27.466  1.00  0.00     0.014 A 
ATOM     33  C   UNL A   1      41.174  27.646  26.315  1.00  0.00     0.014 A 
ATOM     34  C   UNL A   1      39.361  27.046  28.353  1.00  0.00     0.010 A 
ATOM     35  C   UNL A   1      40.892  28.593  27.275  1.00  0.00     0.010 A 
ATOM     36  C   UNL A   1      40.038  28.270  28.334  1.00  0.00    -0.014 A 
BRANCH  36  37
ATOM     37  C   UNL A   1      39.997  29.169  29.497  1.00  0.00     0.031 A 
ATOM     38  C   UNL A   1      40.929  28.944  30.638  1.00  0.00     0.074 A 
ATOM     39  C   UNL A   1      39.001  30.076  29.545  1.00  0.00     0.049 A 
ATOM     40  N   UNL A   1      40.984  29.563  31.785  1.00  0.00    -0.248 NA
ATOM     41  C   UNL A   1      41.893  27.839  30.496  1.00  0.00     0.031 C 
ATOM     42  C   UNL A   1      37.969  30.261  28.514  1.00  0.00     0.029 A 
ATOM     43  N   UNL A   1      38.679  31.006  30.494  1.00  0.00    -0.354 N 
ATOM     44  C   UNL A   1      41.978  28.917  32.503  1.00  0.00     0.074 A 
ATOM     45  C   UNL A   1      42.443  27.810  31.699  1.00  0.00     0.031 C 
ATOM     46  C   UNL A   1      37.163  31.272  28.867  1.00  0.00     0.029 A 
ATOM     47  C   UNL A   1      37.596  31.782  30.158  1.00  0.00     0.049 A 
ATOM     48  H   UNL A   1      39.176  31.108  31.337  1.00  0.00     0.167 HD
ATOM     49  C   UNL A   1      42.477  29.250  33.715  1.00  0.00     0.037 A 
ATOM     50  C   UNL A   1      37.032  32.803  30.825  1.00  0.00     0.037 A 
ATOM     51  C   UNL A   1      41.993  30.368  34.477  1.00  0.00     0.049 A 
ATOM     52  C   UNL A   1      37.651  33.200  32.133  1.00  0.00     0.074 A 
ATOM     53  C   UNL A   1      42.432  30.846  35.696  1.00  0.00     0.029 A 
ATOM     54  N   UNL A   1      40.947  31.192  34.073  1.00  0.00    -0.354 N 
ATOM     55  N   UNL A   1      38.652  32.639  32.772  1.00  0.00    -0.248 NA
ATOM     56  C   UNL A   1      37.084  34.374  32.803  1.00  0.00     0.031 C 
ATOM     57  C   UNL A   1      41.637  31.947  36.040  1.00  0.00     0.029 A 
ATOM     58  C   UNL A   1      40.725  32.176  35.019  1.00  0.00     0.049 A 
ATOM     59  H   UNL A   1      40.440  31.089  33.236  1.00  0.00     0.167 HD
ATOM     60  C   UNL A   1      38.846  33.397  33.914  1.00  0.00     0.074 A 
ATOM     61  C   UNL A   1      37.873  34.474  33.864  1.00  0.00     0.031 C 
ATOM     62  C   UNL A   1      39.738  33.223  34.921  1.00  0.00     0.037 A 
BRANCH  49  63
ATOM     63  C   UNL A   1      43.592  28.399  34.245  1.00  0.00     0.057 A 
ATOM     64  C   UNL A   1      43.338  27.247  35.004  1.00  0.00     0.134 A 
ATOM     65  C   UNL A   1      44.930  28.755  34.044  1.00  0.00     0.134 A 
ATOM     66  F   UNL A   1      42.077  26.865  35.258  1.00  0.00    -0.206 F 
ATOM     67  C   UNL A   1      44.372  26.505  35.579  1.00  0.00     0.040 A 
ATOM     68  C   UNL A   1      45.974  28.003  34.589  1.00  0.00     0.040 A 
ATOM     69  F   UNL A   1      45.247  29.847  33.333  1.00  0.00    -0.206 F 
ATOM     70  C   UNL A   1      45.696  26.882  35.369  1.00  0.00     0.006 A 
ENDBRANCH  49  63
BRANCH  50  71
ATOM     71  C   UNL A   1      35.886  33.540  30.236  1.00  0.00     0.057 A 
ATOM     72  C   UNL A   1      36.047  34.313  29.080  1.00  0.00     0.134 A 
ATOM     73  C   UNL A   1      34.599  33.460  30.781  1.00  0.00     0.134 A 
ATOM     74  F   UNL A   1      37.254  34.430  28.510  1.00  0.00    -0.206 F 
ATOM     75  C   UNL A   1      34.977  34.997  28.500  1.00  0.00     0.040 A 
ATOM     76  C   UNL A   1      33.514  34.122  30.199  1.00  0.00     0.040 A 
ATOM     77  F   UNL A   1      34.371  32.718  31.875  1.00  0.00    -0.206 F 
ATOM     78  C   UNL A   1      33.704  34.898  29.057  1.00  0.00     0.006 A 
ENDBRANCH  50  71
BRANCH  62  79
ATOM     79  C   UNL A   1      39.693  34.229  36.026  1.00  0.00     0.057 A 
ATOM     80  C   UNL A   1      39.003  33.976  37.218  1.00  0.00     0.134 A 
ATOM     81  C   UNL A   1      40.370  35.448  35.906  1.00  0.00     0.134 A 
ATOM     82  F   UNL A   1      38.323  32.831  37.380  1.00  0.00    -0.206 F 
ATOM     83  C   UNL A   1      38.970  34.914  38.248  1.00  0.00     0.040 A 
ATOM     84  C   UNL A   1      40.365  36.383  36.939  1.00  0.00     0.040 A 
ATOM     85  F   UNL A   1      41.053  35.741  34.789  1.00  0.00    -0.206 F 
ATOM     86  C   UNL A   1      39.658  36.119  38.112  1.00  0.00     0.006 A 
ENDBRANCH  62  79
ENDBRANCH  36  37
ENDBRANCH  28  31
ENDBRANCH  26  27
ENDBRANCH  25  26
ENDBRANCH   1  25
TORSDOF 13
ENDMDL
