MODEL 1
REMARK VINA RESULT:     -13.8      0.000      0.000
REMARK SMILES CC1=Nc2c(c(C)nn2-c2ccc(F)cc2)[C@H](c2ccc(C(=O)NCCCNC(=O)c3ccc(-c4c5nc(c(-c6c(F)cccc6F)c6ccc([nH]6)c(-c6c(F)cccc6F)c6nc(c(-c7c(F)cccc7F)c7ccc4[nH]7)C=C6)C=C5)cc3)cc2)S1
REMARK SMILES IDX 26 1 25 2 24 3 22 4 23 5 21 7 18 8 19 9 86 10 20 11 85 12
REMARK SMILES IDX 17 13 1 14 2 15 3 16 87 17 4 18 5 19 9 20 6 21 8 22 7 23
REMARK SMILES IDX 10 24 11 25 16 26 12 27 15 28 13 29 14 30 27 31 28 32 29 33
REMARK SMILES IDX 30 35 31 36 32 37 84 38 33 39 83 40 34 41 35 42 36 43 77 44
REMARK SMILES IDX 37 45 82 46 76 47 78 48 38 49 81 50 75 51 74 52 39 54 65 55
REMARK SMILES IDX 48 56 64 57 49 58 52 59 63 60 79 61 50 62 51 63 62 65 80 66
REMARK SMILES IDX 53 67 40 68 41 69 46 70 42 71 43 72 45 73 47 74 44 75 66 76
REMARK SMILES IDX 67 77 72 78 68 79 69 80 71 81 73 82 70 83 54 84 55 85 60 86
REMARK SMILES IDX 56 87 57 88 59 89 61 90 58 91
REMARK H PARENT 24 6 28 34 78 53 52 64
REMARK Flexibility Score: inf
ROOT
ATOM      1  C   UNL A   1      32.276  29.996  26.922  1.00  0.00     0.042 C 
ENDROOT
BRANCH   1   2
ATOM      2  C   UNL A   1      32.524  29.825  25.418  1.00  0.00     0.118 C 
BRANCH   2   3
ATOM      3  N   UNL A   1      31.313  30.037  24.640  1.00  0.00    -0.352 N 
ATOM      4  C   UNL A   1      30.482  29.144  24.007  1.00  0.00     0.251 C 
ATOM      5  O   UNL A   1      29.442  29.563  23.502  1.00  0.00    -0.269 OA
ATOM      6  H   UNL A   1      31.042  30.979  24.553  1.00  0.00     0.163 HD
BRANCH   4   7
ATOM      7  C   UNL A   1      30.776  27.688  23.961  1.00  0.00     0.039 A 
ATOM      8  C   UNL A   1      31.373  24.919  24.002  1.00  0.00    -0.030 A 
ATOM      9  C   UNL A   1      31.267  25.656  25.195  1.00  0.00     0.006 A 
ATOM     10  C   UNL A   1      31.133  25.590  22.794  1.00  0.00     0.006 A 
ATOM     11  C   UNL A   1      30.960  27.020  25.176  1.00  0.00     0.014 A 
ATOM     12  C   UNL A   1      30.825  26.953  22.778  1.00  0.00     0.014 A 
BRANCH   8  13
ATOM     13  C   UNL A   1      31.671  23.427  24.066  1.00  0.00     0.119 C 
ATOM     14  C   UNL A   1      32.419  22.663  28.072  1.00  0.00     0.075 C 
ATOM     15  C   UNL A   1      32.625  22.739  26.581  1.00  0.00     0.074 C 
ATOM     16  N   UNL A   1      33.839  22.832  26.141  1.00  0.00    -0.227 NA
ATOM     17  S   UNL A   1      31.153  22.631  25.624  1.00  0.00    -0.098 SA
ATOM     18  C   UNL A   1      34.032  22.975  24.807  1.00  0.00     0.161 A 
ATOM     19  C   UNL A   1      33.125  23.292  23.822  1.00  0.00     0.038 A 
ATOM     20  N   UNL A   1      35.271  22.916  24.189  1.00  0.00    -0.215 N 
ATOM     21  C   UNL A   1      33.902  23.457  22.647  1.00  0.00     0.067 A 
ATOM     22  N   UNL A   1      35.211  23.338  22.899  1.00  0.00    -0.171 NA
ATOM     23  C   UNL A   1      33.445  23.766  21.268  1.00  0.00     0.069 C 
BRANCH  20  24
ATOM     24  C   UNL A   1      36.486  22.440  24.739  1.00  0.00     0.067 A 
ATOM     25  C   UNL A   1      37.330  23.324  25.430  1.00  0.00     0.031 A 
ATOM     26  C   UNL A   1      36.826  21.087  24.611  1.00  0.00     0.031 A 
ATOM     27  C   UNL A   1      38.515  22.852  25.990  1.00  0.00     0.041 A 
ATOM     28  C   UNL A   1      38.039  20.635  25.132  1.00  0.00     0.041 A 
ATOM     29  C   UNL A   1      38.867  21.518  25.821  1.00  0.00     0.123 A 
ATOM     30  F   UNL A   1      40.022  21.075  26.335  1.00  0.00    -0.207 F 
ENDBRANCH  20  24
ENDBRANCH   8  13
ENDBRANCH   4   7
ENDBRANCH   2   3
ENDBRANCH   1   2
BRANCH   1  31
ATOM     31  C   UNL A   1      33.541  30.340  27.689  1.00  0.00     0.118 C 
BRANCH  31  32
ATOM     32  N   UNL A   1      34.037  31.680  27.378  1.00  0.00    -0.352 N 
ATOM     33  C   UNL A   1      35.226  32.266  27.773  1.00  0.00     0.251 C 
ATOM     34  H   UNL A   1      33.450  32.235  26.814  1.00  0.00     0.163 HD
ATOM     35  O   UNL A   1      35.372  33.474  27.753  1.00  0.00    -0.269 OA
BRANCH  33  36
ATOM     36  C   UNL A   1      36.314  31.385  28.228  1.00  0.00     0.039 A 
ATOM     37  C   UNL A   1      36.460  30.092  27.717  1.00  0.00     0.014 A 
ATOM     38  C   UNL A   1      37.231  31.906  29.133  1.00  0.00     0.014 A 
ATOM     39  C   UNL A   1      37.596  29.362  28.058  1.00  0.00     0.010 A 
ATOM     40  C   UNL A   1      38.422  31.259  29.329  1.00  0.00     0.010 A 
ATOM     41  C   UNL A   1      38.589  29.964  28.846  1.00  0.00    -0.014 A 
BRANCH  41  42
ATOM     42  C   UNL A   1      39.855  29.289  29.108  1.00  0.00     0.031 A 
ATOM     43  C   UNL A   1      40.131  28.958  30.537  1.00  0.00     0.074 A 
ATOM     44  C   UNL A   1      40.615  28.777  28.115  1.00  0.00     0.049 A 
ATOM     45  N   UNL A   1      41.104  29.376  31.276  1.00  0.00    -0.248 NA
ATOM     46  C   UNL A   1      39.151  28.130  31.260  1.00  0.00     0.031 C 
ATOM     47  C   UNL A   1      40.335  28.724  26.674  1.00  0.00     0.029 A 
ATOM     48  N   UNL A   1      41.774  28.077  28.213  1.00  0.00    -0.354 N 
ATOM     49  C   UNL A   1      40.963  28.740  32.509  1.00  0.00     0.074 A 
ATOM     50  C   UNL A   1      39.674  28.098  32.488  1.00  0.00     0.031 C 
ATOM     51  C   UNL A   1      41.157  27.830  26.084  1.00  0.00     0.029 A 
ATOM     52  C   UNL A   1      42.135  27.393  27.061  1.00  0.00     0.049 A 
ATOM     53  H   UNL A   1      42.315  28.056  29.036  1.00  0.00     0.167 HD
ATOM     54  C   UNL A   1      42.000  28.632  33.387  1.00  0.00     0.037 A 
ATOM     55  C   UNL A   1      43.153  26.509  26.934  1.00  0.00     0.037 A 
ATOM     56  C   UNL A   1      43.079  29.518  33.044  1.00  0.00     0.049 A 
ATOM     57  C   UNL A   1      44.083  26.755  28.065  1.00  0.00     0.074 A 
ATOM     58  C   UNL A   1      43.203  30.890  32.938  1.00  0.00     0.029 A 
ATOM     59  N   UNL A   1      44.151  28.993  32.366  1.00  0.00    -0.354 N 
ATOM     60  N   UNL A   1      44.796  27.837  28.197  1.00  0.00    -0.248 NA
ATOM     61  C   UNL A   1      43.877  25.988  29.285  1.00  0.00     0.031 C 
ATOM     62  C   UNL A   1      44.029  31.092  31.793  1.00  0.00     0.029 A 
ATOM     63  C   UNL A   1      44.412  29.837  31.316  1.00  0.00     0.049 A 
ATOM     64  H   UNL A   1      44.639  28.168  32.589  1.00  0.00     0.167 HD
ATOM     65  C   UNL A   1      44.765  28.118  29.555  1.00  0.00     0.074 A 
ATOM     66  C   UNL A   1      44.263  26.898  30.183  1.00  0.00     0.031 C 
ATOM     67  C   UNL A   1      44.873  29.398  30.018  1.00  0.00     0.037 A 
BRANCH  54  68
ATOM     68  C   UNL A   1      42.172  27.514  34.379  1.00  0.00     0.057 A 
ATOM     69  C   UNL A   1      42.934  26.357  34.124  1.00  0.00     0.134 A 
ATOM     70  C   UNL A   1      41.797  27.700  35.722  1.00  0.00     0.134 A 
ATOM     71  F   UNL A   1      43.460  26.106  32.917  1.00  0.00    -0.206 F 
ATOM     72  C   UNL A   1      43.286  25.445  35.122  1.00  0.00     0.040 A 
ATOM     73  C   UNL A   1      42.187  26.820  36.739  1.00  0.00     0.040 A 
ATOM     74  F   UNL A   1      41.098  28.782  36.097  1.00  0.00    -0.206 F 
ATOM     75  C   UNL A   1      42.934  25.687  36.441  1.00  0.00     0.006 A 
ENDBRANCH  54  68
BRANCH  55  76
ATOM     76  C   UNL A   1      43.224  25.291  26.097  1.00  0.00     0.057 A 
ATOM     77  C   UNL A   1      42.398  24.178  26.337  1.00  0.00     0.134 A 
ATOM     78  C   UNL A   1      44.301  25.082  25.226  1.00  0.00     0.134 A 
ATOM     79  F   UNL A   1      41.374  24.248  27.199  1.00  0.00    -0.206 F 
ATOM     80  C   UNL A   1      42.650  22.924  25.772  1.00  0.00     0.040 A 
ATOM     81  C   UNL A   1      44.569  23.828  24.659  1.00  0.00     0.040 A 
ATOM     82  F   UNL A   1      45.161  26.075  24.956  1.00  0.00    -0.206 F 
ATOM     83  C   UNL A   1      43.751  22.741  24.945  1.00  0.00     0.006 A 
ENDBRANCH  55  76
BRANCH  67  84
ATOM     84  C   UNL A   1      45.248  30.480  29.040  1.00  0.00     0.057 A 
ATOM     85  C   UNL A   1      46.581  30.901  28.982  1.00  0.00     0.134 A 
ATOM     86  C   UNL A   1      44.319  31.236  28.309  1.00  0.00     0.134 A 
ATOM     87  F   UNL A   1      47.522  30.263  29.698  1.00  0.00    -0.206 F 
ATOM     88  C   UNL A   1      46.973  32.019  28.240  1.00  0.00     0.040 A 
ATOM     89  C   UNL A   1      44.701  32.337  27.536  1.00  0.00     0.040 A 
ATOM     90  F   UNL A   1      43.009  30.977  28.373  1.00  0.00    -0.206 F 
ATOM     91  C   UNL A   1      46.031  32.738  27.509  1.00  0.00     0.006 A 
ENDBRANCH  67  84
ENDBRANCH  41  42
ENDBRANCH  33  36
ENDBRANCH  31  32
ENDBRANCH   1  31
TORSDOF 12
ENDMDL
MODEL 2
REMARK VINA RESULT:     -13.5      1.774      2.733
REMARK SMILES CC1=Nc2c(c(C)nn2-c2ccc(F)cc2)[C@H](c2ccc(C(=O)NCCCNC(=O)c3ccc(-c4c5nc(c(-c6c(F)cccc6F)c6ccc([nH]6)c(-c6c(F)cccc6F)c6nc(c(-c7c(F)cccc7F)c7ccc4[nH]7)C=C6)C=C5)cc3)cc2)S1
REMARK SMILES IDX 26 1 25 2 24 3 22 4 23 5 21 7 18 8 19 9 86 10 20 11 85 12
REMARK SMILES IDX 17 13 1 14 2 15 3 16 87 17 4 18 5 19 9 20 6 21 8 22 7 23
REMARK SMILES IDX 10 24 11 25 16 26 12 27 15 28 13 29 14 30 27 31 28 32 29 33
REMARK SMILES IDX 30 35 31 36 32 37 84 38 33 39 83 40 34 41 35 42 36 43 77 44
REMARK SMILES IDX 37 45 82 46 76 47 78 48 38 49 81 50 75 51 74 52 39 54 65 55
REMARK SMILES IDX 48 56 64 57 49 58 52 59 63 60 79 61 50 62 51 63 62 65 80 66
REMARK SMILES IDX 53 67 40 68 41 69 46 70 42 71 43 72 45 73 47 74 44 75 66 76
REMARK SMILES IDX 67 77 72 78 68 79 69 80 71 81 73 82 70 83 54 84 55 85 60 86
REMARK SMILES IDX 56 87 57 88 59 89 61 90 58 91
REMARK H PARENT 24 6 28 34 78 53 52 64
REMARK Flexibility Score: inf
ROOT
ATOM      1  C   UNL A   1      33.253  29.807  25.888  1.00  0.00     0.042 C 
ENDROOT
BRANCH   1   2
ATOM      2  C   UNL A   1      31.789  30.193  25.642  1.00  0.00     0.118 C 
BRANCH   2   3
ATOM      3  N   UNL A   1      31.307  29.708  24.358  1.00  0.00    -0.352 N 
ATOM      4  C   UNL A   1      31.293  28.443  23.821  1.00  0.00     0.251 C 
ATOM      5  O   UNL A   1      30.720  28.265  22.748  1.00  0.00    -0.269 OA
ATOM      6  H   UNL A   1      30.925  30.403  23.776  1.00  0.00     0.163 HD
BRANCH   4   7
ATOM      7  C   UNL A   1      31.900  27.281  24.521  1.00  0.00     0.039 A 
ATOM      8  C   UNL A   1      32.975  25.089  25.958  1.00  0.00    -0.030 A 
ATOM      9  C   UNL A   1      31.773  25.699  26.358  1.00  0.00     0.006 A 
ATOM     10  C   UNL A   1      33.603  25.576  24.802  1.00  0.00     0.006 A 
ATOM     11  C   UNL A   1      31.235  26.773  25.641  1.00  0.00     0.014 A 
ATOM     12  C   UNL A   1      33.063  26.648  24.087  1.00  0.00     0.014 A 
BRANCH   8  13
ATOM     13  C   UNL A   1      33.509  23.898  26.742  1.00  0.00     0.119 C 
ATOM     14  C   UNL A   1      37.123  22.969  24.932  1.00  0.00     0.075 C 
ATOM     15  C   UNL A   1      35.720  22.811  25.461  1.00  0.00     0.074 C 
ATOM     16  N   UNL A   1      34.955  21.932  24.897  1.00  0.00    -0.227 NA
ATOM     17  S   UNL A   1      35.330  23.830  26.841  1.00  0.00    -0.098 SA
ATOM     18  C   UNL A   1      33.670  21.833  25.315  1.00  0.00     0.161 A 
ATOM     19  C   UNL A   1      32.936  22.696  26.097  1.00  0.00     0.038 A 
ATOM     20  N   UNL A   1      32.797  20.831  24.919  1.00  0.00    -0.215 N 
ATOM     21  C   UNL A   1      31.618  22.172  26.084  1.00  0.00     0.067 A 
ATOM     22  N   UNL A   1      31.517  21.107  25.280  1.00  0.00    -0.171 NA
ATOM     23  C   UNL A   1      30.413  22.674  26.793  1.00  0.00     0.069 C 
BRANCH  20  24
ATOM     24  C   UNL A   1      33.120  19.616  24.268  1.00  0.00     0.067 A 
ATOM     25  C   UNL A   1      34.188  18.837  24.741  1.00  0.00     0.031 A 
ATOM     26  C   UNL A   1      32.359  19.188  23.173  1.00  0.00     0.031 A 
ATOM     27  C   UNL A   1      34.494  17.631  24.114  1.00  0.00     0.041 A 
ATOM     28  C   UNL A   1      32.704  18.003  22.521  1.00  0.00     0.041 A 
ATOM     29  C   UNL A   1      33.762  17.234  23.001  1.00  0.00     0.123 A 
ATOM     30  F   UNL A   1      34.078  16.088  22.383  1.00  0.00    -0.207 F 
ENDBRANCH  20  24
ENDBRANCH   8  13
ENDBRANCH   4   7
ENDBRANCH   2   3
ENDBRANCH   1   2
BRANCH   1  31
ATOM     31  C   UNL A   1      33.759  30.259  27.246  1.00  0.00     0.118 C 
BRANCH  31  32
ATOM     32  N   UNL A   1      34.148  31.668  27.257  1.00  0.00    -0.352 N 
ATOM     33  C   UNL A   1      35.219  32.256  27.908  1.00  0.00     0.251 C 
ATOM     34  H   UNL A   1      33.577  32.276  26.734  1.00  0.00     0.163 HD
ATOM     35  O   UNL A   1      35.243  33.451  28.132  1.00  0.00    -0.269 OA
BRANCH  33  36
ATOM     36  C   UNL A   1      36.331  31.389  28.331  1.00  0.00     0.039 A 
ATOM     37  C   UNL A   1      36.506  30.115  27.783  1.00  0.00     0.014 A 
ATOM     38  C   UNL A   1      37.241  31.907  29.245  1.00  0.00     0.014 A 
ATOM     39  C   UNL A   1      37.662  29.405  28.097  1.00  0.00     0.010 A 
ATOM     40  C   UNL A   1      38.449  31.284  29.416  1.00  0.00     0.010 A 
ATOM     41  C   UNL A   1      38.644  30.008  28.895  1.00  0.00    -0.014 A 
BRANCH  41  42
ATOM     42  C   UNL A   1      39.929  29.358  29.130  1.00  0.00     0.031 A 
ATOM     43  C   UNL A   1      40.266  29.084  30.558  1.00  0.00     0.074 A 
ATOM     44  C   UNL A   1      40.654  28.818  28.127  1.00  0.00     0.049 A 
ATOM     45  N   UNL A   1      41.263  29.541  31.242  1.00  0.00    -0.248 NA
ATOM     46  C   UNL A   1      39.326  28.273  31.351  1.00  0.00     0.031 C 
ATOM     47  C   UNL A   1      40.318  28.707  26.702  1.00  0.00     0.029 A 
ATOM     48  N   UNL A   1      41.826  28.134  28.204  1.00  0.00    -0.354 N 
ATOM     49  C   UNL A   1      41.179  28.950  32.502  1.00  0.00     0.074 A 
ATOM     50  C   UNL A   1      39.898  28.293  32.557  1.00  0.00     0.031 C 
ATOM     51  C   UNL A   1      41.127  27.801  26.113  1.00  0.00     0.029 A 
ATOM     52  C   UNL A   1      42.149  27.412  27.065  1.00  0.00     0.049 A 
ATOM     53  H   UNL A   1      42.399  28.151  29.005  1.00  0.00     0.167 HD
ATOM     54  C   UNL A   1      42.252  28.886  33.340  1.00  0.00     0.037 A 
ATOM     55  C   UNL A   1      43.172  26.535  26.930  1.00  0.00     0.037 A 
ATOM     56  C   UNL A   1      43.304  29.771  32.921  1.00  0.00     0.049 A 
ATOM     57  C   UNL A   1      44.143  26.833  28.012  1.00  0.00     0.074 A 
ATOM     58  C   UNL A   1      43.407  31.139  32.759  1.00  0.00     0.029 A 
ATOM     59  N   UNL A   1      44.355  29.233  32.220  1.00  0.00    -0.354 N 
ATOM     60  N   UNL A   1      44.847  27.929  28.074  1.00  0.00    -0.248 NA
ATOM     61  C   UNL A   1      43.996  26.112  29.267  1.00  0.00     0.031 C 
ATOM     62  C   UNL A   1      44.183  31.308  31.575  1.00  0.00     0.029 A 
ATOM     63  C   UNL A   1      44.563  30.040  31.130  1.00  0.00     0.049 A 
ATOM     64  H   UNL A   1      44.862  28.423  32.454  1.00  0.00     0.167 HD
ATOM     65  C   UNL A   1      44.867  28.260  29.421  1.00  0.00     0.074 A 
ATOM     66  C   UNL A   1      44.406  27.058  30.114  1.00  0.00     0.031 C 
ATOM     67  C   UNL A   1      44.977  29.557  29.832  1.00  0.00     0.037 A 
BRANCH  54  68
ATOM     68  C   UNL A   1      42.478  27.809  34.366  1.00  0.00     0.057 A 
ATOM     69  C   UNL A   1      41.971  27.866  35.679  1.00  0.00     0.134 A 
ATOM     70  C   UNL A   1      42.983  26.557  33.972  1.00  0.00     0.134 A 
ATOM     71  F   UNL A   1      41.353  28.956  36.154  1.00  0.00    -0.206 F 
ATOM     72  C   UNL A   1      41.978  26.768  36.543  1.00  0.00     0.040 A 
ATOM     73  C   UNL A   1      42.949  25.436  34.812  1.00  0.00     0.040 A 
ATOM     74  F   UNL A   1      43.464  26.367  32.734  1.00  0.00    -0.206 F 
ATOM     75  C   UNL A   1      42.445  25.539  36.103  1.00  0.00     0.006 A 
ENDBRANCH  54  68
BRANCH  55  76
ATOM     76  C   UNL A   1      43.224  25.287  26.136  1.00  0.00     0.057 A 
ATOM     77  C   UNL A   1      42.442  24.166  26.467  1.00  0.00     0.134 A 
ATOM     78  C   UNL A   1      44.254  25.069  25.211  1.00  0.00     0.134 A 
ATOM     79  F   UNL A   1      41.469  24.245  27.385  1.00  0.00    -0.206 F 
ATOM     80  C   UNL A   1      42.693  22.897  25.936  1.00  0.00     0.040 A 
ATOM     81  C   UNL A   1      44.520  23.801  24.677  1.00  0.00     0.040 A 
ATOM     82  F   UNL A   1      45.072  26.071  24.854  1.00  0.00    -0.206 F 
ATOM     83  C   UNL A   1      43.748  22.706  25.052  1.00  0.00     0.006 A 
ENDBRANCH  55  76
BRANCH  67  84
ATOM     84  C   UNL A   1      45.299  30.606  28.800  1.00  0.00     0.057 A 
ATOM     85  C   UNL A   1      44.245  31.216  28.111  1.00  0.00     0.134 A 
ATOM     86  C   UNL A   1      46.594  30.887  28.341  1.00  0.00     0.134 A 
ATOM     87  F   UNL A   1      42.973  30.955  28.455  1.00  0.00    -0.206 F 
ATOM     88  C   UNL A   1      44.465  32.058  27.017  1.00  0.00     0.040 A 
ATOM     89  C   UNL A   1      46.832  31.753  27.269  1.00  0.00     0.040 A 
ATOM     90  F   UNL A   1      47.664  30.282  28.867  1.00  0.00    -0.206 F 
ATOM     91  C   UNL A   1      45.763  32.334  26.596  1.00  0.00     0.006 A 
ENDBRANCH  67  84
ENDBRANCH  41  42
ENDBRANCH  33  36
ENDBRANCH  31  32
ENDBRANCH   1  31
TORSDOF 12
ENDMDL
MODEL 3
REMARK VINA RESULT:     -13.2      1.920      5.729
REMARK SMILES CC1=Nc2c(c(C)nn2-c2ccc(F)cc2)[C@H](c2ccc(C(=O)NCCCNC(=O)c3ccc(-c4c5nc(c(-c6c(F)cccc6F)c6ccc([nH]6)c(-c6c(F)cccc6F)c6nc(c(-c7c(F)cccc7F)c7ccc4[nH]7)C=C6)C=C5)cc3)cc2)S1
REMARK SMILES IDX 26 1 25 2 24 3 22 4 23 5 21 7 18 8 19 9 86 10 20 11 85 12
REMARK SMILES IDX 17 13 1 14 2 15 3 16 87 17 4 18 5 19 9 20 6 21 8 22 7 23
REMARK SMILES IDX 10 24 11 25 16 26 12 27 15 28 13 29 14 30 27 31 28 32 29 33
REMARK SMILES IDX 30 35 31 36 32 37 84 38 33 39 83 40 34 41 35 42 36 43 77 44
REMARK SMILES IDX 37 45 82 46 76 47 78 48 38 49 81 50 75 51 74 52 39 54 65 55
REMARK SMILES IDX 48 56 64 57 49 58 52 59 63 60 79 61 50 62 51 63 62 65 80 66
REMARK SMILES IDX 53 67 40 68 41 69 46 70 42 71 43 72 45 73 47 74 44 75 66 76
REMARK SMILES IDX 67 77 72 78 68 79 69 80 71 81 73 82 70 83 54 84 55 85 60 86
REMARK SMILES IDX 56 87 57 88 59 89 61 90 58 91
REMARK H PARENT 24 6 28 34 78 53 52 64
REMARK Flexibility Score: inf
ROOT
ATOM      1  C   UNL A   1      34.171  29.860  26.548  1.00  0.00     0.042 C 
ENDROOT
BRANCH   1   2
ATOM      2  C   UNL A   1      32.680  29.663  26.847  1.00  0.00     0.118 C 
BRANCH   2   3
ATOM      3  N   UNL A   1      31.846  30.015  25.707  1.00  0.00    -0.352 N 
ATOM      4  C   UNL A   1      31.269  29.229  24.738  1.00  0.00     0.251 C 
ATOM      5  O   UNL A   1      30.502  29.756  23.933  1.00  0.00    -0.269 OA
ATOM      6  H   UNL A   1      31.663  30.977  25.617  1.00  0.00     0.163 HD
BRANCH   4   7
ATOM      7  C   UNL A   1      31.501  27.763  24.667  1.00  0.00     0.039 A 
ATOM      8  C   UNL A   1      31.816  24.950  24.564  1.00  0.00    -0.030 A 
ATOM      9  C   UNL A   1      30.538  25.537  24.584  1.00  0.00     0.006 A 
ATOM     10  C   UNL A   1      32.928  25.804  24.555  1.00  0.00     0.006 A 
ATOM     11  C   UNL A   1      30.382  26.927  24.622  1.00  0.00     0.014 A 
ATOM     12  C   UNL A   1      32.770  27.192  24.592  1.00  0.00     0.014 A 
BRANCH   8  13
ATOM     13  C   UNL A   1      31.944  23.435  24.484  1.00  0.00     0.119 C 
ATOM     14  C   UNL A   1      32.823  22.237  28.355  1.00  0.00     0.075 C 
ATOM     15  C   UNL A   1      32.952  22.423  26.865  1.00  0.00     0.074 C 
ATOM     16  N   UNL A   1      34.143  22.422  26.355  1.00  0.00    -0.227 NA
ATOM     17  S   UNL A   1      31.426  22.564  26.001  1.00  0.00    -0.098 SA
ATOM     18  C   UNL A   1      34.275  22.662  25.028  1.00  0.00     0.161 A 
ATOM     19  C   UNL A   1      33.356  23.164  24.134  1.00  0.00     0.038 A 
ATOM     20  N   UNL A   1      35.463  22.524  24.327  1.00  0.00    -0.215 N 
ATOM     21  C   UNL A   1      34.081  23.348  22.928  1.00  0.00     0.067 A 
ATOM     22  N   UNL A   1      35.379  23.064  23.082  1.00  0.00    -0.171 NA
ATOM     23  C   UNL A   1      33.585  23.828  21.613  1.00  0.00     0.069 C 
BRANCH  20  24
ATOM     24  C   UNL A   1      36.644  21.870  24.754  1.00  0.00     0.067 A 
ATOM     25  C   UNL A   1      36.783  20.487  24.553  1.00  0.00     0.031 A 
ATOM     26  C   UNL A   1      37.673  22.608  25.350  1.00  0.00     0.031 A 
ATOM     27  C   UNL A   1      37.953  19.845  24.953  1.00  0.00     0.041 A 
ATOM     28  C   UNL A   1      38.820  21.948  25.793  1.00  0.00     0.041 A 
ATOM     29  C   UNL A   1      38.952  20.577  25.584  1.00  0.00     0.123 A 
ATOM     30  F   UNL A   1      40.063  19.951  25.995  1.00  0.00    -0.207 F 
ENDBRANCH  20  24
ENDBRANCH   8  13
ENDBRANCH   4   7
ENDBRANCH   2   3
ENDBRANCH   1   2
BRANCH   1  31
ATOM     31  C   UNL A   1      35.068  29.187  27.572  1.00  0.00     0.118 C 
BRANCH  31  32
ATOM     32  N   UNL A   1      35.217  29.978  28.792  1.00  0.00    -0.352 N 
ATOM     33  C   UNL A   1      36.243  29.936  29.719  1.00  0.00     0.251 C 
ATOM     34  H   UNL A   1      34.497  30.624  28.976  1.00  0.00     0.163 HD
ATOM     35  O   UNL A   1      36.094  30.373  30.845  1.00  0.00    -0.269 OA
BRANCH  33  36
ATOM     36  C   UNL A   1      37.525  29.341  29.307  1.00  0.00     0.039 A 
ATOM     37  C   UNL A   1      38.191  29.780  28.160  1.00  0.00     0.014 A 
ATOM     38  C   UNL A   1      38.083  28.375  30.135  1.00  0.00     0.014 A 
ATOM     39  C   UNL A   1      39.473  29.300  27.906  1.00  0.00     0.010 A 
ATOM     40  C   UNL A   1      39.401  28.036  29.977  1.00  0.00     0.010 A 
ATOM     41  C   UNL A   1      40.084  28.445  28.835  1.00  0.00    -0.014 A 
BRANCH  41  42
ATOM     42  C   UNL A   1      41.475  28.034  28.680  1.00  0.00     0.031 A 
ATOM     43  C   UNL A   1      41.695  26.759  27.934  1.00  0.00     0.074 A 
ATOM     44  C   UNL A   1      42.505  28.858  28.970  1.00  0.00     0.049 A 
ATOM     45  N   UNL A   1      42.243  25.671  28.364  1.00  0.00    -0.248 NA
ATOM     46  C   UNL A   1      41.156  26.652  26.568  1.00  0.00     0.031 C 
ATOM     47  C   UNL A   1      42.469  30.261  29.404  1.00  0.00     0.029 A 
ATOM     48  N   UNL A   1      43.836  28.634  28.818  1.00  0.00    -0.354 N 
ATOM     49  C   UNL A   1      42.275  24.793  27.282  1.00  0.00     0.074 A 
ATOM     50  C   UNL A   1      41.471  25.394  26.249  1.00  0.00     0.031 C 
ATOM     51  C   UNL A   1      43.687  30.819  29.240  1.00  0.00     0.029 A 
ATOM     52  C   UNL A   1      44.623  29.775  28.872  1.00  0.00     0.049 A 
ATOM     53  H   UNL A   1      44.211  27.733  28.680  1.00  0.00     0.167 HD
ATOM     54  C   UNL A   1      43.115  23.721  27.248  1.00  0.00     0.037 A 
ATOM     55  C   UNL A   1      45.949  29.852  28.605  1.00  0.00     0.037 A 
ATOM     56  C   UNL A   1      43.663  23.437  28.547  1.00  0.00     0.049 A 
ATOM     57  C   UNL A   1      46.494  28.476  28.716  1.00  0.00     0.074 A 
ATOM     58  C   UNL A   1      43.121  23.078  29.765  1.00  0.00     0.029 A 
ATOM     59  N   UNL A   1      44.931  23.887  28.821  1.00  0.00    -0.354 N 
ATOM     60  N   UNL A   1      46.571  27.813  29.835  1.00  0.00    -0.248 NA
ATOM     61  C   UNL A   1      46.533  27.668  27.506  1.00  0.00     0.031 C 
ATOM     62  C   UNL A   1      43.881  23.804  30.729  1.00  0.00     0.029 A 
ATOM     63  C   UNL A   1      44.880  24.501  30.048  1.00  0.00     0.049 A 
ATOM     64  H   UNL A   1      45.725  23.789  28.248  1.00  0.00     0.167 HD
ATOM     65  C   UNL A   1      46.238  26.509  29.498  1.00  0.00     0.074 A 
ATOM     66  C   UNL A   1      46.315  26.463  28.039  1.00  0.00     0.031 C 
ATOM     67  C   UNL A   1      45.654  25.669  30.402  1.00  0.00     0.037 A 
BRANCH  54  68
ATOM     68  C   UNL A   1      43.681  23.111  25.994  1.00  0.00     0.057 A 
ATOM     69  C   UNL A   1      44.546  23.796  25.118  1.00  0.00     0.134 A 
ATOM     70  C   UNL A   1      43.586  21.725  25.780  1.00  0.00     0.134 A 
ATOM     71  F   UNL A   1      44.827  25.097  25.272  1.00  0.00    -0.206 F 
ATOM     72  C   UNL A   1      45.252  23.157  24.096  1.00  0.00     0.040 A 
ATOM     73  C   UNL A   1      44.327  21.065  24.791  1.00  0.00     0.040 A 
ATOM     74  F   UNL A   1      42.820  20.957  26.570  1.00  0.00    -0.206 F 
ATOM     75  C   UNL A   1      45.164  21.782  23.944  1.00  0.00     0.006 A 
ENDBRANCH  54  68
BRANCH  55  76
ATOM     76  C   UNL A   1      46.704  30.958  27.976  1.00  0.00     0.057 A 
ATOM     77  C   UNL A   1      47.791  31.574  28.622  1.00  0.00     0.134 A 
ATOM     78  C   UNL A   1      46.195  31.627  26.855  1.00  0.00     0.134 A 
ATOM     79  F   UNL A   1      48.319  31.054  29.739  1.00  0.00    -0.206 F 
ATOM     80  C   UNL A   1      48.317  32.798  28.199  1.00  0.00     0.040 A 
ATOM     81  C   UNL A   1      46.708  32.858  26.425  1.00  0.00     0.040 A 
ATOM     82  F   UNL A   1      45.141  31.133  26.188  1.00  0.00    -0.206 F 
ATOM     83  C   UNL A   1      47.762  33.456  27.108  1.00  0.00     0.006 A 
ENDBRANCH  55  76
BRANCH  67  84
ATOM     84  C   UNL A   1      45.578  26.111  31.839  1.00  0.00     0.057 A 
ATOM     85  C   UNL A   1      46.607  25.741  32.712  1.00  0.00     0.134 A 
ATOM     86  C   UNL A   1      44.450  26.712  32.418  1.00  0.00     0.134 A 
ATOM     87  F   UNL A   1      47.696  25.112  32.242  1.00  0.00    -0.206 F 
ATOM     88  C   UNL A   1      46.520  25.952  34.091  1.00  0.00     0.040 A 
ATOM     89  C   UNL A   1      44.362  26.959  33.792  1.00  0.00     0.040 A 
ATOM     90  F   UNL A   1      43.372  27.016  31.688  1.00  0.00    -0.206 F 
ATOM     91  C   UNL A   1      45.396  26.568  34.635  1.00  0.00     0.006 A 
ENDBRANCH  67  84
ENDBRANCH  41  42
ENDBRANCH  33  36
ENDBRANCH  31  32
ENDBRANCH   1  31
TORSDOF 12
ENDMDL
