MODEL 1
REMARK VINA RESULT:     -12.5      0.000      0.000
REMARK SMILES O=C(Cc1cncnc1N1CCC2(CC1)OCCC[C@@H]2O)NCCCNC(=O)c1ccc(-c2c3nc(c(-c4c(F)cccc4F)c4ccc([nH]4)c(-c4c(F)cccc4F)c4nc(c(-c5c(F)cccc5F)c5ccc2[nH]5)C=C4)C=C3)cc1
REMARK SMILES IDX 23 1 22 2 1 3 2 4 3 6 4 7 5 8 9 9 6 10 8 11 7 12 10 13 11 14
REMARK SMILES IDX 15 15 12 16 14 17 13 18 16 19 20 20 17 21 19 22 18 23 21 24
REMARK SMILES IDX 24 26 25 27 26 28 27 29 28 31 29 32 30 33 82 34 31 35 81 36
REMARK SMILES IDX 32 37 33 38 34 39 75 40 35 41 80 42 74 43 76 44 36 45 79 46
REMARK SMILES IDX 73 47 72 48 37 50 63 51 46 52 62 53 47 54 50 55 61 56 77 57
REMARK SMILES IDX 48 58 49 59 60 61 78 62 51 63 38 64 39 65 44 66 40 67 41 68
REMARK SMILES IDX 43 69 45 70 42 71 64 72 65 73 70 74 66 75 67 76 69 77 71 78
REMARK SMILES IDX 68 79 52 80 53 81 58 82 54 83 55 84 57 85 59 86 56 87
REMARK H PARENT 22 5 21 25 26 30 76 49 50 60
REMARK Flexibility Score: inf
ROOT
ATOM      1  C   UNL A   1      32.100  30.406  26.570  1.00  0.00     0.117 C 
ENDROOT
BRANCH   1   2
ATOM      2  N   UNL A   1      31.743  30.014  25.223  1.00  0.00    -0.356 N 
ATOM      3  O   UNL A   1      33.528  28.619  24.832  1.00  0.00    -0.275 OA
ATOM      4  C   UNL A   1      32.480  29.133  24.460  1.00  0.00     0.224 C 
ATOM      5  H   UNL A   1      30.928  30.400  24.827  1.00  0.00     0.163 HD
BRANCH   4   6
ATOM      6  C   UNL A   1      31.867  28.870  23.098  1.00  0.00     0.141 C 
BRANCH   6   7
ATOM      7  C   UNL A   1      30.384  28.634  23.158  1.00  0.00     0.022 A 
ATOM      8  C   UNL A   1      29.497  29.583  22.677  1.00  0.00     0.121 A 
ATOM      9  C   UNL A   1      29.810  27.447  23.599  1.00  0.00     0.135 A 
ATOM     10  N   UNL A   1      28.166  29.425  22.630  1.00  0.00    -0.244 NA
ATOM     11  N   UNL A   1      28.479  27.246  23.548  1.00  0.00    -0.219 NA
ATOM     12  C   UNL A   1      27.723  28.248  23.080  1.00  0.00     0.224 A 
BRANCH   9  13
ATOM     13  N   UNL A   1      30.612  26.388  23.973  1.00  0.00    -0.356 N 
ATOM     14  C   UNL A   1      30.786  25.309  23.018  1.00  0.00     0.121 C 
ATOM     15  C   UNL A   1      30.654  25.968  25.367  1.00  0.00     0.121 C 
ATOM     16  C   UNL A   1      32.229  24.844  23.172  1.00  0.00     0.060 C 
ATOM     17  C   UNL A   1      32.060  25.436  25.653  1.00  0.00     0.060 C 
ATOM     18  C   UNL A   1      32.543  24.382  24.621  1.00  0.00     0.097 C 
ATOM     19  O   UNL A   1      31.827  23.168  24.933  1.00  0.00    -0.372 OA
ATOM     20  C   UNL A   1      34.082  24.161  24.773  1.00  0.00     0.146 C 
ATOM     21  C   UNL A   1      32.229  22.007  24.208  1.00  0.00     0.161 C 
ATOM     22  C   UNL A   1      34.552  22.950  23.969  1.00  0.00     0.037 C 
ATOM     23  C   UNL A   1      33.720  21.724  24.326  1.00  0.00     0.031 C 
BRANCH  20  24
ATOM     24  O   UNL A   1      34.473  23.927  26.131  1.00  0.00    -0.390 OA
ATOM     25  H   UNL A   1      34.960  23.090  26.187  1.00  0.00     0.211 HD
ENDBRANCH  20  24
ENDBRANCH   9  13
ENDBRANCH   6   7
ENDBRANCH   4   6
ENDBRANCH   1   2
BRANCH   1  26
ATOM     26  C   UNL A   1      31.715  31.852  26.856  1.00  0.00     0.042 C 
BRANCH  26  27
ATOM     27  C   UNL A   1      32.869  32.748  27.302  1.00  0.00     0.118 C 
BRANCH  27  28
ATOM     28  N   UNL A   1      32.460  34.104  27.642  1.00  0.00    -0.352 N 
ATOM     29  C   UNL A   1      32.990  34.964  28.574  1.00  0.00     0.251 C 
ATOM     30  H   UNL A   1      31.695  34.454  27.131  1.00  0.00     0.163 HD
ATOM     31  O   UNL A   1      32.441  36.038  28.803  1.00  0.00    -0.269 OA
BRANCH  29  32
ATOM     32  C   UNL A   1      34.196  34.576  29.334  1.00  0.00     0.039 A 
ATOM     33  C   UNL A   1      34.043  34.109  30.641  1.00  0.00     0.014 A 
ATOM     34  C   UNL A   1      35.466  34.643  28.754  1.00  0.00     0.014 A 
ATOM     35  C   UNL A   1      35.152  33.620  31.335  1.00  0.00     0.010 A 
ATOM     36  C   UNL A   1      36.559  34.095  29.422  1.00  0.00     0.010 A 
ATOM     37  C   UNL A   1      36.408  33.563  30.712  1.00  0.00    -0.014 A 
BRANCH  37  38
ATOM     38  C   UNL A   1      37.566  32.907  31.374  1.00  0.00     0.031 A 
ATOM     39  C   UNL A   1      38.216  31.701  30.758  1.00  0.00     0.074 A 
ATOM     40  C   UNL A   1      37.982  33.356  32.575  1.00  0.00     0.049 A 
ATOM     41  N   UNL A   1      39.173  30.946  31.234  1.00  0.00    -0.248 NA
ATOM     42  C   UNL A   1      37.707  31.275  29.446  1.00  0.00     0.031 C 
ATOM     43  C   UNL A   1      37.408  34.493  33.299  1.00  0.00     0.029 A 
ATOM     44  N   UNL A   1      38.975  32.901  33.407  1.00  0.00    -0.354 N 
ATOM     45  C   UNL A   1      39.374  29.951  30.286  1.00  0.00     0.074 A 
ATOM     46  C   UNL A   1      38.408  30.170  29.231  1.00  0.00     0.031 C 
ATOM     47  C   UNL A   1      38.069  34.654  34.457  1.00  0.00     0.029 A 
ATOM     48  C   UNL A   1      39.081  33.611  34.578  1.00  0.00     0.049 A 
ATOM     49  H   UNL A   1      39.556  32.138  33.184  1.00  0.00     0.167 HD
ATOM     50  C   UNL A   1      40.294  28.955  30.287  1.00  0.00     0.037 A 
ATOM     51  C   UNL A   1      39.891  33.433  35.638  1.00  0.00     0.037 A 
ATOM     52  C   UNL A   1      41.265  28.747  31.329  1.00  0.00     0.049 A 
ATOM     53  C   UNL A   1      40.884  32.303  35.626  1.00  0.00     0.074 A 
ATOM     54  C   UNL A   1      42.277  27.804  31.388  1.00  0.00     0.029 A 
ATOM     55  N   UNL A   1      41.343  29.489  32.497  1.00  0.00    -0.354 N 
ATOM     56  N   UNL A   1      41.107  31.409  34.693  1.00  0.00    -0.248 NA
ATOM     57  C   UNL A   1      41.737  32.159  36.814  1.00  0.00     0.031 C 
ATOM     58  C   UNL A   1      42.935  27.944  32.614  1.00  0.00     0.029 A 
ATOM     59  C   UNL A   1      42.366  29.006  33.298  1.00  0.00     0.049 A 
ATOM     60  H   UNL A   1      40.757  30.248  32.726  1.00  0.00     0.167 HD
ATOM     61  C   UNL A   1      42.138  30.611  35.172  1.00  0.00     0.074 A 
ATOM     62  C   UNL A   1      42.510  31.138  36.469  1.00  0.00     0.031 C 
ATOM     63  C   UNL A   1      42.724  29.538  34.588  1.00  0.00     0.037 A 
BRANCH  50  64
ATOM     64  C   UNL A   1      40.291  28.011  29.121  1.00  0.00     0.057 A 
ATOM     65  C   UNL A   1      39.512  26.847  29.115  1.00  0.00     0.134 A 
ATOM     66  C   UNL A   1      41.046  28.287  27.973  1.00  0.00     0.134 A 
ATOM     67  F   UNL A   1      38.774  26.517  30.187  1.00  0.00    -0.206 F 
ATOM     68  C   UNL A   1      39.502  25.979  28.022  1.00  0.00     0.040 A 
ATOM     69  C   UNL A   1      41.025  27.441  26.863  1.00  0.00     0.040 A 
ATOM     70  F   UNL A   1      41.810  29.388  27.910  1.00  0.00    -0.206 F 
ATOM     71  C   UNL A   1      40.255  26.279  26.889  1.00  0.00     0.006 A 
ENDBRANCH  50  64
BRANCH  51  72
ATOM     72  C   UNL A   1      39.805  34.350  36.803  1.00  0.00     0.057 A 
ATOM     73  C   UNL A   1      39.042  34.016  37.927  1.00  0.00     0.134 A 
ATOM     74  C   UNL A   1      40.468  35.582  36.815  1.00  0.00     0.134 A 
ATOM     75  F   UNL A   1      38.367  32.858  37.965  1.00  0.00    -0.206 F 
ATOM     76  C   UNL A   1      38.928  34.881  39.017  1.00  0.00     0.040 A 
ATOM     77  C   UNL A   1      40.384  36.447  37.909  1.00  0.00     0.040 A 
ATOM     78  F   UNL A   1      41.219  35.958  35.770  1.00  0.00    -0.206 F 
ATOM     79  C   UNL A   1      39.605  36.100  39.010  1.00  0.00     0.006 A 
ENDBRANCH  51  72
BRANCH  63  80
ATOM     80  C   UNL A   1      43.842  28.874  35.338  1.00  0.00     0.057 A 
ATOM     81  C   UNL A   1      45.180  29.239  35.144  1.00  0.00     0.134 A 
ATOM     82  C   UNL A   1      43.574  27.882  36.291  1.00  0.00     0.134 A 
ATOM     83  F   UNL A   1      45.505  30.172  34.235  1.00  0.00    -0.206 F 
ATOM     84  C   UNL A   1      46.214  28.626  35.853  1.00  0.00     0.040 A 
ATOM     85  C   UNL A   1      44.597  27.281  37.026  1.00  0.00     0.040 A 
ATOM     86  F   UNL A   1      42.313  27.491  36.531  1.00  0.00    -0.206 F 
ATOM     87  C   UNL A   1      45.921  27.648  36.803  1.00  0.00     0.006 A 
ENDBRANCH  63  80
ENDBRANCH  37  38
ENDBRANCH  29  32
ENDBRANCH  27  28
ENDBRANCH  26  27
ENDBRANCH   1  26
TORSDOF 13
ENDMDL
MODEL 2
REMARK VINA RESULT:     -12.4      0.525      6.209
REMARK SMILES O=C(Cc1cncnc1N1CCC2(CC1)OCCC[C@@H]2O)NCCCNC(=O)c1ccc(-c2c3nc(c(-c4c(F)cccc4F)c4ccc([nH]4)c(-c4c(F)cccc4F)c4nc(c(-c5c(F)cccc5F)c5ccc2[nH]5)C=C4)C=C3)cc1
REMARK SMILES IDX 23 1 22 2 1 3 2 4 3 6 4 7 5 8 9 9 6 10 8 11 7 12 10 13 11 14
REMARK SMILES IDX 15 15 12 16 14 17 13 18 16 19 20 20 17 21 19 22 18 23 21 24
REMARK SMILES IDX 24 26 25 27 26 28 27 29 28 31 29 32 30 33 82 34 31 35 81 36
REMARK SMILES IDX 32 37 33 38 34 39 75 40 35 41 80 42 74 43 76 44 36 45 79 46
REMARK SMILES IDX 73 47 72 48 37 50 63 51 46 52 62 53 47 54 50 55 61 56 77 57
REMARK SMILES IDX 48 58 49 59 60 61 78 62 51 63 38 64 39 65 44 66 40 67 41 68
REMARK SMILES IDX 43 69 45 70 42 71 64 72 65 73 70 74 66 75 67 76 69 77 71 78
REMARK SMILES IDX 68 79 52 80 53 81 58 82 54 83 55 84 57 85 59 86 56 87
REMARK H PARENT 22 5 21 25 26 30 76 49 50 60
REMARK Flexibility Score: inf
ROOT
ATOM      1  C   UNL A   1      31.961  30.488  26.640  1.00  0.00     0.117 C 
ENDROOT
BRANCH   1   2
ATOM      2  N   UNL A   1      31.651  30.085  25.285  1.00  0.00    -0.356 N 
ATOM      3  O   UNL A   1      33.506  28.774  24.929  1.00  0.00    -0.275 OA
ATOM      4  C   UNL A   1      32.443  29.241  24.537  1.00  0.00     0.224 C 
ATOM      5  H   UNL A   1      30.828  30.434  24.874  1.00  0.00     0.163 HD
BRANCH   4   6
ATOM      6  C   UNL A   1      31.871  28.953  23.161  1.00  0.00     0.141 C 
BRANCH   6   7
ATOM      7  C   UNL A   1      30.386  28.722  23.180  1.00  0.00     0.022 A 
ATOM      8  C   UNL A   1      29.515  29.680  22.691  1.00  0.00     0.121 A 
ATOM      9  C   UNL A   1      29.798  27.530  23.589  1.00  0.00     0.135 A 
ATOM     10  N   UNL A   1      28.185  29.528  22.608  1.00  0.00    -0.244 NA
ATOM     11  N   UNL A   1      28.468  27.334  23.502  1.00  0.00    -0.219 NA
ATOM     12  C   UNL A   1      27.727  28.346  23.029  1.00  0.00     0.224 A 
BRANCH   9  13
ATOM     13  N   UNL A   1      30.587  26.463  23.967  1.00  0.00    -0.356 N 
ATOM     14  C   UNL A   1      30.741  25.374  23.021  1.00  0.00     0.121 C 
ATOM     15  C   UNL A   1      30.631  26.055  25.364  1.00  0.00     0.121 C 
ATOM     16  C   UNL A   1      32.178  24.890  23.171  1.00  0.00     0.060 C 
ATOM     17  C   UNL A   1      32.031  25.505  25.647  1.00  0.00     0.060 C 
ATOM     18  C   UNL A   1      32.493  24.435  24.621  1.00  0.00     0.097 C 
ATOM     19  O   UNL A   1      31.762  23.235  24.948  1.00  0.00    -0.372 OA
ATOM     20  C   UNL A   1      34.030  24.194  24.767  1.00  0.00     0.146 C 
ATOM     21  C   UNL A   1      32.144  22.062  24.230  1.00  0.00     0.161 C 
ATOM     22  C   UNL A   1      34.478  22.970  23.971  1.00  0.00     0.037 C 
ATOM     23  C   UNL A   1      33.631  21.759  24.342  1.00  0.00     0.031 C 
BRANCH  20  24
ATOM     24  O   UNL A   1      34.425  23.966  26.124  1.00  0.00    -0.390 OA
ATOM     25  H   UNL A   1      35.227  24.477  26.318  1.00  0.00     0.211 HD
ENDBRANCH  20  24
ENDBRANCH   9  13
ENDBRANCH   6   7
ENDBRANCH   4   6
ENDBRANCH   1   2
BRANCH   1  26
ATOM     26  C   UNL A   1      31.633  31.956  26.879  1.00  0.00     0.042 C 
BRANCH  26  27
ATOM     27  C   UNL A   1      32.838  32.842  27.193  1.00  0.00     0.118 C 
BRANCH  27  28
ATOM     28  N   UNL A   1      32.480  34.186  27.626  1.00  0.00    -0.352 N 
ATOM     29  C   UNL A   1      33.034  34.955  28.621  1.00  0.00     0.251 C 
ATOM     30  H   UNL A   1      31.734  34.602  27.137  1.00  0.00     0.163 HD
ATOM     31  O   UNL A   1      32.527  36.031  28.923  1.00  0.00    -0.269 OA
BRANCH  29  32
ATOM     32  C   UNL A   1      34.218  34.466  29.359  1.00  0.00     0.039 A 
ATOM     33  C   UNL A   1      34.026  33.845  30.595  1.00  0.00     0.014 A 
ATOM     34  C   UNL A   1      35.503  34.590  28.824  1.00  0.00     0.014 A 
ATOM     35  C   UNL A   1      35.113  33.265  31.253  1.00  0.00     0.010 A 
ATOM     36  C   UNL A   1      36.574  33.953  29.449  1.00  0.00     0.010 A 
ATOM     37  C   UNL A   1      36.385  33.271  30.660  1.00  0.00    -0.014 A 
BRANCH  37  38
ATOM     38  C   UNL A   1      37.520  32.528  31.267  1.00  0.00     0.031 A 
ATOM     39  C   UNL A   1      38.143  33.001  32.550  1.00  0.00     0.074 A 
ATOM     40  C   UNL A   1      38.040  31.468  30.617  1.00  0.00     0.049 A 
ATOM     41  N   UNL A   1      39.194  32.537  33.177  1.00  0.00    -0.248 NA
ATOM     42  C   UNL A   1      37.517  34.162  33.199  1.00  0.00     0.031 C 
ATOM     43  C   UNL A   1      37.553  30.934  29.344  1.00  0.00     0.029 A 
ATOM     44  N   UNL A   1      39.104  30.659  30.930  1.00  0.00    -0.354 N 
ATOM     45  C   UNL A   1      39.361  33.353  34.288  1.00  0.00     0.074 A 
ATOM     46  C   UNL A   1      38.333  34.370  34.223  1.00  0.00     0.031 C 
ATOM     47  C   UNL A   1      38.305  29.878  28.993  1.00  0.00     0.029 A 
ATOM     48  C   UNL A   1      39.352  29.687  29.991  1.00  0.00     0.049 A 
ATOM     49  H   UNL A   1      39.639  30.766  31.750  1.00  0.00     0.167 HD
ATOM     50  C   UNL A   1      40.276  33.253  35.282  1.00  0.00     0.037 A 
ATOM     51  C   UNL A   1      40.322  28.756  29.932  1.00  0.00     0.037 A 
ATOM     52  C   UNL A   1      41.289  32.232  35.354  1.00  0.00     0.049 A 
ATOM     53  C   UNL A   1      41.344  28.684  31.033  1.00  0.00     0.074 A 
ATOM     54  C   UNL A   1      42.222  32.012  36.353  1.00  0.00     0.029 A 
ATOM     55  N   UNL A   1      41.505  31.263  34.386  1.00  0.00    -0.354 N 
ATOM     56  N   UNL A   1      41.450  29.422  32.112  1.00  0.00    -0.248 NA
ATOM     57  C   UNL A   1      42.379  27.649  30.910  1.00  0.00     0.031 C 
ATOM     58  C   UNL A   1      43.034  30.941  35.967  1.00  0.00     0.029 A 
ATOM     59  C   UNL A   1      42.577  30.462  34.749  1.00  0.00     0.049 A 
ATOM     60  H   UNL A   1      40.978  31.160  33.561  1.00  0.00     0.167 HD
ATOM     61  C   UNL A   1      42.548  28.928  32.803  1.00  0.00     0.074 A 
ATOM     62  C   UNL A   1      43.063  27.815  32.033  1.00  0.00     0.031 C 
ATOM     63  C   UNL A   1      43.081  29.359  33.972  1.00  0.00     0.037 A 
BRANCH  50  64
ATOM     64  C   UNL A   1      40.226  34.280  36.375  1.00  0.00     0.057 A 
ATOM     65  C   UNL A   1      40.967  35.467  36.308  1.00  0.00     0.134 A 
ATOM     66  C   UNL A   1      39.398  34.099  37.490  1.00  0.00     0.134 A 
ATOM     67  F   UNL A   1      41.788  35.698  35.272  1.00  0.00    -0.206 F 
ATOM     68  C   UNL A   1      40.905  36.425  37.320  1.00  0.00     0.040 A 
ATOM     69  C   UNL A   1      39.307  35.061  38.497  1.00  0.00     0.040 A 
ATOM     70  F   UNL A   1      38.657  32.987  37.615  1.00  0.00    -0.206 F 
ATOM     71  C   UNL A   1      40.068  36.227  38.416  1.00  0.00     0.006 A 
ENDBRANCH  50  64
BRANCH  51  72
ATOM     72  C   UNL A   1      40.375  27.808  28.789  1.00  0.00     0.057 A 
ATOM     73  C   UNL A   1      41.142  28.091  27.654  1.00  0.00     0.134 A 
ATOM     74  C   UNL A   1      39.654  26.609  28.800  1.00  0.00     0.134 A 
ATOM     75  F   UNL A   1      41.837  29.235  27.577  1.00  0.00    -0.206 F 
ATOM     76  C   UNL A   1      41.177  27.223  26.561  1.00  0.00     0.040 A 
ATOM     77  C   UNL A   1      39.700  25.719  27.725  1.00  0.00     0.040 A 
ATOM     78  F   UNL A   1      38.905  26.277  29.862  1.00  0.00    -0.206 F 
ATOM     79  C   UNL A   1      40.457  26.030  26.597  1.00  0.00     0.006 A 
ENDBRANCH  51  72
BRANCH  63  80
ATOM     80  C   UNL A   1      44.272  28.611  34.500  1.00  0.00     0.057 A 
ATOM     81  C   UNL A   1      45.582  29.011  34.210  1.00  0.00     0.134 A 
ATOM     82  C   UNL A   1      44.105  27.499  35.335  1.00  0.00     0.134 A 
ATOM     83  F   UNL A   1      45.810  30.060  33.404  1.00  0.00    -0.206 F 
ATOM     84  C   UNL A   1      46.684  28.319  34.713  1.00  0.00     0.040 A 
ATOM     85  C   UNL A   1      45.199  26.815  35.867  1.00  0.00     0.040 A 
ATOM     86  F   UNL A   1      42.876  27.068  35.658  1.00  0.00    -0.206 F 
ATOM     87  C   UNL A   1      46.493  27.221  35.551  1.00  0.00     0.006 A 
ENDBRANCH  63  80
ENDBRANCH  37  38
ENDBRANCH  29  32
ENDBRANCH  27  28
ENDBRANCH  26  27
ENDBRANCH   1  26
TORSDOF 13
ENDMDL
MODEL 3
REMARK VINA RESULT:     -12.4      5.603     10.429
REMARK SMILES O=C(Cc1cncnc1N1CCC2(CC1)OCCC[C@@H]2O)NCCCNC(=O)c1ccc(-c2c3nc(c(-c4c(F)cccc4F)c4ccc([nH]4)c(-c4c(F)cccc4F)c4nc(c(-c5c(F)cccc5F)c5ccc2[nH]5)C=C4)C=C3)cc1
REMARK SMILES IDX 23 1 22 2 1 3 2 4 3 6 4 7 5 8 9 9 6 10 8 11 7 12 10 13 11 14
REMARK SMILES IDX 15 15 12 16 14 17 13 18 16 19 20 20 17 21 19 22 18 23 21 24
REMARK SMILES IDX 24 26 25 27 26 28 27 29 28 31 29 32 30 33 82 34 31 35 81 36
REMARK SMILES IDX 32 37 33 38 34 39 75 40 35 41 80 42 74 43 76 44 36 45 79 46
REMARK SMILES IDX 73 47 72 48 37 50 63 51 46 52 62 53 47 54 50 55 61 56 77 57
REMARK SMILES IDX 48 58 49 59 60 61 78 62 51 63 38 64 39 65 44 66 40 67 41 68
REMARK SMILES IDX 43 69 45 70 42 71 64 72 65 73 70 74 66 75 67 76 69 77 71 78
REMARK SMILES IDX 68 79 52 80 53 81 58 82 54 83 55 84 57 85 59 86 56 87
REMARK H PARENT 22 5 21 25 26 30 76 49 50 60
REMARK Flexibility Score: inf
ROOT
ATOM      1  C   UNL A   1      37.694  22.076  24.831  1.00  0.00     0.117 C 
ENDROOT
BRANCH   1   2
ATOM      2  N   UNL A   1      36.603  22.165  23.884  1.00  0.00    -0.356 N 
ATOM      3  O   UNL A   1      35.660  24.100  24.693  1.00  0.00    -0.275 OA
ATOM      4  C   UNL A   1      35.675  23.185  23.878  1.00  0.00     0.224 C 
ATOM      5  H   UNL A   1      36.517  21.457  23.207  1.00  0.00     0.163 HD
BRANCH   4   6
ATOM      6  C   UNL A   1      34.657  23.056  22.761  1.00  0.00     0.141 C 
BRANCH   6   7
ATOM      7  C   UNL A   1      33.280  23.496  23.169  1.00  0.00     0.022 A 
ATOM      8  C   UNL A   1      32.776  24.718  22.756  1.00  0.00     0.121 A 
ATOM      9  C   UNL A   1      32.398  22.699  23.891  1.00  0.00     0.135 A 
ATOM     10  N   UNL A   1      31.536  25.158  23.017  1.00  0.00    -0.244 NA
ATOM     11  N   UNL A   1      31.140  23.100  24.155  1.00  0.00    -0.219 NA
ATOM     12  C   UNL A   1      30.776  24.313  23.718  1.00  0.00     0.224 A 
BRANCH   9  13
ATOM     13  N   UNL A   1      32.755  21.411  24.235  1.00  0.00    -0.356 N 
ATOM     14  C   UNL A   1      31.889  20.334  23.793  1.00  0.00     0.121 C 
ATOM     15  C   UNL A   1      33.423  21.160  25.505  1.00  0.00     0.121 C 
ATOM     16  C   UNL A   1      32.811  19.171  23.447  1.00  0.00     0.060 C 
ATOM     17  C   UNL A   1      34.369  19.973  25.308  1.00  0.00     0.060 C 
ATOM     18  C   UNL A   1      33.686  18.741  24.655  1.00  0.00     0.097 C 
ATOM     19  O   UNL A   1      32.871  18.149  25.688  1.00  0.00    -0.372 OA
ATOM     20  C   UNL A   1      34.774  17.729  24.173  1.00  0.00     0.146 C 
ATOM     21  C   UNL A   1      32.265  16.899  25.360  1.00  0.00     0.161 C 
ATOM     22  C   UNL A   1      34.152  16.394  23.770  1.00  0.00     0.037 C 
ATOM     23  C   UNL A   1      33.274  15.858  24.895  1.00  0.00     0.031 C 
BRANCH  20  24
ATOM     24  O   UNL A   1      35.743  17.438  25.186  1.00  0.00    -0.390 OA
ATOM     25  H   UNL A   1      36.635  17.529  24.816  1.00  0.00     0.211 HD
ENDBRANCH  20  24
ENDBRANCH   9  13
ENDBRANCH   6   7
ENDBRANCH   4   6
ENDBRANCH   1   2
BRANCH   1  26
ATOM     26  C   UNL A   1      38.189  20.643  24.986  1.00  0.00     0.042 C 
BRANCH  26  27
ATOM     27  C   UNL A   1      39.108  20.406  26.183  1.00  0.00     0.118 C 
BRANCH  27  28
ATOM     28  N   UNL A   1      40.056  19.317  25.987  1.00  0.00    -0.352 N 
ATOM     29  C   UNL A   1      41.429  19.337  26.056  1.00  0.00     0.251 C 
ATOM     30  H   UNL A   1      39.656  18.444  25.774  1.00  0.00     0.163 HD
ATOM     31  O   UNL A   1      42.075  18.340  25.749  1.00  0.00    -0.269 OA
BRANCH  29  32
ATOM     32  C   UNL A   1      42.130  20.575  26.456  1.00  0.00     0.039 A 
ATOM     33  C   UNL A   1      42.650  21.402  25.459  1.00  0.00     0.014 A 
ATOM     34  C   UNL A   1      42.247  20.934  27.802  1.00  0.00     0.014 A 
ATOM     35  C   UNL A   1      43.207  22.635  25.804  1.00  0.00     0.010 A 
ATOM     36  C   UNL A   1      42.741  22.192  28.139  1.00  0.00     0.010 A 
ATOM     37  C   UNL A   1      43.210  23.061  27.142  1.00  0.00    -0.014 A 
BRANCH  37  38
ATOM     38  C   UNL A   1      43.655  24.429  27.512  1.00  0.00     0.031 A 
ATOM     39  C   UNL A   1      42.656  25.471  27.928  1.00  0.00     0.074 A 
ATOM     40  C   UNL A   1      44.958  24.755  27.398  1.00  0.00     0.049 A 
ATOM     41  N   UNL A   1      42.847  26.738  28.198  1.00  0.00    -0.248 NA
ATOM     42  C   UNL A   1      41.255  25.038  28.031  1.00  0.00     0.031 C 
ATOM     43  C   UNL A   1      46.022  23.846  26.966  1.00  0.00     0.029 A 
ATOM     44  N   UNL A   1      45.607  25.944  27.621  1.00  0.00    -0.354 N 
ATOM     45  C   UNL A   1      41.592  27.254  28.492  1.00  0.00     0.074 A 
ATOM     46  C   UNL A   1      40.641  26.177  28.322  1.00  0.00     0.031 C 
ATOM     47  C   UNL A   1      47.192  24.506  26.970  1.00  0.00     0.029 A 
ATOM     48  C   UNL A   1      46.956  25.891  27.363  1.00  0.00     0.049 A 
ATOM     49  H   UNL A   1      45.150  26.756  27.936  1.00  0.00     0.167 HD
ATOM     50  C   UNL A   1      41.265  28.509  28.887  1.00  0.00     0.037 A 
ATOM     51  C   UNL A   1      47.895  26.854  27.420  1.00  0.00     0.037 A 
ATOM     52  C   UNL A   1      42.214  29.576  29.072  1.00  0.00     0.049 A 
ATOM     53  C   UNL A   1      47.501  28.245  27.833  1.00  0.00     0.074 A 
ATOM     54  C   UNL A   1      41.986  30.863  29.528  1.00  0.00     0.029 A 
ATOM     55  N   UNL A   1      43.571  29.483  28.804  1.00  0.00    -0.354 N 
ATOM     56  N   UNL A   1      46.320  28.703  28.173  1.00  0.00    -0.248 NA
ATOM     57  C   UNL A   1      48.571  29.252  27.873  1.00  0.00     0.031 C 
ATOM     58  C   UNL A   1      43.196  31.563  29.490  1.00  0.00     0.029 A 
ATOM     59  C   UNL A   1      44.188  30.698  29.055  1.00  0.00     0.049 A 
ATOM     60  H   UNL A   1      44.030  28.673  28.480  1.00  0.00     0.167 HD
ATOM     61  C   UNL A   1      46.509  30.043  28.486  1.00  0.00     0.074 A 
ATOM     62  C   UNL A   1      47.920  30.320  28.314  1.00  0.00     0.031 C 
ATOM     63  C   UNL A   1      45.593  30.961  28.879  1.00  0.00     0.037 A 
BRANCH  50  64
ATOM     64  C   UNL A   1      39.815  28.797  29.146  1.00  0.00     0.057 A 
ATOM     65  C   UNL A   1      38.948  29.195  28.121  1.00  0.00     0.134 A 
ATOM     66  C   UNL A   1      39.270  28.636  30.426  1.00  0.00     0.134 A 
ATOM     67  F   UNL A   1      39.407  29.379  26.873  1.00  0.00    -0.206 F 
ATOM     68  C   UNL A   1      37.597  29.447  28.364  1.00  0.00     0.040 A 
ATOM     69  C   UNL A   1      37.915  28.860  30.677  1.00  0.00     0.040 A 
ATOM     70  F   UNL A   1      40.044  28.251  31.452  1.00  0.00    -0.206 F 
ATOM     71  C   UNL A   1      37.076  29.273  29.644  1.00  0.00     0.006 A 
ENDBRANCH  50  64
BRANCH  51  72
ATOM     72  C   UNL A   1      49.306  26.538  27.081  1.00  0.00     0.057 A 
ATOM     73  C   UNL A   1      49.799  26.739  25.788  1.00  0.00     0.134 A 
ATOM     74  C   UNL A   1      50.188  26.017  28.036  1.00  0.00     0.134 A 
ATOM     75  F   UNL A   1      48.996  27.215  24.826  1.00  0.00    -0.206 F 
ATOM     76  C   UNL A   1      51.115  26.418  25.449  1.00  0.00     0.040 A 
ATOM     77  C   UNL A   1      51.514  25.716  27.717  1.00  0.00     0.040 A 
ATOM     78  F   UNL A   1      49.778  25.806  29.295  1.00  0.00    -0.206 F 
ATOM     79  C   UNL A   1      51.978  25.908  26.418  1.00  0.00     0.006 A 
ENDBRANCH  51  72
BRANCH  63  80
ATOM     80  C   UNL A   1      46.093  32.346  29.171  1.00  0.00     0.057 A 
ATOM     81  C   UNL A   1      46.550  32.713  30.443  1.00  0.00     0.134 A 
ATOM     82  C   UNL A   1      46.149  33.314  28.160  1.00  0.00     0.134 A 
ATOM     83  F   UNL A   1      46.509  31.837  31.459  1.00  0.00    -0.206 F 
ATOM     84  C   UNL A   1      47.025  33.999  30.705  1.00  0.00     0.040 A 
ATOM     85  C   UNL A   1      46.647  34.596  28.403  1.00  0.00     0.040 A 
ATOM     86  F   UNL A   1      45.734  33.026  26.917  1.00  0.00    -0.206 F 
ATOM     87  C   UNL A   1      47.081  34.942  29.680  1.00  0.00     0.006 A 
ENDBRANCH  63  80
ENDBRANCH  37  38
ENDBRANCH  29  32
ENDBRANCH  27  28
ENDBRANCH  26  27
ENDBRANCH   1  26
TORSDOF 13
ENDMDL
