MODEL 1
REMARK VINA RESULT:     -13.4      0.000      0.000
REMARK SMILES Cc1ccc(C(=O)N2CCC3(CCC(=O)N(CC(=O)NCCCNC(=O)c4ccc(-c5c6nc(c(-c7c(F)cccc7F)c7ccc([nH]7)c(-c7c(F)cccc7F)c7nc(c(-c8c(F)cccc8F)c8ccc5[nH]8)C=C7)C=C6)cc4)C3)CC2)cc1O
REMARK SMILES IDX 21 1 20 2 18 3 19 4 17 6 16 7 6 8 7 9 8 10 9 11 83 12 10 13
REMARK SMILES IDX 82 14 11 15 12 16 81 17 13 18 14 19 15 20 5 21 1 22 2 23
REMARK SMILES IDX 3 24 85 25 4 26 84 27 86 28 22 30 23 31 24 32 25 33 26 35
REMARK SMILES IDX 27 36 28 37 80 38 29 39 79 40 30 41 31 42 32 43 73 44 33 45
REMARK SMILES IDX 78 46 72 47 74 48 34 49 77 50 71 51 70 52 35 54 61 55 44 56
REMARK SMILES IDX 60 57 45 58 48 59 59 60 75 61 46 62 47 63 58 65 76 66 49 67
REMARK SMILES IDX 36 68 37 69 42 70 38 71 39 72 41 73 43 74 40 75 62 76 63 77
REMARK SMILES IDX 68 78 64 79 65 80 67 81 69 82 66 83 50 84 51 85 56 86 52 87
REMARK SMILES IDX 53 88 55 89 57 90 54 91
REMARK H PARENT 20 5 86 29 24 34 74 53 48 64
REMARK Flexibility Score: inf
ROOT
ATOM      1  C   UNL A   1      38.192  23.165  26.293  1.00  0.00     0.117 C 
ENDROOT
BRANCH   1   2
ATOM      2  N   UNL A   1      37.826  23.079  24.899  1.00  0.00    -0.354 N 
ATOM      3  C   UNL A   1      37.063  22.144  24.268  1.00  0.00     0.239 C 
ATOM      4  O   UNL A   1      36.706  22.393  23.113  1.00  0.00    -0.273 OA
ATOM      5  H   UNL A   1      38.175  23.799  24.325  1.00  0.00     0.163 HD
BRANCH   3   6
ATOM      6  C   UNL A   1      36.518  20.931  25.031  1.00  0.00     0.219 C 
BRANCH   6   7
ATOM      7  N   UNL A   1      35.111  20.946  25.445  1.00  0.00    -0.333 N 
ATOM      8  C   UNL A   1      32.099  26.528  24.333  1.00  0.00     0.253 C 
ATOM      9  O   UNL A   1      31.829  26.823  23.169  1.00  0.00    -0.269 OA
ATOM     10  N   UNL A   1      32.194  25.200  24.740  1.00  0.00    -0.339 N 
ATOM     11  C   UNL A   1      32.569  24.209  23.745  1.00  0.00     0.120 C 
ATOM     12  C   UNL A   1      31.719  24.663  26.010  1.00  0.00     0.120 C 
ATOM     13  C   UNL A   1      33.700  23.361  24.309  1.00  0.00     0.030 C 
ATOM     14  C   UNL A   1      32.758  23.728  26.638  1.00  0.00     0.030 C 
ATOM     15  C   UNL A   1      33.324  22.673  25.648  1.00  0.00    -0.008 C 
ATOM     16  C   UNL A   1      32.307  21.527  25.478  1.00  0.00     0.019 C 
ATOM     17  C   UNL A   1      34.590  22.043  26.251  1.00  0.00     0.127 C 
ATOM     18  C   UNL A   1      32.845  20.376  24.642  1.00  0.00     0.101 C 
ATOM     19  C   UNL A   1      34.283  19.975  24.908  1.00  0.00     0.223 C 
ATOM     20  O   UNL A   1      34.709  18.894  24.506  1.00  0.00    -0.275 OA
BRANCH   8  21
ATOM     21  C   UNL A   1      32.491  27.626  25.266  1.00  0.00     0.043 A 
ATOM     22  C   UNL A   1      33.904  31.076  27.468  1.00  0.00     0.048 C 
ATOM     23  C   UNL A   1      33.377  29.888  26.719  1.00  0.00    -0.009 A 
ATOM     24  C   UNL A   1      34.071  28.676  26.788  1.00  0.00     0.008 A 
ATOM     25  C   UNL A   1      32.236  29.951  25.910  1.00  0.00     0.119 A 
ATOM     26  C   UNL A   1      33.646  27.568  26.051  1.00  0.00     0.014 A 
ATOM     27  C   UNL A   1      31.788  28.835  25.203  1.00  0.00     0.060 A 
BRANCH  25  28
ATOM     28  O   UNL A   1      31.520  31.101  25.735  1.00  0.00    -0.508 OA
ATOM     29  H   UNL A   1      30.605  31.117  25.932  1.00  0.00     0.293 HD
ENDBRANCH  25  28
ENDBRANCH   8  21
ENDBRANCH   6   7
ENDBRANCH   3   6
ENDBRANCH   1   2
BRANCH   1  30
ATOM     30  C   UNL A   1      39.475  22.405  26.595  1.00  0.00     0.042 C 
BRANCH  30  31
ATOM     31  C   UNL A   1      40.617  23.295  27.072  1.00  0.00     0.118 C 
BRANCH  31  32
ATOM     32  N   UNL A   1      41.140  24.149  26.014  1.00  0.00    -0.352 N 
ATOM     33  C   UNL A   1      41.309  25.508  25.973  1.00  0.00     0.251 C 
ATOM     34  H   UNL A   1      41.417  23.674  25.197  1.00  0.00     0.163 HD
ATOM     35  O   UNL A   1      41.579  26.054  24.903  1.00  0.00    -0.269 OA
BRANCH  33  36
ATOM     36  C   UNL A   1      41.150  26.326  27.194  1.00  0.00     0.039 A 
ATOM     37  C   UNL A   1      42.088  27.328  27.458  1.00  0.00     0.014 A 
ATOM     38  C   UNL A   1      40.104  26.093  28.089  1.00  0.00     0.014 A 
ATOM     39  C   UNL A   1      41.937  28.138  28.586  1.00  0.00     0.010 A 
ATOM     40  C   UNL A   1      39.906  26.954  29.164  1.00  0.00     0.010 A 
ATOM     41  C   UNL A   1      40.823  27.983  29.426  1.00  0.00    -0.014 A 
BRANCH  41  42
ATOM     42  C   UNL A   1      40.600  28.887  30.582  1.00  0.00     0.031 A 
ATOM     43  C   UNL A   1      39.532  29.945  30.524  1.00  0.00     0.074 A 
ATOM     44  C   UNL A   1      41.402  28.796  31.659  1.00  0.00     0.049 A 
ATOM     45  N   UNL A   1      39.230  30.864  31.406  1.00  0.00    -0.248 NA
ATOM     46  C   UNL A   1      38.712  29.991  29.303  1.00  0.00     0.031 C 
ATOM     47  C   UNL A   1      42.499  27.840  31.820  1.00  0.00     0.029 A 
ATOM     48  N   UNL A   1      41.424  29.522  32.823  1.00  0.00    -0.354 N 
ATOM     49  C   UNL A   1      38.196  31.602  30.844  1.00  0.00     0.074 A 
ATOM     50  C   UNL A   1      37.963  31.061  29.521  1.00  0.00     0.031 C 
ATOM     51  C   UNL A   1      43.066  28.019  33.023  1.00  0.00     0.029 A 
ATOM     52  C   UNL A   1      42.404  29.128  33.700  1.00  0.00     0.049 A 
ATOM     53  H   UNL A   1      40.795  30.256  33.013  1.00  0.00     0.167 HD
ATOM     54  C   UNL A   1      37.487  32.619  31.388  1.00  0.00     0.037 A 
ATOM     55  C   UNL A   1      42.738  29.613  34.912  1.00  0.00     0.037 A 
ATOM     56  C   UNL A   1      37.716  33.148  32.707  1.00  0.00     0.049 A 
ATOM     57  C   UNL A   1      41.958  30.766  35.480  1.00  0.00     0.074 A 
ATOM     58  C   UNL A   1      37.023  34.146  33.369  1.00  0.00     0.029 A 
ATOM     59  N   UNL A   1      38.722  32.724  33.564  1.00  0.00    -0.354 N 
ATOM     60  N   UNL A   1      40.940  31.411  34.965  1.00  0.00    -0.248 NA
ATOM     61  C   UNL A   1      42.372  31.254  36.804  1.00  0.00     0.031 C 
ATOM     62  C   UNL A   1      37.641  34.362  34.605  1.00  0.00     0.029 A 
ATOM     63  C   UNL A   1      38.683  33.458  34.739  1.00  0.00     0.049 A 
ATOM     64  H   UNL A   1      39.367  32.007  33.368  1.00  0.00     0.167 HD
ATOM     65  C   UNL A   1      40.571  32.358  35.911  1.00  0.00     0.074 A 
ATOM     66  C   UNL A   1      41.467  32.193  37.038  1.00  0.00     0.031 C 
ATOM     67  C   UNL A   1      39.578  33.280  35.854  1.00  0.00     0.037 A 
BRANCH  54  68
ATOM     68  C   UNL A   1      36.398  33.227  30.550  1.00  0.00     0.057 A 
ATOM     69  C   UNL A   1      35.043  32.959  30.790  1.00  0.00     0.134 A 
ATOM     70  C   UNL A   1      36.704  34.107  29.503  1.00  0.00     0.134 A 
ATOM     71  F   UNL A   1      34.680  32.116  31.769  1.00  0.00    -0.206 F 
ATOM     72  C   UNL A   1      34.036  33.515  29.998  1.00  0.00     0.040 A 
ATOM     73  C   UNL A   1      35.704  34.693  28.726  1.00  0.00     0.040 A 
ATOM     74  F   UNL A   1      37.979  34.415  29.222  1.00  0.00    -0.206 F 
ATOM     75  C   UNL A   1      34.366  34.389  28.966  1.00  0.00     0.006 A 
ENDBRANCH  54  68
BRANCH  55  76
ATOM     76  C   UNL A   1      43.847  28.994  35.680  1.00  0.00     0.057 A 
ATOM     77  C   UNL A   1      45.164  29.448  35.538  1.00  0.00     0.134 A 
ATOM     78  C   UNL A   1      43.623  27.935  36.568  1.00  0.00     0.134 A 
ATOM     79  F   UNL A   1      45.444  30.449  34.690  1.00  0.00    -0.206 F 
ATOM     80  C   UNL A   1      46.220  28.860  36.235  1.00  0.00     0.040 A 
ATOM     81  C   UNL A   1      44.667  27.354  37.292  1.00  0.00     0.040 A 
ATOM     82  F   UNL A   1      42.384  27.459  36.759  1.00  0.00    -0.206 F 
ATOM     83  C   UNL A   1      45.971  27.813  37.120  1.00  0.00     0.006 A 
ENDBRANCH  55  76
BRANCH  67  84
ATOM     84  C   UNL A   1      39.382  34.155  37.059  1.00  0.00     0.057 A 
ATOM     85  C   UNL A   1      38.730  33.697  38.212  1.00  0.00     0.134 A 
ATOM     86  C   UNL A   1      39.885  35.462  37.077  1.00  0.00     0.134 A 
ATOM     87  F   UNL A   1      38.214  32.459  38.254  1.00  0.00    -0.206 F 
ATOM     88  C   UNL A   1      38.564  34.517  39.329  1.00  0.00     0.040 A 
ATOM     89  C   UNL A   1      39.750  36.281  38.198  1.00  0.00     0.040 A 
ATOM     90  F   UNL A   1      40.526  35.961  36.010  1.00  0.00    -0.206 F 
ATOM     91  C   UNL A   1      39.082  35.811  39.327  1.00  0.00     0.006 A 
ENDBRANCH  67  84
ENDBRANCH  41  42
ENDBRANCH  33  36
ENDBRANCH  31  32
ENDBRANCH  30  31
ENDBRANCH   1  30
TORSDOF 13
ENDMDL
MODEL 2
REMARK VINA RESULT:     -13.3      4.066      9.016
REMARK SMILES Cc1ccc(C(=O)N2CCC3(CCC(=O)N(CC(=O)NCCCNC(=O)c4ccc(-c5c6nc(c(-c7c(F)cccc7F)c7ccc([nH]7)c(-c7c(F)cccc7F)c7nc(c(-c8c(F)cccc8F)c8ccc5[nH]8)C=C7)C=C6)cc4)C3)CC2)cc1O
REMARK SMILES IDX 21 1 20 2 18 3 19 4 17 6 16 7 6 8 7 9 8 10 9 11 83 12 10 13
REMARK SMILES IDX 82 14 11 15 12 16 81 17 13 18 14 19 15 20 5 21 1 22 2 23
REMARK SMILES IDX 3 24 85 25 4 26 84 27 86 28 22 30 23 31 24 32 25 33 26 35
REMARK SMILES IDX 27 36 28 37 80 38 29 39 79 40 30 41 31 42 32 43 73 44 33 45
REMARK SMILES IDX 78 46 72 47 74 48 34 49 77 50 71 51 70 52 35 54 61 55 44 56
REMARK SMILES IDX 60 57 45 58 48 59 59 60 75 61 46 62 47 63 58 65 76 66 49 67
REMARK SMILES IDX 36 68 37 69 42 70 38 71 39 72 41 73 43 74 40 75 62 76 63 77
REMARK SMILES IDX 68 78 64 79 65 80 67 81 69 82 66 83 50 84 51 85 56 86 52 87
REMARK SMILES IDX 53 88 55 89 57 90 54 91
REMARK H PARENT 20 5 86 29 24 34 74 53 48 64
REMARK Flexibility Score: inf
ROOT
ATOM      1  C   UNL A   1      33.713  29.062  25.146  1.00  0.00     0.117 C 
ENDROOT
BRANCH   1   2
ATOM      2  N   UNL A   1      34.200  28.613  23.864  1.00  0.00    -0.354 N 
ATOM      3  C   UNL A   1      33.544  28.547  22.672  1.00  0.00     0.239 C 
ATOM      4  O   UNL A   1      34.224  28.335  21.664  1.00  0.00    -0.273 OA
ATOM      5  H   UNL A   1      35.137  28.314  23.848  1.00  0.00     0.163 HD
BRANCH   3   6
ATOM      6  C   UNL A   1      32.058  28.915  22.573  1.00  0.00     0.219 C 
BRANCH   6   7
ATOM      7  N   UNL A   1      31.073  27.828  22.559  1.00  0.00    -0.333 N 
ATOM      8  C   UNL A   1      32.311  23.099  26.751  1.00  0.00     0.253 C 
ATOM      9  O   UNL A   1      32.145  23.324  27.950  1.00  0.00    -0.269 OA
ATOM     10  N   UNL A   1      31.572  23.767  25.779  1.00  0.00    -0.339 N 
ATOM     11  C   UNL A   1      31.072  25.094  26.099  1.00  0.00     0.120 C 
ATOM     12  C   UNL A   1      31.038  23.175  24.557  1.00  0.00     0.120 C 
ATOM     13  C   UNL A   1      31.440  26.037  24.961  1.00  0.00     0.030 C 
ATOM     14  C   UNL A   1      31.291  24.082  23.348  1.00  0.00     0.030 C 
ATOM     15  C   UNL A   1      30.892  25.565  23.589  1.00  0.00    -0.008 C 
ATOM     16  C   UNL A   1      29.363  25.715  23.461  1.00  0.00     0.019 C 
ATOM     17  C   UNL A   1      31.508  26.438  22.484  1.00  0.00     0.127 C 
ATOM     18  C   UNL A   1      28.901  27.163  23.532  1.00  0.00     0.101 C 
ATOM     19  C   UNL A   1      29.750  28.170  22.779  1.00  0.00     0.223 C 
ATOM     20  O   UNL A   1      29.310  29.291  22.536  1.00  0.00    -0.275 OA
BRANCH   8  21
ATOM     21  C   UNL A   1      33.446  22.214  26.350  1.00  0.00     0.043 A 
ATOM     22  C   UNL A   1      36.809  20.043  24.700  1.00  0.00     0.048 C 
ATOM     23  C   UNL A   1      35.663  20.798  25.308  1.00  0.00    -0.009 A 
ATOM     24  C   UNL A   1      34.357  20.349  25.083  1.00  0.00     0.008 A 
ATOM     25  C   UNL A   1      35.841  21.965  26.058  1.00  0.00     0.119 A 
ATOM     26  C   UNL A   1      33.263  21.063  25.578  1.00  0.00     0.014 A 
ATOM     27  C   UNL A   1      34.751  22.659  26.586  1.00  0.00     0.060 A 
BRANCH  25  28
ATOM     28  O   UNL A   1      37.071  22.512  26.289  1.00  0.00    -0.508 OA
ATOM     29  H   UNL A   1      37.778  22.338  25.700  1.00  0.00     0.293 HD
ENDBRANCH  25  28
ENDBRANCH   8  21
ENDBRANCH   6   7
ENDBRANCH   3   6
ENDBRANCH   1   2
BRANCH   1  30
ATOM     30  C   UNL A   1      34.012  28.062  26.253  1.00  0.00     0.042 C 
BRANCH  30  31
ATOM     31  C   UNL A   1      33.558  28.522  27.634  1.00  0.00     0.118 C 
BRANCH  31  32
ATOM     32  N   UNL A   1      33.621  29.969  27.791  1.00  0.00    -0.352 N 
ATOM     33  C   UNL A   1      34.637  30.769  28.245  1.00  0.00     0.251 C 
ATOM     34  H   UNL A   1      32.802  30.449  27.530  1.00  0.00     0.163 HD
ATOM     35  O   UNL A   1      34.411  31.954  28.490  1.00  0.00    -0.269 OA
BRANCH  33  36
ATOM     36  C   UNL A   1      35.991  30.220  28.460  1.00  0.00     0.039 A 
ATOM     37  C   UNL A   1      36.901  30.241  27.399  1.00  0.00     0.014 A 
ATOM     38  C   UNL A   1      36.360  29.662  29.686  1.00  0.00     0.014 A 
ATOM     39  C   UNL A   1      38.199  29.762  27.590  1.00  0.00     0.010 A 
ATOM     40  C   UNL A   1      37.676  29.267  29.901  1.00  0.00     0.010 A 
ATOM     41  C   UNL A   1      38.609  29.308  28.854  1.00  0.00    -0.014 A 
BRANCH  41  42
ATOM     42  C   UNL A   1      40.007  28.874  29.100  1.00  0.00     0.031 A 
ATOM     43  C   UNL A   1      40.990  29.810  29.747  1.00  0.00     0.074 A 
ATOM     44  C   UNL A   1      40.406  27.658  28.681  1.00  0.00     0.049 A 
ATOM     45  N   UNL A   1      42.265  29.633  29.986  1.00  0.00    -0.248 NA
ATOM     46  C   UNL A   1      40.479  31.127  30.156  1.00  0.00     0.031 C 
ATOM     47  C   UNL A   1      39.559  26.675  28.004  1.00  0.00     0.029 A 
ATOM     48  N   UNL A   1      41.630  27.043  28.758  1.00  0.00    -0.354 N 
ATOM     49  C   UNL A   1      42.709  30.816  30.563  1.00  0.00     0.074 A 
ATOM     50  C   UNL A   1      41.582  31.724  30.582  1.00  0.00     0.031 C 
ATOM     51  C   UNL A   1      40.280  25.570  27.755  1.00  0.00     0.029 A 
ATOM     52  C   UNL A   1      41.649  25.782  28.212  1.00  0.00     0.049 A 
ATOM     53  H   UNL A   1      42.422  27.464  29.166  1.00  0.00     0.167 HD
ATOM     54  C   UNL A   1      43.935  31.112  31.056  1.00  0.00     0.037 A 
ATOM     55  C   UNL A   1      42.659  24.900  28.087  1.00  0.00     0.037 A 
ATOM     56  C   UNL A   1      45.051  30.202  31.043  1.00  0.00     0.049 A 
ATOM     57  C   UNL A   1      44.020  25.264  28.611  1.00  0.00     0.074 A 
ATOM     58  C   UNL A   1      46.322  30.388  31.558  1.00  0.00     0.029 A 
ATOM     59  N   UNL A   1      45.030  28.935  30.478  1.00  0.00    -0.354 N 
ATOM     60  N   UNL A   1      44.409  26.362  29.213  1.00  0.00    -0.248 NA
ATOM     61  C   UNL A   1      45.082  24.262  28.442  1.00  0.00     0.031 C 
ATOM     62  C   UNL A   1      47.086  29.255  31.259  1.00  0.00     0.029 A 
ATOM     63  C   UNL A   1      46.274  28.338  30.610  1.00  0.00     0.049 A 
ATOM     64  H   UNL A   1      44.248  28.521  30.048  1.00  0.00     0.167 HD
ATOM     65  C   UNL A   1      45.749  26.172  29.523  1.00  0.00     0.074 A 
ATOM     66  C   UNL A   1      46.102  24.847  29.054  1.00  0.00     0.031 C 
ATOM     67  C   UNL A   1      46.610  27.016  30.143  1.00  0.00     0.037 A 
BRANCH  54  68
ATOM     68  C   UNL A   1      44.130  32.479  31.647  1.00  0.00     0.057 A 
ATOM     69  C   UNL A   1      43.886  32.740  33.003  1.00  0.00     0.134 A 
ATOM     70  C   UNL A   1      44.587  33.544  30.858  1.00  0.00     0.134 A 
ATOM     71  F   UNL A   1      43.437  31.769  33.813  1.00  0.00    -0.206 F 
ATOM     72  C   UNL A   1      44.055  34.017  33.544  1.00  0.00     0.040 A 
ATOM     73  C   UNL A   1      44.788  34.816  31.396  1.00  0.00     0.040 A 
ATOM     74  F   UNL A   1      44.847  33.364  29.555  1.00  0.00    -0.206 F 
ATOM     75  C   UNL A   1      44.513  35.058  32.740  1.00  0.00     0.006 A 
ENDBRANCH  54  68
BRANCH  55  76
ATOM     76  C   UNL A   1      42.415  23.576  27.462  1.00  0.00     0.057 A 
ATOM     77  C   UNL A   1      42.099  22.458  28.243  1.00  0.00     0.134 A 
ATOM     78  C   UNL A   1      42.494  23.392  26.076  1.00  0.00     0.134 A 
ATOM     79  F   UNL A   1      42.025  22.568  29.578  1.00  0.00    -0.206 F 
ATOM     80  C   UNL A   1      41.891  21.201  27.673  1.00  0.00     0.040 A 
ATOM     81  C   UNL A   1      42.262  22.145  25.489  1.00  0.00     0.040 A 
ATOM     82  F   UNL A   1      42.782  24.424  25.269  1.00  0.00    -0.206 F 
ATOM     83  C   UNL A   1      41.967  21.044  26.290  1.00  0.00     0.006 A 
ENDBRANCH  55  76
BRANCH  67  84
ATOM     84  C   UNL A   1      48.006  26.519  30.386  1.00  0.00     0.057 A 
ATOM     85  C   UNL A   1      48.371  25.883  31.580  1.00  0.00     0.134 A 
ATOM     86  C   UNL A   1      48.988  26.648  29.395  1.00  0.00     0.134 A 
ATOM     87  F   UNL A   1      47.482  25.741  32.574  1.00  0.00    -0.206 F 
ATOM     88  C   UNL A   1      49.670  25.417  31.788  1.00  0.00     0.040 A 
ATOM     89  C   UNL A   1      50.282  26.158  29.581  1.00  0.00     0.040 A 
ATOM     90  F   UNL A   1      48.704  27.239  28.225  1.00  0.00    -0.206 F 
ATOM     91  C   UNL A   1      50.627  25.546  30.784  1.00  0.00     0.006 A 
ENDBRANCH  67  84
ENDBRANCH  41  42
ENDBRANCH  33  36
ENDBRANCH  31  32
ENDBRANCH  30  31
ENDBRANCH   1  30
TORSDOF 13
ENDMDL
MODEL 3
REMARK VINA RESULT:     -13.2      4.450      8.183
REMARK SMILES Cc1ccc(C(=O)N2CCC3(CCC(=O)N(CC(=O)NCCCNC(=O)c4ccc(-c5c6nc(c(-c7c(F)cccc7F)c7ccc([nH]7)c(-c7c(F)cccc7F)c7nc(c(-c8c(F)cccc8F)c8ccc5[nH]8)C=C7)C=C6)cc4)C3)CC2)cc1O
REMARK SMILES IDX 21 1 20 2 18 3 19 4 17 6 16 7 6 8 7 9 8 10 9 11 83 12 10 13
REMARK SMILES IDX 82 14 11 15 12 16 81 17 13 18 14 19 15 20 5 21 1 22 2 23
REMARK SMILES IDX 3 24 85 25 4 26 84 27 86 28 22 30 23 31 24 32 25 33 26 35
REMARK SMILES IDX 27 36 28 37 80 38 29 39 79 40 30 41 31 42 32 43 73 44 33 45
REMARK SMILES IDX 78 46 72 47 74 48 34 49 77 50 71 51 70 52 35 54 61 55 44 56
REMARK SMILES IDX 60 57 45 58 48 59 59 60 75 61 46 62 47 63 58 65 76 66 49 67
REMARK SMILES IDX 36 68 37 69 42 70 38 71 39 72 41 73 43 74 40 75 62 76 63 77
REMARK SMILES IDX 68 78 64 79 65 80 67 81 69 82 66 83 50 84 51 85 56 86 52 87
REMARK SMILES IDX 53 88 55 89 57 90 54 91
REMARK H PARENT 20 5 86 29 24 34 74 53 48 64
REMARK Flexibility Score: inf
ROOT
ATOM      1  C   UNL A   1      36.538  20.021  25.011  1.00  0.00     0.117 C 
ENDROOT
BRANCH   1   2
ATOM      2  N   UNL A   1      36.349  21.360  25.513  1.00  0.00    -0.354 N 
ATOM      3  C   UNL A   1      35.257  21.904  26.119  1.00  0.00     0.239 C 
ATOM      4  O   UNL A   1      35.401  23.005  26.658  1.00  0.00    -0.273 OA
ATOM      5  H   UNL A   1      37.118  21.966  25.403  1.00  0.00     0.163 HD
BRANCH   3   6
ATOM      6  C   UNL A   1      33.968  21.092  26.285  1.00  0.00     0.219 C 
BRANCH   6   7
ATOM      7  N   UNL A   1      32.878  21.316  25.330  1.00  0.00    -0.333 N 
ATOM      8  C   UNL A   1      33.018  27.089  22.481  1.00  0.00     0.253 C 
ATOM      9  O   UNL A   1      33.891  27.303  21.639  1.00  0.00    -0.269 OA
ATOM     10  N   UNL A   1      32.536  25.804  22.714  1.00  0.00    -0.339 N 
ATOM     11  C   UNL A   1      33.423  24.686  22.440  1.00  0.00     0.120 C 
ATOM     12  C   UNL A   1      31.145  25.451  22.976  1.00  0.00     0.120 C 
ATOM     13  C   UNL A   1      33.428  23.764  23.652  1.00  0.00     0.030 C 
ATOM     14  C   UNL A   1      31.037  24.462  24.141  1.00  0.00     0.030 C 
ATOM     15  C   UNL A   1      32.011  23.257  24.027  1.00  0.00    -0.008 C 
ATOM     16  C   UNL A   1      31.448  22.231  23.023  1.00  0.00     0.019 C 
ATOM     17  C   UNL A   1      32.087  22.539  25.384  1.00  0.00     0.127 C 
ATOM     18  C   UNL A   1      32.265  20.949  22.964  1.00  0.00     0.101 C 
ATOM     19  C   UNL A   1      32.747  20.405  24.295  1.00  0.00     0.223 C 
ATOM     20  O   UNL A   1      33.152  19.248  24.381  1.00  0.00    -0.275 OA
BRANCH   8  21
ATOM     21  C   UNL A   1      32.606  28.216  23.371  1.00  0.00     0.043 A 
ATOM     22  C   UNL A   1      31.327  31.038  26.396  1.00  0.00     0.048 C 
ATOM     23  C   UNL A   1      31.804  30.082  25.342  1.00  0.00    -0.009 A 
ATOM     24  C   UNL A   1      30.905  29.642  24.364  1.00  0.00     0.008 A 
ATOM     25  C   UNL A   1      33.106  29.571  25.319  1.00  0.00     0.119 A 
ATOM     26  C   UNL A   1      31.296  28.703  23.408  1.00  0.00     0.014 A 
ATOM     27  C   UNL A   1      33.511  28.662  24.342  1.00  0.00     0.060 A 
BRANCH  25  28
ATOM     28  O   UNL A   1      34.041  29.898  26.260  1.00  0.00    -0.508 OA
ATOM     29  H   UNL A   1      34.820  29.384  26.344  1.00  0.00     0.293 HD
ENDBRANCH  25  28
ENDBRANCH   8  21
ENDBRANCH   6   7
ENDBRANCH   3   6
ENDBRANCH   1   2
BRANCH   1  30
ATOM     30  C   UNL A   1      37.992  19.740  24.661  1.00  0.00     0.042 C 
BRANCH  30  31
ATOM     31  C   UNL A   1      38.974  20.134  25.757  1.00  0.00     0.118 C 
BRANCH  31  32
ATOM     32  N   UNL A   1      40.106  19.221  25.849  1.00  0.00    -0.352 N 
ATOM     33  C   UNL A   1      41.427  19.470  26.115  1.00  0.00     0.251 C 
ATOM     34  H   UNL A   1      39.888  18.273  25.694  1.00  0.00     0.163 HD
ATOM     35  O   UNL A   1      42.259  18.577  25.945  1.00  0.00    -0.269 OA
BRANCH  33  36
ATOM     36  C   UNL A   1      41.865  20.801  26.584  1.00  0.00     0.039 A 
ATOM     37  C   UNL A   1      42.261  21.751  25.638  1.00  0.00     0.014 A 
ATOM     38  C   UNL A   1      41.915  21.107  27.946  1.00  0.00     0.014 A 
ATOM     39  C   UNL A   1      42.643  23.027  26.056  1.00  0.00     0.010 A 
ATOM     40  C   UNL A   1      42.212  22.404  28.355  1.00  0.00     0.010 A 
ATOM     41  C   UNL A   1      42.583  23.376  27.415  1.00  0.00    -0.014 A 
BRANCH  41  42
ATOM     42  C   UNL A   1      42.904  24.752  27.871  1.00  0.00     0.031 A 
ATOM     43  C   UNL A   1      44.331  25.158  28.113  1.00  0.00     0.074 A 
ATOM     44  C   UNL A   1      41.903  25.615  28.127  1.00  0.00     0.049 A 
ATOM     45  N   UNL A   1      44.802  26.290  28.571  1.00  0.00    -0.248 NA
ATOM     46  C   UNL A   1      45.363  24.149  27.828  1.00  0.00     0.031 C 
ATOM     47  C   UNL A   1      40.476  25.329  27.971  1.00  0.00     0.029 A 
ATOM     48  N   UNL A   1      41.932  26.910  28.581  1.00  0.00    -0.354 N 
ATOM     49  C   UNL A   1      46.180  26.127  28.636  1.00  0.00     0.074 A 
ATOM     50  C   UNL A   1      46.463  24.767  28.231  1.00  0.00     0.031 C 
ATOM     51  C   UNL A   1      39.770  26.424  28.294  1.00  0.00     0.029 A 
ATOM     52  C   UNL A   1      40.688  27.473  28.722  1.00  0.00     0.049 A 
ATOM     53  H   UNL A   1      42.767  27.391  28.786  1.00  0.00     0.167 HD
ATOM     54  C   UNL A   1      47.126  27.033  28.979  1.00  0.00     0.037 A 
ATOM     55  C   UNL A   1      40.327  28.696  29.156  1.00  0.00     0.037 A 
ATOM     56  C   UNL A   1      46.841  28.389  29.374  1.00  0.00     0.049 A 
ATOM     57  C   UNL A   1      41.394  29.674  29.562  1.00  0.00     0.074 A 
ATOM     58  C   UNL A   1      47.729  29.399  29.696  1.00  0.00     0.029 A 
ATOM     59  N   UNL A   1      45.566  28.920  29.507  1.00  0.00    -0.354 N 
ATOM     60  N   UNL A   1      42.696  29.528  29.558  1.00  0.00    -0.248 NA
ATOM     61  C   UNL A   1      40.938  30.991  30.031  1.00  0.00     0.031 C 
ATOM     62  C   UNL A   1      46.992  30.527  30.074  1.00  0.00     0.029 A 
ATOM     63  C   UNL A   1      45.645  30.237  29.931  1.00  0.00     0.049 A 
ATOM     64  H   UNL A   1      44.729  28.434  29.327  1.00  0.00     0.167 HD
ATOM     65  C   UNL A   1      43.217  30.740  29.991  1.00  0.00     0.074 A 
ATOM     66  C   UNL A   1      42.089  31.615  30.236  1.00  0.00     0.031 C 
ATOM     67  C   UNL A   1      44.513  31.098  30.166  1.00  0.00     0.037 A 
BRANCH  54  68
ATOM     68  C   UNL A   1      48.559  26.583  28.944  1.00  0.00     0.057 A 
ATOM     69  C   UNL A   1      49.349  26.719  27.793  1.00  0.00     0.134 A 
ATOM     70  C   UNL A   1      49.164  26.025  30.077  1.00  0.00     0.134 A 
ATOM     71  F   UNL A   1      48.829  27.235  26.668  1.00  0.00    -0.206 F 
ATOM     72  C   UNL A   1      50.676  26.285  27.761  1.00  0.00     0.040 A 
ATOM     73  C   UNL A   1      50.499  25.616  30.066  1.00  0.00     0.040 A 
ATOM     74  F   UNL A   1      48.471  25.873  31.215  1.00  0.00    -0.206 F 
ATOM     75  C   UNL A   1      51.256  25.737  28.902  1.00  0.00     0.006 A 
ENDBRANCH  54  68
BRANCH  55  76
ATOM     76  C   UNL A   1      38.892  29.074  29.202  1.00  0.00     0.057 A 
ATOM     77  C   UNL A   1      38.152  28.948  30.384  1.00  0.00     0.134 A 
ATOM     78  C   UNL A   1      38.225  29.565  28.073  1.00  0.00     0.134 A 
ATOM     79  F   UNL A   1      38.731  28.468  31.494  1.00  0.00    -0.206 F 
ATOM     80  C   UNL A   1      36.796  29.276  30.437  1.00  0.00     0.040 A 
ATOM     81  C   UNL A   1      36.875  29.922  28.119  1.00  0.00     0.040 A 
ATOM     82  F   UNL A   1      38.878  29.720  26.912  1.00  0.00    -0.206 F 
ATOM     83  C   UNL A   1      36.156  29.770  29.302  1.00  0.00     0.006 A 
ENDBRANCH  55  76
BRANCH  67  84
ATOM     84  C   UNL A   1      44.783  32.508  30.609  1.00  0.00     0.057 A 
ATOM     85  C   UNL A   1      44.853  33.571  29.699  1.00  0.00     0.134 A 
ATOM     86  C   UNL A   1      44.939  32.808  31.968  1.00  0.00     0.134 A 
ATOM     87  F   UNL A   1      44.726  33.349  28.382  1.00  0.00    -0.206 F 
ATOM     88  C   UNL A   1      45.094  34.879  30.124  1.00  0.00     0.040 A 
ATOM     89  C   UNL A   1      45.151  34.116  32.407  1.00  0.00     0.040 A 
ATOM     90  F   UNL A   1      44.876  31.839  32.893  1.00  0.00    -0.206 F 
ATOM     91  C   UNL A   1      45.236  35.155  31.483  1.00  0.00     0.006 A 
ENDBRANCH  67  84
ENDBRANCH  41  42
ENDBRANCH  33  36
ENDBRANCH  31  32
ENDBRANCH  30  31
ENDBRANCH   1  30
TORSDOF 13
ENDMDL
