MODEL 1
REMARK VINA RESULT:     -14.4      0.000      0.000
REMARK SMILES Cc1c(NCc2ccccn2)cccc1C(=O)N1CCOC[C@@H]1CC(=O)NCCCNC(=O)c1ccc(-c2c3nc(c(-c4c(F)cccc4F)c4ccc([nH]4)c(-c4c(F)cccc4F)c4nc(c(-c5c(F)cccc5F)c5ccc2[nH]5)C=C4)C=C3)cc1
REMARK SMILES IDX 25 1 26 2 27 3 24 5 23 6 18 7 19 8 20 9 22 10 21 11 16 12
REMARK SMILES IDX 17 13 15 14 1 15 2 16 3 17 12 18 14 19 13 20 4 21 5 23 6 24
REMARK SMILES IDX 7 25 11 26 8 27 10 28 9 29 28 30 29 31 30 32 31 33 32 34
REMARK SMILES IDX 33 36 34 37 35 38 87 39 36 40 86 41 37 42 38 43 39 44 80 45
REMARK SMILES IDX 40 46 85 47 79 48 81 49 41 50 84 51 78 52 77 53 42 55 68 56
REMARK SMILES IDX 51 57 67 58 52 59 55 60 66 61 82 62 53 63 54 64 65 66 83 67
REMARK SMILES IDX 56 68 43 69 44 70 49 71 45 72 46 73 48 74 50 75 47 76 69 77
REMARK SMILES IDX 70 78 75 79 71 80 72 81 74 82 76 83 73 84 57 85 58 86 63 87
REMARK SMILES IDX 59 88 60 89 62 90 64 91 61 92
REMARK H PARENT 27 4 4 22 31 35 81 54 55 65
REMARK Flexibility Score: inf
ROOT
ATOM      1  C   UNL A   1      33.167  25.843  23.782  1.00  0.00     0.222 C 
ATOM      2  O   UNL A   1      32.909  24.796  23.181  1.00  0.00    -0.275 OA
ATOM      3  N   UNL A   1      32.763  27.082  23.276  1.00  0.00    -0.356 N 
ATOM      4  H   UNL A   1      32.885  27.342  22.334  1.00  0.00     0.163 HD
ENDROOT
BRANCH   1   5
ATOM      5  C   UNL A   1      33.888  25.856  25.132  1.00  0.00     0.127 C 
BRANCH   5   6
ATOM      6  C   UNL A   1      33.314  24.823  26.108  1.00  0.00     0.120 C 
ATOM      7  N   UNL A   1      33.668  23.310  25.966  1.00  0.00    -0.331 N 
ATOM      8  C   UNL A   1      32.904  22.573  27.026  1.00  0.00     0.148 C 
ATOM      9  C   UNL A   1      31.374  22.882  26.947  1.00  0.00     0.181 C 
ATOM     10  C   UNL A   1      31.745  25.060  26.233  1.00  0.00     0.185 C 
ATOM     11  O   UNL A   1      31.150  24.261  27.255  1.00  0.00    -0.377 OA
BRANCH   7  12
ATOM     12  C   UNL A   1      34.807  22.549  25.269  1.00  0.00     0.254 C 
ATOM     13  O   UNL A   1      34.440  21.941  24.249  1.00  0.00    -0.269 OA
BRANCH  12  14
ATOM     14  C   UNL A   1      36.606  22.558  25.522  1.00  0.00     0.045 A 
ATOM     15  C   UNL A   1      38.191  20.105  24.825  1.00  0.00     0.047 C 
ATOM     16  C   UNL A   1      37.878  21.516  25.499  1.00  0.00    -0.015 A 
ATOM     17  C   UNL A   1      39.127  21.802  26.060  1.00  0.00     0.038 A 
ATOM     18  C   UNL A   1      39.237  23.143  26.399  1.00  0.00     0.026 A 
ATOM     19  C   UNL A   1      36.891  23.810  26.053  1.00  0.00     0.014 A 
ATOM     20  C   UNL A   1      38.196  24.107  26.428  1.00  0.00     0.003 A 
BRANCH  17  21
ATOM     21  N   UNL A   1      40.171  20.889  26.305  1.00  0.00    -0.379 N 
ATOM     22  H   UNL A   1      39.846  19.966  26.189  1.00  0.00     0.160 HD
BRANCH  21  23
ATOM     23  C   UNL A   1      41.674  20.878  26.699  1.00  0.00     0.169 C 
BRANCH  23  24
ATOM     24  C   UNL A   1      42.822  21.458  25.797  1.00  0.00     0.059 A 
ATOM     25  C   UNL A   1      43.015  22.812  25.494  1.00  0.00     0.026 A 
ATOM     26  N   UNL A   1      43.712  20.559  25.289  1.00  0.00    -0.259 NA
ATOM     27  C   UNL A   1      43.960  23.213  24.533  1.00  0.00     0.004 A 
ATOM     28  C   UNL A   1      44.669  20.976  24.415  1.00  0.00     0.111 A 
ATOM     29  C   UNL A   1      44.806  22.274  23.976  1.00  0.00     0.020 A 
ENDBRANCH  23  24
ENDBRANCH  21  23
ENDBRANCH  17  21
ENDBRANCH  12  14
ENDBRANCH   7  12
ENDBRANCH   5   6
ENDBRANCH   1   5
BRANCH   3  30
ATOM     30  C   UNL A   1      32.157  27.937  24.249  1.00  0.00     0.117 C 
BRANCH  30  31
ATOM     31  C   UNL A   1      32.848  29.332  25.236  1.00  0.00     0.042 C 
BRANCH  31  32
ATOM     32  C   UNL A   1      32.108  30.538  26.369  1.00  0.00     0.118 C 
BRANCH  32  33
ATOM     33  N   UNL A   1      32.736  31.629  27.254  1.00  0.00    -0.352 N 
ATOM     34  C   UNL A   1      33.919  31.867  28.037  1.00  0.00     0.251 C 
ATOM     35  H   UNL A   1      32.140  32.412  27.299  1.00  0.00     0.163 HD
ATOM     36  O   UNL A   1      33.859  32.790  28.860  1.00  0.00    -0.269 OA
BRANCH  34  37
ATOM     37  C   UNL A   1      35.291  31.207  27.947  1.00  0.00     0.039 A 
ATOM     38  C   UNL A   1      35.526  29.829  27.677  1.00  0.00     0.014 A 
ATOM     39  C   UNL A   1      36.424  31.916  28.183  1.00  0.00     0.014 A 
ATOM     40  C   UNL A   1      36.784  29.184  27.982  1.00  0.00     0.010 A 
ATOM     41  C   UNL A   1      37.650  31.280  28.447  1.00  0.00     0.010 A 
ATOM     42  C   UNL A   1      37.833  29.913  28.535  1.00  0.00    -0.014 A 
BRANCH  42  43
ATOM     43  C   UNL A   1      38.915  29.509  29.518  1.00  0.00     0.031 A 
ATOM     44  C   UNL A   1      39.787  28.270  29.397  1.00  0.00     0.074 A 
ATOM     45  C   UNL A   1      39.520  30.517  30.203  1.00  0.00     0.049 A 
ATOM     46  N   UNL A   1      40.879  28.072  30.076  1.00  0.00    -0.248 NA
ATOM     47  C   UNL A   1      39.529  27.146  28.504  1.00  0.00     0.031 C 
ATOM     48  C   UNL A   1      40.965  30.688  30.482  1.00  0.00     0.029 A 
ATOM     49  N   UNL A   1      38.995  31.686  30.714  1.00  0.00    -0.354 N 
ATOM     50  C   UNL A   1      41.612  27.071  29.479  1.00  0.00     0.074 A 
ATOM     51  C   UNL A   1      40.678  26.455  28.572  1.00  0.00     0.031 C 
ATOM     52  C   UNL A   1      41.162  31.765  31.255  1.00  0.00     0.029 A 
ATOM     53  C   UNL A   1      39.862  32.222  31.680  1.00  0.00     0.049 A 
ATOM     54  H   UNL A   1      38.137  32.086  30.442  1.00  0.00     0.167 HD
ATOM     55  C   UNL A   1      42.948  26.940  29.759  1.00  0.00     0.037 A 
ATOM     56  C   UNL A   1      39.448  32.275  32.981  1.00  0.00     0.037 A 
ATOM     57  C   UNL A   1      43.368  27.794  30.872  1.00  0.00     0.049 A 
ATOM     58  C   UNL A   1      40.149  31.259  33.872  1.00  0.00     0.074 A 
ATOM     59  C   UNL A   1      44.234  28.857  31.058  1.00  0.00     0.029 A 
ATOM     60  N   UNL A   1      42.723  27.620  32.081  1.00  0.00    -0.354 N 
ATOM     61  N   UNL A   1      41.243  30.618  33.562  1.00  0.00    -0.248 NA
ATOM     62  C   UNL A   1      39.604  30.818  35.157  1.00  0.00     0.031 C 
ATOM     63  C   UNL A   1      44.022  29.366  32.381  1.00  0.00     0.029 A 
ATOM     64  C   UNL A   1      43.065  28.584  33.001  1.00  0.00     0.049 A 
ATOM     65  H   UNL A   1      42.091  26.887  32.264  1.00  0.00     0.167 HD
ATOM     66  C   UNL A   1      41.436  29.596  34.453  1.00  0.00     0.074 A 
ATOM     67  C   UNL A   1      40.422  29.799  35.469  1.00  0.00     0.031 C 
ATOM     68  C   UNL A   1      42.347  28.596  34.267  1.00  0.00     0.037 A 
BRANCH  55  69
ATOM     69  C   UNL A   1      43.949  26.055  29.036  1.00  0.00     0.057 A 
ATOM     70  C   UNL A   1      44.411  26.401  27.746  1.00  0.00     0.134 A 
ATOM     71  C   UNL A   1      44.428  24.820  29.506  1.00  0.00     0.134 A 
ATOM     72  F   UNL A   1      44.032  27.541  27.149  1.00  0.00    -0.206 F 
ATOM     73  C   UNL A   1      45.283  25.594  26.997  1.00  0.00     0.040 A 
ATOM     74  C   UNL A   1      45.344  24.028  28.789  1.00  0.00     0.040 A 
ATOM     75  F   UNL A   1      43.995  24.285  30.654  1.00  0.00    -0.206 F 
ATOM     76  C   UNL A   1      45.768  24.409  27.525  1.00  0.00     0.006 A 
ENDBRANCH  55  69
BRANCH  56  77
ATOM     77  C   UNL A   1      38.006  32.667  33.020  1.00  0.00     0.057 A 
ATOM     78  C   UNL A   1      37.727  34.016  32.718  1.00  0.00     0.134 A 
ATOM     79  C   UNL A   1      37.013  31.722  32.722  1.00  0.00     0.134 A 
ATOM     80  F   UNL A   1      38.645  34.964  32.964  1.00  0.00    -0.206 F 
ATOM     81  C   UNL A   1      36.606  34.380  31.969  1.00  0.00     0.040 A 
ATOM     82  C   UNL A   1      35.878  32.085  31.989  1.00  0.00     0.040 A 
ATOM     83  F   UNL A   1      37.225  30.418  32.944  1.00  0.00    -0.206 F 
ATOM     84  C   UNL A   1      35.701  33.402  31.563  1.00  0.00     0.006 A 
ENDBRANCH  56  77
BRANCH  68  85
ATOM     85  C   UNL A   1      42.557  27.501  35.277  1.00  0.00     0.057 A 
ATOM     86  C   UNL A   1      43.636  27.534  36.172  1.00  0.00     0.134 A 
ATOM     87  C   UNL A   1      41.769  26.334  35.314  1.00  0.00     0.134 A 
ATOM     88  F   UNL A   1      44.480  28.577  36.192  1.00  0.00    -0.206 F 
ATOM     89  C   UNL A   1      43.893  26.492  37.072  1.00  0.00     0.040 A 
ATOM     90  C   UNL A   1      42.043  25.266  36.174  1.00  0.00     0.040 A 
ATOM     91  F   UNL A   1      40.684  26.191  34.539  1.00  0.00    -0.206 F 
ATOM     92  C   UNL A   1      43.104  25.347  37.066  1.00  0.00     0.006 A 
ENDBRANCH  68  85
ENDBRANCH  42  43
ENDBRANCH  34  37
ENDBRANCH  32  33
ENDBRANCH  31  32
ENDBRANCH  30  31
ENDBRANCH   3  30
TORSDOF 16
ENDMDL
MODEL 2
REMARK VINA RESULT:     -13.8      2.825      9.212
REMARK SMILES Cc1c(NCc2ccccn2)cccc1C(=O)N1CCOC[C@@H]1CC(=O)NCCCNC(=O)c1ccc(-c2c3nc(c(-c4c(F)cccc4F)c4ccc([nH]4)c(-c4c(F)cccc4F)c4nc(c(-c5c(F)cccc5F)c5ccc2[nH]5)C=C4)C=C3)cc1
REMARK SMILES IDX 25 1 26 2 27 3 24 5 23 6 18 7 19 8 20 9 22 10 21 11 16 12
REMARK SMILES IDX 17 13 15 14 1 15 2 16 3 17 12 18 14 19 13 20 4 21 5 23 6 24
REMARK SMILES IDX 7 25 11 26 8 27 10 28 9 29 28 30 29 31 30 32 31 33 32 34
REMARK SMILES IDX 33 36 34 37 35 38 87 39 36 40 86 41 37 42 38 43 39 44 80 45
REMARK SMILES IDX 40 46 85 47 79 48 81 49 41 50 84 51 78 52 77 53 42 55 68 56
REMARK SMILES IDX 51 57 67 58 52 59 55 60 66 61 82 62 53 63 54 64 65 66 83 67
REMARK SMILES IDX 56 68 43 69 44 70 49 71 45 72 46 73 48 74 50 75 47 76 69 77
REMARK SMILES IDX 70 78 75 79 71 80 72 81 74 82 76 83 73 84 57 85 58 86 63 87
REMARK SMILES IDX 59 88 60 89 62 90 64 91 61 92
REMARK H PARENT 27 4 4 22 31 35 81 54 55 65
REMARK Flexibility Score: inf
ROOT
ATOM      1  C   UNL A   1      34.600  24.094  23.402  1.00  0.00     0.222 C 
ATOM      2  O   UNL A   1      34.017  24.672  22.480  1.00  0.00    -0.275 OA
ATOM      3  N   UNL A   1      35.465  23.025  23.150  1.00  0.00    -0.356 N 
ATOM      4  H   UNL A   1      35.238  22.284  22.544  1.00  0.00     0.163 HD
ENDROOT
BRANCH   1   5
ATOM      5  C   UNL A   1      34.462  24.534  24.861  1.00  0.00     0.127 C 
BRANCH   5   6
ATOM      6  C   UNL A   1      33.683  23.519  25.704  1.00  0.00     0.120 C 
ATOM      7  N   UNL A   1      32.306  23.896  26.334  1.00  0.00    -0.331 N 
ATOM      8  C   UNL A   1      31.846  22.715  27.138  1.00  0.00     0.148 C 
ATOM      9  C   UNL A   1      32.928  22.276  28.178  1.00  0.00     0.181 C 
ATOM     10  C   UNL A   1      34.674  22.880  26.773  1.00  0.00     0.185 C 
ATOM     11  O   UNL A   1      34.084  21.794  27.487  1.00  0.00    -0.377 OA
BRANCH   7  12
ATOM     12  C   UNL A   1      31.263  24.983  26.029  1.00  0.00     0.254 C 
ATOM     13  O   UNL A   1      30.120  24.690  26.420  1.00  0.00    -0.269 OA
BRANCH  12  14
ATOM     14  C   UNL A   1      31.427  26.686  25.421  1.00  0.00     0.045 A 
ATOM     15  C   UNL A   1      33.404  28.524  26.736  1.00  0.00     0.047 C 
ATOM     16  C   UNL A   1      32.155  28.101  25.839  1.00  0.00    -0.015 A 
ATOM     17  C   UNL A   1      31.813  29.342  25.294  1.00  0.00     0.038 A 
ATOM     18  C   UNL A   1      30.982  29.202  24.191  1.00  0.00     0.026 A 
ATOM     19  C   UNL A   1      30.501  26.794  24.390  1.00  0.00     0.014 A 
ATOM     20  C   UNL A   1      30.330  28.018  23.756  1.00  0.00     0.003 A 
BRANCH  17  21
ATOM     21  N   UNL A   1      32.202  30.609  25.770  1.00  0.00    -0.379 N 
ATOM     22  H   UNL A   1      32.976  30.939  25.258  1.00  0.00     0.160 HD
BRANCH  21  23
ATOM     23  C   UNL A   1      31.795  31.650  26.850  1.00  0.00     0.169 C 
BRANCH  23  24
ATOM     24  C   UNL A   1      32.811  32.608  27.571  1.00  0.00     0.059 A 
ATOM     25  C   UNL A   1      34.082  32.247  28.035  1.00  0.00     0.026 A 
ATOM     26  N   UNL A   1      32.418  33.903  27.733  1.00  0.00    -0.259 NA
ATOM     27  C   UNL A   1      34.842  33.126  28.826  1.00  0.00     0.004 A 
ATOM     28  C   UNL A   1      33.201  34.763  28.441  1.00  0.00     0.111 A 
ATOM     29  C   UNL A   1      34.392  34.414  29.040  1.00  0.00     0.020 A 
ENDBRANCH  23  24
ENDBRANCH  21  23
ENDBRANCH  17  21
ENDBRANCH  12  14
ENDBRANCH   7  12
ENDBRANCH   5   6
ENDBRANCH   1   5
BRANCH   3  30
ATOM     30  C   UNL A   1      36.709  23.107  23.851  1.00  0.00     0.117 C 
BRANCH  30  31
ATOM     31  C   UNL A   1      37.352  22.155  25.292  1.00  0.00     0.042 C 
BRANCH  31  32
ATOM     32  C   UNL A   1      38.988  21.498  25.717  1.00  0.00     0.118 C 
BRANCH  32  33
ATOM     33  N   UNL A   1      39.972  21.854  26.846  1.00  0.00    -0.352 N 
ATOM     34  C   UNL A   1      40.639  22.999  27.405  1.00  0.00     0.251 C 
ATOM     35  H   UNL A   1      40.225  21.042  27.341  1.00  0.00     0.163 HD
ATOM     36  O   UNL A   1      41.614  22.768  28.132  1.00  0.00    -0.269 OA
BRANCH  34  37
ATOM     37  C   UNL A   1      40.272  24.476  27.314  1.00  0.00     0.039 A 
ATOM     38  C   UNL A   1      40.750  25.383  26.326  1.00  0.00     0.014 A 
ATOM     39  C   UNL A   1      39.471  25.056  28.243  1.00  0.00     0.014 A 
ATOM     40  C   UNL A   1      40.692  26.818  26.501  1.00  0.00     0.010 A 
ATOM     41  C   UNL A   1      39.397  26.453  28.385  1.00  0.00     0.010 A 
ATOM     42  C   UNL A   1      40.133  27.366  27.652  1.00  0.00    -0.014 A 
BRANCH  42  43
ATOM     43  C   UNL A   1      40.478  28.624  28.424  1.00  0.00     0.031 A 
ATOM     44  C   UNL A   1      39.514  29.764  28.714  1.00  0.00     0.074 A 
ATOM     45  C   UNL A   1      41.462  28.514  29.358  1.00  0.00     0.049 A 
ATOM     46  N   UNL A   1      39.726  30.698  29.594  1.00  0.00    -0.248 NA
ATOM     47  C   UNL A   1      38.227  29.960  28.058  1.00  0.00     0.031 C 
ATOM     48  C   UNL A   1      41.480  29.072  30.730  1.00  0.00     0.029 A 
ATOM     49  N   UNL A   1      42.629  27.779  29.337  1.00  0.00    -0.354 N 
ATOM     50  C   UNL A   1      38.539  31.336  29.876  1.00  0.00     0.074 A 
ATOM     51  C   UNL A   1      37.660  30.913  28.815  1.00  0.00     0.031 C 
ATOM     52  C   UNL A   1      42.658  28.817  31.316  1.00  0.00     0.029 A 
ATOM     53  C   UNL A   1      43.524  28.269  30.302  1.00  0.00     0.049 A 
ATOM     54  H   UNL A   1      42.809  27.021  28.734  1.00  0.00     0.167 HD
ATOM     55  C   UNL A   1      38.414  32.074  31.025  1.00  0.00     0.037 A 
ATOM     56  C   UNL A   1      44.690  28.848  29.886  1.00  0.00     0.037 A 
ATOM     57  C   UNL A   1      39.697  32.260  31.707  1.00  0.00     0.049 A 
ATOM     58  C   UNL A   1      44.703  30.359  30.063  1.00  0.00     0.074 A 
ATOM     59  C   UNL A   1      40.254  31.909  32.924  1.00  0.00     0.029 A 
ATOM     60  N   UNL A   1      40.711  32.867  30.991  1.00  0.00    -0.354 N 
ATOM     61  N   UNL A   1      43.870  31.034  30.809  1.00  0.00    -0.248 NA
ATOM     62  C   UNL A   1      45.610  31.240  29.325  1.00  0.00     0.031 C 
ATOM     63  C   UNL A   1      41.647  32.243  32.879  1.00  0.00     0.029 A 
ATOM     64  C   UNL A   1      41.915  32.831  31.656  1.00  0.00     0.049 A 
ATOM     65  H   UNL A   1      40.585  33.279  30.105  1.00  0.00     0.167 HD
ATOM     66  C   UNL A   1      43.985  32.368  30.522  1.00  0.00     0.074 A 
ATOM     67  C   UNL A   1      45.129  32.456  29.635  1.00  0.00     0.031 C 
ATOM     68  C   UNL A   1      43.092  33.310  30.948  1.00  0.00     0.037 A 
BRANCH  55  69
ATOM     69  C   UNL A   1      37.133  32.649  31.606  1.00  0.00     0.057 A 
ATOM     70  C   UNL A   1      37.035  34.028  31.899  1.00  0.00     0.134 A 
ATOM     71  C   UNL A   1      36.003  31.900  31.977  1.00  0.00     0.134 A 
ATOM     72  F   UNL A   1      38.037  34.876  31.622  1.00  0.00    -0.206 F 
ATOM     73  C   UNL A   1      35.906  34.610  32.499  1.00  0.00     0.040 A 
ATOM     74  C   UNL A   1      34.846  32.478  32.529  1.00  0.00     0.040 A 
ATOM     75  F   UNL A   1      35.978  30.565  31.882  1.00  0.00    -0.206 F 
ATOM     76  C   UNL A   1      34.797  33.837  32.801  1.00  0.00     0.006 A 
ENDBRANCH  55  69
BRANCH  56  77
ATOM     77  C   UNL A   1      45.239  28.070  28.733  1.00  0.00     0.057 A 
ATOM     78  C   UNL A   1      45.793  26.812  29.048  1.00  0.00     0.134 A 
ATOM     79  C   UNL A   1      44.686  28.227  27.453  1.00  0.00     0.134 A 
ATOM     80  F   UNL A   1      46.321  26.595  30.263  1.00  0.00    -0.206 F 
ATOM     81  C   UNL A   1      45.620  25.708  28.211  1.00  0.00     0.040 A 
ATOM     82  C   UNL A   1      44.529  27.128  26.602  1.00  0.00     0.040 A 
ATOM     83  F   UNL A   1      44.105  29.381  27.099  1.00  0.00    -0.206 F 
ATOM     84  C   UNL A   1      44.945  25.857  27.003  1.00  0.00     0.006 A 
ENDBRANCH  56  77
BRANCH  68  85
ATOM     85  C   UNL A   1      43.260  34.774  30.641  1.00  0.00     0.057 A 
ATOM     86  C   UNL A   1      42.953  35.291  29.374  1.00  0.00     0.134 A 
ATOM     87  C   UNL A   1      43.835  35.684  31.549  1.00  0.00     0.134 A 
ATOM     88  F   UNL A   1      42.445  34.502  28.415  1.00  0.00    -0.206 F 
ATOM     89  C   UNL A   1      43.169  36.634  29.043  1.00  0.00     0.040 A 
ATOM     90  C   UNL A   1      44.099  37.016  31.215  1.00  0.00     0.040 A 
ATOM     91  F   UNL A   1      44.138  35.330  32.806  1.00  0.00    -0.206 F 
ATOM     92  C   UNL A   1      43.757  37.499  29.960  1.00  0.00     0.006 A 
ENDBRANCH  68  85
ENDBRANCH  42  43
ENDBRANCH  34  37
ENDBRANCH  32  33
ENDBRANCH  31  32
ENDBRANCH  30  31
ENDBRANCH   3  30
TORSDOF 16
ENDMDL
MODEL 3
REMARK VINA RESULT:     -13.7      3.721     10.015
REMARK SMILES Cc1c(NCc2ccccn2)cccc1C(=O)N1CCOC[C@@H]1CC(=O)NCCCNC(=O)c1ccc(-c2c3nc(c(-c4c(F)cccc4F)c4ccc([nH]4)c(-c4c(F)cccc4F)c4nc(c(-c5c(F)cccc5F)c5ccc2[nH]5)C=C4)C=C3)cc1
REMARK SMILES IDX 25 1 26 2 27 3 24 5 23 6 18 7 19 8 20 9 22 10 21 11 16 12
REMARK SMILES IDX 17 13 15 14 1 15 2 16 3 17 12 18 14 19 13 20 4 21 5 23 6 24
REMARK SMILES IDX 7 25 11 26 8 27 10 28 9 29 28 30 29 31 30 32 31 33 32 34
REMARK SMILES IDX 33 36 34 37 35 38 87 39 36 40 86 41 37 42 38 43 39 44 80 45
REMARK SMILES IDX 40 46 85 47 79 48 81 49 41 50 84 51 78 52 77 53 42 55 68 56
REMARK SMILES IDX 51 57 67 58 52 59 55 60 66 61 82 62 53 63 54 64 65 66 83 67
REMARK SMILES IDX 56 68 43 69 44 70 49 71 45 72 46 73 48 74 50 75 47 76 69 77
REMARK SMILES IDX 70 78 75 79 71 80 72 81 74 82 76 83 73 84 57 85 58 86 63 87
REMARK SMILES IDX 59 88 60 89 62 90 64 91 61 92
REMARK H PARENT 27 4 4 22 31 35 81 54 55 65
REMARK Flexibility Score: inf
ROOT
ATOM      1  C   UNL A   1      36.577  22.371  24.369  1.00  0.00     0.222 C 
ATOM      2  O   UNL A   1      35.675  22.820  23.655  1.00  0.00    -0.275 OA
ATOM      3  N   UNL A   1      37.725  23.122  24.635  1.00  0.00    -0.356 N 
ATOM      4  H   UNL A   1      38.226  23.602  23.935  1.00  0.00     0.163 HD
ENDROOT
BRANCH   1   5
ATOM      5  C   UNL A   1      36.480  21.004  25.048  1.00  0.00     0.127 C 
BRANCH   5   6
ATOM      6  C   UNL A   1      35.114  20.343  24.833  1.00  0.00     0.120 C 
ATOM      7  N   UNL A   1      33.912  20.673  25.772  1.00  0.00    -0.331 N 
ATOM      8  C   UNL A   1      32.757  19.822  25.331  1.00  0.00     0.148 C 
ATOM      9  C   UNL A   1      33.144  18.308  25.295  1.00  0.00     0.181 C 
ATOM     10  C   UNL A   1      35.330  18.774  24.668  1.00  0.00     0.185 C 
ATOM     11  O   UNL A   1      34.135  18.094  24.286  1.00  0.00    -0.377 OA
BRANCH   7  12
ATOM     12  C   UNL A   1      33.598  21.840  26.722  1.00  0.00     0.254 C 
ATOM     13  O   UNL A   1      34.199  21.764  27.808  1.00  0.00    -0.269 OA
BRANCH  12  14
ATOM     14  C   UNL A   1      32.708  23.403  26.471  1.00  0.00     0.045 A 
ATOM     15  C   UNL A   1      29.731  23.467  26.861  1.00  0.00     0.047 C 
ATOM     16  C   UNL A   1      31.165  23.961  26.365  1.00  0.00    -0.015 A 
ATOM     17  C   UNL A   1      30.825  25.213  25.843  1.00  0.00     0.038 A 
ATOM     18  C   UNL A   1      31.945  26.014  25.672  1.00  0.00     0.026 A 
ATOM     19  C   UNL A   1      33.682  24.320  26.097  1.00  0.00     0.014 A 
ATOM     20  C   UNL A   1      33.304  25.614  25.762  1.00  0.00     0.003 A 
BRANCH  17  21
ATOM     21  N   UNL A   1      29.536  25.658  25.488  1.00  0.00    -0.379 N 
ATOM     22  H   UNL A   1      28.932  25.595  26.263  1.00  0.00     0.160 HD
BRANCH  21  23
ATOM     23  C   UNL A   1      28.768  26.217  24.258  1.00  0.00     0.169 C 
BRANCH  23  24
ATOM     24  C   UNL A   1      29.251  27.447  23.408  1.00  0.00     0.059 A 
ATOM     25  C   UNL A   1      30.558  27.660  22.953  1.00  0.00     0.026 A 
ATOM     26  N   UNL A   1      28.302  28.366  23.073  1.00  0.00    -0.259 NA
ATOM     27  C   UNL A   1      30.929  28.877  22.354  1.00  0.00     0.004 A 
ATOM     28  C   UNL A   1      28.667  29.508  22.428  1.00  0.00     0.111 A 
ATOM     29  C   UNL A   1      29.964  29.828  22.088  1.00  0.00     0.020 A 
ENDBRANCH  23  24
ENDBRANCH  21  23
ENDBRANCH  17  21
ENDBRANCH  12  14
ENDBRANCH   7  12
ENDBRANCH   5   6
ENDBRANCH   1   5
BRANCH   3  30
ATOM     30  C   UNL A   1      38.108  23.131  26.013  1.00  0.00     0.117 C 
BRANCH  30  31
ATOM     31  C   UNL A   1      39.714  22.742  26.828  1.00  0.00     0.042 C 
BRANCH  31  32
ATOM     32  C   UNL A   1      40.620  21.198  27.116  1.00  0.00     0.118 C 
BRANCH  32  33
ATOM     33  N   UNL A   1      41.830  20.573  26.399  1.00  0.00    -0.352 N 
ATOM     34  C   UNL A   1      43.008  20.970  25.677  1.00  0.00     0.251 C 
ATOM     35  H   UNL A   1      41.782  19.591  26.451  1.00  0.00     0.163 HD
ATOM     36  O   UNL A   1      43.551  20.098  24.986  1.00  0.00    -0.269 OA
BRANCH  34  37
ATOM     37  C   UNL A   1      43.759  22.297  25.699  1.00  0.00     0.039 A 
ATOM     38  C   UNL A   1      44.858  22.607  26.549  1.00  0.00     0.014 A 
ATOM     39  C   UNL A   1      43.374  23.331  24.908  1.00  0.00     0.014 A 
ATOM     40  C   UNL A   1      45.277  23.967  26.808  1.00  0.00     0.010 A 
ATOM     41  C   UNL A   1      43.811  24.646  25.149  1.00  0.00     0.010 A 
ATOM     42  C   UNL A   1      44.620  25.034  26.201  1.00  0.00    -0.014 A 
BRANCH  42  43
ATOM     43  C   UNL A   1      44.337  26.439  26.696  1.00  0.00     0.031 A 
ATOM     44  C   UNL A   1      42.957  27.069  26.796  1.00  0.00     0.074 A 
ATOM     45  C   UNL A   1      45.221  26.957  27.592  1.00  0.00     0.049 A 
ATOM     46  N   UNL A   1      42.691  28.152  27.466  1.00  0.00    -0.248 NA
ATOM     47  C   UNL A   1      41.749  26.546  26.168  1.00  0.00     0.031 C 
ATOM     48  C   UNL A   1      44.923  27.721  28.825  1.00  0.00     0.029 A 
ATOM     49  N   UNL A   1      46.591  26.823  27.667  1.00  0.00    -0.354 N 
ATOM     50  C   UNL A   1      41.333  28.242  27.667  1.00  0.00     0.074 A 
ATOM     51  C   UNL A   1      40.784  27.279  26.747  1.00  0.00     0.031 C 
ATOM     52  C   UNL A   1      46.062  28.130  29.400  1.00  0.00     0.029 A 
ATOM     53  C   UNL A   1      47.130  27.835  28.478  1.00  0.00     0.049 A 
ATOM     54  H   UNL A   1      47.116  26.122  27.217  1.00  0.00     0.167 HD
ATOM     55  C   UNL A   1      40.838  29.057  28.652  1.00  0.00     0.037 A 
ATOM     56  C   UNL A   1      47.942  28.775  27.909  1.00  0.00     0.037 A 
ATOM     57  C   UNL A   1      41.872  29.918  29.231  1.00  0.00     0.049 A 
ATOM     58  C   UNL A   1      47.279  30.140  27.785  1.00  0.00     0.074 A 
ATOM     59  C   UNL A   1      42.465  30.093  30.469  1.00  0.00     0.029 A 
ATOM     60  N   UNL A   1      42.550  30.758  28.368  1.00  0.00    -0.354 N 
ATOM     61  N   UNL A   1      46.198  30.509  28.418  1.00  0.00    -0.248 NA
ATOM     62  C   UNL A   1      47.742  31.168  26.852  1.00  0.00     0.031 C 
ATOM     63  C   UNL A   1      43.570  30.990  30.301  1.00  0.00     0.029 A 
ATOM     64  C   UNL A   1      43.613  31.386  28.976  1.00  0.00     0.049 A 
ATOM     65  H   UNL A   1      42.301  30.891  27.425  1.00  0.00     0.167 HD
ATOM     66  C   UNL A   1      45.729  31.673  27.870  1.00  0.00     0.074 A 
ATOM     67  C   UNL A   1      46.761  32.082  26.937  1.00  0.00     0.031 C 
ATOM     68  C   UNL A   1      44.493  32.188  28.140  1.00  0.00     0.037 A 
BRANCH  55  69
ATOM     69  C   UNL A   1      39.408  29.109  29.162  1.00  0.00     0.057 A 
ATOM     70  C   UNL A   1      38.367  29.578  28.329  1.00  0.00     0.134 A 
ATOM     71  C   UNL A   1      39.001  28.800  30.471  1.00  0.00     0.134 A 
ATOM     72  F   UNL A   1      38.594  29.932  27.055  1.00  0.00    -0.206 F 
ATOM     73  C   UNL A   1      37.037  29.715  28.760  1.00  0.00     0.040 A 
ATOM     74  C   UNL A   1      37.664  28.881  30.900  1.00  0.00     0.040 A 
ATOM     75  F   UNL A   1      39.880  28.459  31.421  1.00  0.00    -0.206 F 
ATOM     76  C   UNL A   1      36.676  29.348  30.046  1.00  0.00     0.006 A 
ENDBRANCH  55  69
BRANCH  56  77
ATOM     77  C   UNL A   1      48.834  28.112  26.909  1.00  0.00     0.057 A 
ATOM     78  C   UNL A   1      49.880  27.330  27.442  1.00  0.00     0.134 A 
ATOM     79  C   UNL A   1      48.329  27.741  25.654  1.00  0.00     0.134 A 
ATOM     80  F   UNL A   1      50.392  27.624  28.648  1.00  0.00    -0.206 F 
ATOM     81  C   UNL A   1      50.261  26.122  26.854  1.00  0.00     0.040 A 
ATOM     82  C   UNL A   1      48.722  26.542  25.050  1.00  0.00     0.040 A 
ATOM     83  F   UNL A   1      47.307  28.413  25.106  1.00  0.00    -0.206 F 
ATOM     84  C   UNL A   1      49.646  25.704  25.677  1.00  0.00     0.006 A 
ENDBRANCH  56  77
BRANCH  68  85
ATOM     85  C   UNL A   1      44.014  33.485  27.545  1.00  0.00     0.057 A 
ATOM     86  C   UNL A   1      43.730  34.594  28.352  1.00  0.00     0.134 A 
ATOM     87  C   UNL A   1      43.715  33.632  26.176  1.00  0.00     0.134 A 
ATOM     88  F   UNL A   1      43.932  34.549  29.678  1.00  0.00    -0.206 F 
ATOM     89  C   UNL A   1      43.215  35.787  27.829  1.00  0.00     0.040 A 
ATOM     90  C   UNL A   1      43.156  34.800  25.649  1.00  0.00     0.040 A 
ATOM     91  F   UNL A   1      43.976  32.662  25.288  1.00  0.00    -0.206 F 
ATOM     92  C   UNL A   1      42.913  35.889  26.476  1.00  0.00     0.006 A 
ENDBRANCH  68  85
ENDBRANCH  42  43
ENDBRANCH  34  37
ENDBRANCH  32  33
ENDBRANCH  31  32
ENDBRANCH  30  31
ENDBRANCH   3  30
TORSDOF 16
ENDMDL
