MODEL 1
REMARK VINA RESULT:     -12.2      0.000      0.000
REMARK SMILES CCN(C(=O)Cc1c(C(=O)NCCCNC(=O)c2ccc(-c3c4nc(c(-c5c(F)cccc5F)c5ccc([nH]5)c(-c5c(F)cccc5F)c5nc(c(-c6c(F)cccc6F)c6ccc3[nH]6)C=C5)C=C4)cc2)[nH]c2ccccc12)c1cccc(C)c1
REMARK SMILES IDX 12 1 11 2 9 3 10 4 8 6 7 7 78 8 72 9 73 10 77 11 74 13 76 14
REMARK SMILES IDX 75 15 6 16 4 17 5 18 3 19 2 20 1 21 79 22 80 23 85 24 81 25
REMARK SMILES IDX 83 26 82 27 84 28 13 29 14 30 15 31 16 32 17 34 18 35 19 36
REMARK SMILES IDX 71 37 20 38 70 39 21 40 22 41 23 42 64 43 24 44 69 45 63 46
REMARK SMILES IDX 65 47 25 48 68 49 62 50 61 51 26 53 52 54 35 55 51 56 36 57
REMARK SMILES IDX 39 58 50 59 66 60 37 61 38 62 49 64 67 65 40 66 27 67 28 68
REMARK SMILES IDX 33 69 29 70 30 71 32 72 34 73 31 74 53 75 54 76 59 77 55 78
REMARK SMILES IDX 56 79 58 80 60 81 57 82 41 83 42 84 47 85 43 86 44 87 46 88
REMARK SMILES IDX 48 89 45 90
REMARK H PARENT 11 5 72 12 15 33 65 52 39 63
REMARK Flexibility Score: inf
ROOT
ATOM      1  C   UNL A   1      34.231  29.107  25.071  1.00  0.00     0.118 C 
ENDROOT
BRANCH   1   2
ATOM      2  N   UNL A   1      34.378  28.683  23.687  1.00  0.00    -0.351 N 
ATOM      3  C   UNL A   1      33.531  28.478  22.628  1.00  0.00     0.268 C 
ATOM      4  O   UNL A   1      34.074  28.028  21.617  1.00  0.00    -0.268 OA
ATOM      5  H   UNL A   1      35.316  28.499  23.453  1.00  0.00     0.163 HD
BRANCH   3   6
ATOM      6  C   UNL A   1      32.104  28.735  22.689  1.00  0.00     0.109 A 
ATOM      7  C   UNL A   1      31.113  27.999  23.362  1.00  0.00    -0.000 A 
ATOM      8  C   UNL A   1      29.838  28.548  22.990  1.00  0.00     0.004 A 
ATOM      9  N   UNL A   1      31.435  29.707  21.982  1.00  0.00    -0.350 N 
ATOM     10  C   UNL A   1      30.078  29.632  22.157  1.00  0.00     0.046 A 
ATOM     11  C   UNL A   1      28.498  28.202  23.264  1.00  0.00     0.010 A 
ATOM     12  H   UNL A   1      31.880  30.378  21.415  1.00  0.00     0.167 HD
ATOM     13  C   UNL A   1      29.057  30.418  21.608  1.00  0.00     0.027 A 
ATOM     14  C   UNL A   1      27.460  28.957  22.704  1.00  0.00     0.001 A 
ATOM     15  C   UNL A   1      27.739  30.057  21.896  1.00  0.00     0.002 A 
BRANCH   7  16
ATOM     16  C   UNL A   1      31.275  26.783  24.246  1.00  0.00     0.139 C 
BRANCH  16  17
ATOM     17  C   UNL A   1      31.590  25.498  23.469  1.00  0.00     0.231 C 
ATOM     18  O   UNL A   1      31.425  25.490  22.242  1.00  0.00    -0.274 OA
BRANCH  17  19
ATOM     19  N   UNL A   1      32.038  24.376  24.175  1.00  0.00    -0.312 N 
BRANCH  19  20
ATOM     20  C   UNL A   1      31.160  23.376  24.799  1.00  0.00     0.122 C 
ATOM     21  C   UNL A   1      30.502  23.841  26.082  1.00  0.00     0.028 C 
ENDBRANCH  19  20
BRANCH  19  22
ATOM     22  C   UNL A   1      33.416  24.248  24.528  1.00  0.00     0.044 A 
ATOM     23  C   UNL A   1      33.817  24.364  25.860  1.00  0.00     0.026 A 
ATOM     24  C   UNL A   1      34.344  23.826  23.568  1.00  0.00     0.029 A 
ATOM     25  C   UNL A   1      35.112  23.992  26.230  1.00  0.00     0.002 A 
ATOM     26  C   UNL A   1      35.637  23.433  23.930  1.00  0.00    -0.049 A 
ATOM     27  C   UNL A   1      36.013  23.514  25.273  1.00  0.00     0.003 A 
ATOM     28  C   UNL A   1      36.597  22.936  22.891  1.00  0.00     0.044 C 
ENDBRANCH  19  22
ENDBRANCH  17  19
ENDBRANCH  16  17
ENDBRANCH   7  16
ENDBRANCH   3   6
ENDBRANCH   1   2
BRANCH   1  29
ATOM     29  C   UNL A   1      34.088  27.960  26.070  1.00  0.00     0.042 C 
BRANCH  29  30
ATOM     30  C   UNL A   1      33.607  28.366  27.463  1.00  0.00     0.118 C 
BRANCH  30  31
ATOM     31  N   UNL A   1      33.611  29.805  27.669  1.00  0.00    -0.352 N 
ATOM     32  C   UNL A   1      34.561  30.650  28.182  1.00  0.00     0.251 C 
ATOM     33  H   UNL A   1      32.782  30.255  27.388  1.00  0.00     0.163 HD
ATOM     34  O   UNL A   1      34.245  31.812  28.429  1.00  0.00    -0.269 OA
BRANCH  32  35
ATOM     35  C   UNL A   1      35.945  30.202  28.458  1.00  0.00     0.039 A 
ATOM     36  C   UNL A   1      36.871  30.238  27.408  1.00  0.00     0.014 A 
ATOM     37  C   UNL A   1      36.322  29.664  29.690  1.00  0.00     0.014 A 
ATOM     38  C   UNL A   1      38.178  29.786  27.606  1.00  0.00     0.010 A 
ATOM     39  C   UNL A   1      37.645  29.269  29.906  1.00  0.00     0.010 A 
ATOM     40  C   UNL A   1      38.585  29.321  28.866  1.00  0.00    -0.014 A 
BRANCH  40  41
ATOM     41  C   UNL A   1      39.986  28.892  29.107  1.00  0.00     0.031 A 
ATOM     42  C   UNL A   1      40.974  29.828  29.747  1.00  0.00     0.074 A 
ATOM     43  C   UNL A   1      40.387  27.672  28.702  1.00  0.00     0.049 A 
ATOM     44  N   UNL A   1      42.254  29.655  29.968  1.00  0.00    -0.248 NA
ATOM     45  C   UNL A   1      40.462  31.139  30.173  1.00  0.00     0.031 C 
ATOM     46  C   UNL A   1      39.537  26.680  28.040  1.00  0.00     0.029 A 
ATOM     47  N   UNL A   1      41.615  27.062  28.775  1.00  0.00    -0.354 N 
ATOM     48  C   UNL A   1      42.702  30.838  30.542  1.00  0.00     0.074 A 
ATOM     49  C   UNL A   1      41.567  31.735  30.598  1.00  0.00     0.031 C 
ATOM     50  C   UNL A   1      40.264  25.582  27.782  1.00  0.00     0.029 A 
ATOM     51  C   UNL A   1      41.637  25.804  28.226  1.00  0.00     0.049 A 
ATOM     52  H   UNL A   1      42.404  27.488  29.181  1.00  0.00     0.167 HD
ATOM     53  C   UNL A   1      43.943  31.144  30.993  1.00  0.00     0.037 A 
ATOM     54  C   UNL A   1      42.651  24.929  28.088  1.00  0.00     0.037 A 
ATOM     55  C   UNL A   1      45.066  30.244  30.965  1.00  0.00     0.049 A 
ATOM     56  C   UNL A   1      44.018  25.292  28.594  1.00  0.00     0.074 A 
ATOM     57  C   UNL A   1      46.344  30.443  31.457  1.00  0.00     0.029 A 
ATOM     58  N   UNL A   1      45.045  28.972  30.412  1.00  0.00    -0.354 N 
ATOM     59  N   UNL A   1      44.414  26.395  29.182  1.00  0.00    -0.248 NA
ATOM     60  C   UNL A   1      45.077  24.288  28.421  1.00  0.00     0.031 C 
ATOM     61  C   UNL A   1      47.107  29.305  31.170  1.00  0.00     0.029 A 
ATOM     62  C   UNL A   1      46.293  28.384  30.534  1.00  0.00     0.049 A 
ATOM     63  H   UNL A   1      44.258  28.551  29.995  1.00  0.00     0.167 HD
ATOM     64  C   UNL A   1      45.760  26.210  29.468  1.00  0.00     0.074 A 
ATOM     65  C   UNL A   1      46.110  24.885  29.000  1.00  0.00     0.031 C 
ATOM     66  C   UNL A   1      46.627  27.063  30.066  1.00  0.00     0.037 A 
BRANCH  53  67
ATOM     67  C   UNL A   1      44.150  32.518  31.561  1.00  0.00     0.057 A 
ATOM     68  C   UNL A   1      43.962  32.790  32.922  1.00  0.00     0.134 A 
ATOM     69  C   UNL A   1      44.575  33.573  30.745  1.00  0.00     0.134 A 
ATOM     70  F   UNL A   1      43.545  31.826  33.757  1.00  0.00    -0.206 F 
ATOM     71  C   UNL A   1      44.162  34.069  33.446  1.00  0.00     0.040 A 
ATOM     72  C   UNL A   1      44.802  34.851  31.260  1.00  0.00     0.040 A 
ATOM     73  F   UNL A   1      44.783  33.379  29.433  1.00  0.00    -0.206 F 
ATOM     74  C   UNL A   1      44.589  35.102  32.614  1.00  0.00     0.006 A 
ENDBRANCH  53  67
BRANCH  54  75
ATOM     75  C   UNL A   1      42.406  23.610  27.456  1.00  0.00     0.057 A 
ATOM     76  C   UNL A   1      42.499  23.447  26.070  1.00  0.00     0.134 A 
ATOM     77  C   UNL A   1      42.079  22.482  28.220  1.00  0.00     0.134 A 
ATOM     78  F   UNL A   1      42.790  24.496  25.287  1.00  0.00    -0.206 F 
ATOM     79  C   UNL A   1      42.264  22.214  25.461  1.00  0.00     0.040 A 
ATOM     80  C   UNL A   1      41.863  21.238  27.627  1.00  0.00     0.040 A 
ATOM     81  F   UNL A   1      41.982  22.573  29.554  1.00  0.00    -0.206 F 
ATOM     82  C   UNL A   1      41.951  21.103  26.242  1.00  0.00     0.006 A 
ENDBRANCH  54  75
BRANCH  66  83
ATOM     83  C   UNL A   1      48.031  26.578  30.271  1.00  0.00     0.057 A 
ATOM     84  C   UNL A   1      49.037  26.811  29.325  1.00  0.00     0.134 A 
ATOM     85  C   UNL A   1      48.387  25.900  31.444  1.00  0.00     0.134 A 
ATOM     86  F   UNL A   1      48.755  27.440  28.174  1.00  0.00    -0.206 F 
ATOM     87  C   UNL A   1      50.345  26.370  29.529  1.00  0.00     0.040 A 
ATOM     88  C   UNL A   1      49.697  25.475  31.669  1.00  0.00     0.040 A 
ATOM     89  F   UNL A   1      47.472  25.652  32.392  1.00  0.00    -0.206 F 
ATOM     90  C   UNL A   1      50.680  25.706  30.708  1.00  0.00     0.006 A 
ENDBRANCH  66  83
ENDBRANCH  40  41
ENDBRANCH  32  35
ENDBRANCH  30  31
ENDBRANCH  29  30
ENDBRANCH   1  29
TORSDOF 15
ENDMDL
MODEL 2
REMARK VINA RESULT:     -11.8      1.023      4.224
REMARK SMILES CCN(C(=O)Cc1c(C(=O)NCCCNC(=O)c2ccc(-c3c4nc(c(-c5c(F)cccc5F)c5ccc([nH]5)c(-c5c(F)cccc5F)c5nc(c(-c6c(F)cccc6F)c6ccc3[nH]6)C=C5)C=C4)cc2)[nH]c2ccccc12)c1cccc(C)c1
REMARK SMILES IDX 12 1 11 2 9 3 10 4 8 6 7 7 78 8 72 9 73 10 77 11 74 13 76 14
REMARK SMILES IDX 75 15 6 16 4 17 5 18 3 19 2 20 1 21 79 22 80 23 85 24 81 25
REMARK SMILES IDX 83 26 82 27 84 28 13 29 14 30 15 31 16 32 17 34 18 35 19 36
REMARK SMILES IDX 71 37 20 38 70 39 21 40 22 41 23 42 64 43 24 44 69 45 63 46
REMARK SMILES IDX 65 47 25 48 68 49 62 50 61 51 26 53 52 54 35 55 51 56 36 57
REMARK SMILES IDX 39 58 50 59 66 60 37 61 38 62 49 64 67 65 40 66 27 67 28 68
REMARK SMILES IDX 33 69 29 70 30 71 32 72 34 73 31 74 53 75 54 76 59 77 55 78
REMARK SMILES IDX 56 79 58 80 60 81 57 82 41 83 42 84 47 85 43 86 44 87 46 88
REMARK SMILES IDX 48 89 45 90
REMARK H PARENT 11 5 72 12 15 33 65 52 39 63
REMARK Flexibility Score: inf
ROOT
ATOM      1  C   UNL A   1      31.600  27.280  26.505  1.00  0.00     0.118 C 
ENDROOT
BRANCH   1   2
ATOM      2  N   UNL A   1      31.121  25.930  26.759  1.00  0.00    -0.351 N 
ATOM      3  C   UNL A   1      31.564  24.662  26.482  1.00  0.00     0.268 C 
ATOM      4  O   UNL A   1      30.791  23.763  26.818  1.00  0.00    -0.268 OA
ATOM      5  H   UNL A   1      30.268  25.926  27.251  1.00  0.00     0.163 HD
BRANCH   3   6
ATOM      6  C   UNL A   1      32.826  24.388  25.818  1.00  0.00     0.109 A 
ATOM      7  C   UNL A   1      33.075  24.251  24.442  1.00  0.00    -0.000 A 
ATOM      8  C   UNL A   1      34.437  23.820  24.289  1.00  0.00     0.004 A 
ATOM      9  N   UNL A   1      34.012  24.088  26.447  1.00  0.00    -0.350 N 
ATOM     10  C   UNL A   1      35.002  23.763  25.557  1.00  0.00     0.046 A 
ATOM     11  C   UNL A   1      35.236  23.445  23.188  1.00  0.00     0.010 A 
ATOM     12  H   UNL A   1      34.135  24.105  27.424  1.00  0.00     0.167 HD
ATOM     13  C   UNL A   1      36.330  23.387  25.789  1.00  0.00     0.027 A 
ATOM     14  C   UNL A   1      36.560  23.039  23.399  1.00  0.00     0.001 A 
ATOM     15  C   UNL A   1      37.100  23.023  24.682  1.00  0.00     0.002 A 
BRANCH   7  16
ATOM     16  C   UNL A   1      32.113  24.410  23.286  1.00  0.00     0.139 C 
BRANCH  16  17
ATOM     17  C   UNL A   1      32.461  25.579  22.354  1.00  0.00     0.231 C 
ATOM     18  O   UNL A   1      33.191  25.363  21.378  1.00  0.00    -0.274 OA
BRANCH  17  19
ATOM     19  N   UNL A   1      31.953  26.848  22.647  1.00  0.00    -0.312 N 
BRANCH  19  20
ATOM     20  C   UNL A   1      32.774  28.016  22.997  1.00  0.00     0.122 C 
ATOM     21  C   UNL A   1      34.002  27.689  23.820  1.00  0.00     0.028 C 
ENDBRANCH  19  20
BRANCH  19  22
ATOM     22  C   UNL A   1      30.551  27.039  22.843  1.00  0.00     0.044 A 
ATOM     23  C   UNL A   1      29.805  26.106  23.565  1.00  0.00     0.026 A 
ATOM     24  C   UNL A   1      29.955  28.249  22.468  1.00  0.00     0.029 A 
ATOM     25  C   UNL A   1      28.503  26.418  23.966  1.00  0.00     0.002 A 
ATOM     26  C   UNL A   1      28.659  28.580  22.878  1.00  0.00    -0.049 A 
ATOM     27  C   UNL A   1      27.938  27.654  23.638  1.00  0.00     0.003 A 
ATOM     28  C   UNL A   1      28.059  29.903  22.508  1.00  0.00     0.044 C 
ENDBRANCH  19  22
ENDBRANCH  17  19
ENDBRANCH  16  17
ENDBRANCH   7  16
ENDBRANCH   3   6
ENDBRANCH   1   2
BRANCH   1  29
ATOM     29  C   UNL A   1      32.346  27.915  27.677  1.00  0.00     0.042 C 
BRANCH  29  30
ATOM     30  C   UNL A   1      33.645  28.633  27.308  1.00  0.00     0.118 C 
BRANCH  30  31
ATOM     31  N   UNL A   1      33.643  30.038  27.681  1.00  0.00    -0.352 N 
ATOM     32  C   UNL A   1      34.580  30.815  28.313  1.00  0.00     0.251 C 
ATOM     33  H   UNL A   1      32.821  30.519  27.436  1.00  0.00     0.163 HD
ATOM     34  O   UNL A   1      34.257  31.941  28.686  1.00  0.00    -0.269 OA
BRANCH  32  35
ATOM     35  C   UNL A   1      35.957  30.335  28.568  1.00  0.00     0.039 A 
ATOM     36  C   UNL A   1      36.884  30.407  27.521  1.00  0.00     0.014 A 
ATOM     37  C   UNL A   1      36.325  29.734  29.774  1.00  0.00     0.014 A 
ATOM     38  C   UNL A   1      38.185  29.929  27.698  1.00  0.00     0.010 A 
ATOM     39  C   UNL A   1      37.642  29.310  29.971  1.00  0.00     0.010 A 
ATOM     40  C   UNL A   1      38.583  29.399  28.935  1.00  0.00    -0.014 A 
BRANCH  40  41
ATOM     41  C   UNL A   1      39.978  28.939  29.156  1.00  0.00     0.031 A 
ATOM     42  C   UNL A   1      41.000  29.859  29.766  1.00  0.00     0.074 A 
ATOM     43  C   UNL A   1      40.343  27.705  28.758  1.00  0.00     0.049 A 
ATOM     44  N   UNL A   1      42.279  29.658  29.966  1.00  0.00    -0.248 NA
ATOM     45  C   UNL A   1      40.527  31.186  30.186  1.00  0.00     0.031 C 
ATOM     46  C   UNL A   1      39.458  26.726  28.124  1.00  0.00     0.029 A 
ATOM     47  N   UNL A   1      41.557  27.067  28.816  1.00  0.00    -0.354 N 
ATOM     48  C   UNL A   1      42.766  30.836  30.517  1.00  0.00     0.074 A 
ATOM     49  C   UNL A   1      41.653  31.761  30.583  1.00  0.00     0.031 C 
ATOM     50  C   UNL A   1      40.154  25.608  27.866  1.00  0.00     0.029 A 
ATOM     51  C   UNL A   1      41.540  25.802  28.283  1.00  0.00     0.049 A 
ATOM     52  H   UNL A   1      42.364  27.479  29.203  1.00  0.00     0.167 HD
ATOM     53  C   UNL A   1      44.021  31.118  30.943  1.00  0.00     0.037 A 
ATOM     54  C   UNL A   1      42.530  24.902  28.137  1.00  0.00     0.037 A 
ATOM     55  C   UNL A   1      45.122  30.190  30.905  1.00  0.00     0.049 A 
ATOM     56  C   UNL A   1      43.914  25.238  28.613  1.00  0.00     0.074 A 
ATOM     57  C   UNL A   1      46.414  30.365  31.371  1.00  0.00     0.029 A 
ATOM     58  N   UNL A   1      45.061  28.913  30.368  1.00  0.00    -0.354 N 
ATOM     59  N   UNL A   1      44.346  26.338  29.181  1.00  0.00    -0.248 NA
ATOM     60  C   UNL A   1      44.946  24.207  28.433  1.00  0.00     0.031 C 
ATOM     61  C   UNL A   1      47.144  29.206  31.085  1.00  0.00     0.029 A 
ATOM     62  C   UNL A   1      46.296  28.297  30.475  1.00  0.00     0.049 A 
ATOM     63  H   UNL A   1      44.257  28.506  29.970  1.00  0.00     0.167 HD
ATOM     64  C   UNL A   1      45.692  26.124  29.445  1.00  0.00     0.074 A 
ATOM     65  C   UNL A   1      46.002  24.786  28.987  1.00  0.00     0.031 C 
ATOM     66  C   UNL A   1      46.590  26.963  30.017  1.00  0.00     0.037 A 
BRANCH  53  67
ATOM     67  C   UNL A   1      44.272  32.493  31.490  1.00  0.00     0.057 A 
ATOM     68  C   UNL A   1      44.684  33.550  30.668  1.00  0.00     0.134 A 
ATOM     69  C   UNL A   1      44.067  32.772  32.847  1.00  0.00     0.134 A 
ATOM     70  F   UNL A   1      44.908  33.347  29.360  1.00  0.00    -0.206 F 
ATOM     71  C   UNL A   1      44.910  34.829  31.181  1.00  0.00     0.040 A 
ATOM     72  C   UNL A   1      44.267  34.051  33.368  1.00  0.00     0.040 A 
ATOM     73  F   UNL A   1      43.664  31.806  33.687  1.00  0.00    -0.206 F 
ATOM     74  C   UNL A   1      44.696  35.083  32.535  1.00  0.00     0.006 A 
ENDBRANCH  53  67
BRANCH  54  75
ATOM     75  C   UNL A   1      42.241  23.582  27.525  1.00  0.00     0.057 A 
ATOM     76  C   UNL A   1      41.930  22.473  28.320  1.00  0.00     0.134 A 
ATOM     77  C   UNL A   1      42.263  23.397  26.137  1.00  0.00     0.134 A 
ATOM     78  F   UNL A   1      41.912  22.586  29.657  1.00  0.00    -0.206 F 
ATOM     79  C   UNL A   1      41.663  21.224  27.760  1.00  0.00     0.040 A 
ATOM     80  C   UNL A   1      41.977  22.159  25.562  1.00  0.00     0.040 A 
ATOM     81  F   UNL A   1      42.547  24.424  25.323  1.00  0.00    -0.206 F 
ATOM     82  C   UNL A   1      41.680  21.066  26.375  1.00  0.00     0.006 A 
ENDBRANCH  54  75
BRANCH  66  83
ATOM     83  C   UNL A   1      47.986  26.447  30.202  1.00  0.00     0.057 A 
ATOM     84  C   UNL A   1      48.381  25.793  31.375  1.00  0.00     0.134 A 
ATOM     85  C   UNL A   1      48.936  26.578  29.180  1.00  0.00     0.134 A 
ATOM     86  F   UNL A   1      47.523  25.651  32.396  1.00  0.00    -0.206 F 
ATOM     87  C   UNL A   1      49.678  25.302  31.534  1.00  0.00     0.040 A 
ATOM     88  C   UNL A   1      50.229  26.071  29.319  1.00  0.00     0.040 A 
ATOM     89  F   UNL A   1      48.619  27.188  28.029  1.00  0.00    -0.206 F 
ATOM     90  C   UNL A   1      50.604  25.435  30.501  1.00  0.00     0.006 A 
ENDBRANCH  66  83
ENDBRANCH  40  41
ENDBRANCH  32  35
ENDBRANCH  30  31
ENDBRANCH  29  30
ENDBRANCH   1  29
TORSDOF 15
ENDMDL
MODEL 3
REMARK VINA RESULT:     -11.8      3.130      8.113
REMARK SMILES CCN(C(=O)Cc1c(C(=O)NCCCNC(=O)c2ccc(-c3c4nc(c(-c5c(F)cccc5F)c5ccc([nH]5)c(-c5c(F)cccc5F)c5nc(c(-c6c(F)cccc6F)c6ccc3[nH]6)C=C5)C=C4)cc2)[nH]c2ccccc12)c1cccc(C)c1
REMARK SMILES IDX 12 1 11 2 9 3 10 4 8 6 7 7 78 8 72 9 73 10 77 11 74 13 76 14
REMARK SMILES IDX 75 15 6 16 4 17 5 18 3 19 2 20 1 21 79 22 80 23 85 24 81 25
REMARK SMILES IDX 83 26 82 27 84 28 13 29 14 30 15 31 16 32 17 34 18 35 19 36
REMARK SMILES IDX 71 37 20 38 70 39 21 40 22 41 23 42 64 43 24 44 69 45 63 46
REMARK SMILES IDX 65 47 25 48 68 49 62 50 61 51 26 53 52 54 35 55 51 56 36 57
REMARK SMILES IDX 39 58 50 59 66 60 37 61 38 62 49 64 67 65 40 66 27 67 28 68
REMARK SMILES IDX 33 69 29 70 30 71 32 72 34 73 31 74 53 75 54 76 59 77 55 78
REMARK SMILES IDX 56 79 58 80 60 81 57 82 41 83 42 84 47 85 43 86 44 87 46 88
REMARK SMILES IDX 48 89 45 90
REMARK H PARENT 11 5 72 12 15 33 65 52 39 63
REMARK Flexibility Score: inf
ROOT
ATOM      1  C   UNL A   1      34.649  24.314  25.831  1.00  0.00     0.118 C 
ENDROOT
BRANCH   1   2
ATOM      2  N   UNL A   1      33.449  23.952  26.568  1.00  0.00    -0.351 N 
ATOM      3  C   UNL A   1      32.543  22.923  26.526  1.00  0.00     0.268 C 
ATOM      4  O   UNL A   1      31.594  23.042  27.303  1.00  0.00    -0.268 OA
ATOM      5  H   UNL A   1      33.233  24.607  27.271  1.00  0.00     0.163 HD
BRANCH   3   6
ATOM      6  C   UNL A   1      32.663  21.794  25.621  1.00  0.00     0.109 A 
ATOM      7  C   UNL A   1      32.312  21.725  24.262  1.00  0.00    -0.000 A 
ATOM      8  C   UNL A   1      32.461  20.358  23.845  1.00  0.00     0.004 A 
ATOM      9  N   UNL A   1      33.044  20.521  25.977  1.00  0.00    -0.350 N 
ATOM     10  C   UNL A   1      32.952  19.642  24.929  1.00  0.00     0.046 A 
ATOM     11  C   UNL A   1      32.194  19.656  22.650  1.00  0.00     0.010 A 
ATOM     12  H   UNL A   1      33.348  20.271  26.879  1.00  0.00     0.167 HD
ATOM     13  C   UNL A   1      33.229  18.271  24.881  1.00  0.00     0.027 A 
ATOM     14  C   UNL A   1      32.438  18.278  22.588  1.00  0.00     0.001 A 
ATOM     15  C   UNL A   1      32.960  17.600  23.686  1.00  0.00     0.002 A 
BRANCH   7  16
ATOM     16  C   UNL A   1      31.772  22.818  23.368  1.00  0.00     0.139 C 
BRANCH  16  17
ATOM     17  C   UNL A   1      32.855  23.766  22.835  1.00  0.00     0.231 C 
ATOM     18  O   UNL A   1      33.962  23.296  22.538  1.00  0.00    -0.274 OA
BRANCH  17  19
ATOM     19  N   UNL A   1      32.560  25.128  22.715  1.00  0.00    -0.312 N 
BRANCH  19  20
ATOM     20  C   UNL A   1      33.008  25.986  21.610  1.00  0.00     0.122 C 
ATOM     21  C   UNL A   1      32.388  25.647  20.269  1.00  0.00     0.028 C 
ENDBRANCH  19  20
BRANCH  19  22
ATOM     22  C   UNL A   1      31.971  25.837  23.805  1.00  0.00     0.044 A 
ATOM     23  C   UNL A   1      30.723  25.459  24.303  1.00  0.00     0.026 A 
ATOM     24  C   UNL A   1      32.720  26.799  24.495  1.00  0.00     0.029 A 
ATOM     25  C   UNL A   1      30.269  25.987  25.515  1.00  0.00     0.002 A 
ATOM     26  C   UNL A   1      32.284  27.320  25.718  1.00  0.00    -0.049 A 
ATOM     27  C   UNL A   1      31.053  26.901  26.227  1.00  0.00     0.003 A 
ATOM     28  C   UNL A   1      33.127  28.311  26.464  1.00  0.00     0.044 C 
ENDBRANCH  19  22
ENDBRANCH  17  19
ENDBRANCH  16  17
ENDBRANCH   7  16
ENDBRANCH   3   6
ENDBRANCH   1   2
BRANCH   1  29
ATOM     29  C   UNL A   1      35.812  23.339  26.002  1.00  0.00     0.042 C 
BRANCH  29  30
ATOM     30  C   UNL A   1      37.100  23.729  25.274  1.00  0.00     0.118 C 
BRANCH  30  31
ATOM     31  N   UNL A   1      38.203  22.822  25.546  1.00  0.00    -0.352 N 
ATOM     32  C   UNL A   1      39.417  23.018  26.152  1.00  0.00     0.251 C 
ATOM     33  H   UNL A   1      38.051  21.899  25.240  1.00  0.00     0.163 HD
ATOM     34  O   UNL A   1      40.259  22.125  26.087  1.00  0.00    -0.269 OA
BRANCH  32  35
ATOM     35  C   UNL A   1      39.745  24.273  26.866  1.00  0.00     0.039 A 
ATOM     36  C   UNL A   1      39.259  24.435  28.170  1.00  0.00     0.014 A 
ATOM     37  C   UNL A   1      40.433  25.322  26.252  1.00  0.00     0.014 A 
ATOM     38  C   UNL A   1      39.506  25.618  28.871  1.00  0.00     0.010 A 
ATOM     39  C   UNL A   1      40.731  26.480  26.974  1.00  0.00     0.010 A 
ATOM     40  C   UNL A   1      40.268  26.642  28.288  1.00  0.00    -0.014 A 
BRANCH  40  41
ATOM     41  C   UNL A   1      40.587  27.882  29.042  1.00  0.00     0.031 A 
ATOM     42  C   UNL A   1      41.913  28.037  29.735  1.00  0.00     0.074 A 
ATOM     43  C   UNL A   1      39.659  28.853  29.149  1.00  0.00     0.049 A 
ATOM     44  N   UNL A   1      42.338  29.013  30.499  1.00  0.00    -0.248 NA
ATOM     45  C   UNL A   1      42.879  26.941  29.565  1.00  0.00     0.031 C 
ATOM     46  C   UNL A   1      38.323  28.814  28.553  1.00  0.00     0.029 A 
ATOM     47  N   UNL A   1      39.694  30.056  29.808  1.00  0.00    -0.354 N 
ATOM     48  C   UNL A   1      43.611  28.641  30.914  1.00  0.00     0.074 A 
ATOM     49  C   UNL A   1      43.873  27.334  30.349  1.00  0.00     0.031 C 
ATOM     50  C   UNL A   1      37.672  29.947  28.860  1.00  0.00     0.029 A 
ATOM     51  C   UNL A   1      38.530  30.775  29.702  1.00  0.00     0.049 A 
ATOM     52  H   UNL A   1      40.481  30.373  30.309  1.00  0.00     0.167 HD
ATOM     53  C   UNL A   1      44.487  29.332  31.683  1.00  0.00     0.037 A 
ATOM     54  C   UNL A   1      38.185  31.964  30.231  1.00  0.00     0.037 A 
ATOM     55  C   UNL A   1      44.240  30.645  32.221  1.00  0.00     0.049 A 
ATOM     56  C   UNL A   1      39.173  32.710  31.083  1.00  0.00     0.074 A 
ATOM     57  C   UNL A   1      45.091  31.449  32.958  1.00  0.00     0.029 A 
ATOM     58  N   UNL A   1      43.051  31.345  32.081  1.00  0.00    -0.354 N 
ATOM     59  N   UNL A   1      40.392  32.369  31.423  1.00  0.00    -0.248 NA
ATOM     60  C   UNL A   1      38.737  34.007  31.621  1.00  0.00     0.031 C 
ATOM     61  C   UNL A   1      44.406  32.622  33.294  1.00  0.00     0.029 A 
ATOM     62  C   UNL A   1      43.141  32.563  32.734  1.00  0.00     0.049 A 
ATOM     63  H   UNL A   1      42.261  31.023  31.589  1.00  0.00     0.167 HD
ATOM     64  C   UNL A   1      40.877  33.417  32.194  1.00  0.00     0.074 A 
ATOM     65  C   UNL A   1      39.825  34.410  32.263  1.00  0.00     0.031 C 
ATOM     66  C   UNL A   1      42.087  33.543  32.792  1.00  0.00     0.037 A 
BRANCH  53  67
ATOM     67  C   UNL A   1      45.802  28.677  31.989  1.00  0.00     0.057 A 
ATOM     68  C   UNL A   1      45.979  27.870  33.120  1.00  0.00     0.134 A 
ATOM     69  C   UNL A   1      46.895  28.828  31.126  1.00  0.00     0.134 A 
ATOM     70  F   UNL A   1      44.975  27.693  33.993  1.00  0.00    -0.206 F 
ATOM     71  C   UNL A   1      47.203  27.258  33.397  1.00  0.00     0.040 A 
ATOM     72  C   UNL A   1      48.117  28.202  31.378  1.00  0.00     0.040 A 
ATOM     73  F   UNL A   1      46.790  29.581  30.020  1.00  0.00    -0.206 F 
ATOM     74  C   UNL A   1      48.275  27.420  32.520  1.00  0.00     0.006 A 
ENDBRANCH  53  67
BRANCH  54  75
ATOM     75  C   UNL A   1      36.845  32.535  29.953  1.00  0.00     0.057 A 
ATOM     76  C   UNL A   1      36.650  33.432  28.897  1.00  0.00     0.134 A 
ATOM     77  C   UNL A   1      35.730  32.195  30.728  1.00  0.00     0.134 A 
ATOM     78  F   UNL A   1      37.685  33.807  28.132  1.00  0.00    -0.206 F 
ATOM     79  C   UNL A   1      35.396  33.981  28.627  1.00  0.00     0.040 A 
ATOM     80  C   UNL A   1      34.466  32.720  30.457  1.00  0.00     0.040 A 
ATOM     81  F   UNL A   1      35.852  31.335  31.750  1.00  0.00    -0.206 F 
ATOM     82  C   UNL A   1      34.298  33.621  29.406  1.00  0.00     0.006 A 
ENDBRANCH  54  75
BRANCH  66  83
ATOM     83  C   UNL A   1      42.346  34.811  33.550  1.00  0.00     0.057 A 
ATOM     84  C   UNL A   1      42.947  35.922  32.945  1.00  0.00     0.134 A 
ATOM     85  C   UNL A   1      41.959  34.932  34.891  1.00  0.00     0.134 A 
ATOM     86  F   UNL A   1      43.354  35.863  31.668  1.00  0.00    -0.206 F 
ATOM     87  C   UNL A   1      43.171  37.104  33.653  1.00  0.00     0.040 A 
ATOM     88  C   UNL A   1      42.158  36.116  35.602  1.00  0.00     0.040 A 
ATOM     89  F   UNL A   1      41.373  33.907  35.526  1.00  0.00    -0.206 F 
ATOM     90  C   UNL A   1      42.770  37.205  34.984  1.00  0.00     0.006 A 
ENDBRANCH  66  83
ENDBRANCH  40  41
ENDBRANCH  32  35
ENDBRANCH  30  31
ENDBRANCH  29  30
ENDBRANCH   1  29
TORSDOF 15
ENDMDL
