MODEL 1
REMARK VINA RESULT:     -11.4      0.000      0.000
REMARK SMILES C[C@H]1[C@H](C(=O)NCCCNC(=O)c2ccc(-c3c4nc(c(-c5c(F)cccc5F)c5ccc([nH]5)c(-c5c(F)cccc5F)c5nc(c(-c6c(F)cccc6F)c6ccc3[nH]6)C=C5)C=C4)cc2)CCN1C(=O)COc1ccccc1F
REMARK SMILES IDX 7 1 6 2 4 3 5 4 3 6 1 7 2 8 69 9 67 10 68 11 70 12 71 13
REMARK SMILES IDX 72 14 73 15 74 16 75 17 79 18 76 19 78 20 80 21 77 22 8 23
REMARK SMILES IDX 9 24 10 25 11 26 12 28 13 29 14 30 66 31 15 32 65 33 16 34
REMARK SMILES IDX 17 35 18 36 59 37 19 38 64 39 58 40 60 41 20 42 63 43 57 44
REMARK SMILES IDX 56 45 21 47 47 48 30 49 46 50 31 51 34 52 45 53 61 54 32 55
REMARK SMILES IDX 33 56 44 58 62 59 35 60 22 61 23 62 28 63 24 64 25 65 27 66
REMARK SMILES IDX 29 67 26 68 48 69 49 70 54 71 50 72 51 73 53 74 55 75 52 76
REMARK SMILES IDX 36 77 37 78 42 79 38 80 39 81 41 82 43 83 40 84
REMARK H PARENT 6 5 10 27 60 46 34 57
REMARK Flexibility Score: inf
ROOT
ATOM      1  C   UNL A   1      31.522  30.617  25.891  1.00  0.00     0.117 C 
ENDROOT
BRANCH   1   2
ATOM      2  N   UNL A   1      31.539  29.686  27.007  1.00  0.00    -0.356 N 
ATOM      3  C   UNL A   1      31.670  28.337  27.055  1.00  0.00     0.225 C 
ATOM      4  O   UNL A   1      31.608  27.806  28.169  1.00  0.00    -0.275 OA
ATOM      5  H   UNL A   1      31.437  30.113  27.888  1.00  0.00     0.163 HD
BRANCH   3   6
ATOM      6  C   UNL A   1      31.874  27.480  25.820  1.00  0.00     0.102 C 
ATOM      7  C   UNL A   1      33.958  26.192  25.324  1.00  0.00     0.032 C 
ATOM      8  C   UNL A   1      32.649  26.180  26.115  1.00  0.00     0.094 C 
ATOM      9  N   UNL A   1      31.725  25.113  25.721  1.00  0.00    -0.336 N 
ATOM     10  C   UNL A   1      30.581  27.097  25.100  1.00  0.00     0.037 C 
ATOM     11  C   UNL A   1      30.697  25.610  24.827  1.00  0.00     0.121 C 
BRANCH   9  12
ATOM     12  C   UNL A   1      31.642  23.816  26.184  1.00  0.00     0.260 C 
ATOM     13  O   UNL A   1      31.307  23.575  27.350  1.00  0.00    -0.271 OA
BRANCH  12  14
ATOM     14  C   UNL A   1      31.997  22.643  25.258  1.00  0.00     0.329 C 
BRANCH  14  15
ATOM     15  O   UNL A   1      33.189  21.898  25.380  1.00  0.00    -0.481 OA
BRANCH  15  16
ATOM     16  C   UNL A   1      34.401  22.520  25.255  1.00  0.00     0.155 A 
ATOM     17  C   UNL A   1      34.906  22.521  23.948  1.00  0.00     0.049 A 
ATOM     18  C   UNL A   1      35.209  23.031  26.271  1.00  0.00     0.165 A 
ATOM     19  C   UNL A   1      36.184  23.020  23.670  1.00  0.00     0.004 A 
ATOM     20  C   UNL A   1      36.490  23.515  26.002  1.00  0.00     0.043 A 
ATOM     21  F   UNL A   1      34.829  23.034  27.550  1.00  0.00    -0.203 F 
ATOM     22  C   UNL A   1      36.980  23.510  24.701  1.00  0.00     0.003 A 
ENDBRANCH  15  16
ENDBRANCH  14  15
ENDBRANCH  12  14
ENDBRANCH   9  12
ENDBRANCH   3   6
ENDBRANCH   1   2
BRANCH   1  23
ATOM     23  C   UNL A   1      31.386  32.063  26.350  1.00  0.00     0.042 C 
BRANCH  23  24
ATOM     24  C   UNL A   1      32.534  32.542  27.232  1.00  0.00     0.118 C 
BRANCH  24  25
ATOM     25  N   UNL A   1      32.394  33.936  27.628  1.00  0.00    -0.352 N 
ATOM     26  C   UNL A   1      33.121  34.682  28.518  1.00  0.00     0.251 C 
ATOM     27  H   UNL A   1      31.660  34.420  27.184  1.00  0.00     0.163 HD
ATOM     28  O   UNL A   1      32.719  35.798  28.844  1.00  0.00    -0.269 OA
BRANCH  26  29
ATOM     29  C   UNL A   1      34.373  34.156  29.104  1.00  0.00     0.039 A 
ATOM     30  C   UNL A   1      34.299  33.404  30.280  1.00  0.00     0.014 A 
ATOM     31  C   UNL A   1      35.616  34.429  28.527  1.00  0.00     0.014 A 
ATOM     32  C   UNL A   1      35.464  32.879  30.843  1.00  0.00     0.010 A 
ATOM     33  C   UNL A   1      36.767  33.840  29.044  1.00  0.00     0.010 A 
ATOM     34  C   UNL A   1      36.704  33.066  30.211  1.00  0.00    -0.014 A 
BRANCH  34  35
ATOM     35  C   UNL A   1      37.942  32.463  30.763  1.00  0.00     0.031 A 
ATOM     36  C   UNL A   1      38.515  31.213  30.155  1.00  0.00     0.074 A 
ATOM     37  C   UNL A   1      38.517  33.010  31.851  1.00  0.00     0.049 A 
ATOM     38  N   UNL A   1      39.556  30.513  30.533  1.00  0.00    -0.248 NA
ATOM     39  C   UNL A   1      37.811  30.660  28.989  1.00  0.00     0.031 C 
ATOM     40  C   UNL A   1      38.024  34.188  32.567  1.00  0.00     0.029 A 
ATOM     41  N   UNL A   1      39.639  32.641  32.549  1.00  0.00    -0.354 N 
ATOM     42  C   UNL A   1      39.621  29.434  29.659  1.00  0.00     0.074 A 
ATOM     43  C   UNL A   1      38.486  29.542  28.768  1.00  0.00     0.031 C 
ATOM     44  C   UNL A   1      38.853  34.457  33.590  1.00  0.00     0.029 A 
ATOM     45  C   UNL A   1      39.913  33.456  33.620  1.00  0.00     0.049 A 
ATOM     46  H   UNL A   1      40.194  31.864  32.307  1.00  0.00     0.167 HD
ATOM     47  C   UNL A   1      40.556  28.457  29.589  1.00  0.00     0.037 A 
ATOM     48  C   UNL A   1      40.909  33.403  34.524  1.00  0.00     0.037 A 
ATOM     49  C   UNL A   1      41.699  28.365  30.460  1.00  0.00     0.049 A 
ATOM     50  C   UNL A   1      41.946  32.322  34.411  1.00  0.00     0.074 A 
ATOM     51  C   UNL A   1      42.732  27.444  30.434  1.00  0.00     0.029 A 
ATOM     52  N   UNL A   1      41.960  29.230  31.511  1.00  0.00    -0.354 N 
ATOM     53  N   UNL A   1      42.030  31.344  33.543  1.00  0.00    -0.248 NA
ATOM     54  C   UNL A   1      43.033  32.344  35.401  1.00  0.00     0.031 C 
ATOM     55  C   UNL A   1      43.601  27.732  31.491  1.00  0.00     0.029 A 
ATOM     56  C   UNL A   1      43.131  28.856  32.151  1.00  0.00     0.049 A 
ATOM     57  H   UNL A   1      41.397  29.996  31.766  1.00  0.00     0.167 HD
ATOM     58  C   UNL A   1      43.186  30.647  33.866  1.00  0.00     0.074 A 
ATOM     59  C   UNL A   1      43.780  31.325  35.001  1.00  0.00     0.031 C 
ATOM     60  C   UNL A   1      43.707  29.542  33.279  1.00  0.00     0.037 A 
BRANCH  47  61
ATOM     61  C   UNL A   1      40.381  27.413  28.525  1.00  0.00     0.057 A 
ATOM     62  C   UNL A   1      39.563  26.292  28.723  1.00  0.00     0.134 A 
ATOM     63  C   UNL A   1      41.016  27.538  27.284  1.00  0.00     0.134 A 
ATOM     64  F   UNL A   1      38.936  26.106  29.894  1.00  0.00    -0.206 F 
ATOM     65  C   UNL A   1      39.406  25.319  27.733  1.00  0.00     0.040 A 
ATOM     66  C   UNL A   1      40.847  26.584  26.278  1.00  0.00     0.040 A 
ATOM     67  F   UNL A   1      41.810  28.588  27.027  1.00  0.00    -0.206 F 
ATOM     68  C   UNL A   1      40.045  25.467  26.505  1.00  0.00     0.006 A 
ENDBRANCH  47  61
BRANCH  48  69
ATOM     69  C   UNL A   1      40.987  34.424  35.596  1.00  0.00     0.057 A 
ATOM     70  C   UNL A   1      41.708  35.610  35.412  1.00  0.00     0.134 A 
ATOM     71  C   UNL A   1      40.340  34.246  36.824  1.00  0.00     0.134 A 
ATOM     72  F   UNL A   1      42.363  35.829  34.262  1.00  0.00    -0.206 F 
ATOM     73  C   UNL A   1      41.798  36.574  36.416  1.00  0.00     0.040 A 
ATOM     74  C   UNL A   1      40.402  35.211  37.830  1.00  0.00     0.040 A 
ATOM     75  F   UNL A   1      39.626  33.135  37.058  1.00  0.00    -0.206 F 
ATOM     76  C   UNL A   1      41.139  36.378  37.629  1.00  0.00     0.006 A 
ENDBRANCH  48  69
BRANCH  60  77
ATOM     77  C   UNL A   1      44.992  29.014  33.843  1.00  0.00     0.057 A 
ATOM     78  C   UNL A   1      45.011  28.041  34.849  1.00  0.00     0.134 A 
ATOM     79  C   UNL A   1      46.224  29.469  33.357  1.00  0.00     0.134 A 
ATOM     80  F   UNL A   1      43.864  27.575  35.366  1.00  0.00    -0.206 F 
ATOM     81  C   UNL A   1      46.212  27.556  35.370  1.00  0.00     0.040 A 
ATOM     82  C   UNL A   1      47.431  28.974  33.853  1.00  0.00     0.040 A 
ATOM     83  F   UNL A   1      46.275  30.395  32.389  1.00  0.00    -0.206 F 
ATOM     84  C   UNL A   1      47.426  28.019  34.868  1.00  0.00     0.006 A 
ENDBRANCH  60  77
ENDBRANCH  34  35
ENDBRANCH  26  29
ENDBRANCH  24  25
ENDBRANCH  23  24
ENDBRANCH   1  23
TORSDOF 14
ENDMDL
MODEL 2
REMARK VINA RESULT:     -11.4      3.836      8.941
REMARK SMILES C[C@H]1[C@H](C(=O)NCCCNC(=O)c2ccc(-c3c4nc(c(-c5c(F)cccc5F)c5ccc([nH]5)c(-c5c(F)cccc5F)c5nc(c(-c6c(F)cccc6F)c6ccc3[nH]6)C=C5)C=C4)cc2)CCN1C(=O)COc1ccccc1F
REMARK SMILES IDX 7 1 6 2 4 3 5 4 3 6 1 7 2 8 69 9 67 10 68 11 70 12 71 13
REMARK SMILES IDX 72 14 73 15 74 16 75 17 79 18 76 19 78 20 80 21 77 22 8 23
REMARK SMILES IDX 9 24 10 25 11 26 12 28 13 29 14 30 66 31 15 32 65 33 16 34
REMARK SMILES IDX 17 35 18 36 59 37 19 38 64 39 58 40 60 41 20 42 63 43 57 44
REMARK SMILES IDX 56 45 21 47 47 48 30 49 46 50 31 51 34 52 45 53 61 54 32 55
REMARK SMILES IDX 33 56 44 58 62 59 35 60 22 61 23 62 28 63 24 64 25 65 27 66
REMARK SMILES IDX 29 67 26 68 48 69 49 70 54 71 50 72 51 73 53 74 55 75 52 76
REMARK SMILES IDX 36 77 37 78 42 79 38 80 39 81 41 82 43 83 40 84
REMARK H PARENT 6 5 10 27 60 46 34 57
REMARK Flexibility Score: inf
ROOT
ATOM      1  C   UNL A   1      36.587  20.363  24.860  1.00  0.00     0.117 C 
ENDROOT
BRANCH   1   2
ATOM      2  N   UNL A   1      36.744  21.599  25.608  1.00  0.00    -0.356 N 
ATOM      3  C   UNL A   1      36.034  22.756  25.601  1.00  0.00     0.225 C 
ATOM      4  O   UNL A   1      36.436  23.665  26.333  1.00  0.00    -0.275 OA
ATOM      5  H   UNL A   1      37.504  21.597  26.234  1.00  0.00     0.163 HD
BRANCH   3   6
ATOM      6  C   UNL A   1      34.803  22.966  24.740  1.00  0.00     0.102 C 
ATOM      7  C   UNL A   1      32.850  21.407  24.665  1.00  0.00     0.032 C 
ATOM      8  C   UNL A   1      33.499  22.549  25.449  1.00  0.00     0.094 C 
ATOM      9  N   UNL A   1      32.701  23.777  25.484  1.00  0.00    -0.336 N 
ATOM     10  C   UNL A   1      34.622  24.399  24.241  1.00  0.00     0.037 C 
ATOM     11  C   UNL A   1      33.169  24.738  24.504  1.00  0.00     0.121 C 
BRANCH   9  12
ATOM     12  C   UNL A   1      31.716  24.153  26.375  1.00  0.00     0.260 C 
ATOM     13  O   UNL A   1      31.633  23.629  27.492  1.00  0.00    -0.271 OA
BRANCH  12  14
ATOM     14  C   UNL A   1      30.681  25.215  25.978  1.00  0.00     0.329 C 
BRANCH  14  15
ATOM     15  O   UNL A   1      30.574  26.467  26.620  1.00  0.00    -0.481 OA
BRANCH  15  16
ATOM     16  C   UNL A   1      31.382  27.503  26.241  1.00  0.00     0.155 A 
ATOM     17  C   UNL A   1      32.332  27.864  27.206  1.00  0.00     0.049 A 
ATOM     18  C   UNL A   1      31.288  28.284  25.089  1.00  0.00     0.165 A 
ATOM     19  C   UNL A   1      33.162  28.975  27.019  1.00  0.00     0.004 A 
ATOM     20  C   UNL A   1      32.102  29.402  24.904  1.00  0.00     0.043 A 
ATOM     21  F   UNL A   1      30.387  28.041  24.135  1.00  0.00    -0.203 F 
ATOM     22  C   UNL A   1      33.041  29.750  25.870  1.00  0.00     0.003 A 
ENDBRANCH  15  16
ENDBRANCH  14  15
ENDBRANCH  12  14
ENDBRANCH   9  12
ENDBRANCH   3   6
ENDBRANCH   1   2
BRANCH   1  23
ATOM     23  C   UNL A   1      37.812  19.464  24.972  1.00  0.00     0.042 C 
BRANCH  23  24
ATOM     24  C   UNL A   1      38.972  20.094  25.735  1.00  0.00     0.118 C 
BRANCH  24  25
ATOM     25  N   UNL A   1      40.150  19.239  25.771  1.00  0.00    -0.352 N 
ATOM     26  C   UNL A   1      41.455  19.540  26.061  1.00  0.00     0.251 C 
ATOM     27  H   UNL A   1      39.982  18.293  25.553  1.00  0.00     0.163 HD
ATOM     28  O   UNL A   1      42.331  18.700  25.853  1.00  0.00    -0.269 OA
BRANCH  26  29
ATOM     29  C   UNL A   1      41.826  20.864  26.604  1.00  0.00     0.039 A 
ATOM     30  C   UNL A   1      42.239  21.861  25.716  1.00  0.00     0.014 A 
ATOM     31  C   UNL A   1      41.807  21.117  27.978  1.00  0.00     0.014 A 
ATOM     32  C   UNL A   1      42.576  23.127  26.200  1.00  0.00     0.010 A 
ATOM     33  C   UNL A   1      42.066  22.400  28.453  1.00  0.00     0.010 A 
ATOM     34  C   UNL A   1      42.460  23.416  27.570  1.00  0.00    -0.014 A 
BRANCH  34  35
ATOM     35  C   UNL A   1      42.755  24.773  28.092  1.00  0.00     0.031 A 
ATOM     36  C   UNL A   1      44.157  25.149  28.481  1.00  0.00     0.074 A 
ATOM     37  C   UNL A   1      41.746  25.647  28.272  1.00  0.00     0.049 A 
ATOM     38  N   UNL A   1      44.598  26.266  29.005  1.00  0.00    -0.248 NA
ATOM     39  C   UNL A   1      45.197  24.129  28.283  1.00  0.00     0.031 C 
ATOM     40  C   UNL A   1      40.334  25.382  27.988  1.00  0.00     0.029 A 
ATOM     41  N   UNL A   1      41.754  26.935  28.744  1.00  0.00    -0.354 N 
ATOM     42  C   UNL A   1      45.959  26.076  29.209  1.00  0.00     0.074 A 
ATOM     43  C   UNL A   1      46.261  24.719  28.804  1.00  0.00     0.031 C 
ATOM     44  C   UNL A   1      39.616  26.481  28.271  1.00  0.00     0.029 A 
ATOM     45  C   UNL A   1      40.509  27.514  28.784  1.00  0.00     0.049 A 
ATOM     46  H   UNL A   1      42.574  27.400  29.029  1.00  0.00     0.167 HD
ATOM     47  C   UNL A   1      46.878  26.958  29.667  1.00  0.00     0.037 A 
ATOM     48  C   UNL A   1      40.130  28.741  29.188  1.00  0.00     0.037 A 
ATOM     49  C   UNL A   1      46.581  28.315  30.045  1.00  0.00     0.049 A 
ATOM     50  C   UNL A   1      41.172  29.709  29.672  1.00  0.00     0.074 A 
ATOM     51  C   UNL A   1      47.452  29.303  30.469  1.00  0.00     0.029 A 
ATOM     52  N   UNL A   1      45.313  28.874  30.039  1.00  0.00    -0.354 N 
ATOM     53  N   UNL A   1      42.465  29.536  29.802  1.00  0.00    -0.248 NA
ATOM     54  C   UNL A   1      40.702  31.048  30.056  1.00  0.00     0.031 C 
ATOM     55  C   UNL A   1      46.705  30.452  30.752  1.00  0.00     0.029 A 
ATOM     56  C   UNL A   1      45.375  30.192  30.466  1.00  0.00     0.049 A 
ATOM     57  H   UNL A   1      44.489  28.406  29.772  1.00  0.00     0.167 HD
ATOM     58  C   UNL A   1      42.966  30.745  30.263  1.00  0.00     0.074 A 
ATOM     59  C   UNL A   1      41.839  31.650  30.373  1.00  0.00     0.031 C 
ATOM     60  C   UNL A   1      44.244  31.076  30.571  1.00  0.00     0.037 A 
BRANCH  47  61
ATOM     61  C   UNL A   1      48.297  26.479  29.776  1.00  0.00     0.057 A 
ATOM     62  C   UNL A   1      49.227  26.696  28.750  1.00  0.00     0.134 A 
ATOM     63  C   UNL A   1      48.745  25.815  30.924  1.00  0.00     0.134 A 
ATOM     64  F   UNL A   1      48.858  27.315  27.618  1.00  0.00    -0.206 F 
ATOM     65  C   UNL A   1      50.544  26.244  28.852  1.00  0.00     0.040 A 
ATOM     66  C   UNL A   1      50.066  25.381  31.048  1.00  0.00     0.040 A 
ATOM     67  F   UNL A   1      47.908  25.579  31.946  1.00  0.00    -0.206 F 
ATOM     68  C   UNL A   1      50.968  25.590  30.006  1.00  0.00     0.006 A 
ENDBRANCH  47  61
BRANCH  48  69
ATOM     69  C   UNL A   1      38.701  29.130  29.122  1.00  0.00     0.057 A 
ATOM     70  C   UNL A   1      38.131  29.580  27.926  1.00  0.00     0.134 A 
ATOM     71  C   UNL A   1      37.871  29.057  30.247  1.00  0.00     0.134 A 
ATOM     72  F   UNL A   1      38.880  29.688  26.820  1.00  0.00    -0.206 F 
ATOM     73  C   UNL A   1      36.790  29.960  27.854  1.00  0.00     0.040 A 
ATOM     74  C   UNL A   1      36.523  29.411  30.184  1.00  0.00     0.040 A 
ATOM     75  F   UNL A   1      38.357  28.625  31.420  1.00  0.00    -0.206 F 
ATOM     76  C   UNL A   1      35.980  29.870  28.985  1.00  0.00     0.006 A 
ENDBRANCH  48  69
BRANCH  60  77
ATOM     77  C   UNL A   1      44.489  32.481  31.035  1.00  0.00     0.057 A 
ATOM     78  C   UNL A   1      44.762  33.517  30.135  1.00  0.00     0.134 A 
ATOM     79  C   UNL A   1      44.429  32.803  32.397  1.00  0.00     0.134 A 
ATOM     80  F   UNL A   1      44.846  33.270  28.818  1.00  0.00    -0.206 F 
ATOM     81  C   UNL A   1      44.990  34.822  30.574  1.00  0.00     0.040 A 
ATOM     82  C   UNL A   1      44.632  34.109  32.846  1.00  0.00     0.040 A 
ATOM     83  F   UNL A   1      44.165  31.858  33.310  1.00  0.00    -0.206 F 
ATOM     84  C   UNL A   1      44.921  35.122  31.933  1.00  0.00     0.006 A 
ENDBRANCH  60  77
ENDBRANCH  34  35
ENDBRANCH  26  29
ENDBRANCH  24  25
ENDBRANCH  23  24
ENDBRANCH   1  23
TORSDOF 14
ENDMDL
MODEL 3
REMARK VINA RESULT:     -11.3      4.866      9.938
REMARK SMILES C[C@H]1[C@H](C(=O)NCCCNC(=O)c2ccc(-c3c4nc(c(-c5c(F)cccc5F)c5ccc([nH]5)c(-c5c(F)cccc5F)c5nc(c(-c6c(F)cccc6F)c6ccc3[nH]6)C=C5)C=C4)cc2)CCN1C(=O)COc1ccccc1F
REMARK SMILES IDX 7 1 6 2 4 3 5 4 3 6 1 7 2 8 69 9 67 10 68 11 70 12 71 13
REMARK SMILES IDX 72 14 73 15 74 16 75 17 79 18 76 19 78 20 80 21 77 22 8 23
REMARK SMILES IDX 9 24 10 25 11 26 12 28 13 29 14 30 66 31 15 32 65 33 16 34
REMARK SMILES IDX 17 35 18 36 59 37 19 38 64 39 58 40 60 41 20 42 63 43 57 44
REMARK SMILES IDX 56 45 21 47 47 48 30 49 46 50 31 51 34 52 45 53 61 54 32 55
REMARK SMILES IDX 33 56 44 58 62 59 35 60 22 61 23 62 28 63 24 64 25 65 27 66
REMARK SMILES IDX 29 67 26 68 48 69 49 70 54 71 50 72 51 73 53 74 55 75 52 76
REMARK SMILES IDX 36 77 37 78 42 79 38 80 39 81 41 82 43 83 40 84
REMARK H PARENT 6 5 10 27 60 46 34 57
REMARK Flexibility Score: inf
ROOT
ATOM      1  C   UNL A   1      36.599  20.618  24.865  1.00  0.00     0.117 C 
ENDROOT
BRANCH   1   2
ATOM      2  N   UNL A   1      36.958  21.710  23.977  1.00  0.00    -0.356 N 
ATOM      3  C   UNL A   1      36.261  22.792  23.548  1.00  0.00     0.225 C 
ATOM      4  O   UNL A   1      36.827  23.545  22.749  1.00  0.00    -0.275 OA
ATOM      5  H   UNL A   1      37.874  21.654  23.621  1.00  0.00     0.163 HD
BRANCH   3   6
ATOM      6  C   UNL A   1      34.844  23.096  23.999  1.00  0.00     0.102 C 
ATOM      7  C   UNL A   1      34.219  24.982  25.515  1.00  0.00     0.032 C 
ATOM      8  C   UNL A   1      34.550  24.607  24.070  1.00  0.00     0.094 C 
ATOM      9  N   UNL A   1      33.439  24.802  23.134  1.00  0.00    -0.336 N 
ATOM     10  C   UNL A   1      33.759  22.451  23.137  1.00  0.00     0.037 C 
ATOM     11  C   UNL A   1      32.754  23.552  22.863  1.00  0.00     0.121 C 
BRANCH   9  12
ATOM     12  C   UNL A   1      33.085  25.929  22.422  1.00  0.00     0.260 C 
ATOM     13  O   UNL A   1      33.465  26.093  21.257  1.00  0.00    -0.271 OA
BRANCH  12  14
ATOM     14  C   UNL A   1      32.231  27.022  23.082  1.00  0.00     0.329 C 
BRANCH  14  15
ATOM     15  O   UNL A   1      30.914  26.802  23.537  1.00  0.00    -0.481 OA
BRANCH  15  16
ATOM     16  C   UNL A   1      29.905  27.640  23.146  1.00  0.00     0.155 A 
ATOM     17  C   UNL A   1      30.341  28.749  22.411  1.00  0.00     0.049 A 
ATOM     18  C   UNL A   1      28.554  27.569  23.488  1.00  0.00     0.165 A 
ATOM     19  C   UNL A   1      29.449  29.758  22.031  1.00  0.00     0.004 A 
ATOM     20  C   UNL A   1      27.663  28.579  23.126  1.00  0.00     0.043 A 
ATOM     21  F   UNL A   1      28.055  26.571  24.221  1.00  0.00    -0.203 F 
ATOM     22  C   UNL A   1      28.108  29.677  22.396  1.00  0.00     0.003 A 
ENDBRANCH  15  16
ENDBRANCH  14  15
ENDBRANCH  12  14
ENDBRANCH   9  12
ENDBRANCH   3   6
ENDBRANCH   1   2
BRANCH   1  23
ATOM     23  C   UNL A   1      37.720  19.595  25.001  1.00  0.00     0.042 C 
BRANCH  23  24
ATOM     24  C   UNL A   1      38.940  20.112  25.754  1.00  0.00     0.118 C 
BRANCH  24  25
ATOM     25  N   UNL A   1      40.009  19.126  25.835  1.00  0.00    -0.352 N 
ATOM     26  C   UNL A   1      41.355  19.293  26.028  1.00  0.00     0.251 C 
ATOM     27  H   UNL A   1      39.717  18.191  25.737  1.00  0.00     0.163 HD
ATOM     28  O   UNL A   1      42.112  18.334  25.880  1.00  0.00    -0.269 OA
BRANCH  26  29
ATOM     29  C   UNL A   1      41.912  20.613  26.395  1.00  0.00     0.039 A 
ATOM     30  C   UNL A   1      42.233  21.513  25.375  1.00  0.00     0.014 A 
ATOM     31  C   UNL A   1      42.154  20.954  27.728  1.00  0.00     0.014 A 
ATOM     32  C   UNL A   1      42.740  22.773  25.695  1.00  0.00     0.010 A 
ATOM     33  C   UNL A   1      42.585  22.238  28.051  1.00  0.00     0.010 A 
ATOM     34  C   UNL A   1      42.890  23.158  27.038  1.00  0.00    -0.014 A 
BRANCH  34  35
ATOM     35  C   UNL A   1      43.370  24.515  27.395  1.00  0.00     0.031 A 
ATOM     36  C   UNL A   1      42.399  25.572  27.841  1.00  0.00     0.074 A 
ATOM     37  C   UNL A   1      44.678  24.812  27.261  1.00  0.00     0.049 A 
ATOM     38  N   UNL A   1      42.624  26.827  28.143  1.00  0.00    -0.248 NA
ATOM     39  C   UNL A   1      40.986  25.178  27.933  1.00  0.00     0.031 C 
ATOM     40  C   UNL A   1      45.710  23.892  26.782  1.00  0.00     0.029 A 
ATOM     41  N   UNL A   1      45.359  25.978  27.507  1.00  0.00    -0.354 N 
ATOM     42  C   UNL A   1      41.382  27.371  28.446  1.00  0.00     0.074 A 
ATOM     43  C   UNL A   1      40.402  26.326  28.240  1.00  0.00     0.031 C 
ATOM     44  C   UNL A   1      46.897  24.521  26.791  1.00  0.00     0.029 A 
ATOM     45  C   UNL A   1      46.704  25.894  27.245  1.00  0.00     0.049 A 
ATOM     46  H   UNL A   1      44.924  26.797  27.840  1.00  0.00     0.167 HD
ATOM     47  C   UNL A   1      41.087  28.618  28.882  1.00  0.00     0.037 A 
ATOM     48  C   UNL A   1      47.674  26.820  27.360  1.00  0.00     0.037 A 
ATOM     49  C   UNL A   1      42.065  29.649  29.111  1.00  0.00     0.049 A 
ATOM     50  C   UNL A   1      47.325  28.191  27.866  1.00  0.00     0.074 A 
ATOM     51  C   UNL A   1      41.873  30.927  29.604  1.00  0.00     0.029 A 
ATOM     52  N   UNL A   1      43.423  29.514  28.866  1.00  0.00    -0.354 N 
ATOM     53  N   UNL A   1      46.155  28.672  28.207  1.00  0.00    -0.248 NA
ATOM     54  C   UNL A   1      48.435  29.144  28.011  1.00  0.00     0.031 C 
ATOM     55  C   UNL A   1      43.111  31.579  29.626  1.00  0.00     0.029 A 
ATOM     56  C   UNL A   1      44.081  30.693  29.184  1.00  0.00     0.049 A 
ATOM     57  H   UNL A   1      43.857  28.703  28.517  1.00  0.00     0.167 HD
ATOM     58  C   UNL A   1      46.388  29.975  28.627  1.00  0.00     0.074 A 
ATOM     59  C   UNL A   1      47.815  30.202  28.513  1.00  0.00     0.031 C 
ATOM     60  C   UNL A   1      45.500  30.901  29.063  1.00  0.00     0.037 A 
BRANCH  47  61
ATOM     61  C   UNL A   1      39.643  28.931  29.146  1.00  0.00     0.057 A 
ATOM     62  C   UNL A   1      39.084  28.799  30.425  1.00  0.00     0.134 A 
ATOM     63  C   UNL A   1      38.808  29.390  28.121  1.00  0.00     0.134 A 
ATOM     64  F   UNL A   1      39.827  28.352  31.449  1.00  0.00    -0.206 F 
ATOM     65  C   UNL A   1      37.738  29.085  30.667  1.00  0.00     0.040 A 
ATOM     66  C   UNL A   1      37.468  29.703  28.356  1.00  0.00     0.040 A 
ATOM     67  F   UNL A   1      39.280  29.543  26.874  1.00  0.00    -0.206 F 
ATOM     68  C   UNL A   1      36.928  29.544  29.631  1.00  0.00     0.006 A 
ENDBRANCH  47  61
BRANCH  48  69
ATOM     69  C   UNL A   1      49.073  26.470  27.014  1.00  0.00     0.057 A 
ATOM     70  C   UNL A   1      49.579  26.703  25.731  1.00  0.00     0.134 A 
ATOM     71  C   UNL A   1      49.938  25.901  27.957  1.00  0.00     0.134 A 
ATOM     72  F   UNL A   1      48.792  27.229  24.781  1.00  0.00    -0.206 F 
ATOM     73  C   UNL A   1      50.890  26.368  25.390  1.00  0.00     0.040 A 
ATOM     74  C   UNL A   1      51.259  25.583  27.637  1.00  0.00     0.040 A 
ATOM     75  F   UNL A   1      49.515  25.661  29.207  1.00  0.00    -0.206 F 
ATOM     76  C   UNL A   1      51.736  25.811  26.347  1.00  0.00     0.006 A 
ENDBRANCH  48  69
BRANCH  60  77
ATOM     77  C   UNL A   1      46.053  32.235  29.468  1.00  0.00     0.057 A 
ATOM     78  C   UNL A   1      46.467  32.493  30.780  1.00  0.00     0.134 A 
ATOM     79  C   UNL A   1      46.193  33.265  28.529  1.00  0.00     0.134 A 
ATOM     80  F   UNL A   1      46.346  31.552  31.729  1.00  0.00    -0.206 F 
ATOM     81  C   UNL A   1      46.980  33.737  31.151  1.00  0.00     0.040 A 
ATOM     82  C   UNL A   1      46.726  34.505  28.883  1.00  0.00     0.040 A 
ATOM     83  F   UNL A   1      45.821  33.080  27.254  1.00  0.00    -0.206 F 
ATOM     84  C   UNL A   1      47.115  34.746  30.199  1.00  0.00     0.006 A 
ENDBRANCH  60  77
ENDBRANCH  34  35
ENDBRANCH  26  29
ENDBRANCH  24  25
ENDBRANCH  23  24
ENDBRANCH   1  23
TORSDOF 14
ENDMDL
