MODEL 1
REMARK VINA RESULT:     -10.6      0.000      0.000
REMARK SMILES O=C(CNc1nc(-c2ccccc2)c(-c2ccccc2)s1)NCCCNC(=O)c1ccc(-c2c3nc(c(-c4c(F)cccc4F)c4ccc([nH]4)c(-c4c(F)cccc4F)c4nc(c(-c5c(F)cccc5F)c5ccc2[nH]5)C=C4)C=C3)cc1
REMARK SMILES IDX 23 1 22 2 1 3 2 4 3 6 4 7 5 9 6 10 21 11 7 12 14 13 8 14
REMARK SMILES IDX 9 15 13 16 10 17 12 18 11 19 15 20 16 21 20 22 17 23 19 24
REMARK SMILES IDX 18 25 24 26 25 27 26 28 27 29 28 31 29 32 30 33 82 34 31 35
REMARK SMILES IDX 81 36 32 37 33 38 34 39 75 40 35 41 80 42 74 43 76 44 36 45
REMARK SMILES IDX 79 46 73 47 72 48 37 50 63 51 46 52 62 53 47 54 50 55 61 56
REMARK SMILES IDX 77 57 48 58 49 59 60 61 78 62 51 63 38 64 39 65 44 66 40 67
REMARK SMILES IDX 41 68 43 69 45 70 42 71 64 72 65 73 70 74 66 75 67 76 69 77
REMARK SMILES IDX 71 78 68 79 52 80 53 81 58 82 54 83 55 84 57 85 59 86 56 87
REMARK H PARENT 22 5 4 8 26 30 76 49 50 60
REMARK Flexibility Score: inf
ROOT
ATOM      1  C   UNL A   1      42.098  19.318  26.378  1.00  0.00     0.117 C 
ENDROOT
BRANCH   1   2
ATOM      2  N   UNL A   1      43.007  19.774  25.348  1.00  0.00    -0.355 N 
ATOM      3  O   UNL A   1      44.516  18.041  25.488  1.00  0.00    -0.273 OA
ATOM      4  C   UNL A   1      44.130  19.071  24.946  1.00  0.00     0.239 C 
ATOM      5  H   UNL A   1      42.815  20.633  24.908  1.00  0.00     0.163 HD
BRANCH   4   6
ATOM      6  C   UNL A   1      44.864  19.729  23.762  1.00  0.00     0.215 C 
BRANCH   6   7
ATOM      7  N   UNL A   1      46.019  20.462  24.267  1.00  0.00    -0.352 N 
ATOM      8  H   UNL A   1      46.920  20.090  24.121  1.00  0.00     0.163 HD
BRANCH   7   9
ATOM      9  C   UNL A   1      45.896  21.626  24.927  1.00  0.00     0.184 A 
ATOM     10  N   UNL A   1      45.292  21.797  26.076  1.00  0.00    -0.220 NA
ATOM     11  S   UNL A   1      46.542  23.052  24.216  1.00  0.00    -0.096 S 
ATOM     12  C   UNL A   1      45.326  23.138  26.435  1.00  0.00     0.091 A 
ATOM     13  C   UNL A   1      45.913  23.988  25.508  1.00  0.00     0.064 A 
BRANCH  12  14
ATOM     14  C   UNL A   1      44.811  23.589  27.719  1.00  0.00     0.002 A 
ATOM     15  C   UNL A   1      45.662  24.115  28.698  1.00  0.00     0.010 A 
ATOM     16  C   UNL A   1      43.452  23.416  28.010  1.00  0.00     0.010 A 
ATOM     17  C   UNL A   1      45.168  24.429  29.966  1.00  0.00     0.001 A 
ATOM     18  C   UNL A   1      42.960  23.725  29.280  1.00  0.00     0.001 A 
ATOM     19  C   UNL A   1      43.820  24.224  30.259  1.00  0.00     0.000 A 
ENDBRANCH  12  14
BRANCH  13  20
ATOM     20  C   UNL A   1      46.095  25.439  25.507  1.00  0.00    -0.006 A 
ATOM     21  C   UNL A   1      47.338  25.996  25.841  1.00  0.00     0.009 A 
ATOM     22  C   UNL A   1      45.050  26.289  25.123  1.00  0.00     0.009 A 
ATOM     23  C   UNL A   1      47.532  27.377  25.786  1.00  0.00     0.001 A 
ATOM     24  C   UNL A   1      45.245  27.670  25.069  1.00  0.00     0.001 A 
ATOM     25  C   UNL A   1      46.486  28.213  25.398  1.00  0.00     0.000 A 
ENDBRANCH  13  20
ENDBRANCH   7   9
ENDBRANCH   6   7
ENDBRANCH   4   6
ENDBRANCH   1   2
BRANCH   1  26
ATOM     26  C   UNL A   1      41.344  20.459  27.049  1.00  0.00     0.042 C 
BRANCH  26  27
ATOM     27  C   UNL A   1      41.080  21.663  26.148  1.00  0.00     0.118 C 
BRANCH  27  28
ATOM     28  N   UNL A   1      39.664  21.904  25.896  1.00  0.00    -0.352 N 
ATOM     29  C   UNL A   1      38.891  23.003  26.184  1.00  0.00     0.251 C 
ATOM     30  H   UNL A   1      39.188  21.165  25.451  1.00  0.00     0.163 HD
ATOM     31  O   UNL A   1      37.679  22.970  25.987  1.00  0.00    -0.269 OA
BRANCH  29  32
ATOM     32  C   UNL A   1      39.504  24.219  26.765  1.00  0.00     0.039 A 
ATOM     33  C   UNL A   1      40.186  25.101  25.921  1.00  0.00     0.014 A 
ATOM     34  C   UNL A   1      39.405  24.494  28.131  1.00  0.00     0.014 A 
ATOM     35  C   UNL A   1      40.689  26.303  26.429  1.00  0.00     0.010 A 
ATOM     36  C   UNL A   1      39.845  25.721  28.621  1.00  0.00     0.010 A 
ATOM     37  C   UNL A   1      40.478  26.645  27.774  1.00  0.00    -0.014 A 
BRANCH  37  38
ATOM     38  C   UNL A   1      40.882  27.966  28.321  1.00  0.00     0.031 A 
ATOM     39  C   UNL A   1      42.326  28.246  28.626  1.00  0.00     0.074 A 
ATOM     40  C   UNL A   1      39.939  28.871  28.648  1.00  0.00     0.049 A 
ATOM     41  N   UNL A   1      42.859  29.258  29.263  1.00  0.00    -0.248 NA
ATOM     42  C   UNL A   1      43.300  27.238  28.177  1.00  0.00     0.031 C 
ATOM     43  C   UNL A   1      38.500  28.714  28.431  1.00  0.00     0.029 A 
ATOM     44  N   UNL A   1      40.049  30.097  29.257  1.00  0.00    -0.354 N 
ATOM     45  C   UNL A   1      44.221  28.998  29.314  1.00  0.00     0.074 A 
ATOM     46  C   UNL A   1      44.431  27.715  28.677  1.00  0.00     0.031 C 
ATOM     47  C   UNL A   1      37.863  29.800  28.897  1.00  0.00     0.029 A 
ATOM     48  C   UNL A   1      38.840  30.709  29.487  1.00  0.00     0.049 A 
ATOM     49  H   UNL A   1      40.912  30.500  29.507  1.00  0.00     0.167 HD
ATOM     50  C   UNL A   1      45.209  29.765  29.834  1.00  0.00     0.037 A 
ATOM     51  C   UNL A   1      38.548  31.861  30.122  1.00  0.00     0.037 A 
ATOM     52  C   UNL A   1      45.003  31.053  30.444  1.00  0.00     0.049 A 
ATOM     53  C   UNL A   1      39.661  32.686  30.706  1.00  0.00     0.074 A 
ATOM     54  C   UNL A   1      45.948  31.926  30.953  1.00  0.00     0.029 A 
ATOM     55  N   UNL A   1      43.766  31.650  30.626  1.00  0.00    -0.354 N 
ATOM     56  N   UNL A   1      40.950  32.449  30.709  1.00  0.00    -0.248 NA
ATOM     57  C   UNL A   1      39.279  33.939  31.374  1.00  0.00     0.031 C 
ATOM     58  C   UNL A   1      45.279  33.036  31.479  1.00  0.00     0.029 A 
ATOM     59  C   UNL A   1      43.921  32.875  31.253  1.00  0.00     0.049 A 
ATOM     60  H   UNL A   1      42.903  31.263  30.350  1.00  0.00     0.167 HD
ATOM     61  C   UNL A   1      41.536  33.538  31.342  1.00  0.00     0.074 A 
ATOM     62  C   UNL A   1      40.462  34.437  31.710  1.00  0.00     0.031 C 
ATOM     63  C   UNL A   1      42.847  33.772  31.590  1.00  0.00     0.037 A 
BRANCH  50  64
ATOM     64  C   UNL A   1      46.610  29.228  29.768  1.00  0.00     0.057 A 
ATOM     65  C   UNL A   1      47.506  29.623  28.766  1.00  0.00     0.134 A 
ATOM     66  C   UNL A   1      47.081  28.338  30.741  1.00  0.00     0.134 A 
ATOM     67  F   UNL A   1      47.114  30.465  27.797  1.00  0.00    -0.206 F 
ATOM     68  C   UNL A   1      48.811  29.131  28.718  1.00  0.00     0.040 A 
ATOM     69  C   UNL A   1      48.393  27.860  30.719  1.00  0.00     0.040 A 
ATOM     70  F   UNL A   1      46.278  27.925  31.733  1.00  0.00    -0.206 F 
ATOM     71  C   UNL A   1      49.259  28.252  29.701  1.00  0.00     0.006 A 
ENDBRANCH  50  64
BRANCH  51  72
ATOM     72  C   UNL A   1      37.137  32.310  30.234  1.00  0.00     0.057 A 
ATOM     73  C   UNL A   1      36.566  33.135  29.259  1.00  0.00     0.134 A 
ATOM     74  C   UNL A   1      36.330  31.933  31.314  1.00  0.00     0.134 A 
ATOM     75  F   UNL A   1      37.295  33.546  28.212  1.00  0.00    -0.206 F 
ATOM     76  C   UNL A   1      35.249  33.586  29.362  1.00  0.00     0.040 A 
ATOM     77  C   UNL A   1      35.003  32.355  31.416  1.00  0.00     0.040 A 
ATOM     78  F   UNL A   1      36.816  31.137  32.278  1.00  0.00    -0.206 F 
ATOM     79  C   UNL A   1      34.462  33.191  30.442  1.00  0.00     0.006 A 
ENDBRANCH  51  72
BRANCH  63  80
ATOM     80  C   UNL A   1      43.208  35.076  32.239  1.00  0.00     0.057 A 
ATOM     81  C   UNL A   1      43.241  35.231  33.629  1.00  0.00     0.134 A 
ATOM     82  C   UNL A   1      43.588  36.173  31.454  1.00  0.00     0.134 A 
ATOM     83  F   UNL A   1      42.876  34.222  34.435  1.00  0.00    -0.206 F 
ATOM     84  C   UNL A   1      43.630  36.435  34.218  1.00  0.00     0.040 A 
ATOM     85  C   UNL A   1      44.001  37.374  32.031  1.00  0.00     0.040 A 
ATOM     86  F   UNL A   1      43.585  36.087  30.115  1.00  0.00    -0.206 F 
ATOM     87  C   UNL A   1      44.021  37.508  33.417  1.00  0.00     0.006 A 
ENDBRANCH  63  80
ENDBRANCH  37  38
ENDBRANCH  29  32
ENDBRANCH  27  28
ENDBRANCH  26  27
ENDBRANCH   1  26
TORSDOF 14
ENDMDL
MODEL 2
REMARK VINA RESULT:     -10.1      4.795     10.371
REMARK SMILES O=C(CNc1nc(-c2ccccc2)c(-c2ccccc2)s1)NCCCNC(=O)c1ccc(-c2c3nc(c(-c4c(F)cccc4F)c4ccc([nH]4)c(-c4c(F)cccc4F)c4nc(c(-c5c(F)cccc5F)c5ccc2[nH]5)C=C4)C=C3)cc1
REMARK SMILES IDX 23 1 22 2 1 3 2 4 3 6 4 7 5 9 6 10 21 11 7 12 14 13 8 14
REMARK SMILES IDX 9 15 13 16 10 17 12 18 11 19 15 20 16 21 20 22 17 23 19 24
REMARK SMILES IDX 18 25 24 26 25 27 26 28 27 29 28 31 29 32 30 33 82 34 31 35
REMARK SMILES IDX 81 36 32 37 33 38 34 39 75 40 35 41 80 42 74 43 76 44 36 45
REMARK SMILES IDX 79 46 73 47 72 48 37 50 63 51 46 52 62 53 47 54 50 55 61 56
REMARK SMILES IDX 77 57 48 58 49 59 60 61 78 62 51 63 38 64 39 65 44 66 40 67
REMARK SMILES IDX 41 68 43 69 45 70 42 71 64 72 65 73 70 74 66 75 67 76 69 77
REMARK SMILES IDX 71 78 68 79 52 80 53 81 58 82 54 83 55 84 57 85 59 86 56 87
REMARK H PARENT 22 5 4 8 26 30 76 49 50 60
REMARK Flexibility Score: inf
ROOT
ATOM      1  C   UNL A   1      32.853  29.285  24.956  1.00  0.00     0.117 C 
ENDROOT
BRANCH   1   2
ATOM      2  N   UNL A   1      31.965  28.192  24.623  1.00  0.00    -0.355 N 
ATOM      3  O   UNL A   1      30.238  29.457  23.772  1.00  0.00    -0.273 OA
ATOM      4  C   UNL A   1      30.735  28.360  24.008  1.00  0.00     0.239 C 
ATOM      5  H   UNL A   1      32.251  27.277  24.845  1.00  0.00     0.163 HD
BRANCH   4   6
ATOM      6  C   UNL A   1      30.040  27.027  23.672  1.00  0.00     0.215 C 
BRANCH   6   7
ATOM      7  N   UNL A   1      30.869  26.282  22.732  1.00  0.00    -0.352 N 
ATOM      8  H   UNL A   1      30.888  26.562  21.788  1.00  0.00     0.163 HD
BRANCH   7   9
ATOM      9  C   UNL A   1      31.606  25.225  23.112  1.00  0.00     0.184 A 
ATOM     10  N   UNL A   1      32.898  25.226  23.325  1.00  0.00    -0.220 NA
ATOM     11  S   UNL A   1      30.830  23.703  23.310  1.00  0.00    -0.096 S 
ATOM     12  C   UNL A   1      33.325  23.949  23.664  1.00  0.00     0.091 A 
ATOM     13  C   UNL A   1      32.343  22.969  23.644  1.00  0.00     0.064 A 
BRANCH  12  14
ATOM     14  C   UNL A   1      34.704  23.692  24.049  1.00  0.00     0.002 A 
ATOM     15  C   UNL A   1      35.567  22.970  23.216  1.00  0.00     0.010 A 
ATOM     16  C   UNL A   1      35.151  24.103  25.311  1.00  0.00     0.010 A 
ATOM     17  C   UNL A   1      36.849  22.630  23.655  1.00  0.00     0.001 A 
ATOM     18  C   UNL A   1      36.430  23.757  25.751  1.00  0.00     0.001 A 
ATOM     19  C   UNL A   1      37.275  23.014  24.926  1.00  0.00     0.000 A 
ENDBRANCH  12  14
BRANCH  13  20
ATOM     20  C   UNL A   1      32.410  21.529  23.896  1.00  0.00    -0.006 A 
ATOM     21  C   UNL A   1      32.153  20.617  22.863  1.00  0.00     0.009 A 
ATOM     22  C   UNL A   1      32.784  21.043  25.156  1.00  0.00     0.009 A 
ATOM     23  C   UNL A   1      32.272  19.244  23.085  1.00  0.00     0.001 A 
ATOM     24  C   UNL A   1      32.903  19.670  25.376  1.00  0.00     0.001 A 
ATOM     25  C   UNL A   1      32.648  18.772  24.341  1.00  0.00     0.000 A 
ENDBRANCH  13  20
ENDBRANCH   7   9
ENDBRANCH   6   7
ENDBRANCH   4   6
ENDBRANCH   1   2
BRANCH   1  26
ATOM     26  C   UNL A   1      34.025  28.849  25.827  1.00  0.00     0.042 C 
BRANCH  26  27
ATOM     27  C   UNL A   1      33.748  28.879  27.329  1.00  0.00     0.118 C 
BRANCH  27  28
ATOM     28  N   UNL A   1      33.813  30.215  27.907  1.00  0.00    -0.352 N 
ATOM     29  C   UNL A   1      34.852  30.851  28.545  1.00  0.00     0.251 C 
ATOM     30  H   UNL A   1      32.986  30.744  27.829  1.00  0.00     0.163 HD
ATOM     31  O   UNL A   1      34.673  31.950  29.062  1.00  0.00    -0.269 OA
BRANCH  29  32
ATOM     32  C   UNL A   1      36.179  30.204  28.643  1.00  0.00     0.039 A 
ATOM     33  C   UNL A   1      37.024  30.221  27.528  1.00  0.00     0.014 A 
ATOM     34  C   UNL A   1      36.595  29.587  29.825  1.00  0.00     0.014 A 
ATOM     35  C   UNL A   1      38.319  29.703  27.627  1.00  0.00     0.010 A 
ATOM     36  C   UNL A   1      37.907  29.133  29.943  1.00  0.00     0.010 A 
ATOM     37  C   UNL A   1      38.787  29.199  28.851  1.00  0.00    -0.014 A 
BRANCH  37  38
ATOM     38  C   UNL A   1      40.194  28.759  29.032  1.00  0.00     0.031 A 
ATOM     39  C   UNL A   1      41.233  29.731  29.514  1.00  0.00     0.074 A 
ATOM     40  C   UNL A   1      40.560  27.517  28.659  1.00  0.00     0.049 A 
ATOM     41  N   UNL A   1      42.533  29.596  29.572  1.00  0.00    -0.248 NA
ATOM     42  C   UNL A   1      40.744  31.044  29.967  1.00  0.00     0.031 C 
ATOM     43  C   UNL A   1      39.658  26.483  28.149  1.00  0.00     0.029 A 
ATOM     44  N   UNL A   1      41.797  26.920  28.627  1.00  0.00    -0.354 N 
ATOM     45  C   UNL A   1      43.019  30.809  30.040  1.00  0.00     0.074 A 
ATOM     46  C   UNL A   1      41.878  31.682  30.217  1.00  0.00     0.031 C 
ATOM     47  C   UNL A   1      40.368  25.382  27.858  1.00  0.00     0.029 A 
ATOM     48  C   UNL A   1      41.780  25.645  28.114  1.00  0.00     0.049 A 
ATOM     49  H   UNL A   1      42.618  27.364  28.940  1.00  0.00     0.167 HD
ATOM     50  C   UNL A   1      44.299  31.160  30.311  1.00  0.00     0.037 A 
ATOM     51  C   UNL A   1      42.790  24.791  27.858  1.00  0.00     0.037 A 
ATOM     52  C   UNL A   1      45.431  30.282  30.160  1.00  0.00     0.049 A 
ATOM     53  C   UNL A   1      44.205  25.209  28.151  1.00  0.00     0.074 A 
ATOM     54  C   UNL A   1      46.760  30.531  30.458  1.00  0.00     0.029 A 
ATOM     55  N   UNL A   1      45.366  28.987  29.670  1.00  0.00    -0.354 N 
ATOM     56  N   UNL A   1      44.646  26.344  28.635  1.00  0.00    -0.248 NA
ATOM     57  C   UNL A   1      45.261  24.228  27.863  1.00  0.00     0.031 C 
ATOM     58  C   UNL A   1      47.505  29.399  30.110  1.00  0.00     0.029 A 
ATOM     59  C   UNL A   1      46.633  28.429  29.642  1.00  0.00     0.049 A 
ATOM     60  H   UNL A   1      44.541  28.531  29.384  1.00  0.00     0.167 HD
ATOM     61  C   UNL A   1      46.024  26.201  28.746  1.00  0.00     0.074 A 
ATOM     62  C   UNL A   1      46.346  24.869  28.279  1.00  0.00     0.031 C 
ATOM     63  C   UNL A   1      46.937  27.093  29.199  1.00  0.00     0.037 A 
BRANCH  50  64
ATOM     64  C   UNL A   1      44.547  32.558  30.798  1.00  0.00     0.057 A 
ATOM     65  C   UNL A   1      44.782  33.618  29.913  1.00  0.00     0.134 A 
ATOM     66  C   UNL A   1      44.511  32.855  32.166  1.00  0.00     0.134 A 
ATOM     67  F   UNL A   1      44.840  33.399  28.590  1.00  0.00    -0.206 F 
ATOM     68  C   UNL A   1      44.998  34.918  30.372  1.00  0.00     0.040 A 
ATOM     69  C   UNL A   1      44.699  34.156  32.636  1.00  0.00     0.040 A 
ATOM     70  F   UNL A   1      44.284  31.887  33.068  1.00  0.00    -0.206 F 
ATOM     71  C   UNL A   1      44.950  35.190  31.738  1.00  0.00     0.006 A 
ENDBRANCH  50  64
BRANCH  51  72
ATOM     72  C   UNL A   1      42.502  23.446  27.298  1.00  0.00     0.057 A 
ATOM     73  C   UNL A   1      42.161  22.378  28.134  1.00  0.00     0.134 A 
ATOM     74  C   UNL A   1      42.565  23.195  25.922  1.00  0.00     0.134 A 
ATOM     75  F   UNL A   1      42.104  22.552  29.463  1.00  0.00    -0.206 F 
ATOM     76  C   UNL A   1      41.911  21.102  27.626  1.00  0.00     0.040 A 
ATOM     77  C   UNL A   1      42.292  21.930  25.398  1.00  0.00     0.040 A 
ATOM     78  F   UNL A   1      42.879  24.179  25.068  1.00  0.00    -0.206 F 
ATOM     79  C   UNL A   1      41.972  20.877  26.252  1.00  0.00     0.006 A 
ENDBRANCH  51  72
BRANCH  63  80
ATOM     80  C   UNL A   1      48.367  26.645  29.273  1.00  0.00     0.057 A 
ATOM     81  C   UNL A   1      48.873  25.954  30.379  1.00  0.00     0.134 A 
ATOM     82  C   UNL A   1      49.228  26.856  28.188  1.00  0.00     0.134 A 
ATOM     83  F   UNL A   1      48.102  25.731  31.454  1.00  0.00    -0.206 F 
ATOM     84  C   UNL A   1      50.192  25.496  30.410  1.00  0.00     0.040 A 
ATOM     85  C   UNL A   1      50.541  26.384  28.198  1.00  0.00     0.040 A 
ATOM     86  F   UNL A   1      48.802  27.505  27.095  1.00  0.00    -0.206 F 
ATOM     87  C   UNL A   1      51.026  25.703  29.312  1.00  0.00     0.006 A 
ENDBRANCH  63  80
ENDBRANCH  37  38
ENDBRANCH  29  32
ENDBRANCH  27  28
ENDBRANCH  26  27
ENDBRANCH   1  26
TORSDOF 14
ENDMDL
MODEL 3
REMARK VINA RESULT:     -10.0      4.718     10.194
REMARK SMILES O=C(CNc1nc(-c2ccccc2)c(-c2ccccc2)s1)NCCCNC(=O)c1ccc(-c2c3nc(c(-c4c(F)cccc4F)c4ccc([nH]4)c(-c4c(F)cccc4F)c4nc(c(-c5c(F)cccc5F)c5ccc2[nH]5)C=C4)C=C3)cc1
REMARK SMILES IDX 23 1 22 2 1 3 2 4 3 6 4 7 5 9 6 10 21 11 7 12 14 13 8 14
REMARK SMILES IDX 9 15 13 16 10 17 12 18 11 19 15 20 16 21 20 22 17 23 19 24
REMARK SMILES IDX 18 25 24 26 25 27 26 28 27 29 28 31 29 32 30 33 82 34 31 35
REMARK SMILES IDX 81 36 32 37 33 38 34 39 75 40 35 41 80 42 74 43 76 44 36 45
REMARK SMILES IDX 79 46 73 47 72 48 37 50 63 51 46 52 62 53 47 54 50 55 61 56
REMARK SMILES IDX 77 57 48 58 49 59 60 61 78 62 51 63 38 64 39 65 44 66 40 67
REMARK SMILES IDX 41 68 43 69 45 70 42 71 64 72 65 73 70 74 66 75 67 76 69 77
REMARK SMILES IDX 71 78 68 79 52 80 53 81 58 82 54 83 55 84 57 85 59 86 56 87
REMARK H PARENT 22 5 4 8 26 30 76 49 50 60
REMARK Flexibility Score: inf
ROOT
ATOM      1  C   UNL A   1      36.238  22.082  24.415  1.00  0.00     0.117 C 
ENDROOT
BRANCH   1   2
ATOM      2  N   UNL A   1      34.827  21.777  24.318  1.00  0.00    -0.355 N 
ATOM      3  O   UNL A   1      34.359  23.092  22.486  1.00  0.00    -0.273 OA
ATOM      4  C   UNL A   1      33.999  22.272  23.324  1.00  0.00     0.239 C 
ATOM      5  H   UNL A   1      34.434  21.182  24.996  1.00  0.00     0.163 HD
BRANCH   4   6
ATOM      6  C   UNL A   1      32.567  21.708  23.393  1.00  0.00     0.215 C 
BRANCH   6   7
ATOM      7  N   UNL A   1      31.848  22.368  24.476  1.00  0.00    -0.352 N 
ATOM      8  H   UNL A   1      31.505  21.823  25.222  1.00  0.00     0.163 HD
BRANCH   7   9
ATOM      9  C   UNL A   1      31.635  23.694  24.490  1.00  0.00     0.184 A 
ATOM     10  N   UNL A   1      32.119  24.541  25.364  1.00  0.00    -0.220 NA
ATOM     11  S   UNL A   1      30.609  24.380  23.291  1.00  0.00    -0.096 S 
ATOM     12  C   UNL A   1      31.657  25.822  25.090  1.00  0.00     0.091 A 
ATOM     13  C   UNL A   1      30.766  25.920  24.030  1.00  0.00     0.064 A 
BRANCH  12  14
ATOM     14  C   UNL A   1      32.123  26.970  25.852  1.00  0.00     0.002 A 
ATOM     15  C   UNL A   1      31.338  27.535  26.865  1.00  0.00     0.010 A 
ATOM     16  C   UNL A   1      33.340  27.572  25.510  1.00  0.00     0.010 A 
ATOM     17  C   UNL A   1      31.748  28.708  27.502  1.00  0.00     0.001 A 
ATOM     18  C   UNL A   1      33.746  28.748  26.143  1.00  0.00     0.001 A 
ATOM     19  C   UNL A   1      32.946  29.319  27.133  1.00  0.00     0.000 A 
ENDBRANCH  12  14
BRANCH  13  20
ATOM     20  C   UNL A   1      30.047  27.066  23.476  1.00  0.00    -0.006 A 
ATOM     21  C   UNL A   1      28.657  27.173  23.632  1.00  0.00     0.009 A 
ATOM     22  C   UNL A   1      30.740  28.098  22.830  1.00  0.00     0.009 A 
ATOM     23  C   UNL A   1      27.975  28.293  23.155  1.00  0.00     0.001 A 
ATOM     24  C   UNL A   1      30.056  29.218  22.354  1.00  0.00     0.001 A 
ATOM     25  C   UNL A   1      28.675  29.316  22.518  1.00  0.00     0.000 A 
ENDBRANCH  13  20
ENDBRANCH   7   9
ENDBRANCH   6   7
ENDBRANCH   4   6
ENDBRANCH   1   2
BRANCH   1  26
ATOM     26  C   UNL A   1      37.098  20.843  24.626  1.00  0.00     0.042 C 
BRANCH  26  27
ATOM     27  C   UNL A   1      38.297  21.049  25.549  1.00  0.00     0.118 C 
BRANCH  27  28
ATOM     28  N   UNL A   1      39.250  19.945  25.523  1.00  0.00    -0.352 N 
ATOM     29  C   UNL A   1      40.568  19.908  25.910  1.00  0.00     0.251 C 
ATOM     30  H   UNL A   1      38.894  19.095  25.174  1.00  0.00     0.163 HD
ATOM     31  O   UNL A   1      41.238  18.900  25.708  1.00  0.00    -0.269 OA
BRANCH  29  32
ATOM     32  C   UNL A   1      41.197  21.091  26.541  1.00  0.00     0.039 A 
ATOM     33  C   UNL A   1      41.812  22.046  25.724  1.00  0.00     0.014 A 
ATOM     34  C   UNL A   1      41.178  21.265  27.926  1.00  0.00     0.014 A 
ATOM     35  C   UNL A   1      42.326  23.217  26.286  1.00  0.00     0.010 A 
ATOM     36  C   UNL A   1      41.629  22.462  28.478  1.00  0.00     0.010 A 
ATOM     37  C   UNL A   1      42.194  23.457  27.663  1.00  0.00    -0.014 A 
BRANCH  37  38
ATOM     38  C   UNL A   1      42.610  24.743  28.281  1.00  0.00     0.031 A 
ATOM     39  C   UNL A   1      41.598  25.826  28.522  1.00  0.00     0.074 A 
ATOM     40  C   UNL A   1      43.915  24.978  28.522  1.00  0.00     0.049 A 
ATOM     41  N   UNL A   1      41.783  27.070  28.884  1.00  0.00    -0.248 NA
ATOM     42  C   UNL A   1      40.188  25.468  28.299  1.00  0.00     0.031 C 
ATOM     43  C   UNL A   1      45.004  24.023  28.306  1.00  0.00     0.029 A 
ATOM     44  N   UNL A   1      44.552  26.107  28.977  1.00  0.00    -0.354 N 
ATOM     45  C   UNL A   1      40.522  27.649  28.908  1.00  0.00     0.074 A 
ATOM     46  C   UNL A   1      39.581  26.631  28.488  1.00  0.00     0.031 C 
ATOM     47  C   UNL A   1      46.169  24.604  28.632  1.00  0.00     0.029 A 
ATOM     48  C   UNL A   1      45.919  25.984  29.032  1.00  0.00     0.049 A 
ATOM     49  H   UNL A   1      44.073  26.926  29.239  1.00  0.00     0.167 HD
ATOM     50  C   UNL A   1      40.178  28.910  29.260  1.00  0.00     0.037 A 
ATOM     51  C   UNL A   1      46.867  26.888  29.347  1.00  0.00     0.037 A 
ATOM     52  C   UNL A   1      41.111  29.914  29.703  1.00  0.00     0.049 A 
ATOM     53  C   UNL A   1      46.461  28.287  29.718  1.00  0.00     0.074 A 
ATOM     54  C   UNL A   1      40.849  31.204  30.130  1.00  0.00     0.029 A 
ATOM     55  N   UNL A   1      42.484  29.738  29.776  1.00  0.00    -0.354 N 
ATOM     56  N   UNL A   1      45.260  28.809  29.779  1.00  0.00    -0.248 NA
ATOM     57  C   UNL A   1      47.541  29.223  30.066  1.00  0.00     0.031 C 
ATOM     58  C   UNL A   1      42.069  31.823  30.424  1.00  0.00     0.029 A 
ATOM     59  C   UNL A   1      43.085  30.901  30.227  1.00  0.00     0.049 A 
ATOM     60  H   UNL A   1      42.961  28.908  29.543  1.00  0.00     0.167 HD
ATOM     61  C   UNL A   1      45.436  30.120  30.206  1.00  0.00     0.074 A 
ATOM     62  C   UNL A   1      46.859  30.313  30.391  1.00  0.00     0.031 C 
ATOM     63  C   UNL A   1      44.500  31.072  30.431  1.00  0.00     0.037 A 
BRANCH  50  64
ATOM     64  C   UNL A   1      38.725  29.281  29.179  1.00  0.00     0.057 A 
ATOM     65  C   UNL A   1      37.892  29.258  30.305  1.00  0.00     0.134 A 
ATOM     66  C   UNL A   1      38.162  29.703  27.968  1.00  0.00     0.134 A 
ATOM     67  F   UNL A   1      38.367  28.852  31.493  1.00  0.00    -0.206 F 
ATOM     68  C   UNL A   1      36.546  29.616  30.225  1.00  0.00     0.040 A 
ATOM     69  C   UNL A   1      36.823  30.090  27.881  1.00  0.00     0.040 A 
ATOM     70  F   UNL A   1      38.905  29.756  26.852  1.00  0.00    -0.206 F 
ATOM     71  C   UNL A   1      36.010  30.040  29.011  1.00  0.00     0.006 A 
ENDBRANCH  50  64
BRANCH  51  72
ATOM     72  C   UNL A   1      48.300  26.497  29.334  1.00  0.00     0.057 A 
ATOM     73  C   UNL A   1      48.891  25.897  30.451  1.00  0.00     0.134 A 
ATOM     74  C   UNL A   1      49.111  26.716  28.214  1.00  0.00     0.134 A 
ATOM     75  F   UNL A   1      48.171  25.679  31.561  1.00  0.00    -0.206 F 
ATOM     76  C   UNL A   1      50.242  25.545  30.464  1.00  0.00     0.040 A 
ATOM     77  C   UNL A   1      50.457  26.346  28.204  1.00  0.00     0.040 A 
ATOM     78  F   UNL A   1      48.601  27.281  27.110  1.00  0.00    -0.206 F 
ATOM     79  C   UNL A   1      51.027  25.766  29.334  1.00  0.00     0.006 A 
ENDBRANCH  51  72
BRANCH  63  80
ATOM     80  C   UNL A   1      44.970  32.396  30.959  1.00  0.00     0.057 A 
ATOM     81  C   UNL A   1      45.293  33.462  30.111  1.00  0.00     0.134 A 
ATOM     82  C   UNL A   1      45.038  32.620  32.340  1.00  0.00     0.134 A 
ATOM     83  F   UNL A   1      45.259  33.307  28.779  1.00  0.00    -0.206 F 
ATOM     84  C   UNL A   1      45.678  34.704  30.620  1.00  0.00     0.040 A 
ATOM     85  C   UNL A   1      45.400  33.864  32.860  1.00  0.00     0.040 A 
ATOM     86  F   UNL A   1      44.735  31.642  33.206  1.00  0.00    -0.206 F 
ATOM     87  C   UNL A   1      45.723  34.909  31.998  1.00  0.00     0.006 A 
ENDBRANCH  63  80
ENDBRANCH  37  38
ENDBRANCH  29  32
ENDBRANCH  27  28
ENDBRANCH  26  27
ENDBRANCH   1  26
TORSDOF 14
ENDMDL
