MODEL 1
REMARK VINA RESULT:     -12.2      0.000      0.000
REMARK SMILES Cc1ccc(/C=C2/SC(=O)N(CC(=O)NCCCNC(=O)c3ccc(-c4c5nc(c(-c6c(F)cccc6F)c6ccc([nH]6)c(-c6c(F)cccc6F)c6nc(c(-c7c(F)cccc7F)c7ccc4[nH]7)C=C6)C=C5)cc3)C2=O)cc1
REMARK SMILES IDX 17 1 16 2 15 3 13 4 14 5 12 7 11 8 6 9 7 10 8 11 76 12 9 13
REMARK SMILES IDX 77 14 10 15 5 16 1 17 2 18 3 19 79 20 4 21 78 22 18 23 19 24
REMARK SMILES IDX 20 25 21 27 22 28 23 29 75 30 24 31 74 32 25 33 26 34 27 35
REMARK SMILES IDX 68 36 28 37 73 38 67 39 69 40 29 41 72 42 66 43 65 44 30 46
REMARK SMILES IDX 56 47 39 48 55 49 40 50 43 51 54 52 70 53 41 54 42 55 53 57
REMARK SMILES IDX 71 58 44 59 31 60 32 61 37 62 33 63 34 64 36 65 38 66 35 67
REMARK SMILES IDX 57 68 58 69 63 70 59 71 60 72 62 73 64 74 61 75 45 76 46 77
REMARK SMILES IDX 51 78 47 79 48 80 50 81 52 82 49 83
REMARK H PARENT 15 6 19 26 69 45 43 56
REMARK Flexibility Score: inf
ROOT
ATOM      1  C   UNL A   1      33.188  36.797  31.118  1.00  0.00     0.042 C 
ENDROOT
BRANCH   1   2
ATOM      2  C   UNL A   1      32.835  35.730  30.095  1.00  0.00     0.117 C 
BRANCH   2   3
ATOM      3  N   UNL A   1      33.856  35.594  29.075  1.00  0.00    -0.354 N 
ATOM      4  C   UNL A   1      33.960  34.666  28.079  1.00  0.00     0.240 C 
ATOM      5  O   UNL A   1      34.778  34.886  27.184  1.00  0.00    -0.273 OA
ATOM      6  H   UNL A   1      34.574  36.266  29.104  1.00  0.00     0.163 HD
BRANCH   4   7
ATOM      7  C   UNL A   1      33.040  33.441  28.037  1.00  0.00     0.229 C 
BRANCH   7   8
ATOM      8  N   UNL A   1      33.792  32.199  27.990  1.00  0.00    -0.259 N 
ATOM      9  C   UNL A   1      34.257  28.871  26.593  1.00  0.00     0.029 C 
ATOM     10  C   UNL A   1      34.291  30.004  27.310  1.00  0.00     0.083 C 
ATOM     11  S   UNL A   1      35.529  30.365  28.456  1.00  0.00    -0.022 SA
ATOM     12  C   UNL A   1      33.325  31.141  27.250  1.00  0.00     0.268 C 
ATOM     13  C   UNL A   1      34.893  31.973  28.768  1.00  0.00     0.294 C 
ATOM     14  O   UNL A   1      32.264  31.138  26.645  1.00  0.00    -0.268 OA
ATOM     15  O   UNL A   1      35.406  32.740  29.558  1.00  0.00    -0.261 OA
BRANCH   9  16
ATOM     16  C   UNL A   1      33.216  28.576  25.607  1.00  0.00    -0.024 A 
ATOM     17  C   UNL A   1      29.875  28.248  22.913  1.00  0.00     0.044 C 
ATOM     18  C   UNL A   1      31.067  28.305  23.823  1.00  0.00    -0.051 A 
ATOM     19  C   UNL A   1      30.978  27.792  25.123  1.00  0.00     0.004 A 
ATOM     20  C   UNL A   1      32.261  28.901  23.404  1.00  0.00     0.004 A 
ATOM     21  C   UNL A   1      32.047  27.926  26.012  1.00  0.00     0.008 A 
ATOM     22  C   UNL A   1      33.334  29.026  24.287  1.00  0.00     0.008 A 
ENDBRANCH   9  16
ENDBRANCH   7   8
ENDBRANCH   4   7
ENDBRANCH   2   3
ENDBRANCH   1   2
BRANCH   1  23
ATOM     23  C   UNL A   1      32.831  36.409  32.543  1.00  0.00     0.118 C 
BRANCH  23  24
ATOM     24  N   UNL A   1      32.741  34.963  32.756  1.00  0.00    -0.352 N 
ATOM     25  C   UNL A   1      33.697  34.028  33.121  1.00  0.00     0.251 C 
ATOM     26  H   UNL A   1      31.842  34.588  32.615  1.00  0.00     0.163 HD
ATOM     27  O   UNL A   1      33.362  32.854  33.251  1.00  0.00    -0.269 OA
BRANCH  25  28
ATOM     28  C   UNL A   1      35.056  34.451  33.553  1.00  0.00     0.039 A 
ATOM     29  C   UNL A   1      35.877  34.963  32.536  1.00  0.00     0.014 A 
ATOM     30  C   UNL A   1      35.622  33.865  34.668  1.00  0.00     0.014 A 
ATOM     31  C   UNL A   1      37.179  34.505  32.438  1.00  0.00     0.010 A 
ATOM     32  C   UNL A   1      36.819  33.232  34.475  1.00  0.00     0.010 A 
ATOM     33  C   UNL A   1      37.561  33.507  33.321  1.00  0.00    -0.014 A 
BRANCH  33  34
ATOM     34  C   UNL A   1      38.763  32.716  33.206  1.00  0.00     0.031 A 
ATOM     35  C   UNL A   1      38.623  31.430  32.507  1.00  0.00     0.074 A 
ATOM     36  C   UNL A   1      39.944  33.301  33.504  1.00  0.00     0.049 A 
ATOM     37  N   UNL A   1      39.529  30.527  32.457  1.00  0.00    -0.248 NA
ATOM     38  C   UNL A   1      37.395  31.041  31.817  1.00  0.00     0.031 C 
ATOM     39  C   UNL A   1      41.283  32.893  33.094  1.00  0.00     0.029 A 
ATOM     40  N   UNL A   1      40.169  34.332  34.426  1.00  0.00    -0.354 N 
ATOM     41  C   UNL A   1      39.147  29.602  31.507  1.00  0.00     0.074 A 
ATOM     42  C   UNL A   1      37.778  29.919  31.204  1.00  0.00     0.031 C 
ATOM     43  C   UNL A   1      42.179  33.422  33.946  1.00  0.00     0.029 A 
ATOM     44  C   UNL A   1      41.425  34.056  35.014  1.00  0.00     0.049 A 
ATOM     45  H   UNL A   1      39.576  35.092  34.624  1.00  0.00     0.167 HD
ATOM     46  C   UNL A   1      40.114  28.780  31.012  1.00  0.00     0.037 A 
ATOM     47  C   UNL A   1      41.501  33.691  36.330  1.00  0.00     0.037 A 
ATOM     48  C   UNL A   1      41.340  28.960  31.792  1.00  0.00     0.049 A 
ATOM     49  C   UNL A   1      41.992  32.271  36.493  1.00  0.00     0.074 A 
ATOM     50  C   UNL A   1      42.466  29.743  31.592  1.00  0.00     0.029 A 
ATOM     51  N   UNL A   1      41.328  28.619  33.142  1.00  0.00    -0.354 N 
ATOM     52  N   UNL A   1      41.821  31.330  35.602  1.00  0.00    -0.248 NA
ATOM     53  C   UNL A   1      42.785  31.825  37.635  1.00  0.00     0.031 C 
ATOM     54  C   UNL A   1      43.083  29.941  32.856  1.00  0.00     0.029 A 
ATOM     55  C   UNL A   1      42.350  29.257  33.814  1.00  0.00     0.049 A 
ATOM     56  H   UNL A   1      40.680  28.007  33.559  1.00  0.00     0.167 HD
ATOM     57  C   UNL A   1      42.484  30.198  36.002  1.00  0.00     0.074 A 
ATOM     58  C   UNL A   1      43.063  30.557  37.284  1.00  0.00     0.031 C 
ATOM     59  C   UNL A   1      42.540  29.061  35.244  1.00  0.00     0.037 A 
BRANCH  46  60
ATOM     60  C   UNL A   1      40.062  28.025  29.701  1.00  0.00     0.057 A 
ATOM     61  C   UNL A   1      39.302  26.839  29.610  1.00  0.00     0.134 A 
ATOM     62  C   UNL A   1      40.765  28.341  28.525  1.00  0.00     0.134 A 
ATOM     63  F   UNL A   1      38.528  26.419  30.618  1.00  0.00    -0.206 F 
ATOM     64  C   UNL A   1      39.299  26.012  28.478  1.00  0.00     0.040 A 
ATOM     65  C   UNL A   1      40.787  27.512  27.392  1.00  0.00     0.040 A 
ATOM     66  F   UNL A   1      41.443  29.480  28.377  1.00  0.00    -0.206 F 
ATOM     67  C   UNL A   1      40.058  26.336  27.368  1.00  0.00     0.006 A 
ENDBRANCH  46  60
BRANCH  47  68
ATOM     68  C   UNL A   1      40.475  34.388  37.159  1.00  0.00     0.057 A 
ATOM     69  C   UNL A   1      39.372  33.621  37.585  1.00  0.00     0.134 A 
ATOM     70  C   UNL A   1      40.794  35.515  37.924  1.00  0.00     0.134 A 
ATOM     71  F   UNL A   1      38.989  32.547  36.878  1.00  0.00    -0.206 F 
ATOM     72  C   UNL A   1      38.749  33.844  38.816  1.00  0.00     0.040 A 
ATOM     73  C   UNL A   1      40.155  35.761  39.147  1.00  0.00     0.040 A 
ATOM     74  F   UNL A   1      41.823  36.304  37.584  1.00  0.00    -0.206 F 
ATOM     75  C   UNL A   1      39.179  34.887  39.627  1.00  0.00     0.006 A 
ENDBRANCH  47  68
BRANCH  59  76
ATOM     76  C   UNL A   1      42.893  27.678  35.751  1.00  0.00     0.057 A 
ATOM     77  C   UNL A   1      44.133  27.055  35.544  1.00  0.00     0.134 A 
ATOM     78  C   UNL A   1      42.025  26.979  36.626  1.00  0.00     0.134 A 
ATOM     79  F   UNL A   1      45.118  27.650  34.858  1.00  0.00    -0.206 F 
ATOM     80  C   UNL A   1      44.453  25.805  36.088  1.00  0.00     0.040 A 
ATOM     81  C   UNL A   1      42.363  25.767  37.234  1.00  0.00     0.040 A 
ATOM     82  F   UNL A   1      40.818  27.453  36.965  1.00  0.00    -0.206 F 
ATOM     83  C   UNL A   1      43.572  25.161  36.946  1.00  0.00     0.006 A 
ENDBRANCH  59  76
ENDBRANCH  33  34
ENDBRANCH  25  28
ENDBRANCH  23  24
ENDBRANCH   1  23
TORSDOF 12
ENDMDL
MODEL 2
REMARK VINA RESULT:     -12.2      4.016      6.704
REMARK SMILES Cc1ccc(/C=C2/SC(=O)N(CC(=O)NCCCNC(=O)c3ccc(-c4c5nc(c(-c6c(F)cccc6F)c6ccc([nH]6)c(-c6c(F)cccc6F)c6nc(c(-c7c(F)cccc7F)c7ccc4[nH]7)C=C6)C=C5)cc3)C2=O)cc1
REMARK SMILES IDX 17 1 16 2 15 3 13 4 14 5 12 7 11 8 6 9 7 10 8 11 76 12 9 13
REMARK SMILES IDX 77 14 10 15 5 16 1 17 2 18 3 19 79 20 4 21 78 22 18 23 19 24
REMARK SMILES IDX 20 25 21 27 22 28 23 29 75 30 24 31 74 32 25 33 26 34 27 35
REMARK SMILES IDX 68 36 28 37 73 38 67 39 69 40 29 41 72 42 66 43 65 44 30 46
REMARK SMILES IDX 56 47 39 48 55 49 40 50 43 51 54 52 70 53 41 54 42 55 53 57
REMARK SMILES IDX 71 58 44 59 31 60 32 61 37 62 33 63 34 64 36 65 38 66 35 67
REMARK SMILES IDX 57 68 58 69 63 70 59 71 60 72 62 73 64 74 61 75 45 76 46 77
REMARK SMILES IDX 51 78 47 79 48 80 50 81 52 82 49 83
REMARK H PARENT 15 6 19 26 69 45 43 56
REMARK Flexibility Score: inf
ROOT
ATOM      1  C   UNL A   1      34.528  30.219  26.829  1.00  0.00     0.042 C 
ENDROOT
BRANCH   1   2
ATOM      2  C   UNL A   1      34.360  28.723  27.028  1.00  0.00     0.117 C 
BRANCH   2   3
ATOM      3  N   UNL A   1      33.035  28.382  27.506  1.00  0.00    -0.354 N 
ATOM      4  C   UNL A   1      31.948  27.952  26.800  1.00  0.00     0.240 C 
ATOM      5  O   UNL A   1      31.001  27.494  27.442  1.00  0.00    -0.273 OA
ATOM      6  H   UNL A   1      32.900  28.471  28.477  1.00  0.00     0.163 HD
BRANCH   4   7
ATOM      7  C   UNL A   1      31.941  27.968  25.267  1.00  0.00     0.229 C 
BRANCH   7   8
ATOM      8  N   UNL A   1      31.696  26.648  24.713  1.00  0.00    -0.259 N 
ATOM      9  C   UNL A   1      32.897  23.295  23.961  1.00  0.00     0.029 C 
ATOM     10  C   UNL A   1      32.224  24.451  24.059  1.00  0.00     0.083 C 
ATOM     11  S   UNL A   1      30.575  24.633  23.582  1.00  0.00    -0.022 SA
ATOM     12  C   UNL A   1      32.728  25.749  24.599  1.00  0.00     0.268 C 
ATOM     13  C   UNL A   1      30.499  26.290  24.160  1.00  0.00     0.294 C 
ATOM     14  O   UNL A   1      33.889  25.991  24.889  1.00  0.00    -0.268 OA
ATOM     15  O   UNL A   1      29.496  26.970  24.072  1.00  0.00    -0.261 OA
BRANCH   9  16
ATOM     16  C   UNL A   1      34.290  23.140  24.385  1.00  0.00    -0.024 A 
ATOM     17  C   UNL A   1      38.287  22.054  25.555  1.00  0.00     0.044 C 
ATOM     18  C   UNL A   1      36.911  22.501  25.154  1.00  0.00    -0.051 A 
ATOM     19  C   UNL A   1      35.880  22.520  26.101  1.00  0.00     0.004 A 
ATOM     20  C   UNL A   1      36.632  22.861  23.832  1.00  0.00     0.004 A 
ATOM     21  C   UNL A   1      34.575  22.838  25.720  1.00  0.00     0.008 A 
ATOM     22  C   UNL A   1      35.331  23.190  23.451  1.00  0.00     0.008 A 
ENDBRANCH   9  16
ENDBRANCH   7   8
ENDBRANCH   4   7
ENDBRANCH   2   3
ENDBRANCH   1   2
BRANCH   1  23
ATOM     23  C   UNL A   1      34.437  31.014  28.121  1.00  0.00     0.118 C 
BRANCH  23  24
ATOM     24  N   UNL A   1      35.662  31.744  28.452  1.00  0.00    -0.352 N 
ATOM     25  C   UNL A   1      36.951  31.305  28.709  1.00  0.00     0.251 C 
ATOM     26  H   UNL A   1      35.550  32.721  28.502  1.00  0.00     0.163 HD
ATOM     27  O   UNL A   1      37.825  32.132  28.953  1.00  0.00    -0.269 OA
BRANCH  25  28
ATOM     28  C   UNL A   1      37.333  29.883  28.493  1.00  0.00     0.039 A 
ATOM     29  C   UNL A   1      37.292  29.070  29.636  1.00  0.00     0.014 A 
ATOM     30  C   UNL A   1      38.176  29.563  27.447  1.00  0.00     0.014 A 
ATOM     31  C   UNL A   1      38.368  28.240  29.900  1.00  0.00     0.010 A 
ATOM     32  C   UNL A   1      39.339  28.927  27.783  1.00  0.00     0.010 A 
ATOM     33  C   UNL A   1      39.452  28.325  29.041  1.00  0.00    -0.014 A 
BRANCH  33  34
ATOM     34  C   UNL A   1      40.755  27.757  29.294  1.00  0.00     0.031 A 
ATOM     35  C   UNL A   1      40.941  26.360  28.876  1.00  0.00     0.074 A 
ATOM     36  C   UNL A   1      41.758  28.592  29.645  1.00  0.00     0.049 A 
ATOM     37  N   UNL A   1      41.961  25.643  29.168  1.00  0.00    -0.248 NA
ATOM     38  C   UNL A   1      39.940  25.634  28.097  1.00  0.00     0.031 C 
ATOM     39  C   UNL A   1      43.195  28.365  29.555  1.00  0.00     0.029 A 
ATOM     40  N   UNL A   1      41.648  29.800  30.348  1.00  0.00    -0.354 N 
ATOM     41  C   UNL A   1      41.908  24.505  28.392  1.00  0.00     0.074 A 
ATOM     42  C   UNL A   1      40.593  24.506  27.810  1.00  0.00     0.031 C 
ATOM     43  C   UNL A   1      43.823  29.196  30.406  1.00  0.00     0.029 A 
ATOM     44  C   UNL A   1      42.792  29.870  31.176  1.00  0.00     0.049 A 
ATOM     45  H   UNL A   1      40.924  30.463  30.279  1.00  0.00     0.167 HD
ATOM     46  C   UNL A   1      43.061  23.794  28.248  1.00  0.00     0.037 A 
ATOM     47  C   UNL A   1      42.662  29.776  32.534  1.00  0.00     0.037 A 
ATOM     48  C   UNL A   1      44.073  24.334  29.158  1.00  0.00     0.049 A 
ATOM     49  C   UNL A   1      43.311  28.524  33.077  1.00  0.00     0.074 A 
ATOM     50  C   UNL A   1      45.091  25.257  28.978  1.00  0.00     0.029 A 
ATOM     51  N   UNL A   1      43.848  24.254  30.529  1.00  0.00    -0.354 N 
ATOM     52  N   UNL A   1      43.455  27.418  32.394  1.00  0.00    -0.248 NA
ATOM     53  C   UNL A   1      43.922  28.449  34.400  1.00  0.00     0.031 C 
ATOM     54  C   UNL A   1      45.415  25.795  30.252  1.00  0.00     0.029 A 
ATOM     55  C   UNL A   1      44.616  25.180  31.204  1.00  0.00     0.049 A 
ATOM     56  H   UNL A   1      43.226  23.622  30.959  1.00  0.00     0.167 HD
ATOM     57  C   UNL A   1      44.183  26.520  33.130  1.00  0.00     0.074 A 
ATOM     58  C   UNL A   1      44.444  27.210  34.380  1.00  0.00     0.031 C 
ATOM     59  C   UNL A   1      44.551  25.291  32.655  1.00  0.00     0.037 A 
BRANCH  46  60
ATOM     60  C   UNL A   1      43.375  22.811  27.140  1.00  0.00     0.057 A 
ATOM     61  C   UNL A   1      42.675  21.588  27.074  1.00  0.00     0.134 A 
ATOM     62  C   UNL A   1      44.374  22.947  26.159  1.00  0.00     0.134 A 
ATOM     63  F   UNL A   1      41.655  21.314  27.898  1.00  0.00    -0.206 F 
ATOM     64  C   UNL A   1      42.987  20.570  26.162  1.00  0.00     0.040 A 
ATOM     65  C   UNL A   1      44.710  21.928  25.253  1.00  0.00     0.040 A 
ATOM     66  F   UNL A   1      45.062  24.076  25.985  1.00  0.00    -0.206 F 
ATOM     67  C   UNL A   1      44.021  20.729  25.257  1.00  0.00     0.006 A 
ENDBRANCH  46  60
BRANCH  47  68
ATOM     68  C   UNL A   1      41.404  30.418  33.017  1.00  0.00     0.057 A 
ATOM     69  C   UNL A   1      41.381  31.826  33.054  1.00  0.00     0.134 A 
ATOM     70  C   UNL A   1      40.169  29.768  32.924  1.00  0.00     0.134 A 
ATOM     71  F   UNL A   1      42.528  32.512  33.178  1.00  0.00    -0.206 F 
ATOM     72  C   UNL A   1      40.213  32.553  32.806  1.00  0.00     0.040 A 
ATOM     73  C   UNL A   1      38.988  30.491  32.702  1.00  0.00     0.040 A 
ATOM     74  F   UNL A   1      40.100  28.430  32.891  1.00  0.00    -0.206 F 
ATOM     75  C   UNL A   1      39.019  31.880  32.575  1.00  0.00     0.006 A 
ENDBRANCH  47  68
BRANCH  59  76
ATOM     76  C   UNL A   1      44.994  24.113  33.498  1.00  0.00     0.057 A 
ATOM     77  C   UNL A   1      44.194  22.992  33.767  1.00  0.00     0.134 A 
ATOM     78  C   UNL A   1      46.334  23.998  33.942  1.00  0.00     0.134 A 
ATOM     79  F   UNL A   1      42.946  22.882  33.293  1.00  0.00    -0.206 F 
ATOM     80  C   UNL A   1      44.660  21.887  34.491  1.00  0.00     0.040 A 
ATOM     81  C   UNL A   1      46.829  22.869  34.599  1.00  0.00     0.040 A 
ATOM     82  F   UNL A   1      47.243  24.960  33.730  1.00  0.00    -0.206 F 
ATOM     83  C   UNL A   1      45.984  21.816  34.900  1.00  0.00     0.006 A 
ENDBRANCH  59  76
ENDBRANCH  33  34
ENDBRANCH  25  28
ENDBRANCH  23  24
ENDBRANCH   1  23
TORSDOF 12
ENDMDL
MODEL 3
REMARK VINA RESULT:     -12.1      3.704      6.080
REMARK SMILES Cc1ccc(/C=C2/SC(=O)N(CC(=O)NCCCNC(=O)c3ccc(-c4c5nc(c(-c6c(F)cccc6F)c6ccc([nH]6)c(-c6c(F)cccc6F)c6nc(c(-c7c(F)cccc7F)c7ccc4[nH]7)C=C6)C=C5)cc3)C2=O)cc1
REMARK SMILES IDX 17 1 16 2 15 3 13 4 14 5 12 7 11 8 6 9 7 10 8 11 76 12 9 13
REMARK SMILES IDX 77 14 10 15 5 16 1 17 2 18 3 19 79 20 4 21 78 22 18 23 19 24
REMARK SMILES IDX 20 25 21 27 22 28 23 29 75 30 24 31 74 32 25 33 26 34 27 35
REMARK SMILES IDX 68 36 28 37 73 38 67 39 69 40 29 41 72 42 66 43 65 44 30 46
REMARK SMILES IDX 56 47 39 48 55 49 40 50 43 51 54 52 70 53 41 54 42 55 53 57
REMARK SMILES IDX 71 58 44 59 31 60 32 61 37 62 33 63 34 64 36 65 38 66 35 67
REMARK SMILES IDX 57 68 58 69 63 70 59 71 60 72 62 73 64 74 61 75 45 76 46 77
REMARK SMILES IDX 51 78 47 79 48 80 50 81 52 82 49 83
REMARK H PARENT 15 6 19 26 69 45 43 56
REMARK Flexibility Score: inf
ROOT
ATOM      1  C   UNL A   1      32.095  31.305  26.563  1.00  0.00     0.042 C 
ENDROOT
BRANCH   1   2
ATOM      2  C   UNL A   1      31.731  30.228  25.557  1.00  0.00     0.117 C 
BRANCH   2   3
ATOM      3  N   UNL A   1      32.878  29.797  24.781  1.00  0.00    -0.354 N 
ATOM      4  C   UNL A   1      33.406  28.544  24.647  1.00  0.00     0.240 C 
ATOM      5  O   UNL A   1      34.233  28.372  23.750  1.00  0.00    -0.273 OA
ATOM      6  H   UNL A   1      33.340  30.506  24.280  1.00  0.00     0.163 HD
BRANCH   4   7
ATOM      7  C   UNL A   1      32.927  27.383  25.526  1.00  0.00     0.229 C 
BRANCH   7   8
ATOM      8  N   UNL A   1      32.521  26.235  24.734  1.00  0.00    -0.259 N 
ATOM      9  C   UNL A   1      33.230  22.898  23.467  1.00  0.00     0.029 C 
ATOM     10  C   UNL A   1      32.744  24.119  23.732  1.00  0.00     0.083 C 
ATOM     11  S   UNL A   1      31.191  24.657  23.205  1.00  0.00    -0.022 SA
ATOM     12  C   UNL A   1      33.402  25.204  24.520  1.00  0.00     0.268 C 
ATOM     13  C   UNL A   1      31.332  26.184  24.063  1.00  0.00     0.294 C 
ATOM     14  O   UNL A   1      34.559  25.193  24.911  1.00  0.00    -0.268 OA
ATOM     15  O   UNL A   1      30.462  27.031  24.042  1.00  0.00    -0.261 OA
BRANCH   9  16
ATOM     16  C   UNL A   1      34.541  22.438  23.933  1.00  0.00    -0.024 A 
ATOM     17  C   UNL A   1      38.427  21.648  25.603  1.00  0.00     0.044 C 
ATOM     18  C   UNL A   1      37.073  21.858  24.993  1.00  0.00    -0.051 A 
ATOM     19  C   UNL A   1      36.953  22.542  23.777  1.00  0.00     0.004 A 
ATOM     20  C   UNL A   1      35.917  21.415  25.644  1.00  0.00     0.004 A 
ATOM     21  C   UNL A   1      35.693  22.831  23.248  1.00  0.00     0.008 A 
ATOM     22  C   UNL A   1      34.658  21.693  25.112  1.00  0.00     0.008 A 
ENDBRANCH   9  16
ENDBRANCH   7   8
ENDBRANCH   4   7
ENDBRANCH   2   3
ENDBRANCH   1   2
BRANCH   1  23
ATOM     23  C   UNL A   1      33.085  30.838  27.617  1.00  0.00     0.118 C 
BRANCH  23  24
ATOM     24  N   UNL A   1      34.189  31.774  27.845  1.00  0.00    -0.352 N 
ATOM     25  C   UNL A   1      35.505  31.565  28.225  1.00  0.00     0.251 C 
ATOM     26  H   UNL A   1      33.954  32.719  27.703  1.00  0.00     0.163 HD
ATOM     27  O   UNL A   1      36.253  32.532  28.337  1.00  0.00    -0.269 OA
BRANCH  25  28
ATOM     28  C   UNL A   1      36.072  30.192  28.298  1.00  0.00     0.039 A 
ATOM     29  C   UNL A   1      36.238  29.679  29.594  1.00  0.00     0.014 A 
ATOM     30  C   UNL A   1      36.870  29.737  27.267  1.00  0.00     0.014 A 
ATOM     31  C   UNL A   1      37.441  29.076  29.921  1.00  0.00     0.010 A 
ATOM     32  C   UNL A   1      38.136  29.349  27.611  1.00  0.00     0.010 A 
ATOM     33  C   UNL A   1      38.432  29.086  28.953  1.00  0.00    -0.014 A 
BRANCH  33  34
ATOM     34  C   UNL A   1      39.819  28.761  29.185  1.00  0.00     0.031 A 
ATOM     35  C   UNL A   1      40.240  27.410  28.788  1.00  0.00     0.074 A 
ATOM     36  C   UNL A   1      40.666  29.766  29.498  1.00  0.00     0.049 A 
ATOM     37  N   UNL A   1      41.375  26.890  29.069  1.00  0.00    -0.248 NA
ATOM     38  C   UNL A   1      39.367  26.502  28.046  1.00  0.00     0.031 C 
ATOM     39  C   UNL A   1      42.119  29.794  29.378  1.00  0.00     0.029 A 
ATOM     40  N   UNL A   1      40.359  30.951  30.181  1.00  0.00    -0.354 N 
ATOM     41  C   UNL A   1      41.509  25.743  28.315  1.00  0.00     0.074 A 
ATOM     42  C   UNL A   1      40.203  25.501  27.764  1.00  0.00     0.031 C 
ATOM     43  C   UNL A   1      42.607  30.740  30.199  1.00  0.00     0.029 A 
ATOM     44  C   UNL A   1      41.489  31.239  30.981  1.00  0.00     0.049 A 
ATOM     45  H   UNL A   1      39.529  31.476  30.117  1.00  0.00     0.167 HD
ATOM     46  C   UNL A   1      42.766  25.243  28.156  1.00  0.00     0.037 A 
ATOM     47  C   UNL A   1      41.405  31.154  32.343  1.00  0.00     0.037 A 
ATOM     48  C   UNL A   1      43.684  25.972  29.032  1.00  0.00     0.049 A 
ATOM     49  C   UNL A   1      42.276  30.047  32.893  1.00  0.00     0.074 A 
ATOM     50  C   UNL A   1      44.521  27.055  28.812  1.00  0.00     0.029 A 
ATOM     51  N   UNL A   1      43.505  25.883  30.410  1.00  0.00    -0.354 N 
ATOM     52  N   UNL A   1      42.598  28.969  32.226  1.00  0.00    -0.248 NA
ATOM     53  C   UNL A   1      42.917  30.110  34.202  1.00  0.00     0.031 C 
ATOM     54  C   UNL A   1      44.770  27.670  30.069  1.00  0.00     0.029 A 
ATOM     55  C   UNL A   1      44.111  26.945  31.050  1.00  0.00     0.049 A 
ATOM     56  H   UNL A   1      43.013  25.162  30.865  1.00  0.00     0.167 HD
ATOM     57  C   UNL A   1      43.488  28.229  32.961  1.00  0.00     0.074 A 
ATOM     58  C   UNL A   1      43.648  28.982  34.192  1.00  0.00     0.031 C 
ATOM     59  C   UNL A   1      44.056  27.074  32.499  1.00  0.00     0.037 A 
BRANCH  46  60
ATOM     60  C   UNL A   1      43.226  24.307  27.059  1.00  0.00     0.057 A 
ATOM     61  C   UNL A   1      43.724  24.840  25.851  1.00  0.00     0.134 A 
ATOM     62  C   UNL A   1      43.153  22.902  27.072  1.00  0.00     0.134 A 
ATOM     63  F   UNL A   1      43.911  26.156  25.686  1.00  0.00    -0.206 F 
ATOM     64  C   UNL A   1      44.052  24.053  24.739  1.00  0.00     0.040 A 
ATOM     65  C   UNL A   1      43.459  22.103  25.959  1.00  0.00     0.040 A 
ATOM     66  F   UNL A   1      42.821  22.210  28.162  1.00  0.00    -0.206 F 
ATOM     67  C   UNL A   1      43.903  22.679  24.781  1.00  0.00     0.006 A 
ENDBRANCH  46  60
BRANCH  47  68
ATOM     68  C   UNL A   1      40.064  31.575  32.844  1.00  0.00     0.057 A 
ATOM     69  C   UNL A   1      39.188  30.551  33.255  1.00  0.00     0.134 A 
ATOM     70  C   UNL A   1      39.852  32.845  33.390  1.00  0.00     0.134 A 
ATOM     71  F   UNL A   1      39.312  29.315  32.744  1.00  0.00    -0.206 F 
ATOM     72  C   UNL A   1      38.282  30.731  34.305  1.00  0.00     0.040 A 
ATOM     73  C   UNL A   1      38.926  33.040  34.424  1.00  0.00     0.040 A 
ATOM     74  F   UNL A   1      40.634  33.876  33.046  1.00  0.00    -0.206 F 
ATOM     75  C   UNL A   1      38.189  31.968  34.929  1.00  0.00     0.006 A 
ENDBRANCH  47  68
BRANCH  59  76
ATOM     76  C   UNL A   1      44.717  26.011  33.353  1.00  0.00     0.057 A 
ATOM     77  C   UNL A   1      46.092  25.737  33.345  1.00  0.00     0.134 A 
ATOM     78  C   UNL A   1      43.988  25.324  34.354  1.00  0.00     0.134 A 
ATOM     79  F   UNL A   1      46.944  26.407  32.556  1.00  0.00    -0.206 F 
ATOM     80  C   UNL A   1      46.682  24.797  34.200  1.00  0.00     0.040 A 
ATOM     81  C   UNL A   1      44.577  24.439  35.261  1.00  0.00     0.040 A 
ATOM     82  F   UNL A   1      42.670  25.499  34.528  1.00  0.00    -0.206 F 
ATOM     83  C   UNL A   1      45.927  24.152  35.170  1.00  0.00     0.006 A 
ENDBRANCH  59  76
ENDBRANCH  33  34
ENDBRANCH  25  28
ENDBRANCH  23  24
ENDBRANCH   1  23
TORSDOF 12
ENDMDL
