MODEL 1
REMARK VINA RESULT:     -12.1      0.000      0.000
REMARK SMILES Nc1nc(N2CCOC[C@H]2C(=O)NCCCNC(=O)c2ccc(-c3c4nc(c(-c5c(F)cccc5F)c5ccc([nH]5)c(-c5c(F)cccc5F)c5nc(c(-c6c(F)cccc6F)c6ccc3[nH]6)C=C5)C=C4)cc2)ccc1[N+](=O)[O-]
REMARK SMILES IDX 15 1 14 2 13 3 11 4 12 5 10 7 5 8 6 9 7 10 9 11 8 12 4 13
REMARK SMILES IDX 2 14 3 15 76 16 75 17 74 18 1 19 77 22 78 23 79 24 16 25
REMARK SMILES IDX 17 26 18 27 19 29 20 30 21 31 73 32 22 33 72 34 23 35 24 36
REMARK SMILES IDX 25 37 66 38 26 39 71 40 65 41 67 42 27 43 70 44 64 45 63 46
REMARK SMILES IDX 28 48 54 49 37 50 53 51 38 52 41 53 52 54 68 55 39 56 40 57
REMARK SMILES IDX 51 59 69 60 42 61 29 62 30 63 35 64 31 65 32 66 34 67 36 68
REMARK SMILES IDX 33 69 55 70 56 71 61 72 57 73 58 74 60 75 62 76 59 77 43 78
REMARK SMILES IDX 44 79 49 80 45 81 46 82 48 83 50 84 47 85
REMARK H PARENT 13 6 1 20 1 21 17 28 67 47 41 58
REMARK Flexibility Score: inf
ROOT
ATOM      1  C   UNL A   1      31.403  28.896  26.147  1.00  0.00     0.042 C 
ENDROOT
BRANCH   1   2
ATOM      2  C   UNL A   1      31.856  27.729  27.017  1.00  0.00     0.117 C 
BRANCH   2   3
ATOM      3  N   UNL A   1      33.055  27.105  26.501  1.00  0.00    -0.354 N 
ATOM      4  C   UNL A   1      33.258  26.048  25.669  1.00  0.00     0.245 C 
ATOM      5  O   UNL A   1      34.450  25.818  25.409  1.00  0.00    -0.273 OA
ATOM      6  H   UNL A   1      33.888  27.530  26.812  1.00  0.00     0.163 HD
BRANCH   4   7
ATOM      7  C   UNL A   1      32.146  25.214  24.987  1.00  0.00     0.199 C 
ATOM      8  N   UNL A   1      31.805  25.575  23.591  1.00  0.00    -0.340 N 
ATOM      9  C   UNL A   1      32.418  24.815  22.509  1.00  0.00     0.147 C 
ATOM     10  C   UNL A   1      32.360  23.318  22.808  1.00  0.00     0.181 C 
ATOM     11  C   UNL A   1      32.314  23.686  25.155  1.00  0.00     0.195 C 
ATOM     12  O   UNL A   1      32.970  23.012  24.066  1.00  0.00    -0.377 OA
BRANCH   8  13
ATOM     13  C   UNL A   1      30.910  26.594  23.351  1.00  0.00     0.132 A 
ATOM     14  C   UNL A   1      30.469  28.698  22.400  1.00  0.00     0.204 A 
ATOM     15  N   UNL A   1      31.335  27.697  22.697  1.00  0.00    -0.207 NA
ATOM     16  C   UNL A   1      29.131  28.627  22.774  1.00  0.00     0.311 A 
ATOM     17  C   UNL A   1      28.686  27.526  23.501  1.00  0.00     0.093 A 
ATOM     18  C   UNL A   1      29.589  26.508  23.787  1.00  0.00     0.054 A 
BRANCH  14  19
ATOM     19  N   UNL A   1      31.012  29.703  21.626  1.00  0.00    -0.378 N 
ATOM     20  H   UNL A   1      31.986  29.747  21.489  1.00  0.00     0.158 HD
ATOM     21  H   UNL A   1      30.425  30.375  21.210  1.00  0.00     0.158 HD
ENDBRANCH  14  19
BRANCH  16  22
ATOM     22  N   UNL A   1      28.180  29.675  22.436  1.00  0.00     0.066 N 
ATOM     23  O   UNL A   1      28.175  30.078  21.262  1.00  0.00    -0.258 OA
ATOM     24  O   UNL A   1      27.405  30.077  23.317  1.00  0.00    -0.258 OA
ENDBRANCH  16  22
ENDBRANCH   8  13
ENDBRANCH   4   7
ENDBRANCH   2   3
ENDBRANCH   1   2
BRANCH   1  25
ATOM     25  C   UNL A   1      32.538  29.817  25.726  1.00  0.00     0.118 C 
BRANCH  25  26
ATOM     26  N   UNL A   1      32.282  31.203  26.093  1.00  0.00    -0.352 N 
ATOM     27  C   UNL A   1      32.888  32.017  27.018  1.00  0.00     0.251 C 
ATOM     28  H   UNL A   1      31.550  31.629  25.593  1.00  0.00     0.163 HD
ATOM     29  O   UNL A   1      32.365  33.095  27.291  1.00  0.00    -0.269 OA
BRANCH  27  30
ATOM     30  C   UNL A   1      34.145  31.625  27.702  1.00  0.00     0.039 A 
ATOM     31  C   UNL A   1      34.288  30.295  28.117  1.00  0.00     0.014 A 
ATOM     32  C   UNL A   1      35.151  32.546  28.001  1.00  0.00     0.014 A 
ATOM     33  C   UNL A   1      35.443  29.891  28.791  1.00  0.00     0.010 A 
ATOM     34  C   UNL A   1      36.344  32.122  28.582  1.00  0.00     0.010 A 
ATOM     35  C   UNL A   1      36.494  30.797  29.011  1.00  0.00    -0.014 A 
BRANCH  35  36
ATOM     36  C   UNL A   1      37.727  30.374  29.722  1.00  0.00     0.031 A 
ATOM     37  C   UNL A   1      37.970  30.801  31.147  1.00  0.00     0.074 A 
ATOM     38  C   UNL A   1      38.648  29.633  29.078  1.00  0.00     0.049 A 
ATOM     39  N   UNL A   1      38.979  30.521  31.935  1.00  0.00    -0.248 NA
ATOM     40  C   UNL A   1      36.965  31.685  31.758  1.00  0.00     0.031 C 
ATOM     41  C   UNL A   1      38.570  29.217  27.676  1.00  0.00     0.029 A 
ATOM     42  N   UNL A   1      39.831  29.093  29.518  1.00  0.00    -0.354 N 
ATOM     43  C   UNL A   1      38.738  31.208  33.118  1.00  0.00     0.074 A 
ATOM     44  C   UNL A   1      37.521  31.966  32.927  1.00  0.00     0.031 C 
ATOM     45  C   UNL A   1      39.637  28.456  27.383  1.00  0.00     0.029 A 
ATOM     46  C   UNL A   1      40.483  28.348  28.566  1.00  0.00     0.049 A 
ATOM     47  H   UNL A   1      40.178  29.227  30.429  1.00  0.00     0.167 HD
ATOM     48  C   UNL A   1      39.451  31.192  34.269  1.00  0.00     0.037 A 
ATOM     49  C   UNL A   1      41.627  27.643  28.645  1.00  0.00     0.037 A 
ATOM     50  C   UNL A   1      40.638  30.404  34.473  1.00  0.00     0.049 A 
ATOM     51  C   UNL A   1      42.364  27.584  29.952  1.00  0.00     0.074 A 
ATOM     52  C   UNL A   1      41.392  30.259  35.624  1.00  0.00     0.029 A 
ATOM     53  N   UNL A   1      41.239  29.623  33.499  1.00  0.00    -0.354 N 
ATOM     54  N   UNL A   1      42.080  28.173  31.088  1.00  0.00    -0.248 NA
ATOM     55  C   UNL A   1      43.571  26.747  29.993  1.00  0.00     0.031 C 
ATOM     56  C   UNL A   1      42.469  29.412  35.338  1.00  0.00     0.029 A 
ATOM     57  C   UNL A   1      42.361  29.000  34.019  1.00  0.00     0.049 A 
ATOM     58  H   UNL A   1      40.916  29.525  32.574  1.00  0.00     0.167 HD
ATOM     59  C   UNL A   1      43.055  27.760  31.985  1.00  0.00     0.074 A 
ATOM     60  C   UNL A   1      43.929  26.855  31.266  1.00  0.00     0.031 C 
ATOM     61  C   UNL A   1      43.215  28.098  33.289  1.00  0.00     0.037 A 
BRANCH  48  62
ATOM     62  C   UNL A   1      38.953  32.043  35.402  1.00  0.00     0.057 A 
ATOM     63  C   UNL A   1      38.158  31.516  36.429  1.00  0.00     0.134 A 
ATOM     64  C   UNL A   1      39.288  33.400  35.479  1.00  0.00     0.134 A 
ATOM     65  F   UNL A   1      37.790  30.226  36.409  1.00  0.00    -0.206 F 
ATOM     66  C   UNL A   1      37.689  32.313  37.474  1.00  0.00     0.040 A 
ATOM     67  C   UNL A   1      38.847  34.203  36.533  1.00  0.00     0.040 A 
ATOM     68  F   UNL A   1      40.050  33.969  34.533  1.00  0.00    -0.206 F 
ATOM     69  C   UNL A   1      38.038  33.662  37.530  1.00  0.00     0.006 A 
ENDBRANCH  48  62
BRANCH  49  70
ATOM     70  C   UNL A   1      42.112  26.888  27.463  1.00  0.00     0.057 A 
ATOM     71  C   UNL A   1      42.918  27.501  26.497  1.00  0.00     0.134 A 
ATOM     72  C   UNL A   1      41.792  25.538  27.274  1.00  0.00     0.134 A 
ATOM     73  F   UNL A   1      43.246  28.796  26.616  1.00  0.00    -0.206 F 
ATOM     74  C   UNL A   1      43.375  26.806  25.376  1.00  0.00     0.040 A 
ATOM     75  C   UNL A   1      42.260  24.824  26.170  1.00  0.00     0.040 A 
ATOM     76  F   UNL A   1      41.033  24.891  28.170  1.00  0.00    -0.206 F 
ATOM     77  C   UNL A   1      43.049  25.461  25.213  1.00  0.00     0.006 A 
ENDBRANCH  49  70
BRANCH  61  78
ATOM     78  C   UNL A   1      44.358  27.464  34.022  1.00  0.00     0.057 A 
ATOM     79  C   UNL A   1      44.230  26.224  34.660  1.00  0.00     0.134 A 
ATOM     80  C   UNL A   1      45.608  28.092  34.071  1.00  0.00     0.134 A 
ATOM     81  F   UNL A   1      43.053  25.577  34.658  1.00  0.00    -0.206 F 
ATOM     82  C   UNL A   1      45.297  25.643  35.345  1.00  0.00     0.040 A 
ATOM     83  C   UNL A   1      46.690  27.510  34.731  1.00  0.00     0.040 A 
ATOM     84  F   UNL A   1      45.799  29.277  33.473  1.00  0.00    -0.206 F 
ATOM     85  C   UNL A   1      46.534  26.285  35.378  1.00  0.00     0.006 A 
ENDBRANCH  61  78
ENDBRANCH  35  36
ENDBRANCH  27  30
ENDBRANCH  25  26
ENDBRANCH   1  25
TORSDOF 13
ENDMDL
MODEL 2
REMARK VINA RESULT:     -12.1      4.493      8.960
REMARK SMILES Nc1nc(N2CCOC[C@H]2C(=O)NCCCNC(=O)c2ccc(-c3c4nc(c(-c5c(F)cccc5F)c5ccc([nH]5)c(-c5c(F)cccc5F)c5nc(c(-c6c(F)cccc6F)c6ccc3[nH]6)C=C5)C=C4)cc2)ccc1[N+](=O)[O-]
REMARK SMILES IDX 15 1 14 2 13 3 11 4 12 5 10 7 5 8 6 9 7 10 9 11 8 12 4 13
REMARK SMILES IDX 2 14 3 15 76 16 75 17 74 18 1 19 77 22 78 23 79 24 16 25
REMARK SMILES IDX 17 26 18 27 19 29 20 30 21 31 73 32 22 33 72 34 23 35 24 36
REMARK SMILES IDX 25 37 66 38 26 39 71 40 65 41 67 42 27 43 70 44 64 45 63 46
REMARK SMILES IDX 28 48 54 49 37 50 53 51 38 52 41 53 52 54 68 55 39 56 40 57
REMARK SMILES IDX 51 59 69 60 42 61 29 62 30 63 35 64 31 65 32 66 34 67 36 68
REMARK SMILES IDX 33 69 55 70 56 71 61 72 57 73 58 74 60 75 62 76 59 77 43 78
REMARK SMILES IDX 44 79 49 80 45 81 46 82 48 83 50 84 47 85
REMARK H PARENT 13 6 1 20 1 21 17 28 67 47 41 58
REMARK Flexibility Score: inf
ROOT
ATOM      1  C   UNL A   1      35.549  23.710  25.671  1.00  0.00     0.042 C 
ENDROOT
BRANCH   1   2
ATOM      2  C   UNL A   1      34.496  24.515  24.917  1.00  0.00     0.117 C 
BRANCH   2   3
ATOM      3  N   UNL A   1      34.437  24.148  23.518  1.00  0.00    -0.354 N 
ATOM      4  C   UNL A   1      33.566  23.385  22.802  1.00  0.00     0.245 C 
ATOM      5  O   UNL A   1      33.816  23.323  21.587  1.00  0.00    -0.273 OA
ATOM      6  H   UNL A   1      35.169  24.526  22.979  1.00  0.00     0.163 HD
BRANCH   4   7
ATOM      7  C   UNL A   1      32.297  22.700  23.364  1.00  0.00     0.199 C 
ATOM      8  N   UNL A   1      32.484  21.815  24.538  1.00  0.00    -0.340 N 
ATOM      9  C   UNL A   1      32.234  22.361  25.865  1.00  0.00     0.147 C 
ATOM     10  C   UNL A   1      30.933  23.162  25.877  1.00  0.00     0.181 C 
ATOM     11  C   UNL A   1      31.100  23.659  23.559  1.00  0.00     0.195 C 
ATOM     12  O   UNL A   1      30.946  24.194  24.885  1.00  0.00    -0.377 OA
BRANCH   8  13
ATOM     13  C   UNL A   1      32.864  20.504  24.348  1.00  0.00     0.132 A 
ATOM     14  C   UNL A   1      32.529  18.455  23.247  1.00  0.00     0.204 A 
ATOM     15  N   UNL A   1      32.153  19.735  23.496  1.00  0.00    -0.207 NA
ATOM     16  C   UNL A   1      33.639  17.897  23.871  1.00  0.00     0.311 A 
ATOM     17  C   UNL A   1      34.351  18.654  24.798  1.00  0.00     0.093 A 
ATOM     18  C   UNL A   1      33.953  19.965  25.032  1.00  0.00     0.054 A 
BRANCH  14  19
ATOM     19  N   UNL A   1      31.786  17.829  22.267  1.00  0.00    -0.378 N 
ATOM     20  H   UNL A   1      31.210  17.065  22.500  1.00  0.00     0.158 HD
ATOM     21  H   UNL A   1      31.832  18.146  21.336  1.00  0.00     0.158 HD
ENDBRANCH  14  19
BRANCH  16  22
ATOM     22  N   UNL A   1      34.078  16.537  23.593  1.00  0.00     0.066 N 
ATOM     23  O   UNL A   1      34.392  16.272  22.421  1.00  0.00    -0.258 OA
ATOM     24  O   UNL A   1      34.154  15.735  24.535  1.00  0.00    -0.258 OA
ENDBRANCH  16  22
ENDBRANCH   8  13
ENDBRANCH   4   7
ENDBRANCH   2   3
ENDBRANCH   1   2
BRANCH   1  25
ATOM     25  C   UNL A   1      36.887  23.638  24.953  1.00  0.00     0.118 C 
BRANCH  25  26
ATOM     26  N   UNL A   1      37.762  22.625  25.527  1.00  0.00    -0.352 N 
ATOM     27  C   UNL A   1      38.939  22.740  26.227  1.00  0.00     0.251 C 
ATOM     28  H   UNL A   1      37.459  21.699  25.390  1.00  0.00     0.163 HD
ATOM     29  O   UNL A   1      39.603  21.728  26.438  1.00  0.00    -0.269 OA
BRANCH  27  30
ATOM     30  C   UNL A   1      39.431  24.050  26.720  1.00  0.00     0.039 A 
ATOM     31  C   UNL A   1      39.172  24.399  28.051  1.00  0.00     0.014 A 
ATOM     32  C   UNL A   1      40.078  24.966  25.886  1.00  0.00     0.014 A 
ATOM     33  C   UNL A   1      39.592  25.636  28.547  1.00  0.00     0.010 A 
ATOM     34  C   UNL A   1      40.584  26.155  26.407  1.00  0.00     0.010 A 
ATOM     35  C   UNL A   1      40.323  26.518  27.734  1.00  0.00    -0.014 A 
BRANCH  35  36
ATOM     36  C   UNL A   1      40.777  27.833  28.254  1.00  0.00     0.031 A 
ATOM     37  C   UNL A   1      42.242  28.183  28.267  1.00  0.00     0.074 A 
ATOM     38  C   UNL A   1      39.875  28.703  28.748  1.00  0.00     0.049 A 
ATOM     39  N   UNL A   1      42.827  29.285  28.669  1.00  0.00    -0.248 NA
ATOM     40  C   UNL A   1      43.179  27.149  27.797  1.00  0.00     0.031 C 
ATOM     41  C   UNL A   1      38.436  28.456  28.863  1.00  0.00     0.029 A 
ATOM     42  N   UNL A   1      40.033  29.973  29.242  1.00  0.00    -0.354 N 
ATOM     43  C   UNL A   1      44.191  29.066  28.520  1.00  0.00     0.074 A 
ATOM     44  C   UNL A   1      44.352  27.709  28.047  1.00  0.00     0.031 C 
ATOM     45  C   UNL A   1      37.840  29.553  29.357  1.00  0.00     0.029 A 
ATOM     46  C   UNL A   1      38.854  30.570  29.613  1.00  0.00     0.049 A 
ATOM     47  H   UNL A   1      40.909  30.414  29.323  1.00  0.00     0.167 HD
ATOM     48  C   UNL A   1      45.216  29.925  28.732  1.00  0.00     0.037 A 
ATOM     49  C   UNL A   1      38.614  31.806  30.090  1.00  0.00     0.037 A 
ATOM     50  C   UNL A   1      45.052  31.289  29.160  1.00  0.00     0.049 A 
ATOM     51  C   UNL A   1      39.760  32.764  30.253  1.00  0.00     0.074 A 
ATOM     52  C   UNL A   1      46.019  32.263  29.333  1.00  0.00     0.029 A 
ATOM     53  N   UNL A   1      43.835  31.871  29.478  1.00  0.00    -0.354 N 
ATOM     54  N   UNL A   1      41.037  32.571  30.029  1.00  0.00    -0.248 NA
ATOM     55  C   UNL A   1      39.429  34.118  30.716  1.00  0.00     0.031 C 
ATOM     56  C   UNL A   1      45.390  33.429  29.786  1.00  0.00     0.029 A 
ATOM     57  C   UNL A   1      44.027  33.190  29.856  1.00  0.00     0.049 A 
ATOM     58  H   UNL A   1      42.963  31.416  29.441  1.00  0.00     0.167 HD
ATOM     59  C   UNL A   1      41.658  33.782  30.299  1.00  0.00     0.074 A 
ATOM     60  C   UNL A   1      40.616  34.709  30.686  1.00  0.00     0.031 C 
ATOM     61  C   UNL A   1      42.975  34.099  30.232  1.00  0.00     0.037 A 
BRANCH  48  62
ATOM     62  C   UNL A   1      46.607  29.414  28.487  1.00  0.00     0.057 A 
ATOM     63  C   UNL A   1      47.370  28.829  29.508  1.00  0.00     0.134 A 
ATOM     64  C   UNL A   1      47.184  29.486  27.214  1.00  0.00     0.134 A 
ATOM     65  F   UNL A   1      46.881  28.740  30.755  1.00  0.00    -0.206 F 
ATOM     66  C   UNL A   1      48.665  28.365  29.279  1.00  0.00     0.040 A 
ATOM     67  C   UNL A   1      48.469  29.000  26.965  1.00  0.00     0.040 A 
ATOM     68  F   UNL A   1      46.508  30.028  26.189  1.00  0.00    -0.206 F 
ATOM     69  C   UNL A   1      49.217  28.445  28.001  1.00  0.00     0.006 A 
ENDBRANCH  48  62
BRANCH  49  70
ATOM     70  C   UNL A   1      37.223  32.225  30.392  1.00  0.00     0.057 A 
ATOM     71  C   UNL A   1      36.657  31.992  31.651  1.00  0.00     0.134 A 
ATOM     72  C   UNL A   1      36.431  32.875  29.439  1.00  0.00     0.134 A 
ATOM     73  F   UNL A   1      37.363  31.361  32.601  1.00  0.00    -0.206 F 
ATOM     74  C   UNL A   1      35.348  32.373  31.947  1.00  0.00     0.040 A 
ATOM     75  C   UNL A   1      35.127  33.282  29.727  1.00  0.00     0.040 A 
ATOM     76  F   UNL A   1      36.919  33.137  28.218  1.00  0.00    -0.206 F 
ATOM     77  C   UNL A   1      34.580  33.025  30.983  1.00  0.00     0.006 A 
ENDBRANCH  49  70
BRANCH  61  78
ATOM     78  C   UNL A   1      43.352  35.513  30.559  1.00  0.00     0.057 A 
ATOM     79  C   UNL A   1      43.692  35.906  31.859  1.00  0.00     0.134 A 
ATOM     80  C   UNL A   1      43.395  36.488  29.555  1.00  0.00     0.134 A 
ATOM     81  F   UNL A   1      43.659  35.020  32.867  1.00  0.00    -0.206 F 
ATOM     82  C   UNL A   1      44.036  37.225  32.155  1.00  0.00     0.040 A 
ATOM     83  C   UNL A   1      43.761  37.805  29.833  1.00  0.00     0.040 A 
ATOM     84  F   UNL A   1      43.088  36.174  28.287  1.00  0.00    -0.206 F 
ATOM     85  C   UNL A   1      44.075  38.179  31.139  1.00  0.00     0.006 A 
ENDBRANCH  61  78
ENDBRANCH  35  36
ENDBRANCH  27  30
ENDBRANCH  25  26
ENDBRANCH   1  25
TORSDOF 13
ENDMDL
MODEL 3
REMARK VINA RESULT:     -12.1      4.482      8.942
REMARK SMILES Nc1nc(N2CCOC[C@H]2C(=O)NCCCNC(=O)c2ccc(-c3c4nc(c(-c5c(F)cccc5F)c5ccc([nH]5)c(-c5c(F)cccc5F)c5nc(c(-c6c(F)cccc6F)c6ccc3[nH]6)C=C5)C=C4)cc2)ccc1[N+](=O)[O-]
REMARK SMILES IDX 15 1 14 2 13 3 11 4 12 5 10 7 5 8 6 9 7 10 9 11 8 12 4 13
REMARK SMILES IDX 2 14 3 15 76 16 75 17 74 18 1 19 77 22 78 23 79 24 16 25
REMARK SMILES IDX 17 26 18 27 19 29 20 30 21 31 73 32 22 33 72 34 23 35 24 36
REMARK SMILES IDX 25 37 66 38 26 39 71 40 65 41 67 42 27 43 70 44 64 45 63 46
REMARK SMILES IDX 28 48 54 49 37 50 53 51 38 52 41 53 52 54 68 55 39 56 40 57
REMARK SMILES IDX 51 59 69 60 42 61 29 62 30 63 35 64 31 65 32 66 34 67 36 68
REMARK SMILES IDX 33 69 55 70 56 71 61 72 57 73 58 74 60 75 62 76 59 77 43 78
REMARK SMILES IDX 44 79 49 80 45 81 46 82 48 83 50 84 47 85
REMARK H PARENT 13 6 1 20 1 21 17 28 67 47 41 58
REMARK Flexibility Score: inf
ROOT
ATOM      1  C   UNL A   1      35.615  23.829  25.688  1.00  0.00     0.042 C 
ENDROOT
BRANCH   1   2
ATOM      2  C   UNL A   1      34.529  24.563  24.910  1.00  0.00     0.117 C 
BRANCH   2   3
ATOM      3  N   UNL A   1      34.499  24.165  23.520  1.00  0.00    -0.354 N 
ATOM      4  C   UNL A   1      33.638  23.395  22.800  1.00  0.00     0.245 C 
ATOM      5  O   UNL A   1      33.916  23.302  21.593  1.00  0.00    -0.273 OA
ATOM      6  H   UNL A   1      35.248  24.523  22.989  1.00  0.00     0.163 HD
BRANCH   4   7
ATOM      7  C   UNL A   1      32.349  22.736  23.347  1.00  0.00     0.199 C 
ATOM      8  N   UNL A   1      32.505  21.840  24.518  1.00  0.00    -0.340 N 
ATOM      9  C   UNL A   1      32.255  22.385  25.846  1.00  0.00     0.147 C 
ATOM     10  C   UNL A   1      30.973  23.216  25.850  1.00  0.00     0.181 C 
ATOM     11  C   UNL A   1      31.172  23.720  23.538  1.00  0.00     0.195 C 
ATOM     12  O   UNL A   1      31.018  24.252  24.865  1.00  0.00    -0.377 OA
BRANCH   8  13
ATOM     13  C   UNL A   1      32.857  20.522  24.324  1.00  0.00     0.132 A 
ATOM     14  C   UNL A   1      32.509  18.497  23.182  1.00  0.00     0.204 A 
ATOM     15  N   UNL A   1      32.159  19.784  23.435  1.00  0.00    -0.207 NA
ATOM     16  C   UNL A   1      33.579  17.901  23.840  1.00  0.00     0.311 A 
ATOM     17  C   UNL A   1      34.275  18.626  24.804  1.00  0.00     0.093 A 
ATOM     18  C   UNL A   1      33.903  19.945  25.041  1.00  0.00     0.054 A 
BRANCH  14  19
ATOM     19  N   UNL A   1      31.788  17.905  22.166  1.00  0.00    -0.378 N 
ATOM     20  H   UNL A   1      31.815  18.283  21.258  1.00  0.00     0.158 HD
ATOM     21  H   UNL A   1      31.246  17.103  22.350  1.00  0.00     0.158 HD
ENDBRANCH  14  19
BRANCH  16  22
ATOM     22  N   UNL A   1      33.992  16.534  23.559  1.00  0.00     0.066 N 
ATOM     23  O   UNL A   1      34.386  16.286  22.408  1.00  0.00    -0.258 OA
ATOM     24  O   UNL A   1      33.967  15.707  24.483  1.00  0.00    -0.258 OA
ENDBRANCH  16  22
ENDBRANCH   8  13
ENDBRANCH   4   7
ENDBRANCH   2   3
ENDBRANCH   1   2
BRANCH   1  25
ATOM     25  C   UNL A   1      36.899  23.630  24.898  1.00  0.00     0.118 C 
BRANCH  25  26
ATOM     26  N   UNL A   1      37.756  22.612  25.492  1.00  0.00    -0.352 N 
ATOM     27  C   UNL A   1      38.921  22.721  26.209  1.00  0.00     0.251 C 
ATOM     28  H   UNL A   1      37.446  21.688  25.355  1.00  0.00     0.163 HD
ATOM     29  O   UNL A   1      39.573  21.704  26.437  1.00  0.00    -0.269 OA
BRANCH  27  30
ATOM     30  C   UNL A   1      39.418  24.029  26.703  1.00  0.00     0.039 A 
ATOM     31  C   UNL A   1      39.181  24.368  28.041  1.00  0.00     0.014 A 
ATOM     32  C   UNL A   1      40.048  24.952  25.865  1.00  0.00     0.014 A 
ATOM     33  C   UNL A   1      39.605  25.603  28.537  1.00  0.00     0.010 A 
ATOM     34  C   UNL A   1      40.559  26.139  26.384  1.00  0.00     0.010 A 
ATOM     35  C   UNL A   1      40.319  26.493  27.719  1.00  0.00    -0.014 A 
BRANCH  35  36
ATOM     36  C   UNL A   1      40.778  27.806  28.240  1.00  0.00     0.031 A 
ATOM     37  C   UNL A   1      42.244  28.152  28.248  1.00  0.00     0.074 A 
ATOM     38  C   UNL A   1      39.879  28.677  28.738  1.00  0.00     0.049 A 
ATOM     39  N   UNL A   1      42.832  29.252  28.650  1.00  0.00    -0.248 NA
ATOM     40  C   UNL A   1      43.177  27.118  27.773  1.00  0.00     0.031 C 
ATOM     41  C   UNL A   1      38.440  28.433  28.857  1.00  0.00     0.029 A 
ATOM     42  N   UNL A   1      40.043  29.946  29.234  1.00  0.00    -0.354 N 
ATOM     43  C   UNL A   1      44.195  29.031  28.496  1.00  0.00     0.074 A 
ATOM     44  C   UNL A   1      44.352  27.675  28.020  1.00  0.00     0.031 C 
ATOM     45  C   UNL A   1      37.848  29.530  29.356  1.00  0.00     0.029 A 
ATOM     46  C   UNL A   1      38.866  30.545  29.610  1.00  0.00     0.049 A 
ATOM     47  H   UNL A   1      40.920  30.385  29.313  1.00  0.00     0.167 HD
ATOM     48  C   UNL A   1      45.223  29.888  28.706  1.00  0.00     0.037 A 
ATOM     49  C   UNL A   1      38.631  31.780  30.091  1.00  0.00     0.037 A 
ATOM     50  C   UNL A   1      45.064  31.251  29.138  1.00  0.00     0.049 A 
ATOM     51  C   UNL A   1      39.779  32.735  30.251  1.00  0.00     0.074 A 
ATOM     52  C   UNL A   1      46.034  32.222  29.309  1.00  0.00     0.029 A 
ATOM     53  N   UNL A   1      43.849  31.835  29.461  1.00  0.00    -0.354 N 
ATOM     54  N   UNL A   1      41.055  32.539  30.023  1.00  0.00    -0.248 NA
ATOM     55  C   UNL A   1      39.452  34.089  30.719  1.00  0.00     0.031 C 
ATOM     56  C   UNL A   1      45.409  33.388  29.766  1.00  0.00     0.029 A 
ATOM     57  C   UNL A   1      44.045  33.153  29.841  1.00  0.00     0.049 A 
ATOM     58  H   UNL A   1      42.976  31.381  29.426  1.00  0.00     0.167 HD
ATOM     59  C   UNL A   1      41.680  33.749  30.293  1.00  0.00     0.074 A 
ATOM     60  C   UNL A   1      40.640  34.678  30.685  1.00  0.00     0.031 C 
ATOM     61  C   UNL A   1      42.997  34.063  30.222  1.00  0.00     0.037 A 
BRANCH  48  62
ATOM     62  C   UNL A   1      46.613  29.373  28.456  1.00  0.00     0.057 A 
ATOM     63  C   UNL A   1      47.379  28.790  29.474  1.00  0.00     0.134 A 
ATOM     64  C   UNL A   1      47.183  29.442  27.179  1.00  0.00     0.134 A 
ATOM     65  F   UNL A   1      46.897  28.704  30.723  1.00  0.00    -0.206 F 
ATOM     66  C   UNL A   1      48.673  28.323  29.239  1.00  0.00     0.040 A 
ATOM     67  C   UNL A   1      48.466  28.954  26.925  1.00  0.00     0.040 A 
ATOM     68  F   UNL A   1      46.503  29.983  26.157  1.00  0.00    -0.206 F 
ATOM     69  C   UNL A   1      49.219  28.400  27.959  1.00  0.00     0.006 A 
ENDBRANCH  48  62
BRANCH  49  70
ATOM     70  C   UNL A   1      37.241  32.202  30.399  1.00  0.00     0.057 A 
ATOM     71  C   UNL A   1      36.454  32.848  29.438  1.00  0.00     0.134 A 
ATOM     72  C   UNL A   1      36.664  31.962  31.651  1.00  0.00     0.134 A 
ATOM     73  F   UNL A   1      36.958  33.118  28.225  1.00  0.00    -0.206 F 
ATOM     74  C   UNL A   1      35.150  33.257  29.715  1.00  0.00     0.040 A 
ATOM     75  C   UNL A   1      35.352  32.345  31.936  1.00  0.00     0.040 A 
ATOM     76  F   UNL A   1      37.362  31.336  32.610  1.00  0.00    -0.206 F 
ATOM     77  C   UNL A   1      34.594  33.001  30.968  1.00  0.00     0.006 A 
ENDBRANCH  49  70
BRANCH  61  78
ATOM     78  C   UNL A   1      43.378  35.476  30.550  1.00  0.00     0.057 A 
ATOM     79  C   UNL A   1      43.412  36.478  29.572  1.00  0.00     0.134 A 
ATOM     80  C   UNL A   1      43.693  35.842  31.864  1.00  0.00     0.134 A 
ATOM     81  F   UNL A   1      43.132  36.187  28.292  1.00  0.00    -0.206 F 
ATOM     82  C   UNL A   1      43.773  37.788  29.885  1.00  0.00     0.040 A 
ATOM     83  C   UNL A   1      44.031  37.154  32.194  1.00  0.00     0.040 A 
ATOM     84  F   UNL A   1      43.669  34.931  32.849  1.00  0.00    -0.206 F 
ATOM     85  C   UNL A   1      44.080  38.131  31.201  1.00  0.00     0.006 A 
ENDBRANCH  61  78
ENDBRANCH  35  36
ENDBRANCH  27  30
ENDBRANCH  25  26
ENDBRANCH   1  25
TORSDOF 13
ENDMDL
