MODEL 1
REMARK VINA RESULT:     -12.7      0.000      0.000
REMARK SMILES COC(=O)c1c(NC(=O)[C@@H]2C[C@@H]2C(=O)NCCCNC(=O)c2ccc(-c3c4nc(c(-c5c(F)cccc5F)c5ccc([nH]5)c(-c5c(F)cccc5F)c5nc(c(-c6c(F)cccc6F)c6ccc3[nH]6)C=C5)C=C4)cc2)sc2c1CC[N@@H+](Cc1ccccc1)C2
REMARK SMILES IDX 16 1 15 2 13 3 14 4 12 6 10 7 11 8 8 9 7 10 9 12 6 13 5 14
REMARK SMILES IDX 78 15 76 16 77 17 79 18 89 19 80 20 81 21 3 23 4 24 2 25
REMARK SMILES IDX 1 26 82 27 83 28 84 29 88 30 85 31 87 32 86 33 17 34 18 35
REMARK SMILES IDX 19 36 20 37 21 39 22 40 23 41 75 42 24 43 74 44 25 45 26 46
REMARK SMILES IDX 27 47 68 48 28 49 73 50 67 51 69 52 29 53 72 54 66 55 65 56
REMARK SMILES IDX 30 58 56 59 39 60 55 61 40 62 43 63 54 64 70 65 41 66 42 67
REMARK SMILES IDX 53 69 71 70 44 71 31 72 32 73 37 74 33 75 34 76 36 77 38 78
REMARK SMILES IDX 35 79 57 80 58 81 63 82 59 83 60 84 62 85 64 86 61 87 45 88
REMARK SMILES IDX 46 89 51 90 47 91 48 92 50 93 52 94 49 95
REMARK H PARENT 15 5 7 11 81 22 19 38 69 57 43 68
REMARK Flexibility Score: inf
ROOT
ATOM      1  C   UNL A   1      38.474  21.287  25.727  1.00  0.00     0.117 C 
ENDROOT
BRANCH   1   2
ATOM      2  N   UNL A   1      37.847  21.925  24.583  1.00  0.00    -0.356 N 
ATOM      3  C   UNL A   1      36.906  22.916  24.524  1.00  0.00     0.223 C 
ATOM      4  O   UNL A   1      36.560  23.343  23.428  1.00  0.00    -0.275 OA
ATOM      5  H   UNL A   1      38.147  21.589  23.707  1.00  0.00     0.163 HD
BRANCH   3   6
ATOM      6  C   UNL A   1      36.367  23.518  25.775  1.00  0.00     0.091 C 
ATOM      7  C   UNL A   1      34.977  23.246  26.323  1.00  0.00     0.092 C 
ATOM      8  C   UNL A   1      35.256  24.537  25.607  1.00  0.00     0.028 C 
BRANCH   7   9
ATOM      9  C   UNL A   1      34.128  22.195  25.759  1.00  0.00     0.228 C 
ATOM     10  N   UNL A   1      33.062  22.505  24.970  1.00  0.00    -0.317 N 
ATOM     11  H   UNL A   1      32.660  21.705  24.559  1.00  0.00     0.170 HD
ATOM     12  O   UNL A   1      34.396  21.011  25.955  1.00  0.00    -0.274 OA
BRANCH  10  13
ATOM     13  C   UNL A   1      32.406  23.660  24.603  1.00  0.00     0.110 A 
ATOM     14  C   UNL A   1      31.504  24.612  25.072  1.00  0.00     0.098 A 
ATOM     15  C   UNL A   1      31.113  25.506  23.988  1.00  0.00    -0.006 A 
ATOM     16  S   UNL A   1      32.791  23.903  22.934  1.00  0.00    -0.116 S 
ATOM     17  C   UNL A   1      31.816  25.270  22.828  1.00  0.00     0.065 A 
ATOM     18  C   UNL A   1      30.194  26.698  24.088  1.00  0.00     0.099 C 
ATOM     19  C   UNL A   1      31.811  26.175  21.637  1.00  0.00     0.310 C 
ATOM     20  C   UNL A   1      30.265  27.616  22.838  1.00  0.00     0.267 C 
ATOM     21  N   UNL A   1      31.495  27.559  22.026  1.00  0.00    -0.326 N 
ATOM     22  H   UNL A   1      31.282  28.066  21.166  1.00  0.00     0.348 HD
BRANCH  14  23
ATOM     23  C   UNL A   1      30.904  24.790  26.392  1.00  0.00     0.341 C 
ATOM     24  O   UNL A   1      30.535  25.879  26.798  1.00  0.00    -0.246 OA
BRANCH  23  25
ATOM     25  O   UNL A   1      30.903  23.662  27.155  1.00  0.00    -0.465 OA
ATOM     26  C   UNL A   1      29.728  22.856  27.015  1.00  0.00     0.282 C 
ENDBRANCH  23  25
ENDBRANCH  14  23
BRANCH  21  27
ATOM     27  C   UNL A   1      32.638  28.347  22.529  1.00  0.00     0.299 C 
BRANCH  27  28
ATOM     28  C   UNL A   1      32.785  28.535  24.027  1.00  0.00     0.006 A 
ATOM     29  C   UNL A   1      33.656  27.723  24.768  1.00  0.00     0.009 A 
ATOM     30  C   UNL A   1      32.100  29.560  24.698  1.00  0.00     0.009 A 
ATOM     31  C   UNL A   1      33.916  27.998  26.113  1.00  0.00     0.001 A 
ATOM     32  C   UNL A   1      32.381  29.853  26.035  1.00  0.00     0.001 A 
ATOM     33  C   UNL A   1      33.301  29.081  26.738  1.00  0.00     0.000 A 
ENDBRANCH  27  28
ENDBRANCH  21  27
ENDBRANCH  10  13
ENDBRANCH   7   9
ENDBRANCH   3   6
ENDBRANCH   1   2
BRANCH   1  34
ATOM     34  C   UNL A   1      39.245  20.022  25.352  1.00  0.00     0.042 C 
BRANCH  34  35
ATOM     35  C   UNL A   1      40.181  19.493  26.409  1.00  0.00     0.118 C 
BRANCH  35  36
ATOM     36  N   UNL A   1      41.447  18.956  25.900  1.00  0.00    -0.352 N 
ATOM     37  C   UNL A   1      42.608  19.661  25.600  1.00  0.00     0.251 C 
ATOM     38  H   UNL A   1      41.478  17.983  25.752  1.00  0.00     0.163 HD
ATOM     39  O   UNL A   1      43.458  19.191  24.852  1.00  0.00    -0.269 OA
BRANCH  37  40
ATOM     40  C   UNL A   1      42.793  20.998  26.198  1.00  0.00     0.039 A 
ATOM     41  C   UNL A   1      43.013  22.165  25.463  1.00  0.00     0.014 A 
ATOM     42  C   UNL A   1      42.659  21.066  27.572  1.00  0.00     0.014 A 
ATOM     43  C   UNL A   1      43.031  23.381  26.149  1.00  0.00     0.010 A 
ATOM     44  C   UNL A   1      42.269  22.237  28.134  1.00  0.00     0.010 A 
ATOM     45  C   UNL A   1      42.649  23.398  27.500  1.00  0.00    -0.014 A 
BRANCH  45  46
ATOM     46  C   UNL A   1      42.578  24.599  28.317  1.00  0.00     0.031 A 
ATOM     47  C   UNL A   1      41.325  25.361  28.140  1.00  0.00     0.074 A 
ATOM     48  C   UNL A   1      43.440  24.834  29.336  1.00  0.00     0.049 A 
ATOM     49  N   UNL A   1      41.173  26.501  27.556  1.00  0.00    -0.248 NA
ATOM     50  C   UNL A   1      40.061  24.694  28.490  1.00  0.00     0.031 C 
ATOM     51  C   UNL A   1      44.518  23.972  29.852  1.00  0.00     0.029 A 
ATOM     52  N   UNL A   1      43.465  25.873  30.213  1.00  0.00    -0.354 N 
ATOM     53  C   UNL A   1      39.825  26.810  27.693  1.00  0.00     0.074 A 
ATOM     54  C   UNL A   1      39.169  25.577  28.040  1.00  0.00     0.031 C 
ATOM     55  C   UNL A   1      44.921  24.410  31.064  1.00  0.00     0.029 A 
ATOM     56  C   UNL A   1      44.271  25.677  31.332  1.00  0.00     0.049 A 
ATOM     57  H   UNL A   1      42.952  26.701  30.069  1.00  0.00     0.167 HD
ATOM     58  C   UNL A   1      39.424  28.106  27.811  1.00  0.00     0.037 A 
ATOM     59  C   UNL A   1      44.376  26.497  32.408  1.00  0.00     0.037 A 
ATOM     60  C   UNL A   1      40.477  29.004  27.390  1.00  0.00     0.049 A 
ATOM     61  C   UNL A   1      43.849  27.822  31.995  1.00  0.00     0.074 A 
ATOM     62  C   UNL A   1      41.205  29.177  26.228  1.00  0.00     0.029 A 
ATOM     63  N   UNL A   1      41.199  29.639  28.373  1.00  0.00    -0.354 N 
ATOM     64  N   UNL A   1      44.431  28.590  31.117  1.00  0.00    -0.248 NA
ATOM     65  C   UNL A   1      42.430  28.067  32.199  1.00  0.00     0.031 C 
ATOM     66  C   UNL A   1      42.534  29.465  26.663  1.00  0.00     0.029 A 
ATOM     67  C   UNL A   1      42.528  29.533  28.056  1.00  0.00     0.049 A 
ATOM     68  H   UNL A   1      40.827  30.090  29.166  1.00  0.00     0.167 HD
ATOM     69  C   UNL A   1      43.392  29.099  30.351  1.00  0.00     0.074 A 
ATOM     70  C   UNL A   1      42.179  28.808  31.116  1.00  0.00     0.031 C 
ATOM     71  C   UNL A   1      43.582  29.434  29.040  1.00  0.00     0.037 A 
BRANCH  58  72
ATOM     72  C   UNL A   1      38.285  28.569  28.698  1.00  0.00     0.057 A 
ATOM     73  C   UNL A   1      37.370  29.504  28.178  1.00  0.00     0.134 A 
ATOM     74  C   UNL A   1      38.213  28.389  30.096  1.00  0.00     0.134 A 
ATOM     75  F   UNL A   1      37.319  29.759  26.861  1.00  0.00    -0.206 F 
ATOM     76  C   UNL A   1      36.540  30.281  28.994  1.00  0.00     0.040 A 
ATOM     77  C   UNL A   1      37.353  29.126  30.915  1.00  0.00     0.040 A 
ATOM     78  F   UNL A   1      39.022  27.567  30.771  1.00  0.00    -0.206 F 
ATOM     79  C   UNL A   1      36.543  30.106  30.370  1.00  0.00     0.006 A 
ENDBRANCH  58  72
BRANCH  59  80
ATOM     80  C   UNL A   1      44.603  26.151  33.831  1.00  0.00     0.057 A 
ATOM     81  C   UNL A   1      43.554  25.712  34.651  1.00  0.00     0.134 A 
ATOM     82  C   UNL A   1      45.901  25.959  34.338  1.00  0.00     0.134 A 
ATOM     83  F   UNL A   1      42.282  25.814  34.239  1.00  0.00    -0.206 F 
ATOM     84  C   UNL A   1      43.781  25.093  35.889  1.00  0.00     0.040 A 
ATOM     85  C   UNL A   1      46.142  25.347  35.574  1.00  0.00     0.040 A 
ATOM     86  F   UNL A   1      46.981  26.276  33.609  1.00  0.00    -0.206 F 
ATOM     87  C   UNL A   1      45.079  24.896  36.348  1.00  0.00     0.006 A 
ENDBRANCH  59  80
BRANCH  71  88
ATOM     88  C   UNL A   1      44.997  29.478  28.524  1.00  0.00     0.057 A 
ATOM     89  C   UNL A   1      45.655  28.398  27.916  1.00  0.00     0.134 A 
ATOM     90  C   UNL A   1      45.666  30.706  28.510  1.00  0.00     0.134 A 
ATOM     91  F   UNL A   1      45.063  27.205  27.793  1.00  0.00    -0.206 F 
ATOM     92  C   UNL A   1      46.931  28.525  27.357  1.00  0.00     0.040 A 
ATOM     93  C   UNL A   1      46.926  30.857  27.926  1.00  0.00     0.040 A 
ATOM     94  F   UNL A   1      45.080  31.800  29.023  1.00  0.00    -0.206 F 
ATOM     95  C   UNL A   1      47.568  29.761  27.355  1.00  0.00     0.006 A 
ENDBRANCH  71  88
ENDBRANCH  45  46
ENDBRANCH  37  40
ENDBRANCH  35  36
ENDBRANCH  34  35
ENDBRANCH   1  34
TORSDOF 16
ENDMDL
MODEL 2
REMARK VINA RESULT:     -12.3      2.826      7.827
REMARK SMILES COC(=O)c1c(NC(=O)[C@@H]2C[C@@H]2C(=O)NCCCNC(=O)c2ccc(-c3c4nc(c(-c5c(F)cccc5F)c5ccc([nH]5)c(-c5c(F)cccc5F)c5nc(c(-c6c(F)cccc6F)c6ccc3[nH]6)C=C5)C=C4)cc2)sc2c1CC[N@@H+](Cc1ccccc1)C2
REMARK SMILES IDX 16 1 15 2 13 3 14 4 12 6 10 7 11 8 8 9 7 10 9 12 6 13 5 14
REMARK SMILES IDX 78 15 76 16 77 17 79 18 89 19 80 20 81 21 3 23 4 24 2 25
REMARK SMILES IDX 1 26 82 27 83 28 84 29 88 30 85 31 87 32 86 33 17 34 18 35
REMARK SMILES IDX 19 36 20 37 21 39 22 40 23 41 75 42 24 43 74 44 25 45 26 46
REMARK SMILES IDX 27 47 68 48 28 49 73 50 67 51 69 52 29 53 72 54 66 55 65 56
REMARK SMILES IDX 30 58 56 59 39 60 55 61 40 62 43 63 54 64 70 65 41 66 42 67
REMARK SMILES IDX 53 69 71 70 44 71 31 72 32 73 37 74 33 75 34 76 36 77 38 78
REMARK SMILES IDX 35 79 57 80 58 81 63 82 59 83 60 84 62 85 64 86 61 87 45 88
REMARK SMILES IDX 46 89 51 90 47 91 48 92 50 93 52 94 49 95
REMARK H PARENT 15 5 7 11 81 22 19 38 69 57 43 68
REMARK Flexibility Score: inf
ROOT
ATOM      1  C   UNL A   1      33.269  29.693  26.172  1.00  0.00     0.117 C 
ENDROOT
BRANCH   1   2
ATOM      2  N   UNL A   1      33.319  29.563  24.726  1.00  0.00    -0.356 N 
ATOM      3  C   UNL A   1      32.463  28.938  23.861  1.00  0.00     0.223 C 
ATOM      4  O   UNL A   1      32.681  29.008  22.656  1.00  0.00    -0.275 OA
ATOM      5  H   UNL A   1      34.094  29.995  24.300  1.00  0.00     0.163 HD
BRANCH   3   6
ATOM      6  C   UNL A   1      31.246  28.249  24.372  1.00  0.00     0.091 C 
ATOM      7  C   UNL A   1      30.572  27.079  23.676  1.00  0.00     0.092 C 
ATOM      8  C   UNL A   1      29.972  28.453  23.574  1.00  0.00     0.028 C 
BRANCH   7   9
ATOM      9  C   UNL A   1      31.202  26.404  22.539  1.00  0.00     0.228 C 
ATOM     10  N   UNL A   1      31.912  25.255  22.713  1.00  0.00    -0.317 N 
ATOM     11  H   UNL A   1      32.168  24.844  21.856  1.00  0.00     0.170 HD
ATOM     12  O   UNL A   1      31.056  26.844  21.400  1.00  0.00    -0.274 OA
BRANCH  10  13
ATOM     13  C   UNL A   1      32.361  24.524  23.792  1.00  0.00     0.110 A 
ATOM     14  C   UNL A   1      32.225  24.399  25.172  1.00  0.00     0.098 A 
ATOM     15  C   UNL A   1      33.217  23.463  25.689  1.00  0.00    -0.006 A 
ATOM     16  S   UNL A   1      33.604  23.494  23.171  1.00  0.00    -0.116 S 
ATOM     17  C   UNL A   1      33.941  22.854  24.689  1.00  0.00     0.065 A 
ATOM     18  C   UNL A   1      33.374  23.013  27.120  1.00  0.00     0.099 C 
ATOM     19  C   UNL A   1      34.847  21.681  24.894  1.00  0.00     0.310 C 
ATOM     20  C   UNL A   1      34.294  21.771  27.261  1.00  0.00     0.267 C 
ATOM     21  N   UNL A   1      34.443  20.903  26.078  1.00  0.00    -0.326 N 
ATOM     22  H   UNL A   1      35.216  20.272  26.293  1.00  0.00     0.348 HD
BRANCH  14  23
ATOM     23  C   UNL A   1      31.321  25.066  26.107  1.00  0.00     0.341 C 
ATOM     24  O   UNL A   1      31.701  25.937  26.870  1.00  0.00    -0.246 OA
BRANCH  23  25
ATOM     25  O   UNL A   1      30.061  24.549  26.121  1.00  0.00    -0.465 OA
ATOM     26  C   UNL A   1      29.935  23.320  26.845  1.00  0.00     0.282 C 
ENDBRANCH  23  25
ENDBRANCH  14  23
BRANCH  21  27
ATOM     27  C   UNL A   1      33.355  19.931  25.848  1.00  0.00     0.299 C 
BRANCH  27  28
ATOM     28  C   UNL A   1      33.483  18.961  24.689  1.00  0.00     0.006 A 
ATOM     29  C   UNL A   1      34.497  17.992  24.674  1.00  0.00     0.009 A 
ATOM     30  C   UNL A   1      32.558  18.970  23.633  1.00  0.00     0.009 A 
ATOM     31  C   UNL A   1      34.519  16.998  23.693  1.00  0.00     0.001 A 
ATOM     32  C   UNL A   1      32.563  17.960  22.669  1.00  0.00     0.001 A 
ATOM     33  C   UNL A   1      33.535  16.965  22.708  1.00  0.00     0.000 A 
ENDBRANCH  27  28
ENDBRANCH  21  27
ENDBRANCH  10  13
ENDBRANCH   7   9
ENDBRANCH   3   6
ENDBRANCH   1   2
BRANCH   1  34
ATOM     34  C   UNL A   1      34.268  28.783  26.884  1.00  0.00     0.042 C 
BRANCH  34  35
ATOM     35  C   UNL A   1      35.525  29.454  27.376  1.00  0.00     0.118 C 
BRANCH  35  36
ATOM     36  N   UNL A   1      35.544  29.754  28.811  1.00  0.00    -0.352 N 
ATOM     37  C   UNL A   1      36.506  29.380  29.744  1.00  0.00     0.251 C 
ATOM     38  H   UNL A   1      34.786  30.280  29.156  1.00  0.00     0.163 HD
ATOM     39  O   UNL A   1      36.251  29.358  30.942  1.00  0.00    -0.269 OA
BRANCH  37  40
ATOM     40  C   UNL A   1      37.847  29.000  29.255  1.00  0.00     0.039 A 
ATOM     41  C   UNL A   1      38.497  29.614  28.183  1.00  0.00     0.014 A 
ATOM     42  C   UNL A   1      38.494  28.017  29.981  1.00  0.00     0.014 A 
ATOM     43  C   UNL A   1      39.819  29.248  27.918  1.00  0.00     0.010 A 
ATOM     44  C   UNL A   1      39.850  27.988  29.977  1.00  0.00     0.010 A 
ATOM     45  C   UNL A   1      40.487  28.426  28.838  1.00  0.00    -0.014 A 
BRANCH  45  46
ATOM     46  C   UNL A   1      41.875  28.009  28.708  1.00  0.00     0.031 A 
ATOM     47  C   UNL A   1      42.045  26.752  27.951  1.00  0.00     0.074 A 
ATOM     48  C   UNL A   1      42.909  28.834  29.000  1.00  0.00     0.049 A 
ATOM     49  N   UNL A   1      42.393  25.598  28.411  1.00  0.00    -0.248 NA
ATOM     50  C   UNL A   1      41.600  26.729  26.549  1.00  0.00     0.031 C 
ATOM     51  C   UNL A   1      42.875  30.246  29.421  1.00  0.00     0.029 A 
ATOM     52  N   UNL A   1      44.245  28.608  28.877  1.00  0.00    -0.354 N 
ATOM     53  C   UNL A   1      42.456  24.762  27.302  1.00  0.00     0.074 A 
ATOM     54  C   UNL A   1      41.730  25.434  26.257  1.00  0.00     0.031 C 
ATOM     55  C   UNL A   1      44.101  30.797  29.291  1.00  0.00     0.029 A 
ATOM     56  C   UNL A   1      45.042  29.748  28.960  1.00  0.00     0.049 A 
ATOM     57  H   UNL A   1      44.619  27.708  28.740  1.00  0.00     0.167 HD
ATOM     58  C   UNL A   1      43.357  23.743  27.258  1.00  0.00     0.037 A 
ATOM     59  C   UNL A   1      46.381  29.815  28.749  1.00  0.00     0.037 A 
ATOM     60  C   UNL A   1      43.874  23.463  28.580  1.00  0.00     0.049 A 
ATOM     61  C   UNL A   1      46.907  28.432  28.864  1.00  0.00     0.074 A 
ATOM     62  C   UNL A   1      43.311  23.113  29.794  1.00  0.00     0.029 A 
ATOM     63  N   UNL A   1      45.133  23.927  28.880  1.00  0.00    -0.354 N 
ATOM     64  N   UNL A   1      46.927  27.755  29.977  1.00  0.00    -0.248 NA
ATOM     65  C   UNL A   1      46.959  27.637  27.647  1.00  0.00     0.031 C 
ATOM     66  C   UNL A   1      44.058  23.838  30.771  1.00  0.00     0.029 A 
ATOM     67  C   UNL A   1      45.081  24.522  30.113  1.00  0.00     0.049 A 
ATOM     68  H   UNL A   1      45.931  23.847  28.309  1.00  0.00     0.167 HD
ATOM     69  C   UNL A   1      46.550  26.470  29.614  1.00  0.00     0.074 A 
ATOM     70  C   UNL A   1      46.664  26.438  28.157  1.00  0.00     0.031 C 
ATOM     71  C   UNL A   1      45.896  25.654  30.494  1.00  0.00     0.037 A 
BRANCH  58  72
ATOM     72  C   UNL A   1      44.090  23.306  26.005  1.00  0.00     0.057 A 
ATOM     73  C   UNL A   1      44.122  21.934  25.693  1.00  0.00     0.134 A 
ATOM     74  C   UNL A   1      45.000  24.098  25.272  1.00  0.00     0.134 A 
ATOM     75  F   UNL A   1      43.296  21.069  26.303  1.00  0.00    -0.206 F 
ATOM     76  C   UNL A   1      45.064  21.381  24.817  1.00  0.00     0.040 A 
ATOM     77  C   UNL A   1      45.912  23.561  24.359  1.00  0.00     0.040 A 
ATOM     78  F   UNL A   1      45.135  25.415  25.453  1.00  0.00    -0.206 F 
ATOM     79  C   UNL A   1      45.975  22.194  24.159  1.00  0.00     0.006 A 
ENDBRANCH  58  72
BRANCH  59  80
ATOM     80  C   UNL A   1      47.182  30.915  28.162  1.00  0.00     0.057 A 
ATOM     81  C   UNL A   1      46.790  31.548  26.973  1.00  0.00     0.134 A 
ATOM     82  C   UNL A   1      48.184  31.566  28.903  1.00  0.00     0.134 A 
ATOM     83  F   UNL A   1      45.814  31.027  26.216  1.00  0.00    -0.206 F 
ATOM     84  C   UNL A   1      47.340  32.770  26.560  1.00  0.00     0.040 A 
ATOM     85  C   UNL A   1      48.745  32.784  28.501  1.00  0.00     0.040 A 
ATOM     86  F   UNL A   1      48.585  31.088  30.090  1.00  0.00    -0.206 F 
ATOM     87  C   UNL A   1      48.311  33.399  27.332  1.00  0.00     0.006 A 
ENDBRANCH  59  80
BRANCH  71  88
ATOM     88  C   UNL A   1      45.823  26.087  31.935  1.00  0.00     0.057 A 
ATOM     89  C   UNL A   1      44.718  26.727  32.517  1.00  0.00     0.134 A 
ATOM     90  C   UNL A   1      46.855  25.708  32.800  1.00  0.00     0.134 A 
ATOM     91  F   UNL A   1      43.639  27.045  31.794  1.00  0.00    -0.206 F 
ATOM     92  C   UNL A   1      44.661  27.010  33.886  1.00  0.00     0.040 A 
ATOM     93  C   UNL A   1      46.797  25.955  34.174  1.00  0.00     0.040 A 
ATOM     94  F   UNL A   1      47.922  25.043  32.328  1.00  0.00    -0.206 F 
ATOM     95  C   UNL A   1      45.702  26.617  34.720  1.00  0.00     0.006 A 
ENDBRANCH  71  88
ENDBRANCH  45  46
ENDBRANCH  37  40
ENDBRANCH  35  36
ENDBRANCH  34  35
ENDBRANCH   1  34
TORSDOF 16
ENDMDL
MODEL 3
REMARK VINA RESULT:     -12.3      2.652      7.727
REMARK SMILES COC(=O)c1c(NC(=O)[C@@H]2C[C@@H]2C(=O)NCCCNC(=O)c2ccc(-c3c4nc(c(-c5c(F)cccc5F)c5ccc([nH]5)c(-c5c(F)cccc5F)c5nc(c(-c6c(F)cccc6F)c6ccc3[nH]6)C=C5)C=C4)cc2)sc2c1CC[N@@H+](Cc1ccccc1)C2
REMARK SMILES IDX 16 1 15 2 13 3 14 4 12 6 10 7 11 8 8 9 7 10 9 12 6 13 5 14
REMARK SMILES IDX 78 15 76 16 77 17 79 18 89 19 80 20 81 21 3 23 4 24 2 25
REMARK SMILES IDX 1 26 82 27 83 28 84 29 88 30 85 31 87 32 86 33 17 34 18 35
REMARK SMILES IDX 19 36 20 37 21 39 22 40 23 41 75 42 24 43 74 44 25 45 26 46
REMARK SMILES IDX 27 47 68 48 28 49 73 50 67 51 69 52 29 53 72 54 66 55 65 56
REMARK SMILES IDX 30 58 56 59 39 60 55 61 40 62 43 63 54 64 70 65 41 66 42 67
REMARK SMILES IDX 53 69 71 70 44 71 31 72 32 73 37 74 33 75 34 76 36 77 38 78
REMARK SMILES IDX 35 79 57 80 58 81 63 82 59 83 60 84 62 85 64 86 61 87 45 88
REMARK SMILES IDX 46 89 51 90 47 91 48 92 50 93 52 94 49 95
REMARK H PARENT 15 5 7 11 81 22 19 38 69 57 43 68
REMARK Flexibility Score: inf
ROOT
ATOM      1  C   UNL A   1      33.597  31.339  27.398  1.00  0.00     0.117 C 
ENDROOT
BRANCH   1   2
ATOM      2  N   UNL A   1      32.981  30.045  27.635  1.00  0.00    -0.356 N 
ATOM      3  C   UNL A   1      32.921  28.932  26.843  1.00  0.00     0.223 C 
ATOM      4  O   UNL A   1      32.389  27.918  27.282  1.00  0.00    -0.275 OA
ATOM      5  H   UNL A   1      32.535  29.954  28.508  1.00  0.00     0.163 HD
BRANCH   3   6
ATOM      6  C   UNL A   1      33.560  28.930  25.498  1.00  0.00     0.091 C 
ATOM      7  C   UNL A   1      32.821  28.644  24.202  1.00  0.00     0.092 C 
ATOM      8  C   UNL A   1      33.687  27.580  24.815  1.00  0.00     0.028 C 
BRANCH   7   9
ATOM      9  C   UNL A   1      31.360  28.550  24.164  1.00  0.00     0.228 C 
ATOM     10  N   UNL A   1      30.734  27.343  24.246  1.00  0.00    -0.317 N 
ATOM     11  H   UNL A   1      29.758  27.437  24.337  1.00  0.00     0.170 HD
ATOM     12  O   UNL A   1      30.676  29.570  24.103  1.00  0.00    -0.274 OA
BRANCH  10  13
ATOM     13  C   UNL A   1      31.127  26.022  24.235  1.00  0.00     0.110 A 
ATOM     14  C   UNL A   1      31.825  25.086  23.477  1.00  0.00     0.098 A 
ATOM     15  C   UNL A   1      31.662  23.755  24.051  1.00  0.00    -0.006 A 
ATOM     16  S   UNL A   1      30.368  25.299  25.612  1.00  0.00    -0.116 S 
ATOM     17  C   UNL A   1      30.979  23.775  25.246  1.00  0.00     0.065 A 
ATOM     18  C   UNL A   1      32.295  22.477  23.561  1.00  0.00     0.099 C 
ATOM     19  C   UNL A   1      30.874  22.612  26.180  1.00  0.00     0.310 C 
ATOM     20  C   UNL A   1      32.186  21.321  24.592  1.00  0.00     0.267 C 
ATOM     21  N   UNL A   1      32.011  21.692  26.008  1.00  0.00    -0.326 N 
ATOM     22  H   UNL A   1      31.767  20.827  26.492  1.00  0.00     0.348 HD
BRANCH  14  23
ATOM     23  C   UNL A   1      32.600  25.240  22.247  1.00  0.00     0.341 C 
ATOM     24  O   UNL A   1      33.812  25.112  22.221  1.00  0.00    -0.246 OA
BRANCH  23  25
ATOM     25  O   UNL A   1      31.862  25.645  21.177  1.00  0.00    -0.465 OA
ATOM     26  C   UNL A   1      32.550  25.567  19.923  1.00  0.00     0.282 C 
ENDBRANCH  23  25
ENDBRANCH  14  23
BRANCH  21  27
ATOM     27  C   UNL A   1      33.241  22.071  26.733  1.00  0.00     0.299 C 
BRANCH  27  28
ATOM     28  C   UNL A   1      34.510  22.302  25.936  1.00  0.00     0.006 A 
ATOM     29  C   UNL A   1      35.282  21.218  25.491  1.00  0.00     0.009 A 
ATOM     30  C   UNL A   1      34.913  23.596  25.575  1.00  0.00     0.009 A 
ATOM     31  C   UNL A   1      36.358  21.418  24.623  1.00  0.00     0.001 A 
ATOM     32  C   UNL A   1      35.970  23.795  24.683  1.00  0.00     0.001 A 
ATOM     33  C   UNL A   1      36.683  22.704  24.196  1.00  0.00     0.000 A 
ENDBRANCH  27  28
ENDBRANCH  21  27
ENDBRANCH  10  13
ENDBRANCH   7   9
ENDBRANCH   3   6
ENDBRANCH   1   2
BRANCH   1  34
ATOM     34  C   UNL A   1      35.109  31.326  27.620  1.00  0.00     0.042 C 
BRANCH  34  35
ATOM     35  C   UNL A   1      35.689  32.582  28.219  1.00  0.00     0.118 C 
BRANCH  35  36
ATOM     36  N   UNL A   1      35.222  32.892  29.574  1.00  0.00    -0.352 N 
ATOM     37  C   UNL A   1      35.448  32.163  30.737  1.00  0.00     0.251 C 
ATOM     38  H   UNL A   1      34.684  33.711  29.672  1.00  0.00     0.163 HD
ATOM     39  O   UNL A   1      34.727  32.298  31.719  1.00  0.00    -0.269 OA
BRANCH  37  40
ATOM     40  C   UNL A   1      36.577  31.211  30.761  1.00  0.00     0.039 A 
ATOM     41  C   UNL A   1      36.461  29.847  30.486  1.00  0.00     0.014 A 
ATOM     42  C   UNL A   1      37.822  31.760  31.005  1.00  0.00     0.014 A 
ATOM     43  C   UNL A   1      37.632  29.089  30.408  1.00  0.00     0.010 A 
ATOM     44  C   UNL A   1      38.921  31.128  30.523  1.00  0.00     0.010 A 
ATOM     45  C   UNL A   1      38.867  29.756  30.427  1.00  0.00    -0.014 A 
BRANCH  45  46
ATOM     46  C   UNL A   1      40.157  29.095  30.306  1.00  0.00     0.031 A 
ATOM     47  C   UNL A   1      40.856  28.924  31.596  1.00  0.00     0.074 A 
ATOM     48  C   UNL A   1      40.538  28.452  29.176  1.00  0.00     0.049 A 
ATOM     49  N   UNL A   1      41.912  29.542  32.005  1.00  0.00    -0.248 NA
ATOM     50  C   UNL A   1      40.203  28.104  32.628  1.00  0.00     0.031 C 
ATOM     51  C   UNL A   1      39.776  28.236  27.933  1.00  0.00     0.029 A 
ATOM     52  N   UNL A   1      41.677  27.749  28.934  1.00  0.00    -0.354 N 
ATOM     53  C   UNL A   1      42.198  28.996  33.252  1.00  0.00     0.074 A 
ATOM     54  C   UNL A   1      41.000  28.322  33.674  1.00  0.00     0.031 C 
ATOM     55  C   UNL A   1      40.370  27.282  27.185  1.00  0.00     0.029 A 
ATOM     56  C   UNL A   1      41.641  26.949  27.794  1.00  0.00     0.049 A 
ATOM     57  H   UNL A   1      42.466  27.802  29.519  1.00  0.00     0.167 HD
ATOM     58  C   UNL A   1      43.487  28.890  33.677  1.00  0.00     0.037 A 
ATOM     59  C   UNL A   1      42.590  26.063  27.397  1.00  0.00     0.037 A 
ATOM     60  C   UNL A   1      44.356  29.731  32.883  1.00  0.00     0.049 A 
ATOM     61  C   UNL A   1      43.838  26.416  28.117  1.00  0.00     0.074 A 
ATOM     62  C   UNL A   1      44.406  31.081  32.589  1.00  0.00     0.029 A 
ATOM     63  N   UNL A   1      45.126  29.118  31.922  1.00  0.00    -0.354 N 
ATOM     64  N   UNL A   1      44.510  27.513  27.907  1.00  0.00    -0.248 NA
ATOM     65  C   UNL A   1      44.068  25.778  29.404  1.00  0.00     0.031 C 
ATOM     66  C   UNL A   1      44.781  31.147  31.213  1.00  0.00     0.029 A 
ATOM     67  C   UNL A   1      45.019  29.847  30.767  1.00  0.00     0.049 A 
ATOM     68  H   UNL A   1      45.660  28.300  32.043  1.00  0.00     0.167 HD
ATOM     69  C   UNL A   1      44.892  27.939  29.172  1.00  0.00     0.074 A 
ATOM     70  C   UNL A   1      44.664  26.787  30.044  1.00  0.00     0.031 C 
ATOM     71  C   UNL A   1      45.069  29.266  29.444  1.00  0.00     0.037 A 
BRANCH  58  72
ATOM     72  C   UNL A   1      44.024  27.729  34.490  1.00  0.00     0.057 A 
ATOM     73  C   UNL A   1      44.722  28.012  35.680  1.00  0.00     0.134 A 
ATOM     74  C   UNL A   1      44.159  26.402  34.030  1.00  0.00     0.134 A 
ATOM     75  F   UNL A   1      44.667  29.231  36.238  1.00  0.00    -0.206 F 
ATOM     76  C   UNL A   1      45.578  27.087  36.290  1.00  0.00     0.040 A 
ATOM     77  C   UNL A   1      44.973  25.457  34.660  1.00  0.00     0.040 A 
ATOM     78  F   UNL A   1      43.595  25.957  32.903  1.00  0.00    -0.206 F 
ATOM     79  C   UNL A   1      45.719  25.809  35.770  1.00  0.00     0.006 A 
ENDBRANCH  58  72
BRANCH  59  80
ATOM     80  C   UNL A   1      42.426  24.769  26.693  1.00  0.00     0.057 A 
ATOM     81  C   UNL A   1      43.060  24.520  25.467  1.00  0.00     0.134 A 
ATOM     82  C   UNL A   1      41.886  23.646  27.345  1.00  0.00     0.134 A 
ATOM     83  F   UNL A   1      43.641  25.520  24.788  1.00  0.00    -0.206 F 
ATOM     84  C   UNL A   1      43.178  23.228  24.935  1.00  0.00     0.040 A 
ATOM     85  C   UNL A   1      41.992  22.351  26.823  1.00  0.00     0.040 A 
ATOM     86  F   UNL A   1      41.320  23.756  28.556  1.00  0.00    -0.206 F 
ATOM     87  C   UNL A   1      42.654  22.137  25.620  1.00  0.00     0.006 A 
ENDBRANCH  59  80
BRANCH  71  88
ATOM     88  C   UNL A   1      45.089  30.225  28.282  1.00  0.00     0.057 A 
ATOM     89  C   UNL A   1      43.960  30.895  27.786  1.00  0.00     0.134 A 
ATOM     90  C   UNL A   1      46.324  30.597  27.743  1.00  0.00     0.134 A 
ATOM     91  F   UNL A   1      42.744  30.681  28.301  1.00  0.00    -0.206 F 
ATOM     92  C   UNL A   1      44.052  31.857  26.775  1.00  0.00     0.040 A 
ATOM     93  C   UNL A   1      46.436  31.581  26.757  1.00  0.00     0.040 A 
ATOM     94  F   UNL A   1      47.457  30.041  28.203  1.00  0.00    -0.206 F 
ATOM     95  C   UNL A   1      45.296  32.208  26.262  1.00  0.00     0.006 A 
ENDBRANCH  71  88
ENDBRANCH  45  46
ENDBRANCH  37  40
ENDBRANCH  35  36
ENDBRANCH  34  35
ENDBRANCH   1  34
TORSDOF 16
ENDMDL
