MODEL 1
REMARK VINA RESULT:     -12.0      0.000      0.000
REMARK SMILES CC1CCN(C(=O)N[C@]2(C(=O)NCCCNC(=O)c3ccc(-c4c5nc(c(-c6c(F)cccc6F)c6ccc([nH]6)c(-c6c(F)cccc6F)c6nc(c(-c7c(F)cccc7F)c7ccc4[nH]7)C=C6)C=C5)cc3)CCSC2)CC1
REMARK SMILES IDX 14 1 13 2 12 3 10 4 11 5 9 7 73 8 76 9 74 10 75 11 8 12 1 13
REMARK SMILES IDX 2 14 3 15 78 16 4 17 77 18 5 19 6 20 7 21 15 23 16 24 17 25
REMARK SMILES IDX 18 27 19 28 20 29 72 30 21 31 71 32 22 33 23 34 24 35 65 36
REMARK SMILES IDX 25 37 70 38 64 39 66 40 26 41 69 42 63 43 62 44 27 46 53 47
REMARK SMILES IDX 36 48 52 49 37 50 40 51 51 52 67 53 38 54 39 55 50 57 68 58
REMARK SMILES IDX 41 59 28 60 29 61 34 62 30 63 31 64 33 65 35 66 32 67 54 68
REMARK SMILES IDX 55 69 60 70 56 71 57 72 59 73 61 74 58 75 42 76 43 77 48 78
REMARK SMILES IDX 44 79 45 80 47 81 49 82 46 83
REMARK H PARENT 12 6 8 22 16 26 66 45 40 56
REMARK Flexibility Score: inf
ROOT
ATOM      1  C   UNL A   1      37.261  20.017  24.988  1.00  0.00     0.042 C 
ENDROOT
BRANCH   1   2
ATOM      2  C   UNL A   1      36.212  21.093  24.688  1.00  0.00     0.117 C 
BRANCH   2   3
ATOM      3  N   UNL A   1      35.468  21.618  25.817  1.00  0.00    -0.354 N 
ATOM      4  C   UNL A   1      34.208  21.409  26.285  1.00  0.00     0.246 C 
ATOM      5  O   UNL A   1      34.072  21.628  27.498  1.00  0.00    -0.272 OA
ATOM      6  H   UNL A   1      35.983  22.259  26.358  1.00  0.00     0.163 HD
BRANCH   4   7
ATOM      7  C   UNL A   1      32.993  20.894  25.453  1.00  0.00     0.130 C 
ATOM      8  C   UNL A   1      32.910  21.104  23.930  1.00  0.00     0.050 C 
ATOM      9  C   UNL A   1      33.024  19.355  25.722  1.00  0.00     0.108 C 
ATOM     10  C   UNL A   1      32.441  19.839  23.229  1.00  0.00     0.072 C 
ATOM     11  S   UNL A   1      33.270  18.533  24.132  1.00  0.00    -0.159 SA
BRANCH   7  12
ATOM     12  N   UNL A   1      31.757  21.474  26.069  1.00  0.00    -0.323 N 
ATOM     13  C   UNL A   1      33.950  27.202  26.181  1.00  0.00     0.008 C 
ATOM     14  C   UNL A   1      32.913  26.303  25.509  1.00  0.00    -0.011 C 
ATOM     15  C   UNL A   1      31.690  26.061  26.408  1.00  0.00     0.025 C 
ATOM     16  C   UNL A   1      33.553  24.963  25.150  1.00  0.00     0.025 C 
ATOM     17  C   UNL A   1      30.732  25.014  25.814  1.00  0.00     0.121 C 
ATOM     18  C   UNL A   1      32.525  24.025  24.519  1.00  0.00     0.121 C 
ATOM     19  N   UNL A   1      31.445  23.777  25.456  1.00  0.00    -0.325 N 
ATOM     20  C   UNL A   1      31.051  22.618  26.057  1.00  0.00     0.318 C 
ATOM     21  O   UNL A   1      29.991  22.551  26.691  1.00  0.00    -0.249 OA
ATOM     22  H   UNL A   1      31.331  20.816  26.664  1.00  0.00     0.166 HD
ENDBRANCH   7  12
ENDBRANCH   4   7
ENDBRANCH   2   3
ENDBRANCH   1   2
BRANCH   1  23
ATOM     23  C   UNL A   1      38.543  20.420  25.704  1.00  0.00     0.118 C 
BRANCH  23  24
ATOM     24  N   UNL A   1      39.609  19.443  25.662  1.00  0.00    -0.352 N 
ATOM     25  C   UNL A   1      40.931  19.584  26.019  1.00  0.00     0.251 C 
ATOM     26  H   UNL A   1      39.353  18.551  25.335  1.00  0.00     0.163 HD
ATOM     27  O   UNL A   1      41.718  18.669  25.840  1.00  0.00    -0.269 OA
BRANCH  25  28
ATOM     28  C   UNL A   1      41.403  20.868  26.584  1.00  0.00     0.039 A 
ATOM     29  C   UNL A   1      41.917  21.830  25.714  1.00  0.00     0.014 A 
ATOM     30  C   UNL A   1      41.333  21.125  27.957  1.00  0.00     0.014 A 
ATOM     31  C   UNL A   1      42.301  23.077  26.210  1.00  0.00     0.010 A 
ATOM     32  C   UNL A   1      41.656  22.392  28.440  1.00  0.00     0.010 A 
ATOM     33  C   UNL A   1      42.141  23.382  27.572  1.00  0.00    -0.014 A 
BRANCH  33  34
ATOM     34  C   UNL A   1      42.471  24.734  28.092  1.00  0.00     0.031 A 
ATOM     35  C   UNL A   1      43.880  25.074  28.491  1.00  0.00     0.074 A 
ATOM     36  C   UNL A   1      41.491  25.645  28.251  1.00  0.00     0.049 A 
ATOM     37  N   UNL A   1      44.351  26.187  28.996  1.00  0.00    -0.248 NA
ATOM     38  C   UNL A   1      44.891  24.019  28.319  1.00  0.00     0.031 C 
ATOM     39  C   UNL A   1      40.076  25.427  27.945  1.00  0.00     0.029 A 
ATOM     40  N   UNL A   1      41.533  26.936  28.716  1.00  0.00    -0.354 N 
ATOM     41  C   UNL A   1      45.705  25.963  29.210  1.00  0.00     0.074 A 
ATOM     42  C   UNL A   1      45.970  24.592  28.830  1.00  0.00     0.031 C 
ATOM     43  C   UNL A   1      39.391  26.552  28.207  1.00  0.00     0.029 A 
ATOM     44  C   UNL A   1      40.308  27.558  28.734  1.00  0.00     0.049 A 
ATOM     45  H   UNL A   1      42.364  27.375  29.010  1.00  0.00     0.167 HD
ATOM     46  C   UNL A   1      46.647  26.827  29.658  1.00  0.00     0.037 A 
ATOM     47  C   UNL A   1      39.961  28.795  29.136  1.00  0.00     0.037 A 
ATOM     48  C   UNL A   1      46.386  28.196  30.020  1.00  0.00     0.049 A 
ATOM     49  C   UNL A   1      41.022  29.730  29.646  1.00  0.00     0.074 A 
ATOM     50  C   UNL A   1      47.286  29.165  30.431  1.00  0.00     0.029 A 
ATOM     51  N   UNL A   1      45.133  28.789  30.018  1.00  0.00    -0.354 N 
ATOM     52  N   UNL A   1      42.311  29.526  29.775  1.00  0.00    -0.248 NA
ATOM     53  C   UNL A   1      40.582  31.069  30.061  1.00  0.00     0.031 C 
ATOM     54  C   UNL A   1      46.570  30.330  30.726  1.00  0.00     0.029 A 
ATOM     55  C   UNL A   1      45.231  30.103  30.447  1.00  0.00     0.049 A 
ATOM     56  H   UNL A   1      44.297  28.343  29.752  1.00  0.00     0.167 HD
ATOM     57  C   UNL A   1      42.839  30.717  30.255  1.00  0.00     0.074 A 
ATOM     58  C   UNL A   1      41.733  31.644  30.382  1.00  0.00     0.031 C 
ATOM     59  C   UNL A   1      44.124  31.018  30.563  1.00  0.00     0.037 A 
BRANCH  46  60
ATOM     60  C   UNL A   1      48.054  26.314  29.785  1.00  0.00     0.057 A 
ATOM     61  C   UNL A   1      48.971  26.403  28.728  1.00  0.00     0.134 A 
ATOM     62  C   UNL A   1      48.510  25.761  30.988  1.00  0.00     0.134 A 
ATOM     63  F   UNL A   1      48.597  26.914  27.545  1.00  0.00    -0.206 F 
ATOM     64  C   UNL A   1      50.279  25.936  28.855  1.00  0.00     0.040 A 
ATOM     65  C   UNL A   1      49.824  25.316  31.136  1.00  0.00     0.040 A 
ATOM     66  F   UNL A   1      47.687  25.652  32.042  1.00  0.00    -0.206 F 
ATOM     67  C   UNL A   1      50.712  25.397  30.065  1.00  0.00     0.006 A 
ENDBRANCH  46  60
BRANCH  47  68
ATOM     68  C   UNL A   1      38.543  29.233  29.055  1.00  0.00     0.057 A 
ATOM     69  C   UNL A   1      37.999  29.702  27.854  1.00  0.00     0.134 A 
ATOM     70  C   UNL A   1      37.705  29.207  30.176  1.00  0.00     0.134 A 
ATOM     71  F   UNL A   1      38.757  29.769  26.750  1.00  0.00    -0.206 F 
ATOM     72  C   UNL A   1      36.679  30.149  27.774  1.00  0.00     0.040 A 
ATOM     73  C   UNL A   1      36.375  29.626  30.104  1.00  0.00     0.040 A 
ATOM     74  F   UNL A   1      38.164  28.761  31.355  1.00  0.00    -0.206 F 
ATOM     75  C   UNL A   1      35.861  30.107  28.901  1.00  0.00     0.006 A 
ENDBRANCH  47  68
BRANCH  59  76
ATOM     76  C   UNL A   1      44.413  32.414  31.032  1.00  0.00     0.057 A 
ATOM     77  C   UNL A   1      44.421  32.754  32.392  1.00  0.00     0.134 A 
ATOM     78  C   UNL A   1      44.724  33.425  30.113  1.00  0.00     0.134 A 
ATOM     79  F   UNL A   1      44.119  31.836  33.323  1.00  0.00    -0.206 F 
ATOM     80  C   UNL A   1      44.705  34.052  32.817  1.00  0.00     0.040 A 
ATOM     81  C   UNL A   1      45.037  34.719  30.528  1.00  0.00     0.040 A 
ATOM     82  F   UNL A   1      44.741  33.166  28.796  1.00  0.00    -0.206 F 
ATOM     83  C   UNL A   1      45.021  35.038  31.884  1.00  0.00     0.006 A 
ENDBRANCH  59  76
ENDBRANCH  33  34
ENDBRANCH  25  28
ENDBRANCH  23  24
ENDBRANCH   1  23
TORSDOF 11
ENDMDL
MODEL 2
REMARK VINA RESULT:     -12.0      0.392      6.426
REMARK SMILES CC1CCN(C(=O)N[C@]2(C(=O)NCCCNC(=O)c3ccc(-c4c5nc(c(-c6c(F)cccc6F)c6ccc([nH]6)c(-c6c(F)cccc6F)c6nc(c(-c7c(F)cccc7F)c7ccc4[nH]7)C=C6)C=C5)cc3)CCSC2)CC1
REMARK SMILES IDX 14 1 13 2 12 3 10 4 11 5 9 7 73 8 76 9 74 10 75 11 8 12 1 13
REMARK SMILES IDX 2 14 3 15 78 16 4 17 77 18 5 19 6 20 7 21 15 23 16 24 17 25
REMARK SMILES IDX 18 27 19 28 20 29 72 30 21 31 71 32 22 33 23 34 24 35 65 36
REMARK SMILES IDX 25 37 70 38 64 39 66 40 26 41 69 42 63 43 62 44 27 46 53 47
REMARK SMILES IDX 36 48 52 49 37 50 40 51 51 52 67 53 38 54 39 55 50 57 68 58
REMARK SMILES IDX 41 59 28 60 29 61 34 62 30 63 31 64 33 65 35 66 32 67 54 68
REMARK SMILES IDX 55 69 60 70 56 71 57 72 59 73 61 74 58 75 42 76 43 77 48 78
REMARK SMILES IDX 44 79 45 80 47 81 49 82 46 83
REMARK H PARENT 12 6 8 22 16 26 66 45 40 56
REMARK Flexibility Score: inf
ROOT
ATOM      1  C   UNL A   1      37.269  20.251  24.971  1.00  0.00     0.042 C 
ENDROOT
BRANCH   1   2
ATOM      2  C   UNL A   1      36.294  21.377  24.614  1.00  0.00     0.117 C 
BRANCH   2   3
ATOM      3  N   UNL A   1      35.650  22.061  25.718  1.00  0.00    -0.354 N 
ATOM      4  C   UNL A   1      34.428  21.944  26.307  1.00  0.00     0.246 C 
ATOM      5  O   UNL A   1      34.393  22.323  27.488  1.00  0.00    -0.272 OA
ATOM      6  H   UNL A   1      36.214  22.756  26.128  1.00  0.00     0.163 HD
BRANCH   4   7
ATOM      7  C   UNL A   1      33.145  21.352  25.648  1.00  0.00     0.130 C 
ATOM      8  C   UNL A   1      32.881  21.481  24.137  1.00  0.00     0.050 C 
ATOM      9  C   UNL A   1      33.259  19.831  25.985  1.00  0.00     0.108 C 
ATOM     10  C   UNL A   1      32.378  20.168  23.556  1.00  0.00     0.072 C 
ATOM     11  S   UNL A   1      33.350  18.934  24.418  1.00  0.00    -0.159 SA
BRANCH   7  12
ATOM     12  N   UNL A   1      31.968  21.927  26.375  1.00  0.00    -0.323 N 
ATOM     13  C   UNL A   1      34.050  27.691  26.120  1.00  0.00     0.008 C 
ATOM     14  C   UNL A   1      32.966  26.758  25.582  1.00  0.00    -0.011 C 
ATOM     15  C   UNL A   1      31.849  26.519  26.609  1.00  0.00     0.025 C 
ATOM     16  C   UNL A   1      33.591  25.420  25.190  1.00  0.00     0.025 C 
ATOM     17  C   UNL A   1      30.854  25.442  26.143  1.00  0.00     0.121 C 
ATOM     18  C   UNL A   1      32.522  24.450  24.692  1.00  0.00     0.121 C 
ATOM     19  N   UNL A   1      31.550  24.208  25.743  1.00  0.00    -0.325 N 
ATOM     20  C   UNL A   1      31.243  23.059  26.409  1.00  0.00     0.318 C 
ATOM     21  O   UNL A   1      30.256  22.990  27.151  1.00  0.00    -0.249 OA
ATOM     22  H   UNL A   1      31.619  21.277  27.027  1.00  0.00     0.166 HD
ENDBRANCH   7  12
ENDBRANCH   4   7
ENDBRANCH   2   3
ENDBRANCH   1   2
BRANCH   1  23
ATOM     23  C   UNL A   1      38.571  20.602  25.678  1.00  0.00     0.118 C 
BRANCH  23  24
ATOM     24  N   UNL A   1      39.592  19.577  25.642  1.00  0.00    -0.352 N 
ATOM     25  C   UNL A   1      40.915  19.655  26.015  1.00  0.00     0.251 C 
ATOM     26  H   UNL A   1      39.300  18.700  25.305  1.00  0.00     0.163 HD
ATOM     27  O   UNL A   1      41.661  18.706  25.839  1.00  0.00    -0.269 OA
BRANCH  25  28
ATOM     28  C   UNL A   1      41.438  20.913  26.595  1.00  0.00     0.039 A 
ATOM     29  C   UNL A   1      41.940  21.886  25.730  1.00  0.00     0.014 A 
ATOM     30  C   UNL A   1      41.427  21.134  27.975  1.00  0.00     0.014 A 
ATOM     31  C   UNL A   1      42.372  23.111  26.242  1.00  0.00     0.010 A 
ATOM     32  C   UNL A   1      41.798  22.381  28.478  1.00  0.00     0.010 A 
ATOM     33  C   UNL A   1      42.272  23.382  27.617  1.00  0.00    -0.014 A 
BRANCH  33  34
ATOM     34  C   UNL A   1      42.654  24.712  28.159  1.00  0.00     0.031 A 
ATOM     35  C   UNL A   1      41.614  25.780  28.359  1.00  0.00     0.074 A 
ATOM     36  C   UNL A   1      43.947  24.976  28.430  1.00  0.00     0.049 A 
ATOM     37  N   UNL A   1      41.762  27.009  28.786  1.00  0.00    -0.248 NA
ATOM     38  C   UNL A   1      40.228  25.429  28.012  1.00  0.00     0.031 C 
ATOM     39  C   UNL A   1      45.059  24.044  28.239  1.00  0.00     0.029 A 
ATOM     40  N   UNL A   1      44.547  26.111  28.917  1.00  0.00    -0.354 N 
ATOM     41  C   UNL A   1      40.496  27.578  28.752  1.00  0.00     0.074 A 
ATOM     42  C   UNL A   1      39.600  26.578  28.211  1.00  0.00     0.031 C 
ATOM     43  C   UNL A   1      46.200  24.635  28.627  1.00  0.00     0.029 A 
ATOM     44  C   UNL A   1      45.910  25.998  29.058  1.00  0.00     0.049 A 
ATOM     45  H   UNL A   1      44.048  26.929  29.143  1.00  0.00     0.167 HD
ATOM     46  C   UNL A   1      40.108  28.811  29.157  1.00  0.00     0.037 A 
ATOM     47  C   UNL A   1      46.822  26.893  29.481  1.00  0.00     0.037 A 
ATOM     48  C   UNL A   1      40.998  29.800  29.711  1.00  0.00     0.049 A 
ATOM     49  C   UNL A   1      46.369  28.262  29.908  1.00  0.00     0.074 A 
ATOM     50  C   UNL A   1      40.689  31.056  30.201  1.00  0.00     0.029 A 
ATOM     51  N   UNL A   1      42.369  29.644  29.843  1.00  0.00    -0.354 N 
ATOM     52  N   UNL A   1      45.158  28.760  29.937  1.00  0.00    -0.248 NA
ATOM     53  C   UNL A   1      47.412  29.191  30.368  1.00  0.00     0.031 C 
ATOM     54  C   UNL A   1      41.880  31.682  30.584  1.00  0.00     0.029 A 
ATOM     55  C   UNL A   1      42.925  30.793  30.383  1.00  0.00     0.049 A 
ATOM     56  H   UNL A   1      42.873  28.837  29.591  1.00  0.00     0.167 HD
ATOM     57  C   UNL A   1      45.286  30.047  30.445  1.00  0.00     0.074 A 
ATOM     58  C   UNL A   1      46.694  30.247  30.724  1.00  0.00     0.031 C 
ATOM     59  C   UNL A   1      44.326  30.978  30.661  1.00  0.00     0.037 A 
BRANCH  46  60
ATOM     60  C   UNL A   1      38.655  29.164  29.013  1.00  0.00     0.057 A 
ATOM     61  C   UNL A   1      37.764  29.080  30.092  1.00  0.00     0.134 A 
ATOM     62  C   UNL A   1      38.147  29.629  27.793  1.00  0.00     0.134 A 
ATOM     63  F   UNL A   1      38.183  28.633  31.286  1.00  0.00    -0.206 F 
ATOM     64  C   UNL A   1      36.418  29.420  29.956  1.00  0.00     0.040 A 
ATOM     65  C   UNL A   1      36.809  29.998  27.652  1.00  0.00     0.040 A 
ATOM     66  F   UNL A   1      38.946  29.740  26.721  1.00  0.00    -0.206 F 
ATOM     67  C   UNL A   1      35.938  29.887  28.735  1.00  0.00     0.006 A 
ENDBRANCH  46  60
BRANCH  47  68
ATOM     68  C   UNL A   1      48.259  26.519  29.541  1.00  0.00     0.057 A 
ATOM     69  C   UNL A   1      48.794  25.885  30.667  1.00  0.00     0.134 A 
ATOM     70  C   UNL A   1      49.132  26.798  28.482  1.00  0.00     0.134 A 
ATOM     71  F   UNL A   1      48.013  25.609  31.721  1.00  0.00    -0.206 F 
ATOM     72  C   UNL A   1      50.150  25.561  30.750  1.00  0.00     0.040 A 
ATOM     73  C   UNL A   1      50.483  26.456  28.540  1.00  0.00     0.040 A 
ATOM     74  F   UNL A   1      48.679  27.397  27.371  1.00  0.00    -0.206 F 
ATOM     75  C   UNL A   1      50.998  25.842  29.681  1.00  0.00     0.006 A 
ENDBRANCH  47  68
BRANCH  59  76
ATOM     76  C   UNL A   1      44.756  32.285  31.262  1.00  0.00     0.057 A 
ATOM     77  C   UNL A   1      45.109  33.386  30.469  1.00  0.00     0.134 A 
ATOM     78  C   UNL A   1      44.781  32.458  32.652  1.00  0.00     0.134 A 
ATOM     79  F   UNL A   1      45.119  33.284  29.131  1.00  0.00    -0.206 F 
ATOM     80  C   UNL A   1      45.493  34.601  31.038  1.00  0.00     0.040 A 
ATOM     81  C   UNL A   1      45.136  33.676  33.231  1.00  0.00     0.040 A 
ATOM     82  F   UNL A   1      44.446  31.447  33.469  1.00  0.00    -0.206 F 
ATOM     83  C   UNL A   1      45.500  34.750  32.424  1.00  0.00     0.006 A 
ENDBRANCH  59  76
ENDBRANCH  33  34
ENDBRANCH  25  28
ENDBRANCH  23  24
ENDBRANCH   1  23
TORSDOF 11
ENDMDL
MODEL 3
REMARK VINA RESULT:     -11.9      0.164      1.629
REMARK SMILES CC1CCN(C(=O)N[C@]2(C(=O)NCCCNC(=O)c3ccc(-c4c5nc(c(-c6c(F)cccc6F)c6ccc([nH]6)c(-c6c(F)cccc6F)c6nc(c(-c7c(F)cccc7F)c7ccc4[nH]7)C=C6)C=C5)cc3)CCSC2)CC1
REMARK SMILES IDX 14 1 13 2 12 3 10 4 11 5 9 7 73 8 76 9 74 10 75 11 8 12 1 13
REMARK SMILES IDX 2 14 3 15 78 16 4 17 77 18 5 19 6 20 7 21 15 23 16 24 17 25
REMARK SMILES IDX 18 27 19 28 20 29 72 30 21 31 71 32 22 33 23 34 24 35 65 36
REMARK SMILES IDX 25 37 70 38 64 39 66 40 26 41 69 42 63 43 62 44 27 46 53 47
REMARK SMILES IDX 36 48 52 49 37 50 40 51 51 52 67 53 38 54 39 55 50 57 68 58
REMARK SMILES IDX 41 59 28 60 29 61 34 62 30 63 31 64 33 65 35 66 32 67 54 68
REMARK SMILES IDX 55 69 60 70 56 71 57 72 59 73 61 74 58 75 42 76 43 77 48 78
REMARK SMILES IDX 44 79 45 80 47 81 49 82 46 83
REMARK H PARENT 12 6 8 22 16 26 66 45 40 56
REMARK Flexibility Score: inf
ROOT
ATOM      1  C   UNL A   1      37.341  19.984  24.980  1.00  0.00     0.042 C 
ENDROOT
BRANCH   1   2
ATOM      2  C   UNL A   1      36.255  21.031  24.716  1.00  0.00     0.117 C 
BRANCH   2   3
ATOM      3  N   UNL A   1      35.605  21.610  25.877  1.00  0.00    -0.354 N 
ATOM      4  C   UNL A   1      34.353  21.502  26.399  1.00  0.00     0.246 C 
ATOM      5  O   UNL A   1      34.287  21.726  27.617  1.00  0.00    -0.272 OA
ATOM      6  H   UNL A   1      36.193  22.205  26.396  1.00  0.00     0.163 HD
BRANCH   4   7
ATOM      7  C   UNL A   1      33.066  21.091  25.619  1.00  0.00     0.130 C 
ATOM      8  C   UNL A   1      32.906  21.380  24.116  1.00  0.00     0.050 C 
ATOM      9  C   UNL A   1      33.028  19.542  25.815  1.00  0.00     0.108 C 
ATOM     10  C   UNL A   1      32.329  20.176  23.387  1.00  0.00     0.072 C 
ATOM     11  S   UNL A   1      33.137  18.786  24.177  1.00  0.00    -0.159 SA
BRANCH   7  12
ATOM     12  N   UNL A   1      31.900  21.703  26.335  1.00  0.00    -0.323 N 
ATOM     13  C   UNL A   1      34.141  27.407  26.054  1.00  0.00     0.008 C 
ATOM     14  C   UNL A   1      33.035  26.500  25.515  1.00  0.00    -0.011 C 
ATOM     15  C   UNL A   1      31.905  26.299  26.537  1.00  0.00     0.025 C 
ATOM     16  C   UNL A   1      33.626  25.143  25.137  1.00  0.00     0.025 C 
ATOM     17  C   UNL A   1      30.885  25.245  26.072  1.00  0.00     0.121 C 
ATOM     18  C   UNL A   1      32.534  24.198  24.639  1.00  0.00     0.121 C 
ATOM     19  N   UNL A   1      31.549  23.990  25.684  1.00  0.00    -0.325 N 
ATOM     20  C   UNL A   1      31.206  22.854  26.357  1.00  0.00     0.318 C 
ATOM     21  O   UNL A   1      30.213  22.818  27.093  1.00  0.00    -0.249 OA
ATOM     22  H   UNL A   1      31.530  21.068  26.989  1.00  0.00     0.166 HD
ENDBRANCH   7  12
ENDBRANCH   4   7
ENDBRANCH   2   3
ENDBRANCH   1   2
BRANCH   1  23
ATOM     23  C   UNL A   1      38.638  20.422  25.647  1.00  0.00     0.118 C 
BRANCH  23  24
ATOM     24  N   UNL A   1      39.702  19.442  25.638  1.00  0.00    -0.352 N 
ATOM     25  C   UNL A   1      41.015  19.581  26.025  1.00  0.00     0.251 C 
ATOM     26  H   UNL A   1      39.451  18.548  25.309  1.00  0.00     0.163 HD
ATOM     27  O   UNL A   1      41.803  18.663  25.872  1.00  0.00    -0.269 OA
BRANCH  25  28
ATOM     28  C   UNL A   1      41.477  20.868  26.594  1.00  0.00     0.039 A 
ATOM     29  C   UNL A   1      42.043  21.811  25.734  1.00  0.00     0.014 A 
ATOM     30  C   UNL A   1      41.347  21.146  27.958  1.00  0.00     0.014 A 
ATOM     31  C   UNL A   1      42.419  23.061  26.230  1.00  0.00     0.010 A 
ATOM     32  C   UNL A   1      41.664  22.416  28.438  1.00  0.00     0.010 A 
ATOM     33  C   UNL A   1      42.201  23.387  27.579  1.00  0.00    -0.014 A 
BRANCH  33  34
ATOM     34  C   UNL A   1      42.524  24.743  28.095  1.00  0.00     0.031 A 
ATOM     35  C   UNL A   1      43.933  25.092  28.489  1.00  0.00     0.074 A 
ATOM     36  C   UNL A   1      41.539  25.648  28.253  1.00  0.00     0.049 A 
ATOM     37  N   UNL A   1      44.398  26.209  28.990  1.00  0.00    -0.248 NA
ATOM     38  C   UNL A   1      44.949  24.042  28.318  1.00  0.00     0.031 C 
ATOM     39  C   UNL A   1      40.125  25.421  27.951  1.00  0.00     0.029 A 
ATOM     40  N   UNL A   1      41.575  26.941  28.714  1.00  0.00    -0.354 N 
ATOM     41  C   UNL A   1      45.754  25.994  29.201  1.00  0.00     0.074 A 
ATOM     42  C   UNL A   1      46.026  24.623  28.825  1.00  0.00     0.031 C 
ATOM     43  C   UNL A   1      39.434  26.542  28.211  1.00  0.00     0.029 A 
ATOM     44  C   UNL A   1      40.346  27.555  28.734  1.00  0.00     0.049 A 
ATOM     45  H   UNL A   1      42.404  27.385  29.005  1.00  0.00     0.167 HD
ATOM     46  C   UNL A   1      46.692  26.864  29.645  1.00  0.00     0.037 A 
ATOM     47  C   UNL A   1      39.993  28.791  29.132  1.00  0.00     0.037 A 
ATOM     48  C   UNL A   1      46.423  28.233  30.003  1.00  0.00     0.049 A 
ATOM     49  C   UNL A   1      41.050  29.734  29.638  1.00  0.00     0.074 A 
ATOM     50  C   UNL A   1      47.318  29.208  30.409  1.00  0.00     0.029 A 
ATOM     51  N   UNL A   1      45.167  28.818  30.003  1.00  0.00    -0.354 N 
ATOM     52  N   UNL A   1      42.340  29.538  29.764  1.00  0.00    -0.248 NA
ATOM     53  C   UNL A   1      40.602  31.072  30.050  1.00  0.00     0.031 C 
ATOM     54  C   UNL A   1      46.596  30.370  30.704  1.00  0.00     0.029 A 
ATOM     55  C   UNL A   1      45.258  30.134  30.427  1.00  0.00     0.049 A 
ATOM     56  H   UNL A   1      44.332  28.367  29.740  1.00  0.00     0.167 HD
ATOM     57  C   UNL A   1      42.862  30.734  30.240  1.00  0.00     0.074 A 
ATOM     58  C   UNL A   1      41.751  31.655  30.367  1.00  0.00     0.031 C 
ATOM     59  C   UNL A   1      44.146  31.043  30.544  1.00  0.00     0.037 A 
BRANCH  46  60
ATOM     60  C   UNL A   1      48.102  26.361  29.769  1.00  0.00     0.057 A 
ATOM     61  C   UNL A   1      48.572  25.764  30.947  1.00  0.00     0.134 A 
ATOM     62  C   UNL A   1      48.988  26.437  28.687  1.00  0.00     0.134 A 
ATOM     63  F   UNL A   1      47.778  25.668  32.024  1.00  0.00    -0.206 F 
ATOM     64  C   UNL A   1      49.879  25.288  31.053  1.00  0.00     0.040 A 
ATOM     65  C   UNL A   1      50.289  25.939  28.772  1.00  0.00     0.040 A 
ATOM     66  F   UNL A   1      48.601  26.990  27.528  1.00  0.00    -0.206 F 
ATOM     67  C   UNL A   1      50.740  25.368  29.960  1.00  0.00     0.006 A 
ENDBRANCH  46  60
BRANCH  47  68
ATOM     68  C   UNL A   1      38.572  29.221  29.054  1.00  0.00     0.057 A 
ATOM     69  C   UNL A   1      37.735  29.158  30.173  1.00  0.00     0.134 A 
ATOM     70  C   UNL A   1      38.016  29.692  27.858  1.00  0.00     0.134 A 
ATOM     71  F   UNL A   1      38.204  28.697  31.342  1.00  0.00    -0.206 F 
ATOM     72  C   UNL A   1      36.390  29.525  30.103  1.00  0.00     0.040 A 
ATOM     73  C   UNL A   1      36.680  30.089  27.780  1.00  0.00     0.040 A 
ATOM     74  F   UNL A   1      38.768  29.784  26.751  1.00  0.00    -0.206 F 
ATOM     75  C   UNL A   1      35.861  29.998  28.904  1.00  0.00     0.006 A 
ENDBRANCH  47  68
BRANCH  59  76
ATOM     76  C   UNL A   1      44.427  32.442  31.009  1.00  0.00     0.057 A 
ATOM     77  C   UNL A   1      44.693  33.483  30.109  1.00  0.00     0.134 A 
ATOM     78  C   UNL A   1      44.395  32.761  32.373  1.00  0.00     0.134 A 
ATOM     79  F   UNL A   1      44.752  33.243  28.790  1.00  0.00    -0.206 F 
ATOM     80  C   UNL A   1      44.940  34.784  30.552  1.00  0.00     0.040 A 
ATOM     81  C   UNL A   1      44.612  34.063  32.825  1.00  0.00     0.040 A 
ATOM     82  F   UNL A   1      44.138  31.813  33.288  1.00  0.00    -0.206 F 
ATOM     83  C   UNL A   1      44.892  35.077  31.913  1.00  0.00     0.006 A 
ENDBRANCH  59  76
ENDBRANCH  33  34
ENDBRANCH  25  28
ENDBRANCH  23  24
ENDBRANCH   1  23
TORSDOF 11
ENDMDL
