MODEL 1
REMARK VINA RESULT:     -11.6      0.000      0.000
REMARK SMILES CCc1cc(OC(F)(F)F)cc2c1O[C@H](C(F)(F)F)C(C(=O)NCCCNC(=O)c1ccc(-c3c4nc(c(-c5c(F)cccc5F)c5ccc([nH]5)c(-c5c(F)cccc5F)c5nc(c(-c6c(F)cccc6F)c6ccc3[nH]6)C=C5)C=C4)cc1)=C2
REMARK SMILES IDX 25 1 24 2 23 3 21 4 22 5 20 7 3 8 4 9 13 10 5 11 12 12 14 13
REMARK SMILES IDX 11 14 84 15 15 16 2 17 1 18 6 19 7 20 8 21 9 22 10 23 16 24
REMARK SMILES IDX 17 25 18 26 19 27 26 28 27 29 28 30 29 32 30 33 31 34 83 35
REMARK SMILES IDX 32 36 82 37 33 38 34 39 35 40 76 41 36 42 81 43 75 44 77 45
REMARK SMILES IDX 37 46 80 47 74 48 73 49 38 51 64 52 47 53 63 54 48 55 51 56
REMARK SMILES IDX 62 57 78 58 49 59 50 60 61 62 79 63 52 64 39 65 40 66 45 67
REMARK SMILES IDX 41 68 42 69 44 70 46 71 43 72 65 73 66 74 71 75 67 76 68 77
REMARK SMILES IDX 70 78 72 79 69 80 53 81 54 82 59 83 55 84 56 85 58 86 60 87
REMARK SMILES IDX 57 88
REMARK H PARENT 23 6 27 31 77 50 51 61
REMARK Flexibility Score: inf
ROOT
ATOM      1  C   UNL A   1      34.046  28.413  25.740  1.00  0.00     0.042 C 
ENDROOT
BRANCH   1   2
ATOM      2  C   UNL A   1      32.748  28.320  24.939  1.00  0.00     0.118 C 
BRANCH   2   3
ATOM      3  N   UNL A   1      31.673  27.772  25.745  1.00  0.00    -0.352 N 
ATOM      4  C   UNL A   1      31.302  26.505  26.052  1.00  0.00     0.251 C 
ATOM      5  O   UNL A   1      30.365  26.370  26.838  1.00  0.00    -0.270 OA
ATOM      6  H   UNL A   1      31.096  28.460  26.150  1.00  0.00     0.163 HD
BRANCH   4   7
ATOM      7  C   UNL A   1      32.032  25.297  25.576  1.00  0.00     0.067 C 
ATOM      8  C   UNL A   1      33.290  21.496  24.312  1.00  0.00    -0.002 A 
ATOM      9  C   UNL A   1      34.556  21.030  24.714  1.00  0.00     0.054 A 
ATOM     10  C   UNL A   1      32.865  22.762  24.740  1.00  0.00     0.131 A 
ATOM     11  C   UNL A   1      35.379  21.808  25.534  1.00  0.00     0.130 A 
ATOM     12  C   UNL A   1      33.690  23.555  25.542  1.00  0.00     0.021 A 
ATOM     13  O   UNL A   1      31.596  23.157  24.402  1.00  0.00    -0.475 OA
ATOM     14  C   UNL A   1      34.942  23.072  25.936  1.00  0.00     0.058 A 
ATOM     15  C   UNL A   1      33.199  24.836  26.042  1.00  0.00     0.025 C 
ATOM     16  C   UNL A   1      31.350  24.591  24.415  1.00  0.00     0.314 C 
BRANCH   8  17
ATOM     17  C   UNL A   1      32.423  20.631  23.426  1.00  0.00     0.036 C 
ATOM     18  C   UNL A   1      32.565  19.148  23.739  1.00  0.00     0.009 C 
ENDBRANCH   8  17
BRANCH  11  19
ATOM     19  O   UNL A   1      36.607  21.461  26.021  1.00  0.00    -0.406 OA
BRANCH  19  20
ATOM     20  C   UNL A   1      37.752  21.873  25.297  1.00  0.00     0.573 C 
ATOM     21  F   UNL A   1      37.440  22.176  24.018  1.00  0.00    -0.132 F 
ATOM     22  F   UNL A   1      38.338  22.937  25.883  1.00  0.00    -0.132 F 
ATOM     23  F   UNL A   1      38.642  20.856  25.280  1.00  0.00    -0.132 F 
ENDBRANCH  19  20
ENDBRANCH  11  19
BRANCH  16  24
ATOM     24  C   UNL A   1      31.713  25.202  23.045  1.00  0.00     0.429 C 
ATOM     25  F   UNL A   1      31.730  24.248  22.080  1.00  0.00    -0.167 F 
ATOM     26  F   UNL A   1      30.847  26.154  22.634  1.00  0.00    -0.167 F 
ATOM     27  F   UNL A   1      32.943  25.775  23.054  1.00  0.00    -0.167 F 
ENDBRANCH  16  24
ENDBRANCH   4   7
ENDBRANCH   2   3
ENDBRANCH   1   2
BRANCH   1  28
ATOM     28  C   UNL A   1      33.815  28.556  27.242  1.00  0.00     0.118 C 
BRANCH  28  29
ATOM     29  N   UNL A   1      33.737  29.952  27.645  1.00  0.00    -0.352 N 
ATOM     30  C   UNL A   1      34.639  30.722  28.332  1.00  0.00     0.251 C 
ATOM     31  H   UNL A   1      32.909  30.416  27.382  1.00  0.00     0.163 HD
ATOM     32  O   UNL A   1      34.287  31.811  28.778  1.00  0.00    -0.269 OA
BRANCH  30  33
ATOM     33  C   UNL A   1      36.025  30.254  28.549  1.00  0.00     0.039 A 
ATOM     34  C   UNL A   1      36.932  30.330  27.487  1.00  0.00     0.014 A 
ATOM     35  C   UNL A   1      36.417  29.685  29.764  1.00  0.00     0.014 A 
ATOM     36  C   UNL A   1      38.242  29.877  27.657  1.00  0.00     0.010 A 
ATOM     37  C   UNL A   1      37.740  29.292  29.953  1.00  0.00     0.010 A 
ATOM     38  C   UNL A   1      38.663  29.375  28.900  1.00  0.00    -0.014 A 
BRANCH  38  39
ATOM     39  C   UNL A   1      40.056  28.910  29.109  1.00  0.00     0.031 A 
ATOM     40  C   UNL A   1      41.077  29.837  29.708  1.00  0.00     0.074 A 
ATOM     41  C   UNL A   1      40.413  27.673  28.713  1.00  0.00     0.049 A 
ATOM     42  N   UNL A   1      42.359  29.650  29.890  1.00  0.00    -0.248 NA
ATOM     43  C   UNL A   1      40.596  31.159  30.141  1.00  0.00     0.031 C 
ATOM     44  C   UNL A   1      39.521  26.691  28.094  1.00  0.00     0.029 A 
ATOM     45  N   UNL A   1      41.626  27.036  28.762  1.00  0.00    -0.354 N 
ATOM     46  C   UNL A   1      42.839  30.829  30.445  1.00  0.00     0.074 A 
ATOM     47  C   UNL A   1      41.721  31.744  30.525  1.00  0.00     0.031 C 
ATOM     48  C   UNL A   1      40.214  25.568  27.841  1.00  0.00     0.029 A 
ATOM     49  C   UNL A   1      41.602  25.765  28.241  1.00  0.00     0.049 A 
ATOM     50  H   UNL A   1      42.439  27.450  29.135  1.00  0.00     0.167 HD
ATOM     51  C   UNL A   1      44.092  31.117  30.870  1.00  0.00     0.037 A 
ATOM     52  C   UNL A   1      42.593  24.864  28.096  1.00  0.00     0.037 A 
ATOM     53  C   UNL A   1      45.199  30.198  30.809  1.00  0.00     0.049 A 
ATOM     54  C   UNL A   1      43.979  25.217  28.557  1.00  0.00     0.074 A 
ATOM     55  C   UNL A   1      46.501  30.384  31.240  1.00  0.00     0.029 A 
ATOM     56  N   UNL A   1      45.129  28.916  30.287  1.00  0.00    -0.354 N 
ATOM     57  N   UNL A   1      44.409  26.323  29.115  1.00  0.00    -0.248 NA
ATOM     58  C   UNL A   1      45.018  24.195  28.371  1.00  0.00     0.031 C 
ATOM     59  C   UNL A   1      47.226  29.224  30.952  1.00  0.00     0.029 A 
ATOM     60  C   UNL A   1      46.367  28.302  30.377  1.00  0.00     0.049 A 
ATOM     61  H   UNL A   1      44.320  28.503  29.907  1.00  0.00     0.167 HD
ATOM     62  C   UNL A   1      45.757  26.117  29.377  1.00  0.00     0.074 A 
ATOM     63  C   UNL A   1      46.072  24.777  28.925  1.00  0.00     0.031 C 
ATOM     64  C   UNL A   1      46.655  26.961  29.939  1.00  0.00     0.037 A 
BRANCH  51  65
ATOM     65  C   UNL A   1      44.329  32.479  31.452  1.00  0.00     0.057 A 
ATOM     66  C   UNL A   1      44.177  32.729  32.823  1.00  0.00     0.134 A 
ATOM     67  C   UNL A   1      44.747  33.544  30.644  1.00  0.00     0.134 A 
ATOM     68  F   UNL A   1      43.766  31.755  33.649  1.00  0.00    -0.206 F 
ATOM     69  C   UNL A   1      44.410  33.994  33.366  1.00  0.00     0.040 A 
ATOM     70  C   UNL A   1      45.008  34.807  31.180  1.00  0.00     0.040 A 
ATOM     71  F   UNL A   1      44.918  33.373  29.325  1.00  0.00    -0.206 F 
ATOM     72  C   UNL A   1      44.835  35.036  32.542  1.00  0.00     0.006 A 
ENDBRANCH  51  65
BRANCH  52  73
ATOM     73  C   UNL A   1      42.310  23.531  27.507  1.00  0.00     0.057 A 
ATOM     74  C   UNL A   1      42.347  23.337  26.121  1.00  0.00     0.134 A 
ATOM     75  C   UNL A   1      41.975  22.432  28.304  1.00  0.00     0.134 A 
ATOM     76  F   UNL A   1      42.643  24.358  25.304  1.00  0.00    -0.206 F 
ATOM     77  C   UNL A   1      42.038  22.102  25.547  1.00  0.00     0.040 A 
ATOM     78  C   UNL A   1      41.687  21.185  27.746  1.00  0.00     0.040 A 
ATOM     79  F   UNL A   1      41.929  22.552  29.639  1.00  0.00    -0.206 F 
ATOM     80  C   UNL A   1      41.709  21.021  26.362  1.00  0.00     0.006 A 
ENDBRANCH  52  73
BRANCH  64  81
ATOM     81  C   UNL A   1      48.048  26.442  30.141  1.00  0.00     0.057 A 
ATOM     82  C   UNL A   1      48.428  25.785  31.317  1.00  0.00     0.134 A 
ATOM     83  C   UNL A   1      49.007  26.573  29.130  1.00  0.00     0.134 A 
ATOM     84  F   UNL A   1      47.559  25.640  32.327  1.00  0.00    -0.206 F 
ATOM     85  C   UNL A   1      49.724  25.294  31.489  1.00  0.00     0.040 A 
ATOM     86  C   UNL A   1      50.298  26.065  29.280  1.00  0.00     0.040 A 
ATOM     87  F   UNL A   1      48.703  27.186  27.976  1.00  0.00    -0.206 F 
ATOM     88  C   UNL A   1      50.660  25.428  30.465  1.00  0.00     0.006 A 
ENDBRANCH  64  81
ENDBRANCH  38  39
ENDBRANCH  30  33
ENDBRANCH  28  29
ENDBRANCH   1  28
TORSDOF 14
ENDMDL
MODEL 2
REMARK VINA RESULT:     -11.5      2.447      7.452
REMARK SMILES CCc1cc(OC(F)(F)F)cc2c1O[C@H](C(F)(F)F)C(C(=O)NCCCNC(=O)c1ccc(-c3c4nc(c(-c5c(F)cccc5F)c5ccc([nH]5)c(-c5c(F)cccc5F)c5nc(c(-c6c(F)cccc6F)c6ccc3[nH]6)C=C5)C=C4)cc1)=C2
REMARK SMILES IDX 25 1 24 2 23 3 21 4 22 5 20 7 3 8 4 9 13 10 5 11 12 12 14 13
REMARK SMILES IDX 11 14 84 15 15 16 2 17 1 18 6 19 7 20 8 21 9 22 10 23 16 24
REMARK SMILES IDX 17 25 18 26 19 27 26 28 27 29 28 30 29 32 30 33 31 34 83 35
REMARK SMILES IDX 32 36 82 37 33 38 34 39 35 40 76 41 36 42 81 43 75 44 77 45
REMARK SMILES IDX 37 46 80 47 74 48 73 49 38 51 64 52 47 53 63 54 48 55 51 56
REMARK SMILES IDX 62 57 78 58 49 59 50 60 61 62 79 63 52 64 39 65 40 66 45 67
REMARK SMILES IDX 41 68 42 69 44 70 46 71 43 72 65 73 66 74 71 75 67 76 68 77
REMARK SMILES IDX 70 78 72 79 69 80 53 81 54 82 59 83 55 84 56 85 58 86 60 87
REMARK SMILES IDX 57 88
REMARK H PARENT 23 6 27 31 77 50 51 61
REMARK Flexibility Score: inf
ROOT
ATOM      1  C   UNL A   1      37.766  19.969  24.684  1.00  0.00     0.042 C 
ENDROOT
BRANCH   1   2
ATOM      2  C   UNL A   1      36.618  20.975  24.616  1.00  0.00     0.118 C 
BRANCH   2   3
ATOM      3  N   UNL A   1      35.645  20.731  25.665  1.00  0.00    -0.352 N 
ATOM      4  C   UNL A   1      34.591  21.444  26.131  1.00  0.00     0.251 C 
ATOM      5  O   UNL A   1      33.900  20.919  27.004  1.00  0.00    -0.270 OA
ATOM      6  H   UNL A   1      35.777  19.874  26.132  1.00  0.00     0.163 HD
BRANCH   4   7
ATOM      7  C   UNL A   1      34.177  22.760  25.570  1.00  0.00     0.067 C 
ATOM      8  C   UNL A   1      33.493  26.213  23.279  1.00  0.00    -0.002 A 
ATOM      9  C   UNL A   1      33.458  27.463  23.927  1.00  0.00     0.054 A 
ATOM     10  C   UNL A   1      33.729  25.060  24.042  1.00  0.00     0.131 A 
ATOM     11  C   UNL A   1      33.662  27.561  25.306  1.00  0.00     0.130 A 
ATOM     12  C   UNL A   1      33.913  25.147  25.425  1.00  0.00     0.021 A 
ATOM     13  O   UNL A   1      33.840  23.866  23.376  1.00  0.00    -0.475 OA
ATOM     14  C   UNL A   1      33.880  26.398  26.048  1.00  0.00     0.058 A 
ATOM     15  C   UNL A   1      34.236  23.946  26.189  1.00  0.00     0.025 C 
ATOM     16  C   UNL A   1      33.597  22.670  24.167  1.00  0.00     0.314 C 
BRANCH   8  17
ATOM     17  C   UNL A   1      33.270  26.139  21.787  1.00  0.00     0.036 C 
ATOM     18  C   UNL A   1      31.796  26.024  21.421  1.00  0.00     0.009 C 
ENDBRANCH   8  17
BRANCH  11  19
ATOM     19  O   UNL A   1      33.687  28.708  26.047  1.00  0.00    -0.406 OA
BRANCH  19  20
ATOM     20  C   UNL A   1      32.451  29.315  26.378  1.00  0.00     0.573 C 
ATOM     21  F   UNL A   1      32.109  30.255  25.471  1.00  0.00    -0.132 F 
ATOM     22  F   UNL A   1      31.469  28.395  26.468  1.00  0.00    -0.132 F 
ATOM     23  F   UNL A   1      32.576  29.919  27.581  1.00  0.00    -0.132 F 
ENDBRANCH  19  20
ENDBRANCH  11  19
BRANCH  16  24
ATOM     24  C   UNL A   1      32.091  22.329  24.162  1.00  0.00     0.429 C 
ATOM     25  F   UNL A   1      31.900  20.995  24.002  1.00  0.00    -0.167 F 
ATOM     26  F   UNL A   1      31.457  22.677  25.302  1.00  0.00    -0.167 F 
ATOM     27  F   UNL A   1      31.435  22.945  23.148  1.00  0.00    -0.167 F 
ENDBRANCH  16  24
ENDBRANCH   4   7
ENDBRANCH   2   3
ENDBRANCH   1   2
BRANCH   1  28
ATOM     28  C   UNL A   1      38.636  20.136  25.927  1.00  0.00     0.118 C 
BRANCH  28  29
ATOM     29  N   UNL A   1      39.821  19.291  25.874  1.00  0.00    -0.352 N 
ATOM     30  C   UNL A   1      41.141  19.613  26.053  1.00  0.00     0.251 C 
ATOM     31  H   UNL A   1      39.645  18.341  25.681  1.00  0.00     0.163 HD
ATOM     32  O   UNL A   1      42.008  18.803  25.736  1.00  0.00    -0.269 OA
BRANCH  30  33
ATOM     33  C   UNL A   1      41.532  20.924  26.616  1.00  0.00     0.039 A 
ATOM     34  C   UNL A   1      41.939  21.935  25.740  1.00  0.00     0.014 A 
ATOM     35  C   UNL A   1      41.560  21.140  27.997  1.00  0.00     0.014 A 
ATOM     36  C   UNL A   1      42.333  23.176  26.246  1.00  0.00     0.010 A 
ATOM     37  C   UNL A   1      41.892  22.398  28.496  1.00  0.00     0.010 A 
ATOM     38  C   UNL A   1      42.291  23.425  27.627  1.00  0.00    -0.014 A 
BRANCH  38  39
ATOM     39  C   UNL A   1      42.681  24.743  28.183  1.00  0.00     0.031 A 
ATOM     40  C   UNL A   1      41.644  25.813  28.385  1.00  0.00     0.074 A 
ATOM     41  C   UNL A   1      43.976  24.995  28.456  1.00  0.00     0.049 A 
ATOM     42  N   UNL A   1      41.798  27.052  28.774  1.00  0.00    -0.248 NA
ATOM     43  C   UNL A   1      40.249  25.446  28.090  1.00  0.00     0.031 C 
ATOM     44  C   UNL A   1      45.079  24.048  28.278  1.00  0.00     0.029 A 
ATOM     45  N   UNL A   1      44.584  26.128  28.933  1.00  0.00    -0.354 N 
ATOM     46  C   UNL A   1      40.528  27.615  28.759  1.00  0.00     0.074 A 
ATOM     47  C   UNL A   1      39.621  26.597  28.276  1.00  0.00     0.031 C 
ATOM     48  C   UNL A   1      46.226  24.635  28.660  1.00  0.00     0.029 A 
ATOM     49  C   UNL A   1      45.946  26.005  29.071  1.00  0.00     0.049 A 
ATOM     50  H   UNL A   1      44.092  26.951  29.156  1.00  0.00     0.167 HD
ATOM     51  C   UNL A   1      40.148  28.859  29.135  1.00  0.00     0.037 A 
ATOM     52  C   UNL A   1      46.863  26.903  29.477  1.00  0.00     0.037 A 
ATOM     53  C   UNL A   1      41.049  29.864  29.636  1.00  0.00     0.049 A 
ATOM     54  C   UNL A   1      46.417  28.284  29.868  1.00  0.00     0.074 A 
ATOM     55  C   UNL A   1      40.758  31.146  30.070  1.00  0.00     0.029 A 
ATOM     56  N   UNL A   1      42.418  29.696  29.773  1.00  0.00    -0.354 N 
ATOM     57  N   UNL A   1      45.208  28.789  29.886  1.00  0.00    -0.248 NA
ATOM     58  C   UNL A   1      47.465  29.220  30.301  1.00  0.00     0.031 C 
ATOM     59  C   UNL A   1      41.956  31.763  30.444  1.00  0.00     0.029 A 
ATOM     60  C   UNL A   1      42.987  30.853  30.278  1.00  0.00     0.049 A 
ATOM     61  H   UNL A   1      42.913  28.876  29.545  1.00  0.00     0.167 HD
ATOM     62  C   UNL A   1      45.344  30.086  30.361  1.00  0.00     0.074 A 
ATOM     63  C   UNL A   1      46.753  30.288  30.629  1.00  0.00     0.031 C 
ATOM     64  C   UNL A   1      44.389  31.027  30.556  1.00  0.00     0.037 A 
BRANCH  51  65
ATOM     65  C   UNL A   1      38.690  29.198  29.031  1.00  0.00     0.057 A 
ATOM     66  C   UNL A   1      37.835  29.114  30.139  1.00  0.00     0.134 A 
ATOM     67  C   UNL A   1      38.140  29.646  27.824  1.00  0.00     0.134 A 
ATOM     68  F   UNL A   1      38.297  28.679  31.321  1.00  0.00    -0.206 F 
ATOM     69  C   UNL A   1      36.482  29.442  30.044  1.00  0.00     0.040 A 
ATOM     70  C   UNL A   1      36.793  30.001  27.723  1.00  0.00     0.040 A 
ATOM     71  F   UNL A   1      38.903  29.755  26.725  1.00  0.00    -0.206 F 
ATOM     72  C   UNL A   1      35.960  29.894  28.834  1.00  0.00     0.006 A 
ENDBRANCH  51  65
BRANCH  52  73
ATOM     73  C   UNL A   1      48.296  26.523  29.556  1.00  0.00     0.057 A 
ATOM     74  C   UNL A   1      48.825  25.954  30.721  1.00  0.00     0.134 A 
ATOM     75  C   UNL A   1      49.174  26.739  28.488  1.00  0.00     0.134 A 
ATOM     76  F   UNL A   1      48.037  25.740  31.784  1.00  0.00    -0.206 F 
ATOM     77  C   UNL A   1      50.179  25.633  30.829  1.00  0.00     0.040 A 
ATOM     78  C   UNL A   1      50.525  26.401  28.573  1.00  0.00     0.040 A 
ATOM     79  F   UNL A   1      48.727  27.274  27.343  1.00  0.00    -0.206 F 
ATOM     80  C   UNL A   1      51.033  25.856  29.750  1.00  0.00     0.006 A 
ENDBRANCH  52  73
BRANCH  64  81
ATOM     81  C   UNL A   1      44.831  32.340  31.131  1.00  0.00     0.057 A 
ATOM     82  C   UNL A   1      45.209  33.414  30.316  1.00  0.00     0.134 A 
ATOM     83  C   UNL A   1      44.844  32.540  32.517  1.00  0.00     0.134 A 
ATOM     84  F   UNL A   1      45.230  33.281  28.982  1.00  0.00    -0.206 F 
ATOM     85  C   UNL A   1      45.605  34.637  30.862  1.00  0.00     0.040 A 
ATOM     86  C   UNL A   1      45.216  33.764  33.074  1.00  0.00     0.040 A 
ATOM     87  F   UNL A   1      44.486  31.553  33.351  1.00  0.00    -0.206 F 
ATOM     88  C   UNL A   1      45.603  34.815  32.244  1.00  0.00     0.006 A 
ENDBRANCH  64  81
ENDBRANCH  38  39
ENDBRANCH  30  33
ENDBRANCH  28  29
ENDBRANCH   1  28
TORSDOF 14
ENDMDL
MODEL 3
REMARK VINA RESULT:     -11.5      1.860      2.633
REMARK SMILES CCc1cc(OC(F)(F)F)cc2c1O[C@H](C(F)(F)F)C(C(=O)NCCCNC(=O)c1ccc(-c3c4nc(c(-c5c(F)cccc5F)c5ccc([nH]5)c(-c5c(F)cccc5F)c5nc(c(-c6c(F)cccc6F)c6ccc3[nH]6)C=C5)C=C4)cc1)=C2
REMARK SMILES IDX 25 1 24 2 23 3 21 4 22 5 20 7 3 8 4 9 13 10 5 11 12 12 14 13
REMARK SMILES IDX 11 14 84 15 15 16 2 17 1 18 6 19 7 20 8 21 9 22 10 23 16 24
REMARK SMILES IDX 17 25 18 26 19 27 26 28 27 29 28 30 29 32 30 33 31 34 83 35
REMARK SMILES IDX 32 36 82 37 33 38 34 39 35 40 76 41 36 42 81 43 75 44 77 45
REMARK SMILES IDX 37 46 80 47 74 48 73 49 38 51 64 52 47 53 63 54 48 55 51 56
REMARK SMILES IDX 62 57 78 58 49 59 50 60 61 62 79 63 52 64 39 65 40 66 45 67
REMARK SMILES IDX 41 68 42 69 44 70 46 71 43 72 65 73 66 74 71 75 67 76 68 77
REMARK SMILES IDX 70 78 72 79 69 80 53 81 54 82 59 83 55 84 56 85 58 86 60 87
REMARK SMILES IDX 57 88
REMARK H PARENT 23 6 27 31 77 50 51 61
REMARK Flexibility Score: inf
ROOT
ATOM      1  C   UNL A   1      33.739  28.682  24.504  1.00  0.00     0.042 C 
ENDROOT
BRANCH   1   2
ATOM      2  C   UNL A   1      32.393  28.055  24.141  1.00  0.00     0.118 C 
BRANCH   2   3
ATOM      3  N   UNL A   1      31.605  27.781  25.328  1.00  0.00    -0.352 N 
ATOM      4  C   UNL A   1      31.417  26.666  26.075  1.00  0.00     0.251 C 
ATOM      5  O   UNL A   1      30.727  26.779  27.088  1.00  0.00    -0.270 OA
ATOM      6  H   UNL A   1      31.104  28.563  25.656  1.00  0.00     0.163 HD
BRANCH   4   7
ATOM      7  C   UNL A   1      32.083  25.365  25.791  1.00  0.00     0.067 C 
ATOM      8  C   UNL A   1      33.240  21.348  25.389  1.00  0.00    -0.002 A 
ATOM      9  C   UNL A   1      34.597  21.011  25.556  1.00  0.00     0.054 A 
ATOM     10  C   UNL A   1      32.851  22.688  25.531  1.00  0.00     0.131 A 
ATOM     11  C   UNL A   1      35.545  21.990  25.866  1.00  0.00     0.130 A 
ATOM     12  C   UNL A   1      33.796  23.676  25.819  1.00  0.00     0.021 A 
ATOM     13  O   UNL A   1      31.513  22.977  25.445  1.00  0.00    -0.475 OA
ATOM     14  C   UNL A   1      35.138  23.320  25.988  1.00  0.00     0.058 A 
ATOM     15  C   UNL A   1      33.361  25.052  26.041  1.00  0.00     0.025 C 
ATOM     16  C   UNL A   1      31.178  24.352  25.109  1.00  0.00     0.314 C 
BRANCH   8  17
ATOM     17  C   UNL A   1      32.238  20.268  25.055  1.00  0.00     0.036 C 
ATOM     18  C   UNL A   1      32.499  19.628  23.699  1.00  0.00     0.009 C 
ENDBRANCH   8  17
BRANCH  11  19
ATOM     19  O   UNL A   1      36.879  21.792  26.086  1.00  0.00    -0.406 OA
BRANCH  19  20
ATOM     20  C   UNL A   1      37.685  21.405  24.988  1.00  0.00     0.573 C 
ATOM     21  F   UNL A   1      38.985  21.699  25.208  1.00  0.00    -0.132 F 
ATOM     22  F   UNL A   1      37.557  20.086  24.734  1.00  0.00    -0.132 F 
ATOM     23  F   UNL A   1      37.281  22.088  23.894  1.00  0.00    -0.132 F 
ENDBRANCH  19  20
ENDBRANCH  11  19
BRANCH  16  24
ATOM     24  C   UNL A   1      31.132  24.526  23.576  1.00  0.00     0.429 C 
ATOM     25  F   UNL A   1      30.252  25.498  23.227  1.00  0.00    -0.167 F 
ATOM     26  F   UNL A   1      32.322  24.871  23.038  1.00  0.00    -0.167 F 
ATOM     27  F   UNL A   1      30.736  23.392  22.947  1.00  0.00    -0.167 F 
ENDBRANCH  16  24
ENDBRANCH   4   7
ENDBRANCH   2   3
ENDBRANCH   1   2
BRANCH   1  28
ATOM     28  C   UNL A   1      33.973  28.767  26.010  1.00  0.00     0.118 C 
BRANCH  28  29
ATOM     29  N   UNL A   1      33.806  30.125  26.506  1.00  0.00    -0.352 N 
ATOM     30  C   UNL A   1      34.493  30.796  27.484  1.00  0.00     0.251 C 
ATOM     31  H   UNL A   1      33.090  30.642  26.070  1.00  0.00     0.163 HD
ATOM     32  O   UNL A   1      34.047  31.855  27.916  1.00  0.00    -0.269 OA
BRANCH  30  33
ATOM     33  C   UNL A   1      35.758  30.256  28.028  1.00  0.00     0.039 A 
ATOM     34  C   UNL A   1      35.746  29.667  29.296  1.00  0.00     0.014 A 
ATOM     35  C   UNL A   1      36.961  30.384  27.327  1.00  0.00     0.014 A 
ATOM     36  C   UNL A   1      36.930  29.167  29.842  1.00  0.00     0.010 A 
ATOM     37  C   UNL A   1      38.129  29.828  27.845  1.00  0.00     0.010 A 
ATOM     38  C   UNL A   1      38.127  29.223  29.111  1.00  0.00    -0.014 A 
BRANCH  38  39
ATOM     39  C   UNL A   1      39.391  28.676  29.662  1.00  0.00     0.031 A 
ATOM     40  C   UNL A   1      40.028  29.317  30.864  1.00  0.00     0.074 A 
ATOM     41  C   UNL A   1      39.992  27.638  29.050  1.00  0.00     0.049 A 
ATOM     42  N   UNL A   1      41.171  29.044  31.439  1.00  0.00    -0.248 NA
ATOM     43  C   UNL A   1      39.291  30.427  31.490  1.00  0.00     0.031 C 
ATOM     44  C   UNL A   1      39.487  26.948  27.861  1.00  0.00     0.029 A 
ATOM     45  N   UNL A   1      41.164  26.988  29.338  1.00  0.00    -0.354 N 
ATOM     46  C   UNL A   1      41.296  29.951  32.483  1.00  0.00     0.074 A 
ATOM     47  C   UNL A   1      40.137  30.816  32.433  1.00  0.00     0.031 C 
ATOM     48  C   UNL A   1      40.335  25.959  27.535  1.00  0.00     0.029 A 
ATOM     49  C   UNL A   1      41.459  25.970  28.464  1.00  0.00     0.049 A 
ATOM     50  H   UNL A   1      41.741  27.228  30.100  1.00  0.00     0.167 HD
ATOM     51  C   UNL A   1      42.276  30.043  33.413  1.00  0.00     0.037 A 
ATOM     52  C   UNL A   1      42.522  25.144  28.416  1.00  0.00     0.037 A 
ATOM     53  C   UNL A   1      43.418  29.169  33.476  1.00  0.00     0.049 A 
ATOM     54  C   UNL A   1      43.606  25.282  29.448  1.00  0.00     0.074 A 
ATOM     55  C   UNL A   1      44.451  29.161  34.396  1.00  0.00     0.029 A 
ATOM     56  N   UNL A   1      43.672  28.142  32.580  1.00  0.00    -0.354 N 
ATOM     57  N   UNL A   1      43.691  26.120  30.452  1.00  0.00    -0.248 NA
ATOM     58  C   UNL A   1      44.741  24.354  29.342  1.00  0.00     0.031 C 
ATOM     59  C   UNL A   1      45.346  28.148  34.040  1.00  0.00     0.029 A 
ATOM     60  C   UNL A   1      44.851  27.500  32.921  1.00  0.00     0.049 A 
ATOM     61  H   UNL A   1      43.100  27.905  31.814  1.00  0.00     0.167 HD
ATOM     62  C   UNL A   1      44.868  25.800  31.116  1.00  0.00     0.074 A 
ATOM     63  C   UNL A   1      45.459  24.685  30.406  1.00  0.00     0.031 C 
ATOM     64  C   UNL A   1      45.412  26.379  32.213  1.00  0.00     0.037 A 
BRANCH  51  65
ATOM     65  C   UNL A   1      42.147  31.121  34.449  1.00  0.00     0.057 A 
ATOM     66  C   UNL A   1      42.689  32.399  34.252  1.00  0.00     0.134 A 
ATOM     67  C   UNL A   1      41.447  30.894  35.640  1.00  0.00     0.134 A 
ATOM     68  F   UNL A   1      43.383  32.676  33.138  1.00  0.00    -0.206 F 
ATOM     69  C   UNL A   1      42.559  33.404  35.210  1.00  0.00     0.040 A 
ATOM     70  C   UNL A   1      41.288  31.901  36.596  1.00  0.00     0.040 A 
ATOM     71  F   UNL A   1      40.898  29.696  35.892  1.00  0.00    -0.206 F 
ATOM     72  C   UNL A   1      41.849  33.157  36.385  1.00  0.00     0.006 A 
ENDBRANCH  51  65
BRANCH  52  73
ATOM     73  C   UNL A   1      42.608  24.098  27.366  1.00  0.00     0.057 A 
ATOM     74  C   UNL A   1      42.168  22.793  27.615  1.00  0.00     0.134 A 
ATOM     75  C   UNL A   1      43.150  24.366  26.104  1.00  0.00     0.134 A 
ATOM     76  F   UNL A   1      41.657  22.471  28.813  1.00  0.00    -0.206 F 
ATOM     77  C   UNL A   1      42.285  21.785  26.656  1.00  0.00     0.040 A 
ATOM     78  C   UNL A   1      43.250  23.375  25.127  1.00  0.00     0.040 A 
ATOM     79  F   UNL A   1      43.582  25.599  25.801  1.00  0.00    -0.206 F 
ATOM     80  C   UNL A   1      42.826  22.077  25.406  1.00  0.00     0.006 A 
ENDBRANCH  52  73
BRANCH  64  81
ATOM     81  C   UNL A   1      46.684  25.784  32.740  1.00  0.00     0.057 A 
ATOM     82  C   UNL A   1      46.683  24.797  33.733  1.00  0.00     0.134 A 
ATOM     83  C   UNL A   1      47.922  26.180  32.218  1.00  0.00     0.134 A 
ATOM     84  F   UNL A   1      45.530  24.386  34.281  1.00  0.00    -0.206 F 
ATOM     85  C   UNL A   1      47.872  24.240  34.207  1.00  0.00     0.040 A 
ATOM     86  C   UNL A   1      49.116  25.614  32.666  1.00  0.00     0.040 A 
ATOM     87  F   UNL A   1      47.991  27.115  31.260  1.00  0.00    -0.206 F 
ATOM     88  C   UNL A   1      49.092  24.644  33.667  1.00  0.00     0.006 A 
ENDBRANCH  64  81
ENDBRANCH  38  39
ENDBRANCH  30  33
ENDBRANCH  28  29
ENDBRANCH   1  28
TORSDOF 14
ENDMDL
