MODEL 1
REMARK VINA RESULT:     -12.0      0.000      0.000
REMARK SMILES Cn1nc(N2CCC(CC(=O)NCCCNC(=O)c3ccc(-c4c5nc(c(-c6c(F)cccc6F)c6ccc([nH]6)c(-c6c(F)cccc6F)c6nc(c(-c7c(F)cccc7F)c7ccc4[nH]7)C=C6)C=C5)cc3)CC2)c(=O)n(C)c1=O
REMARK SMILES IDX 14 1 13 2 12 3 10 4 11 5 9 7 8 8 5 9 6 10 74 11 7 12 73 13
REMARK SMILES IDX 4 14 1 15 2 16 3 17 79 18 77 19 80 20 75 21 78 22 76 23
REMARK SMILES IDX 15 24 16 25 17 26 18 28 19 29 20 30 72 31 21 32 71 33 22 34
REMARK SMILES IDX 23 35 24 36 65 37 25 38 70 39 64 40 66 41 26 42 69 43 63 44
REMARK SMILES IDX 62 45 27 47 53 48 36 49 52 50 37 51 40 52 51 53 67 54 38 55
REMARK SMILES IDX 39 56 50 58 68 59 41 60 28 61 29 62 34 63 30 64 31 65 33 66
REMARK SMILES IDX 35 67 32 68 54 69 55 70 60 71 56 72 57 73 59 74 61 75 58 76
REMARK SMILES IDX 42 77 43 78 48 79 44 80 45 81 47 82 49 83 46 84
REMARK H PARENT 12 6 16 27 66 46 40 57
REMARK Flexibility Score: inf
ROOT
ATOM      1  C   UNL A   1      37.292  19.562  24.976  1.00  0.00     0.042 C 
ENDROOT
BRANCH   1   2
ATOM      2  C   UNL A   1      36.041  20.445  25.014  1.00  0.00     0.117 C 
BRANCH   2   3
ATOM      3  N   UNL A   1      34.803  19.674  25.050  1.00  0.00    -0.356 N 
ATOM      4  C   UNL A   1      33.508  20.046  25.265  1.00  0.00     0.220 C 
ATOM      5  O   UNL A   1      32.645  19.168  25.244  1.00  0.00    -0.275 OA
ATOM      6  H   UNL A   1      34.923  18.710  24.890  1.00  0.00     0.163 HD
BRANCH   4   7
ATOM      7  C   UNL A   1      33.134  21.492  25.546  1.00  0.00     0.103 C 
BRANCH   7   8
ATOM      8  C   UNL A   1      32.711  22.274  24.284  1.00  0.00     0.002 C 
ATOM      9  N   UNL A   1      31.950  24.889  23.341  1.00  0.00    -0.351 N 
ATOM     10  C   UNL A   1      30.901  23.903  23.453  1.00  0.00     0.118 C 
ATOM     11  C   UNL A   1      33.241  24.376  22.914  1.00  0.00     0.118 C 
ATOM     12  C   UNL A   1      31.310  22.863  24.475  1.00  0.00     0.025 C 
ATOM     13  C   UNL A   1      33.744  23.375  23.961  1.00  0.00     0.025 C 
BRANCH   9  14
ATOM     14  C   UNL A   1      31.768  26.198  23.750  1.00  0.00     0.215 A 
ATOM     15  C   UNL A   1      32.190  28.259  26.670  1.00  0.00     0.180 C 
ATOM     16  N   UNL A   1      31.804  27.878  25.322  1.00  0.00    -0.216 N 
ATOM     17  N   UNL A   1      32.014  26.568  24.974  1.00  0.00    -0.145 NA
ATOM     18  C   UNL A   1      31.243  28.849  24.497  1.00  0.00     0.346 A 
ATOM     19  N   UNL A   1      30.931  28.453  23.213  1.00  0.00    -0.259 N 
ATOM     20  O   UNL A   1      31.045  30.000  24.895  1.00  0.00    -0.246 OA
ATOM     21  C   UNL A   1      31.216  27.196  22.730  1.00  0.00     0.299 A 
ATOM     22  C   UNL A   1      30.299  29.384  22.304  1.00  0.00     0.159 C 
ATOM     23  O   UNL A   1      31.025  26.827  21.574  1.00  0.00    -0.265 OA
ENDBRANCH   9  14
ENDBRANCH   7   8
ENDBRANCH   4   7
ENDBRANCH   2   3
ENDBRANCH   1   2
BRANCH   1  24
ATOM     24  C   UNL A   1      38.565  20.254  25.442  1.00  0.00     0.118 C 
BRANCH  24  25
ATOM     25  N   UNL A   1      39.634  19.298  25.668  1.00  0.00    -0.352 N 
ATOM     26  C   UNL A   1      40.948  19.512  26.007  1.00  0.00     0.251 C 
ATOM     27  H   UNL A   1      39.377  18.353  25.564  1.00  0.00     0.163 HD
ATOM     28  O   UNL A   1      41.756  18.598  25.862  1.00  0.00    -0.269 OA
BRANCH  26  29
ATOM     29  C   UNL A   1      41.413  20.818  26.538  1.00  0.00     0.039 A 
ATOM     30  C   UNL A   1      41.245  21.082  27.903  1.00  0.00     0.014 A 
ATOM     31  C   UNL A   1      41.912  21.822  25.704  1.00  0.00     0.014 A 
ATOM     32  C   UNL A   1      41.592  22.332  28.427  1.00  0.00     0.010 A 
ATOM     33  C   UNL A   1      42.330  23.043  26.240  1.00  0.00     0.010 A 
ATOM     34  C   UNL A   1      42.147  23.323  27.602  1.00  0.00    -0.014 A 
BRANCH  34  35
ATOM     35  C   UNL A   1      42.472  24.672  28.139  1.00  0.00     0.031 A 
ATOM     36  C   UNL A   1      43.894  25.015  28.503  1.00  0.00     0.074 A 
ATOM     37  C   UNL A   1      41.498  25.587  28.311  1.00  0.00     0.049 A 
ATOM     38  N   UNL A   1      44.374  26.124  29.009  1.00  0.00    -0.248 NA
ATOM     39  C   UNL A   1      44.909  23.971  28.285  1.00  0.00     0.031 C 
ATOM     40  C   UNL A   1      40.080  25.377  28.020  1.00  0.00     0.029 A 
ATOM     41  N   UNL A   1      41.555  26.881  28.769  1.00  0.00    -0.354 N 
ATOM     42  C   UNL A   1      45.737  25.907  29.174  1.00  0.00     0.074 A 
ATOM     43  C   UNL A   1      46.002  24.546  28.768  1.00  0.00     0.031 C 
ATOM     44  C   UNL A   1      39.405  26.510  28.278  1.00  0.00     0.029 A 
ATOM     45  C   UNL A   1      40.336  27.516  28.783  1.00  0.00     0.049 A 
ATOM     46  H   UNL A   1      42.390  27.313  29.061  1.00  0.00     0.167 HD
ATOM     47  C   UNL A   1      46.689  26.773  29.595  1.00  0.00     0.037 A 
ATOM     48  C   UNL A   1      40.006  28.768  29.160  1.00  0.00     0.037 A 
ATOM     49  C   UNL A   1      46.437  28.142  29.963  1.00  0.00     0.049 A 
ATOM     50  C   UNL A   1      41.079  29.701  29.650  1.00  0.00     0.074 A 
ATOM     51  C   UNL A   1      47.347  29.107  30.354  1.00  0.00     0.029 A 
ATOM     52  N   UNL A   1      45.186  28.737  29.978  1.00  0.00    -0.354 N 
ATOM     53  N   UNL A   1      42.370  29.493  29.753  1.00  0.00    -0.248 NA
ATOM     54  C   UNL A   1      40.652  31.042  30.076  1.00  0.00     0.031 C 
ATOM     55  C   UNL A   1      46.644  30.279  30.642  1.00  0.00     0.029 A 
ATOM     56  C   UNL A   1      45.300  30.054  30.392  1.00  0.00     0.049 A 
ATOM     57  H   UNL A   1      44.343  28.292  29.730  1.00  0.00     0.167 HD
ATOM     58  C   UNL A   1      42.908  30.681  30.235  1.00  0.00     0.074 A 
ATOM     59  C   UNL A   1      41.810  31.609  30.387  1.00  0.00     0.031 C 
ATOM     60  C   UNL A   1      44.198  30.970  30.530  1.00  0.00     0.037 A 
BRANCH  47  61
ATOM     61  C   UNL A   1      48.105  26.284  29.657  1.00  0.00     0.057 A 
ATOM     62  C   UNL A   1      48.973  26.417  28.565  1.00  0.00     0.134 A 
ATOM     63  C   UNL A   1      48.631  25.753  30.841  1.00  0.00     0.134 A 
ATOM     64  F   UNL A   1      48.528  26.910  27.400  1.00  0.00    -0.206 F 
ATOM     65  C   UNL A   1      50.312  26.031  28.646  1.00  0.00     0.040 A 
ATOM     66  C   UNL A   1      49.974  25.385  30.941  1.00  0.00     0.040 A 
ATOM     67  F   UNL A   1      47.855  25.606  31.925  1.00  0.00    -0.206 F 
ATOM     68  C   UNL A   1      50.818  25.523  29.841  1.00  0.00     0.006 A 
ENDBRANCH  47  61
BRANCH  48  69
ATOM     69  C   UNL A   1      38.595  29.225  29.068  1.00  0.00     0.057 A 
ATOM     70  C   UNL A   1      37.759  29.210  30.190  1.00  0.00     0.134 A 
ATOM     71  C   UNL A   1      38.046  29.674  27.861  1.00  0.00     0.134 A 
ATOM     72  F   UNL A   1      38.221  28.769  31.370  1.00  0.00    -0.206 F 
ATOM     73  C   UNL A   1      36.424  29.609  30.113  1.00  0.00     0.040 A 
ATOM     74  C   UNL A   1      36.719  30.099  27.775  1.00  0.00     0.040 A 
ATOM     75  F   UNL A   1      38.796  29.717  26.750  1.00  0.00    -0.206 F 
ATOM     76  C   UNL A   1      35.902  30.061  28.903  1.00  0.00     0.006 A 
ENDBRANCH  48  69
BRANCH  60  77
ATOM     77  C   UNL A   1      44.505  32.348  31.035  1.00  0.00     0.057 A 
ATOM     78  C   UNL A   1      44.756  33.410  30.159  1.00  0.00     0.134 A 
ATOM     79  C   UNL A   1      44.466  32.633  32.407  1.00  0.00     0.134 A 
ATOM     80  F   UNL A   1      44.815  33.201  28.835  1.00  0.00    -0.206 F 
ATOM     81  C   UNL A   1      44.965  34.708  30.629  1.00  0.00     0.040 A 
ATOM     82  C   UNL A   1      44.650  33.930  32.886  1.00  0.00     0.040 A 
ATOM     83  F   UNL A   1      44.219  31.661  33.298  1.00  0.00    -0.206 F 
ATOM     84  C   UNL A   1      44.902  34.972  31.996  1.00  0.00     0.006 A 
ENDBRANCH  60  77
ENDBRANCH  34  35
ENDBRANCH  26  29
ENDBRANCH  24  25
ENDBRANCH   1  24
TORSDOF 12
ENDMDL
MODEL 2
REMARK VINA RESULT:     -11.9      3.089      8.929
REMARK SMILES Cn1nc(N2CCC(CC(=O)NCCCNC(=O)c3ccc(-c4c5nc(c(-c6c(F)cccc6F)c6ccc([nH]6)c(-c6c(F)cccc6F)c6nc(c(-c7c(F)cccc7F)c7ccc4[nH]7)C=C6)C=C5)cc3)CC2)c(=O)n(C)c1=O
REMARK SMILES IDX 14 1 13 2 12 3 10 4 11 5 9 7 8 8 5 9 6 10 74 11 7 12 73 13
REMARK SMILES IDX 4 14 1 15 2 16 3 17 79 18 77 19 80 20 75 21 78 22 76 23
REMARK SMILES IDX 15 24 16 25 17 26 18 28 19 29 20 30 72 31 21 32 71 33 22 34
REMARK SMILES IDX 23 35 24 36 65 37 25 38 70 39 64 40 66 41 26 42 69 43 63 44
REMARK SMILES IDX 62 45 27 47 53 48 36 49 52 50 37 51 40 52 51 53 67 54 38 55
REMARK SMILES IDX 39 56 50 58 68 59 41 60 28 61 29 62 34 63 30 64 31 65 33 66
REMARK SMILES IDX 35 67 32 68 54 69 55 70 60 71 56 72 57 73 59 74 61 75 58 76
REMARK SMILES IDX 42 77 43 78 48 79 44 80 45 81 47 82 49 83 46 84
REMARK H PARENT 12 6 16 27 66 46 40 57
REMARK Flexibility Score: inf
ROOT
ATOM      1  C   UNL A   1      31.335  31.561  26.281  1.00  0.00     0.042 C 
ENDROOT
BRANCH   1   2
ATOM      2  C   UNL A   1      31.442  30.104  25.821  1.00  0.00     0.117 C 
BRANCH   2   3
ATOM      3  N   UNL A   1      32.153  29.959  24.555  1.00  0.00    -0.356 N 
ATOM      4  C   UNL A   1      33.080  29.051  24.134  1.00  0.00     0.220 C 
ATOM      5  O   UNL A   1      33.526  29.172  22.992  1.00  0.00    -0.275 OA
ATOM      6  H   UNL A   1      31.921  30.640  23.883  1.00  0.00     0.163 HD
BRANCH   4   7
ATOM      7  C   UNL A   1      33.571  27.938  25.043  1.00  0.00     0.103 C 
BRANCH   7   8
ATOM      8  C   UNL A   1      32.759  26.632  24.909  1.00  0.00     0.002 C 
ATOM      9  N   UNL A   1      33.007  23.761  24.838  1.00  0.00    -0.351 N 
ATOM     10  C   UNL A   1      32.722  24.424  23.587  1.00  0.00     0.118 C 
ATOM     11  C   UNL A   1      32.376  24.346  26.009  1.00  0.00     0.118 C 
ATOM     12  C   UNL A   1      33.209  25.857  23.668  1.00  0.00     0.025 C 
ATOM     13  C   UNL A   1      32.899  25.776  26.187  1.00  0.00     0.025 C 
BRANCH   9  14
ATOM     14  C   UNL A   1      33.928  22.732  24.924  1.00  0.00     0.215 A 
ATOM     15  C   UNL A   1      37.471  22.227  25.303  1.00  0.00     0.180 C 
ATOM     16  N   UNL A   1      36.069  21.907  25.094  1.00  0.00    -0.216 N 
ATOM     17  N   UNL A   1      35.205  22.969  25.021  1.00  0.00    -0.145 NA
ATOM     18  C   UNL A   1      35.710  20.568  24.968  1.00  0.00     0.346 A 
ATOM     19  N   UNL A   1      34.364  20.309  24.813  1.00  0.00    -0.259 N 
ATOM     20  O   UNL A   1      36.552  19.667  25.001  1.00  0.00    -0.246 OA
ATOM     21  C   UNL A   1      33.406  21.296  24.850  1.00  0.00     0.299 A 
ATOM     22  C   UNL A   1      33.908  18.949  24.625  1.00  0.00     0.159 C 
ATOM     23  O   UNL A   1      32.194  21.102  24.794  1.00  0.00    -0.265 OA
ENDBRANCH   9  14
ENDBRANCH   7   8
ENDBRANCH   4   7
ENDBRANCH   2   3
ENDBRANCH   1   2
BRANCH   1  24
ATOM     24  C   UNL A   1      32.528  32.056  27.087  1.00  0.00     0.118 C 
BRANCH  24  25
ATOM     25  N   UNL A   1      32.381  33.454  27.445  1.00  0.00    -0.352 N 
ATOM     26  C   UNL A   1      33.064  34.201  28.374  1.00  0.00     0.251 C 
ATOM     27  H   UNL A   1      31.686  33.942  26.945  1.00  0.00     0.163 HD
ATOM     28  O   UNL A   1      32.594  35.278  28.733  1.00  0.00    -0.269 OA
BRANCH  26  29
ATOM     29  C   UNL A   1      34.349  33.738  28.954  1.00  0.00     0.039 A 
ATOM     30  C   UNL A   1      35.527  33.961  28.232  1.00  0.00     0.014 A 
ATOM     31  C   UNL A   1      34.403  32.998  30.140  1.00  0.00     0.014 A 
ATOM     32  C   UNL A   1      36.748  33.464  28.702  1.00  0.00     0.010 A 
ATOM     33  C   UNL A   1      35.632  32.569  30.649  1.00  0.00     0.010 A 
ATOM     34  C   UNL A   1      36.814  32.771  29.922  1.00  0.00    -0.014 A 
BRANCH  34  35
ATOM     35  C   UNL A   1      38.098  32.196  30.406  1.00  0.00     0.031 A 
ATOM     36  C   UNL A   1      38.604  30.896  29.835  1.00  0.00     0.074 A 
ATOM     37  C   UNL A   1      38.807  32.828  31.361  1.00  0.00     0.049 A 
ATOM     38  N   UNL A   1      39.684  30.221  30.144  1.00  0.00    -0.248 NA
ATOM     39  C   UNL A   1      37.782  30.260  28.791  1.00  0.00     0.031 C 
ATOM     40  C   UNL A   1      38.420  34.079  32.012  1.00  0.00     0.029 A 
ATOM     41  N   UNL A   1      40.007  32.506  31.948  1.00  0.00    -0.354 N 
ATOM     42  C   UNL A   1      39.665  29.087  29.341  1.00  0.00     0.074 A 
ATOM     43  C   UNL A   1      38.443  29.132  28.571  1.00  0.00     0.031 C 
ATOM     44  C   UNL A   1      39.377  34.434  32.886  1.00  0.00     0.029 A 
ATOM     45  C   UNL A   1      40.429  33.421  32.882  1.00  0.00     0.049 A 
ATOM     46  H   UNL A   1      40.516  31.694  31.721  1.00  0.00     0.167 HD
ATOM     47  C   UNL A   1      40.597  28.110  29.230  1.00  0.00     0.037 A 
ATOM     48  C   UNL A   1      41.537  33.441  33.649  1.00  0.00     0.037 A 
ATOM     49  C   UNL A   1      41.834  28.080  29.966  1.00  0.00     0.049 A 
ATOM     50  C   UNL A   1      42.543  32.330  33.526  1.00  0.00     0.074 A 
ATOM     51  C   UNL A   1      42.861  27.157  29.882  1.00  0.00     0.029 A 
ATOM     52  N   UNL A   1      42.212  29.018  30.913  1.00  0.00    -0.354 N 
ATOM     53  N   UNL A   1      42.532  31.291  32.726  1.00  0.00    -0.248 NA
ATOM     54  C   UNL A   1      43.716  32.392  34.410  1.00  0.00     0.031 C 
ATOM     55  C   UNL A   1      43.846  27.514  30.805  1.00  0.00     0.029 A 
ATOM     56  C   UNL A   1      43.449  28.683  31.435  1.00  0.00     0.049 A 
ATOM     57  H   UNL A   1      41.681  29.805  31.174  1.00  0.00     0.167 HD
ATOM     58  C   UNL A   1      43.701  30.589  32.997  1.00  0.00     0.074 A 
ATOM     59  C   UNL A   1      44.407  31.329  34.020  1.00  0.00     0.031 C 
ATOM     60  C   UNL A   1      44.145  29.433  32.448  1.00  0.00     0.037 A 
BRANCH  47  61
ATOM     61  C   UNL A   1      40.337  27.000  28.256  1.00  0.00     0.057 A 
ATOM     62  C   UNL A   1      40.962  26.965  27.003  1.00  0.00     0.134 A 
ATOM     63  C   UNL A   1      39.524  25.914  28.604  1.00  0.00     0.134 A 
ATOM     64  F   UNL A   1      41.746  27.979  26.607  1.00  0.00    -0.206 F 
ATOM     65  C   UNL A   1      40.780  25.894  26.126  1.00  0.00     0.040 A 
ATOM     66  C   UNL A   1      39.353  24.827  27.746  1.00  0.00     0.040 A 
ATOM     67  F   UNL A   1      38.903  25.882  29.793  1.00  0.00    -0.206 F 
ATOM     68  C   UNL A   1      39.982  24.816  26.502  1.00  0.00     0.006 A 
ENDBRANCH  47  61
BRANCH  48  69
ATOM     69  C   UNL A   1      41.771  34.567  34.590  1.00  0.00     0.057 A 
ATOM     70  C   UNL A   1      42.460  35.715  34.183  1.00  0.00     0.134 A 
ATOM     71  C   UNL A   1      41.325  34.519  35.916  1.00  0.00     0.134 A 
ATOM     72  F   UNL A   1      42.931  35.811  32.931  1.00  0.00    -0.206 F 
ATOM     73  C   UNL A   1      42.712  36.768  35.064  1.00  0.00     0.040 A 
ATOM     74  C   UNL A   1      41.549  35.575  36.802  1.00  0.00     0.040 A 
ATOM     75  F   UNL A   1      40.655  33.448  36.368  1.00  0.00    -0.206 F 
ATOM     76  C   UNL A   1      42.251  36.701  36.377  1.00  0.00     0.006 A 
ENDBRANCH  48  69
BRANCH  60  77
ATOM     77  C   UNL A   1      45.459  28.894  32.928  1.00  0.00     0.057 A 
ATOM     78  C   UNL A   1      45.530  27.960  33.968  1.00  0.00     0.134 A 
ATOM     79  C   UNL A   1      46.654  29.249  32.290  1.00  0.00     0.134 A 
ATOM     80  F   UNL A   1      44.422  27.587  34.625  1.00  0.00    -0.206 F 
ATOM     81  C   UNL A   1      46.747  27.401  34.363  1.00  0.00     0.040 A 
ATOM     82  C   UNL A   1      47.874  28.679  32.659  1.00  0.00     0.040 A 
ATOM     83  F   UNL A   1      46.652  30.130  31.278  1.00  0.00    -0.206 F 
ATOM     84  C   UNL A   1      47.922  27.753  33.700  1.00  0.00     0.006 A 
ENDBRANCH  60  77
ENDBRANCH  34  35
ENDBRANCH  26  29
ENDBRANCH  24  25
ENDBRANCH   1  24
TORSDOF 12
ENDMDL
MODEL 3
REMARK VINA RESULT:     -11.9      0.796      1.953
REMARK SMILES Cn1nc(N2CCC(CC(=O)NCCCNC(=O)c3ccc(-c4c5nc(c(-c6c(F)cccc6F)c6ccc([nH]6)c(-c6c(F)cccc6F)c6nc(c(-c7c(F)cccc7F)c7ccc4[nH]7)C=C6)C=C5)cc3)CC2)c(=O)n(C)c1=O
REMARK SMILES IDX 14 1 13 2 12 3 10 4 11 5 9 7 8 8 5 9 6 10 74 11 7 12 73 13
REMARK SMILES IDX 4 14 1 15 2 16 3 17 79 18 77 19 80 20 75 21 78 22 76 23
REMARK SMILES IDX 15 24 16 25 17 26 18 28 19 29 20 30 72 31 21 32 71 33 22 34
REMARK SMILES IDX 23 35 24 36 65 37 25 38 70 39 64 40 66 41 26 42 69 43 63 44
REMARK SMILES IDX 62 45 27 47 53 48 36 49 52 50 37 51 40 52 51 53 67 54 38 55
REMARK SMILES IDX 39 56 50 58 68 59 41 60 28 61 29 62 34 63 30 64 31 65 33 66
REMARK SMILES IDX 35 67 32 68 54 69 55 70 60 71 56 72 57 73 59 74 61 75 58 76
REMARK SMILES IDX 42 77 43 78 48 79 44 80 45 81 47 82 49 83 46 84
REMARK H PARENT 12 6 16 27 66 46 40 57
REMARK Flexibility Score: inf
ROOT
ATOM      1  C   UNL A   1      37.411  19.548  24.984  1.00  0.00     0.042 C 
ENDROOT
BRANCH   1   2
ATOM      2  C   UNL A   1      36.178  20.456  24.947  1.00  0.00     0.117 C 
BRANCH   2   3
ATOM      3  N   UNL A   1      34.926  19.717  25.073  1.00  0.00    -0.356 N 
ATOM      4  C   UNL A   1      33.633  20.074  24.823  1.00  0.00     0.220 C 
ATOM      5  O   UNL A   1      32.754  19.234  25.026  1.00  0.00    -0.275 OA
ATOM      6  H   UNL A   1      35.033  18.793  25.396  1.00  0.00     0.163 HD
BRANCH   4   7
ATOM      7  C   UNL A   1      33.274  21.466  24.334  1.00  0.00     0.103 C 
BRANCH   7   8
ATOM      8  C   UNL A   1      33.353  22.544  25.436  1.00  0.00     0.002 C 
ATOM      9  N   UNL A   1      32.714  25.294  26.021  1.00  0.00    -0.351 N 
ATOM     10  C   UNL A   1      34.107  24.976  25.807  1.00  0.00     0.118 C 
ATOM     11  C   UNL A   1      31.942  24.270  26.705  1.00  0.00     0.118 C 
ATOM     12  C   UNL A   1      34.202  23.725  24.958  1.00  0.00     0.025 C 
ATOM     13  C   UNL A   1      31.935  23.001  25.845  1.00  0.00     0.025 C 
BRANCH   9  14
ATOM     14  C   UNL A   1      32.134  26.429  25.483  1.00  0.00     0.215 A 
ATOM     15  C   UNL A   1      30.333  27.479  22.549  1.00  0.00     0.180 C 
ATOM     16  N   UNL A   1      31.028  27.574  23.821  1.00  0.00    -0.216 N 
ATOM     17  N   UNL A   1      31.578  26.415  24.305  1.00  0.00    -0.145 NA
ATOM     18  C   UNL A   1      31.101  28.818  24.442  1.00  0.00     0.346 A 
ATOM     19  N   UNL A   1      31.733  28.853  25.667  1.00  0.00    -0.259 N 
ATOM     20  O   UNL A   1      30.617  29.828  23.924  1.00  0.00    -0.246 OA
ATOM     21  C   UNL A   1      32.209  27.724  26.293  1.00  0.00     0.299 A 
ATOM     22  C   UNL A   1      31.896  30.113  26.360  1.00  0.00     0.159 C 
ATOM     23  O   UNL A   1      32.709  27.699  27.416  1.00  0.00    -0.265 OA
ENDBRANCH   9  14
ENDBRANCH   7   8
ENDBRANCH   4   7
ENDBRANCH   2   3
ENDBRANCH   1   2
BRANCH   1  24
ATOM     24  C   UNL A   1      38.704  20.259  25.361  1.00  0.00     0.118 C 
BRANCH  24  25
ATOM     25  N   UNL A   1      39.762  19.310  25.652  1.00  0.00    -0.352 N 
ATOM     26  C   UNL A   1      41.061  19.534  26.043  1.00  0.00     0.251 C 
ATOM     27  H   UNL A   1      39.512  18.363  25.557  1.00  0.00     0.163 HD
ATOM     28  O   UNL A   1      41.875  18.619  25.952  1.00  0.00    -0.269 OA
BRANCH  26  29
ATOM     29  C   UNL A   1      41.502  20.851  26.567  1.00  0.00     0.039 A 
ATOM     30  C   UNL A   1      41.377  21.100  27.939  1.00  0.00     0.014 A 
ATOM     31  C   UNL A   1      41.933  21.877  25.721  1.00  0.00     0.014 A 
ATOM     32  C   UNL A   1      41.700  22.358  28.459  1.00  0.00     0.010 A 
ATOM     33  C   UNL A   1      42.329  23.109  26.251  1.00  0.00     0.010 A 
ATOM     34  C   UNL A   1      42.189  23.373  27.621  1.00  0.00    -0.014 A 
BRANCH  34  35
ATOM     35  C   UNL A   1      42.488  24.729  28.156  1.00  0.00     0.031 A 
ATOM     36  C   UNL A   1      43.904  25.101  28.517  1.00  0.00     0.074 A 
ATOM     37  C   UNL A   1      41.497  25.625  28.329  1.00  0.00     0.049 A 
ATOM     38  N   UNL A   1      44.362  26.219  29.021  1.00  0.00    -0.248 NA
ATOM     39  C   UNL A   1      44.939  24.076  28.299  1.00  0.00     0.031 C 
ATOM     40  C   UNL A   1      40.082  25.386  28.041  1.00  0.00     0.029 A 
ATOM     41  N   UNL A   1      41.528  26.920  28.785  1.00  0.00    -0.354 N 
ATOM     42  C   UNL A   1      45.730  26.030  29.183  1.00  0.00     0.074 A 
ATOM     43  C   UNL A   1      46.021  24.674  28.779  1.00  0.00     0.031 C 
ATOM     44  C   UNL A   1      39.386  26.506  28.298  1.00  0.00     0.029 A 
ATOM     45  C   UNL A   1      40.297  27.531  28.801  1.00  0.00     0.049 A 
ATOM     46  H   UNL A   1      42.356  27.368  29.075  1.00  0.00     0.167 HD
ATOM     47  C   UNL A   1      46.665  26.916  29.602  1.00  0.00     0.037 A 
ATOM     48  C   UNL A   1      39.943  28.776  29.177  1.00  0.00     0.037 A 
ATOM     49  C   UNL A   1      46.387  28.279  29.969  1.00  0.00     0.049 A 
ATOM     50  C   UNL A   1      40.998  29.731  29.664  1.00  0.00     0.074 A 
ATOM     51  C   UNL A   1      47.278  29.263  30.357  1.00  0.00     0.029 A 
ATOM     52  N   UNL A   1      45.124  28.850  29.985  1.00  0.00    -0.354 N 
ATOM     53  N   UNL A   1      42.293  29.549  29.765  1.00  0.00    -0.248 NA
ATOM     54  C   UNL A   1      40.545  31.063  30.089  1.00  0.00     0.031 C 
ATOM     55  C   UNL A   1      46.552  30.421  30.645  1.00  0.00     0.029 A 
ATOM     56  C   UNL A   1      45.212  30.168  30.397  1.00  0.00     0.049 A 
ATOM     57  H   UNL A   1      44.290  28.387  29.740  1.00  0.00     0.167 HD
ATOM     58  C   UNL A   1      42.809  30.747  30.245  1.00  0.00     0.074 A 
ATOM     59  C   UNL A   1      41.692  31.654  30.398  1.00  0.00     0.031 C 
ATOM     60  C   UNL A   1      44.093  31.063  30.537  1.00  0.00     0.037 A 
BRANCH  47  61
ATOM     61  C   UNL A   1      48.091  26.454  29.661  1.00  0.00     0.057 A 
ATOM     62  C   UNL A   1      48.591  25.765  30.774  1.00  0.00     0.134 A 
ATOM     63  C   UNL A   1      48.948  26.624  28.567  1.00  0.00     0.134 A 
ATOM     64  F   UNL A   1      47.823  25.577  31.858  1.00  0.00    -0.206 F 
ATOM     65  C   UNL A   1      49.895  25.269  30.800  1.00  0.00     0.040 A 
ATOM     66  C   UNL A   1      50.246  26.113  28.571  1.00  0.00     0.040 A 
ATOM     67  F   UNL A   1      48.528  27.268  27.467  1.00  0.00    -0.206 F 
ATOM     68  C   UNL A   1      50.724  25.434  29.691  1.00  0.00     0.006 A 
ENDBRANCH  47  61
BRANCH  48  69
ATOM     69  C   UNL A   1      38.523  29.205  29.088  1.00  0.00     0.057 A 
ATOM     70  C   UNL A   1      37.995  29.703  27.891  1.00  0.00     0.134 A 
ATOM     71  C   UNL A   1      37.666  29.140  30.193  1.00  0.00     0.134 A 
ATOM     72  F   UNL A   1      38.773  29.811  26.804  1.00  0.00    -0.206 F 
ATOM     73  C   UNL A   1      36.672  30.137  27.801  1.00  0.00     0.040 A 
ATOM     74  C   UNL A   1      36.333  29.548  30.110  1.00  0.00     0.040 A 
ATOM     75  F   UNL A   1      38.110  28.668  31.368  1.00  0.00    -0.206 F 
ATOM     76  C   UNL A   1      35.835  30.054  28.912  1.00  0.00     0.006 A 
ENDBRANCH  48  69
BRANCH  60  77
ATOM     77  C   UNL A   1      44.373  32.447  31.040  1.00  0.00     0.057 A 
ATOM     78  C   UNL A   1      44.555  33.523  30.162  1.00  0.00     0.134 A 
ATOM     79  C   UNL A   1      44.378  32.722  32.414  1.00  0.00     0.134 A 
ATOM     80  F   UNL A   1      44.569  33.323  28.836  1.00  0.00    -0.206 F 
ATOM     81  C   UNL A   1      44.739  34.824  30.633  1.00  0.00     0.040 A 
ATOM     82  C   UNL A   1      44.537  34.022  32.896  1.00  0.00     0.040 A 
ATOM     83  F   UNL A   1      44.198  31.737  33.307  1.00  0.00    -0.206 F 
ATOM     84  C   UNL A   1      44.720  35.077  32.004  1.00  0.00     0.006 A 
ENDBRANCH  60  77
ENDBRANCH  34  35
ENDBRANCH  26  29
ENDBRANCH  24  25
ENDBRANCH   1  24
TORSDOF 12
ENDMDL
