MODEL 1
REMARK VINA RESULT:     -11.4      0.000      0.000
REMARK SMILES CCc1cc(C[NH+]2CCC(CC(=O)NCCCNC(=O)c3ccc(-c4c5nc(c(-c6c(F)cccc6F)c6ccc([nH]6)c(-c6c(F)cccc6F)c6nc(c(-c7c(F)cccc7F)c7ccc4[nH]7)C=C6)C=C5)cc3)CC2)n(C)n1
REMARK SMILES IDX 15 1 14 2 12 3 13 4 11 6 10 7 7 8 8 9 76 10 9 12 75 13 6 14
REMARK SMILES IDX 5 15 3 16 4 17 79 18 77 19 78 20 2 21 1 22 16 23 17 24 18 25
REMARK SMILES IDX 19 26 20 28 21 29 22 30 74 31 23 32 73 33 24 34 25 35 26 36
REMARK SMILES IDX 67 37 27 38 72 39 66 40 68 41 28 42 71 43 65 44 64 45 29 47
REMARK SMILES IDX 55 48 38 49 54 50 39 51 42 52 53 53 69 54 40 55 41 56 52 58
REMARK SMILES IDX 70 59 43 60 30 61 31 62 36 63 32 64 33 65 35 66 37 67 34 68
REMARK SMILES IDX 56 69 57 70 62 71 58 72 59 73 61 74 63 75 60 76 44 77 45 78
REMARK SMILES IDX 50 79 46 80 47 81 49 82 51 83 48 84
REMARK H PARENT 14 5 7 11 18 27 68 46 42 57
REMARK Flexibility Score: inf
ROOT
ATOM      1  C   UNL A   1      35.965  20.400  24.973  1.00  0.00     0.117 C 
ENDROOT
BRANCH   1   2
ATOM      2  N   UNL A   1      34.744  19.663  25.279  1.00  0.00    -0.356 N 
ATOM      3  C   UNL A   1      33.453  19.843  24.870  1.00  0.00     0.220 C 
ATOM      4  O   UNL A   1      32.610  19.029  25.254  1.00  0.00    -0.275 OA
ATOM      5  H   UNL A   1      34.873  18.901  25.888  1.00  0.00     0.163 HD
BRANCH   3   6
ATOM      6  C   UNL A   1      33.049  21.029  24.009  1.00  0.00     0.104 C 
BRANCH   6   7
ATOM      7  C   UNL A   1      32.757  22.288  24.844  1.00  0.00     0.009 C 
ATOM      8  N   UNL A   1      30.959  24.592  25.245  1.00  0.00    -0.330 N 
ATOM      9  C   UNL A   1      32.274  24.785  24.633  1.00  0.00     0.262 C 
ATOM     10  C   UNL A   1      31.010  23.513  26.240  1.00  0.00     0.262 C 
ATOM     11  H   UNL A   1      30.307  24.294  24.519  1.00  0.00     0.348 HD
ATOM     12  C   UNL A   1      32.747  23.521  23.949  1.00  0.00     0.066 C 
ATOM     13  C   UNL A   1      31.417  22.182  25.588  1.00  0.00     0.066 C 
BRANCH   8  14
ATOM     14  C   UNL A   1      30.396  25.852  25.768  1.00  0.00     0.319 C 
BRANCH  14  15
ATOM     15  C   UNL A   1      30.291  26.930  24.741  1.00  0.00     0.093 A 
ATOM     16  C   UNL A   1      29.513  28.414  23.286  1.00  0.00     0.063 A 
ATOM     17  C   UNL A   1      29.369  27.082  23.725  1.00  0.00     0.055 A 
ATOM     18  N   UNL A   1      30.566  29.003  23.861  1.00  0.00    -0.178 NA
ATOM     19  N   UNL A   1      31.047  28.078  24.716  1.00  0.00    -0.267 N 
ATOM     20  C   UNL A   1      32.164  28.464  25.548  1.00  0.00     0.174 C 
BRANCH  16  21
ATOM     21  C   UNL A   1      28.576  29.153  22.389  1.00  0.00     0.055 C 
ATOM     22  C   UNL A   1      27.785  30.265  23.056  1.00  0.00     0.011 C 
ENDBRANCH  16  21
ENDBRANCH  14  15
ENDBRANCH   8  14
ENDBRANCH   6   7
ENDBRANCH   3   6
ENDBRANCH   1   2
BRANCH   1  23
ATOM     23  C   UNL A   1      37.222  19.521  24.941  1.00  0.00     0.042 C 
BRANCH  23  24
ATOM     24  C   UNL A   1      38.514  20.233  25.326  1.00  0.00     0.118 C 
BRANCH  24  25
ATOM     25  N   UNL A   1      39.575  19.286  25.615  1.00  0.00    -0.352 N 
ATOM     26  C   UNL A   1      40.874  19.500  26.011  1.00  0.00     0.251 C 
ATOM     27  H   UNL A   1      39.325  18.340  25.511  1.00  0.00     0.163 HD
ATOM     28  O   UNL A   1      41.678  18.575  25.922  1.00  0.00    -0.269 OA
BRANCH  26  29
ATOM     29  C   UNL A   1      41.334  20.813  26.534  1.00  0.00     0.039 A 
ATOM     30  C   UNL A   1      41.204  21.065  27.906  1.00  0.00     0.014 A 
ATOM     31  C   UNL A   1      41.793  21.833  25.695  1.00  0.00     0.014 A 
ATOM     32  C   UNL A   1      41.561  22.311  28.435  1.00  0.00     0.010 A 
ATOM     33  C   UNL A   1      42.213  23.054  26.232  1.00  0.00     0.010 A 
ATOM     34  C   UNL A   1      42.089  23.313  27.605  1.00  0.00    -0.014 A 
BRANCH  34  35
ATOM     35  C   UNL A   1      42.492  24.635  28.157  1.00  0.00     0.031 A 
ATOM     36  C   UNL A   1      41.467  25.719  28.375  1.00  0.00     0.074 A 
ATOM     37  C   UNL A   1      43.788  24.886  28.422  1.00  0.00     0.049 A 
ATOM     38  N   UNL A   1      41.638  26.950  28.788  1.00  0.00    -0.248 NA
ATOM     39  C   UNL A   1      40.068  25.381  28.071  1.00  0.00     0.031 C 
ATOM     40  C   UNL A   1      44.890  23.944  28.223  1.00  0.00     0.029 A 
ATOM     41  N   UNL A   1      44.402  26.017  28.906  1.00  0.00    -0.354 N 
ATOM     42  C   UNL A   1      40.380  27.538  28.771  1.00  0.00     0.074 A 
ATOM     43  C   UNL A   1      39.456  26.538  28.276  1.00  0.00     0.031 C 
ATOM     44  C   UNL A   1      46.042  24.529  28.592  1.00  0.00     0.029 A 
ATOM     45  C   UNL A   1      45.766  25.897  29.022  1.00  0.00     0.049 A 
ATOM     46  H   UNL A   1      43.911  26.835  29.147  1.00  0.00     0.167 HD
ATOM     47  C   UNL A   1      40.019  28.787  29.150  1.00  0.00     0.037 A 
ATOM     48  C   UNL A   1      46.693  26.790  29.419  1.00  0.00     0.037 A 
ATOM     49  C   UNL A   1      40.924  29.772  29.682  1.00  0.00     0.049 A 
ATOM     50  C   UNL A   1      46.265  28.167  29.845  1.00  0.00     0.074 A 
ATOM     51  C   UNL A   1      40.634  31.037  30.166  1.00  0.00     0.029 A 
ATOM     52  N   UNL A   1      42.294  29.604  29.802  1.00  0.00    -0.354 N 
ATOM     53  N   UNL A   1      45.061  28.682  29.888  1.00  0.00    -0.248 NA
ATOM     54  C   UNL A   1      47.326  29.086  30.282  1.00  0.00     0.031 C 
ATOM     55  C   UNL A   1      41.833  31.647  30.547  1.00  0.00     0.029 A 
ATOM     56  C   UNL A   1      42.865  30.749  30.334  1.00  0.00     0.049 A 
ATOM     57  H   UNL A   1      42.788  28.791  29.549  1.00  0.00     0.167 HD
ATOM     58  C   UNL A   1      45.216  29.973  30.373  1.00  0.00     0.074 A 
ATOM     59  C   UNL A   1      46.629  30.160  30.626  1.00  0.00     0.031 C 
ATOM     60  C   UNL A   1      44.272  30.921  30.586  1.00  0.00     0.037 A 
BRANCH  47  61
ATOM     61  C   UNL A   1      38.574  29.168  29.010  1.00  0.00     0.057 A 
ATOM     62  C   UNL A   1      37.689  29.107  30.093  1.00  0.00     0.134 A 
ATOM     63  C   UNL A   1      38.079  29.657  27.794  1.00  0.00     0.134 A 
ATOM     64  F   UNL A   1      38.100  28.641  31.282  1.00  0.00    -0.206 F 
ATOM     65  C   UNL A   1      36.355  29.501  29.967  1.00  0.00     0.040 A 
ATOM     66  C   UNL A   1      36.753  30.074  27.663  1.00  0.00     0.040 A 
ATOM     67  F   UNL A   1      38.878  29.749  26.720  1.00  0.00    -0.206 F 
ATOM     68  C   UNL A   1      35.887  29.993  28.750  1.00  0.00     0.006 A 
ENDBRANCH  47  61
BRANCH  48  69
ATOM     69  C   UNL A   1      48.127  26.408  29.444  1.00  0.00     0.057 A 
ATOM     70  C   UNL A   1      48.690  25.789  30.566  1.00  0.00     0.134 A 
ATOM     71  C   UNL A   1      48.969  26.665  28.356  1.00  0.00     0.134 A 
ATOM     72  F   UNL A   1      47.936  25.535  31.645  1.00  0.00    -0.206 F 
ATOM     73  C   UNL A   1      50.045  25.457  30.613  1.00  0.00     0.040 A 
ATOM     74  C   UNL A   1      50.320  26.320  28.381  1.00  0.00     0.040 A 
ATOM     75  F   UNL A   1      48.485  27.247  27.249  1.00  0.00    -0.206 F 
ATOM     76  C   UNL A   1      50.863  25.720  29.516  1.00  0.00     0.006 A 
ENDBRANCH  48  69
BRANCH  60  77
ATOM     77  C   UNL A   1      44.732  32.235  31.142  1.00  0.00     0.057 A 
ATOM     78  C   UNL A   1      44.836  32.453  32.522  1.00  0.00     0.134 A 
ATOM     79  C   UNL A   1      45.106  33.281  30.290  1.00  0.00     0.134 A 
ATOM     80  F   UNL A   1      44.479  31.494  33.391  1.00  0.00    -0.206 F 
ATOM     81  C   UNL A   1      45.282  33.672  33.035  1.00  0.00     0.040 A 
ATOM     82  C   UNL A   1      45.573  34.497  30.791  1.00  0.00     0.040 A 
ATOM     83  F   UNL A   1      45.035  33.133  28.959  1.00  0.00    -0.206 F 
ATOM     84  C   UNL A   1      45.658  34.696  32.167  1.00  0.00     0.006 A 
ENDBRANCH  60  77
ENDBRANCH  34  35
ENDBRANCH  26  29
ENDBRANCH  24  25
ENDBRANCH  23  24
ENDBRANCH   1  23
TORSDOF 14
ENDMDL
MODEL 2
REMARK VINA RESULT:     -11.1      3.816      9.137
REMARK SMILES CCc1cc(C[NH+]2CCC(CC(=O)NCCCNC(=O)c3ccc(-c4c5nc(c(-c6c(F)cccc6F)c6ccc([nH]6)c(-c6c(F)cccc6F)c6nc(c(-c7c(F)cccc7F)c7ccc4[nH]7)C=C6)C=C5)cc3)CC2)n(C)n1
REMARK SMILES IDX 15 1 14 2 12 3 13 4 11 6 10 7 7 8 8 9 76 10 9 12 75 13 6 14
REMARK SMILES IDX 5 15 3 16 4 17 79 18 77 19 78 20 2 21 1 22 16 23 17 24 18 25
REMARK SMILES IDX 19 26 20 28 21 29 22 30 74 31 23 32 73 33 24 34 25 35 26 36
REMARK SMILES IDX 67 37 27 38 72 39 66 40 68 41 28 42 71 43 65 44 64 45 29 47
REMARK SMILES IDX 55 48 38 49 54 50 39 51 42 52 53 53 69 54 40 55 41 56 52 58
REMARK SMILES IDX 70 59 43 60 30 61 31 62 36 63 32 64 33 65 35 66 37 67 34 68
REMARK SMILES IDX 56 69 57 70 62 71 58 72 59 73 61 74 63 75 60 76 44 77 45 78
REMARK SMILES IDX 50 79 46 80 47 81 49 82 51 83 48 84
REMARK H PARENT 14 5 7 11 18 27 68 46 42 57
REMARK Flexibility Score: inf
ROOT
ATOM      1  C   UNL A   1      31.126  30.169  25.215  1.00  0.00     0.117 C 
ENDROOT
BRANCH   1   2
ATOM      2  N   UNL A   1      30.644  30.086  23.842  1.00  0.00    -0.356 N 
ATOM      3  C   UNL A   1      30.155  29.036  23.116  1.00  0.00     0.220 C 
ATOM      4  O   UNL A   1      29.769  29.261  21.967  1.00  0.00    -0.275 OA
ATOM      5  H   UNL A   1      30.675  30.937  23.349  1.00  0.00     0.163 HD
BRANCH   3   6
ATOM      6  C   UNL A   1      30.127  27.624  23.680  1.00  0.00     0.104 C 
BRANCH   6   7
ATOM      7  C   UNL A   1      31.468  26.891  23.494  1.00  0.00     0.009 C 
ATOM      8  N   UNL A   1      32.806  24.276  23.232  1.00  0.00    -0.330 N 
ATOM      9  C   UNL A   1      32.906  25.030  24.482  1.00  0.00     0.262 C 
ATOM     10  C   UNL A   1      32.744  25.191  22.085  1.00  0.00     0.262 C 
ATOM     11  H   UNL A   1      31.931  23.752  23.241  1.00  0.00     0.348 HD
ATOM     12  C   UNL A   1      31.715  25.945  24.662  1.00  0.00     0.066 C 
ATOM     13  C   UNL A   1      31.509  26.102  22.176  1.00  0.00     0.066 C 
BRANCH   8  14
ATOM     14  C   UNL A   1      33.862  23.251  23.112  1.00  0.00     0.319 C 
BRANCH  14  15
ATOM     15  C   UNL A   1      33.510  21.954  23.762  1.00  0.00     0.093 A 
ATOM     16  C   UNL A   1      32.894  19.853  24.123  1.00  0.00     0.063 A 
ATOM     17  C   UNL A   1      32.579  21.009  23.380  1.00  0.00     0.055 A 
ATOM     18  N   UNL A   1      33.840  20.104  25.032  1.00  0.00    -0.178 NA
ATOM     19  N   UNL A   1      34.179  21.392  24.823  1.00  0.00    -0.267 N 
ATOM     20  C   UNL A   1      35.252  21.931  25.627  1.00  0.00     0.174 C 
BRANCH  16  21
ATOM     21  C   UNL A   1      32.356  18.481  23.887  1.00  0.00     0.055 C 
ATOM     22  C   UNL A   1      33.401  17.382  23.799  1.00  0.00     0.011 C 
ENDBRANCH  16  21
ENDBRANCH  14  15
ENDBRANCH   8  14
ENDBRANCH   6   7
ENDBRANCH   3   6
ENDBRANCH   1   2
BRANCH   1  23
ATOM     23  C   UNL A   1      31.027  31.576  25.817  1.00  0.00     0.042 C 
BRANCH  23  24
ATOM     24  C   UNL A   1      32.080  31.899  26.872  1.00  0.00     0.118 C 
BRANCH  24  25
ATOM     25  N   UNL A   1      32.084  33.312  27.202  1.00  0.00    -0.352 N 
ATOM     26  C   UNL A   1      32.915  34.029  28.029  1.00  0.00     0.251 C 
ATOM     27  H   UNL A   1      31.379  33.842  26.763  1.00  0.00     0.163 HD
ATOM     28  O   UNL A   1      32.566  35.153  28.387  1.00  0.00    -0.269 OA
BRANCH  26  29
ATOM     29  C   UNL A   1      34.213  33.488  28.508  1.00  0.00     0.039 A 
ATOM     30  C   UNL A   1      34.216  32.682  29.653  1.00  0.00     0.014 A 
ATOM     31  C   UNL A   1      35.431  33.836  27.917  1.00  0.00     0.014 A 
ATOM     32  C   UNL A   1      35.422  32.204  30.180  1.00  0.00     0.010 A 
ATOM     33  C   UNL A   1      36.630  33.304  28.402  1.00  0.00     0.010 A 
ATOM     34  C   UNL A   1      36.641  32.494  29.548  1.00  0.00    -0.014 A 
BRANCH  34  35
ATOM     35  C   UNL A   1      37.929  31.976  30.086  1.00  0.00     0.031 A 
ATOM     36  C   UNL A   1      38.525  30.700  29.550  1.00  0.00     0.074 A 
ATOM     37  C   UNL A   1      38.546  32.624  31.093  1.00  0.00     0.049 A 
ATOM     38  N   UNL A   1      39.602  30.062  29.937  1.00  0.00    -0.248 NA
ATOM     39  C   UNL A   1      37.805  30.042  28.449  1.00  0.00     0.031 C 
ATOM     40  C   UNL A   1      38.063  33.849  31.732  1.00  0.00     0.029 A 
ATOM     41  N   UNL A   1      39.710  32.337  31.764  1.00  0.00    -0.354 N 
ATOM     42  C   UNL A   1      39.677  28.923  29.146  1.00  0.00     0.074 A 
ATOM     43  C   UNL A   1      38.518  28.937  28.278  1.00  0.00     0.031 C 
ATOM     44  C   UNL A   1      38.927  34.214  32.694  1.00  0.00     0.029 A 
ATOM     45  C   UNL A   1      40.008  33.234  32.761  1.00  0.00     0.049 A 
ATOM     46  H   UNL A   1      40.277  31.561  31.551  1.00  0.00     0.167 HD
ATOM     47  C   UNL A   1      40.631  27.962  29.127  1.00  0.00     0.037 A 
ATOM     48  C   UNL A   1      41.028  33.261  33.639  1.00  0.00     0.037 A 
ATOM     49  C   UNL A   1      41.807  27.962  29.957  1.00  0.00     0.049 A 
ATOM     50  C   UNL A   1      42.080  32.187  33.591  1.00  0.00     0.074 A 
ATOM     51  C   UNL A   1      42.867  27.071  29.951  1.00  0.00     0.029 A 
ATOM     52  N   UNL A   1      42.081  28.900  30.940  1.00  0.00    -0.354 N 
ATOM     53  N   UNL A   1      42.170  31.155  32.789  1.00  0.00    -0.248 NA
ATOM     54  C   UNL A   1      43.175  32.286  34.568  1.00  0.00     0.031 C 
ATOM     55  C   UNL A   1      43.765  27.449  30.953  1.00  0.00     0.029 A 
ATOM     56  C   UNL A   1      43.282  28.597  31.560  1.00  0.00     0.049 A 
ATOM     57  H   UNL A   1      41.507  29.668  31.163  1.00  0.00     0.167 HD
ATOM     58  C   UNL A   1      43.337  30.494  33.150  1.00  0.00     0.074 A 
ATOM     59  C   UNL A   1      43.931  31.249  34.232  1.00  0.00     0.031 C 
ATOM     60  C   UNL A   1      43.866  29.360  32.632  1.00  0.00     0.037 A 
BRANCH  47  61
ATOM     61  C   UNL A   1      40.451  26.820  28.170  1.00  0.00     0.057 A 
ATOM     62  C   UNL A   1      41.138  26.765  26.952  1.00  0.00     0.134 A 
ATOM     63  C   UNL A   1      39.626  25.736  28.498  1.00  0.00     0.134 A 
ATOM     64  F   UNL A   1      41.938  27.775  26.576  1.00  0.00    -0.206 F 
ATOM     65  C   UNL A   1      40.998  25.680  26.084  1.00  0.00     0.040 A 
ATOM     66  C   UNL A   1      39.495  24.637  27.648  1.00  0.00     0.040 A 
ATOM     67  F   UNL A   1      38.946  25.723  29.655  1.00  0.00    -0.206 F 
ATOM     68  C   UNL A   1      40.179  24.609  26.435  1.00  0.00     0.006 A 
ENDBRANCH  47  61
BRANCH  48  69
ATOM     69  C   UNL A   1      41.115  34.352  34.642  1.00  0.00     0.057 A 
ATOM     70  C   UNL A   1      40.570  34.201  35.922  1.00  0.00     0.134 A 
ATOM     71  C   UNL A   1      41.731  35.572  34.340  1.00  0.00     0.134 A 
ATOM     72  F   UNL A   1      39.951  33.061  36.262  1.00  0.00    -0.206 F 
ATOM     73  C   UNL A   1      40.616  35.234  36.861  1.00  0.00     0.040 A 
ATOM     74  C   UNL A   1      41.802  36.605  35.275  1.00  0.00     0.040 A 
ATOM     75  F   UNL A   1      42.281  35.772  33.133  1.00  0.00    -0.206 F 
ATOM     76  C   UNL A   1      41.237  36.439  36.538  1.00  0.00     0.006 A 
ENDBRANCH  48  69
BRANCH  60  77
ATOM     77  C   UNL A   1      45.163  28.880  33.211  1.00  0.00     0.057 A 
ATOM     78  C   UNL A   1      45.201  27.970  34.275  1.00  0.00     0.134 A 
ATOM     79  C   UNL A   1      46.386  29.306  32.677  1.00  0.00     0.134 A 
ATOM     80  F   UNL A   1      44.064  27.536  34.839  1.00  0.00    -0.206 F 
ATOM     81  C   UNL A   1      46.411  27.513  34.799  1.00  0.00     0.040 A 
ATOM     82  C   UNL A   1      47.601  28.840  33.180  1.00  0.00     0.040 A 
ATOM     83  F   UNL A   1      46.417  30.172  31.654  1.00  0.00    -0.206 F 
ATOM     84  C   UNL A   1      47.616  27.944  34.246  1.00  0.00     0.006 A 
ENDBRANCH  60  77
ENDBRANCH  34  35
ENDBRANCH  26  29
ENDBRANCH  24  25
ENDBRANCH  23  24
ENDBRANCH   1  23
TORSDOF 14
ENDMDL
MODEL 3
REMARK VINA RESULT:     -11.1      3.170      7.785
REMARK SMILES CCc1cc(C[NH+]2CCC(CC(=O)NCCCNC(=O)c3ccc(-c4c5nc(c(-c6c(F)cccc6F)c6ccc([nH]6)c(-c6c(F)cccc6F)c6nc(c(-c7c(F)cccc7F)c7ccc4[nH]7)C=C6)C=C5)cc3)CC2)n(C)n1
REMARK SMILES IDX 15 1 14 2 12 3 13 4 11 6 10 7 7 8 8 9 76 10 9 12 75 13 6 14
REMARK SMILES IDX 5 15 3 16 4 17 79 18 77 19 78 20 2 21 1 22 16 23 17 24 18 25
REMARK SMILES IDX 19 26 20 28 21 29 22 30 74 31 23 32 73 33 24 34 25 35 26 36
REMARK SMILES IDX 67 37 27 38 72 39 66 40 68 41 28 42 71 43 65 44 64 45 29 47
REMARK SMILES IDX 55 48 38 49 54 50 39 51 42 52 53 53 69 54 40 55 41 56 52 58
REMARK SMILES IDX 70 59 43 60 30 61 31 62 36 63 32 64 33 65 35 66 37 67 34 68
REMARK SMILES IDX 56 69 57 70 62 71 58 72 59 73 61 74 63 75 60 76 44 77 45 78
REMARK SMILES IDX 50 79 46 80 47 81 49 82 51 83 48 84
REMARK H PARENT 14 5 7 11 18 27 68 46 42 57
REMARK Flexibility Score: inf
ROOT
ATOM      1  C   UNL A   1      41.958  19.547  26.247  1.00  0.00     0.117 C 
ENDROOT
BRANCH   1   2
ATOM      2  N   UNL A   1      42.690  20.646  26.867  1.00  0.00    -0.356 N 
ATOM      3  C   UNL A   1      42.275  21.667  27.674  1.00  0.00     0.220 C 
ATOM      4  O   UNL A   1      43.130  22.445  28.101  1.00  0.00    -0.275 OA
ATOM      5  H   UNL A   1      43.654  20.653  26.669  1.00  0.00     0.163 HD
BRANCH   3   6
ATOM      6  C   UNL A   1      40.805  21.873  28.004  1.00  0.00     0.104 C 
BRANCH   6   7
ATOM      7  C   UNL A   1      40.028  22.522  26.844  1.00  0.00     0.009 C 
ATOM      8  N   UNL A   1      37.372  23.237  25.780  1.00  0.00    -0.330 N 
ATOM      9  C   UNL A   1      38.109  22.105  25.216  1.00  0.00     0.262 C 
ATOM     10  C   UNL A   1      38.301  24.289  26.214  1.00  0.00     0.262 C 
ATOM     11  H   UNL A   1      36.878  22.916  26.613  1.00  0.00     0.348 HD
ATOM     12  C   UNL A   1      39.063  21.516  26.232  1.00  0.00     0.066 C 
ATOM     13  C   UNL A   1      39.252  23.767  27.302  1.00  0.00     0.066 C 
BRANCH   8  14
ATOM     14  C   UNL A   1      36.313  23.721  24.873  1.00  0.00     0.319 C 
BRANCH  14  15
ATOM     15  C   UNL A   1      35.041  24.066  25.573  1.00  0.00     0.093 A 
ATOM     16  C   UNL A   1      33.089  24.973  26.116  1.00  0.00     0.063 A 
ATOM     17  C   UNL A   1      34.381  25.277  25.639  1.00  0.00     0.055 A 
ATOM     18  N   UNL A   1      32.999  23.693  26.488  1.00  0.00    -0.178 NA
ATOM     19  N   UNL A   1      34.202  23.165  26.183  1.00  0.00    -0.267 N 
ATOM     20  C   UNL A   1      34.379  21.749  26.411  1.00  0.00     0.174 C 
BRANCH  16  21
ATOM     21  C   UNL A   1      31.912  25.890  26.116  1.00  0.00     0.055 C 
ATOM     22  C   UNL A   1      32.194  27.305  26.592  1.00  0.00     0.011 C 
ENDBRANCH  16  21
ENDBRANCH  14  15
ENDBRANCH   8  14
ENDBRANCH   6   7
ENDBRANCH   3   6
ENDBRANCH   1   2
BRANCH   1  23
ATOM     23  C   UNL A   1      42.754  18.238  26.180  1.00  0.00     0.042 C 
BRANCH  23  24
ATOM     24  C   UNL A   1      44.259  18.409  26.001  1.00  0.00     0.118 C 
BRANCH  24  25
ATOM     25  N   UNL A   1      44.617  18.511  24.598  1.00  0.00    -0.352 N 
ATOM     26  C   UNL A   1      44.780  19.618  23.801  1.00  0.00     0.251 C 
ATOM     27  H   UNL A   1      44.769  17.650  24.147  1.00  0.00     0.163 HD
ATOM     28  O   UNL A   1      44.803  19.468  22.580  1.00  0.00    -0.269 OA
BRANCH  26  29
ATOM     29  C   UNL A   1      44.922  20.985  24.366  1.00  0.00     0.039 A 
ATOM     30  C   UNL A   1      44.241  22.037  23.741  1.00  0.00     0.014 A 
ATOM     31  C   UNL A   1      45.786  21.269  25.428  1.00  0.00     0.014 A 
ATOM     32  C   UNL A   1      44.396  23.352  24.196  1.00  0.00     0.010 A 
ATOM     33  C   UNL A   1      45.889  22.571  25.925  1.00  0.00     0.010 A 
ATOM     34  C   UNL A   1      45.208  23.631  25.307  1.00  0.00    -0.014 A 
BRANCH  34  35
ATOM     35  C   UNL A   1      45.367  25.021  25.814  1.00  0.00     0.031 A 
ATOM     36  C   UNL A   1      46.715  25.694  25.794  1.00  0.00     0.074 A 
ATOM     37  C   UNL A   1      44.309  25.671  26.337  1.00  0.00     0.049 A 
ATOM     38  N   UNL A   1      47.058  26.875  26.248  1.00  0.00    -0.248 NA
ATOM     39  C   UNL A   1      47.828  24.935  25.205  1.00  0.00     0.031 C 
ATOM     40  C   UNL A   1      42.955  25.126  26.455  1.00  0.00     0.029 A 
ATOM     41  N   UNL A   1      44.209  26.928  26.882  1.00  0.00    -0.354 N 
ATOM     42  C   UNL A   1      48.424  26.989  26.021  1.00  0.00     0.074 A 
ATOM     43  C   UNL A   1      48.855  25.745  25.418  1.00  0.00     0.031 C 
ATOM     44  C   UNL A   1      42.159  26.046  27.023  1.00  0.00     0.029 A 
ATOM     45  C   UNL A   1      42.949  27.232  27.340  1.00  0.00     0.049 A 
ATOM     46  H   UNL A   1      44.968  27.552  26.939  1.00  0.00     0.167 HD
ATOM     47  C   UNL A   1      49.243  28.038  26.273  1.00  0.00     0.037 A 
ATOM     48  C   UNL A   1      42.484  28.336  27.955  1.00  0.00     0.037 A 
ATOM     49  C   UNL A   1      48.814  29.293  26.833  1.00  0.00     0.049 A 
ATOM     50  C   UNL A   1      43.411  29.491  28.213  1.00  0.00     0.074 A 
ATOM     51  C   UNL A   1      49.559  30.440  27.049  1.00  0.00     0.029 A 
ATOM     52  N   UNL A   1      47.526  29.567  27.264  1.00  0.00    -0.354 N 
ATOM     53  N   UNL A   1      44.685  29.607  27.929  1.00  0.00    -0.248 NA
ATOM     54  C   UNL A   1      42.835  30.671  28.875  1.00  0.00     0.031 C 
ATOM     55  C   UNL A   1      48.730  31.397  27.643  1.00  0.00     0.029 A 
ATOM     56  C   UNL A   1      47.460  30.858  27.764  1.00  0.00     0.049 A 
ATOM     57  H   UNL A   1      46.770  28.939  27.220  1.00  0.00     0.167 HD
ATOM     58  C   UNL A   1      45.057  30.875  28.357  1.00  0.00     0.074 A 
ATOM     59  C   UNL A   1      43.871  31.497  28.906  1.00  0.00     0.031 C 
ATOM     60  C   UNL A   1      46.273  31.468  28.302  1.00  0.00     0.037 A 
BRANCH  47  61
ATOM     61  C   UNL A   1      50.697  27.882  25.939  1.00  0.00     0.057 A 
ATOM     62  C   UNL A   1      51.176  28.057  24.634  1.00  0.00     0.134 A 
ATOM     63  C   UNL A   1      51.637  27.612  26.942  1.00  0.00     0.134 A 
ATOM     64  F   UNL A   1      50.326  28.311  23.627  1.00  0.00    -0.206 F 
ATOM     65  C   UNL A   1      52.535  27.951  24.336  1.00  0.00     0.040 A 
ATOM     66  C   UNL A   1      53.001  27.526  26.659  1.00  0.00     0.040 A 
ATOM     67  F   UNL A   1      51.244  27.442  28.214  1.00  0.00    -0.206 F 
ATOM     68  C   UNL A   1      53.453  27.692  25.352  1.00  0.00     0.006 A 
ENDBRANCH  47  61
BRANCH  48  69
ATOM     69  C   UNL A   1      41.060  28.410  28.366  1.00  0.00     0.057 A 
ATOM     70  C   UNL A   1      40.653  27.993  29.639  1.00  0.00     0.134 A 
ATOM     71  C   UNL A   1      40.074  28.886  27.495  1.00  0.00     0.134 A 
ATOM     72  F   UNL A   1      41.551  27.510  30.510  1.00  0.00    -0.206 F 
ATOM     73  C   UNL A   1      39.311  28.027  30.023  1.00  0.00     0.040 A 
ATOM     74  C   UNL A   1      38.732  28.944  27.873  1.00  0.00     0.040 A 
ATOM     75  F   UNL A   1      40.403  29.310  26.266  1.00  0.00    -0.206 F 
ATOM     76  C   UNL A   1      38.347  28.507  29.139  1.00  0.00     0.006 A 
ENDBRANCH  48  69
BRANCH  60  77
ATOM     77  C   UNL A   1      46.378  32.869  28.827  1.00  0.00     0.057 A 
ATOM     78  C   UNL A   1      46.722  33.130  30.159  1.00  0.00     0.134 A 
ATOM     79  C   UNL A   1      46.167  33.967  27.983  1.00  0.00     0.134 A 
ATOM     80  F   UNL A   1      46.923  32.121  31.020  1.00  0.00    -0.206 F 
ATOM     81  C   UNL A   1      46.837  34.436  30.638  1.00  0.00     0.040 A 
ATOM     82  C   UNL A   1      46.299  35.276  28.446  1.00  0.00     0.040 A 
ATOM     83  F   UNL A   1      45.841  33.783  26.696  1.00  0.00    -0.206 F 
ATOM     84  C   UNL A   1      46.630  35.513  29.779  1.00  0.00     0.006 A 
ENDBRANCH  60  77
ENDBRANCH  34  35
ENDBRANCH  26  29
ENDBRANCH  24  25
ENDBRANCH  23  24
ENDBRANCH   1  23
TORSDOF 14
ENDMDL
