MODEL 1
REMARK VINA RESULT:     -13.3      0.000      0.000
REMARK SMILES Cc1ccc(NC(=O)[C@H]2CC(Cl)=CC[C@@H]2C(=O)NCCCNC(=O)c2ccc(-c3c4nc(c(-c5c(F)cccc5F)c5ccc([nH]5)c(-c5c(F)cccc5F)c5nc(c(-c6c(F)cccc6F)c6ccc3[nH]6)C=C5)C=C4)cc2)cc1[N+](=O)[O-]
REMARK SMILES IDX 19 1 18 2 16 3 17 4 15 6 9 7 10 8 11 9 14 10 12 11 13 12
REMARK SMILES IDX 7 13 6 14 8 16 5 17 1 18 2 19 3 20 80 21 4 22 79 23 81 24
REMARK SMILES IDX 82 25 83 26 20 27 21 28 22 29 23 30 24 32 25 33 26 34 78 35
REMARK SMILES IDX 27 36 77 37 28 38 29 39 30 40 71 41 31 42 76 43 70 44 72 45
REMARK SMILES IDX 32 46 75 47 69 48 68 49 33 51 59 52 42 53 58 54 43 55 46 56
REMARK SMILES IDX 57 57 73 58 44 59 45 60 56 62 74 63 47 64 34 65 35 66 40 67
REMARK SMILES IDX 36 68 37 69 39 70 41 71 38 72 60 73 61 74 66 75 62 76 63 77
REMARK SMILES IDX 65 78 67 79 64 80 48 81 49 82 54 83 50 84 51 85 53 86 55 87
REMARK SMILES IDX 52 88
REMARK H PARENT 18 5 6 15 22 31 72 50 46 61
REMARK Flexibility Score: inf
ROOT
ATOM      1  C   UNL A   1      33.914  29.148  27.255  1.00  0.00     0.117 C 
ENDROOT
BRANCH   1   2
ATOM      2  N   UNL A   1      32.671  28.407  27.116  1.00  0.00    -0.356 N 
ATOM      3  C   UNL A   1      32.385  27.212  26.534  1.00  0.00     0.224 C 
ATOM      4  O   UNL A   1      31.242  26.776  26.710  1.00  0.00    -0.275 OA
ATOM      5  H   UNL A   1      31.891  28.854  27.517  1.00  0.00     0.163 HD
BRANCH   3   6
ATOM      6  C   UNL A   1      33.390  26.453  25.659  1.00  0.00     0.095 C 
ATOM      7  C   UNL A   1      32.984  26.614  24.176  1.00  0.00     0.097 C 
ATOM      8  C   UNL A   1      33.762  25.680  23.242  1.00  0.00     0.062 C 
ATOM      9  C   UNL A   1      33.636  24.266  23.692  1.00  0.00     0.015 C 
ATOM     10  C   UNL A   1      33.356  24.955  26.083  1.00  0.00     0.043 C 
ATOM     11  Cl  UNL A   1      33.668  23.060  22.462  1.00  0.00    -0.089 Cl
ATOM     12  C   UNL A   1      33.448  23.939  24.976  1.00  0.00    -0.010 C 
BRANCH   7  13
ATOM     13  C   UNL A   1      33.216  28.024  23.669  1.00  0.00     0.228 C 
ATOM     14  N   UNL A   1      32.235  28.730  23.031  1.00  0.00    -0.326 N 
ATOM     15  H   UNL A   1      32.523  29.560  22.586  1.00  0.00     0.169 HD
ATOM     16  O   UNL A   1      34.282  28.609  23.891  1.00  0.00    -0.274 OA
BRANCH  14  17
ATOM     17  C   UNL A   1      30.876  28.420  22.931  1.00  0.00     0.048 A 
ATOM     18  C   UNL A   1      26.603  28.217  23.520  1.00  0.00     0.052 C 
ATOM     19  C   UNL A   1      28.064  28.243  23.180  1.00  0.00     0.027 A 
ATOM     20  C   UNL A   1      28.883  27.178  23.568  1.00  0.00     0.012 A 
ATOM     21  C   UNL A   1      28.704  29.319  22.561  1.00  0.00     0.274 A 
ATOM     22  C   UNL A   1      30.277  27.262  23.428  1.00  0.00     0.027 A 
ATOM     23  C   UNL A   1      30.084  29.410  22.389  1.00  0.00     0.112 A 
BRANCH  21  24
ATOM     24  N   UNL A   1      27.978  30.457  22.101  1.00  0.00     0.063 N 
ATOM     25  O   UNL A   1      27.643  31.282  22.966  1.00  0.00    -0.258 OA
ATOM     26  O   UNL A   1      27.896  30.579  20.874  1.00  0.00    -0.258 OA
ENDBRANCH  21  24
ENDBRANCH  14  17
ENDBRANCH   7  13
ENDBRANCH   3   6
ENDBRANCH   1   2
BRANCH   1  27
ATOM     27  C   UNL A   1      33.695  30.641  27.506  1.00  0.00     0.042 C 
BRANCH  27  28
ATOM     28  C   UNL A   1      34.985  31.465  27.636  1.00  0.00     0.118 C 
BRANCH  28  29
ATOM     29  N   UNL A   1      35.300  31.825  29.017  1.00  0.00    -0.352 N 
ATOM     30  C   UNL A   1      36.253  31.310  29.885  1.00  0.00     0.251 C 
ATOM     31  H   UNL A   1      34.749  32.549  29.392  1.00  0.00     0.163 HD
ATOM     32  O   UNL A   1      36.470  31.870  30.943  1.00  0.00    -0.269 OA
BRANCH  30  33
ATOM     33  C   UNL A   1      37.079  30.142  29.485  1.00  0.00     0.039 A 
ATOM     34  C   UNL A   1      37.207  29.080  30.389  1.00  0.00     0.014 A 
ATOM     35  C   UNL A   1      37.791  30.116  28.290  1.00  0.00     0.014 A 
ATOM     36  C   UNL A   1      38.222  28.136  30.210  1.00  0.00     0.010 A 
ATOM     37  C   UNL A   1      38.834  29.210  28.138  1.00  0.00     0.010 A 
ATOM     38  C   UNL A   1      39.117  28.276  29.145  1.00  0.00    -0.014 A 
BRANCH  38  39
ATOM     39  C   UNL A   1      40.485  27.735  29.225  1.00  0.00     0.031 A 
ATOM     40  C   UNL A   1      40.972  26.515  28.543  1.00  0.00     0.074 A 
ATOM     41  C   UNL A   1      41.434  28.528  29.783  1.00  0.00     0.049 A 
ATOM     42  N   UNL A   1      42.026  25.865  28.930  1.00  0.00    -0.248 NA
ATOM     43  C   UNL A   1      40.344  25.934  27.363  1.00  0.00     0.031 C 
ATOM     44  C   UNL A   1      42.886  28.438  29.614  1.00  0.00     0.029 A 
ATOM     45  N   UNL A   1      41.266  29.631  30.632  1.00  0.00    -0.354 N 
ATOM     46  C   UNL A   1      42.389  25.021  27.911  1.00  0.00     0.074 A 
ATOM     47  C   UNL A   1      41.265  25.033  26.996  1.00  0.00     0.031 C 
ATOM     48  C   UNL A   1      43.485  29.258  30.487  1.00  0.00     0.029 A 
ATOM     49  C   UNL A   1      42.459  29.768  31.373  1.00  0.00     0.049 A 
ATOM     50  H   UNL A   1      40.467  30.202  30.698  1.00  0.00     0.167 HD
ATOM     51  C   UNL A   1      43.646  24.493  27.849  1.00  0.00     0.037 A 
ATOM     52  C   UNL A   1      42.439  29.594  32.726  1.00  0.00     0.037 A 
ATOM     53  C   UNL A   1      44.538  24.990  28.897  1.00  0.00     0.049 A 
ATOM     54  C   UNL A   1      43.174  28.356  33.198  1.00  0.00     0.074 A 
ATOM     55  C   UNL A   1      45.591  25.892  28.925  1.00  0.00     0.029 A 
ATOM     56  N   UNL A   1      44.233  24.734  30.223  1.00  0.00    -0.354 N 
ATOM     57  N   UNL A   1      43.909  27.596  32.434  1.00  0.00    -0.248 NA
ATOM     58  C   UNL A   1      43.057  27.822  34.557  1.00  0.00     0.031 C 
ATOM     59  C   UNL A   1      45.909  26.175  30.284  1.00  0.00     0.029 A 
ATOM     60  C   UNL A   1      45.043  25.452  31.082  1.00  0.00     0.049 A 
ATOM     61  H   UNL A   1      43.526  24.116  30.518  1.00  0.00     0.167 HD
ATOM     62  C   UNL A   1      44.220  26.449  33.108  1.00  0.00     0.074 A 
ATOM     63  C   UNL A   1      43.713  26.655  34.451  1.00  0.00     0.031 C 
ATOM     64  C   UNL A   1      44.803  25.373  32.512  1.00  0.00     0.037 A 
BRANCH  51  65
ATOM     65  C   UNL A   1      44.108  23.663  26.679  1.00  0.00     0.057 A 
ATOM     66  C   UNL A   1      44.968  24.169  25.688  1.00  0.00     0.134 A 
ATOM     67  C   UNL A   1      43.726  22.321  26.500  1.00  0.00     0.134 A 
ATOM     68  F   UNL A   1      45.477  25.405  25.757  1.00  0.00    -0.206 F 
ATOM     69  C   UNL A   1      45.345  23.427  24.561  1.00  0.00     0.040 A 
ATOM     70  C   UNL A   1      44.054  21.584  25.354  1.00  0.00     0.040 A 
ATOM     71  F   UNL A   1      43.032  21.668  27.445  1.00  0.00    -0.206 F 
ATOM     72  C   UNL A   1      44.862  22.142  24.372  1.00  0.00     0.006 A 
ENDBRANCH  51  65
BRANCH  52  73
ATOM     73  C   UNL A   1      41.214  30.168  33.339  1.00  0.00     0.057 A 
ATOM     74  C   UNL A   1      41.167  31.559  33.543  1.00  0.00     0.134 A 
ATOM     75  C   UNL A   1      39.999  29.478  33.353  1.00  0.00     0.134 A 
ATOM     76  F   UNL A   1      42.298  32.282  33.531  1.00  0.00    -0.206 F 
ATOM     77  C   UNL A   1      39.957  32.249  33.647  1.00  0.00     0.040 A 
ATOM     78  C   UNL A   1      38.781  30.157  33.468  1.00  0.00     0.040 A 
ATOM     79  F   UNL A   1      39.961  28.156  33.132  1.00  0.00    -0.206 F 
ATOM     80  C   UNL A   1      38.757  31.548  33.578  1.00  0.00     0.006 A 
ENDBRANCH  52  73
BRANCH  64  81
ATOM     81  C   UNL A   1      45.184  24.146  33.271  1.00  0.00     0.057 A 
ATOM     82  C   UNL A   1      44.284  23.086  33.446  1.00  0.00     0.134 A 
ATOM     83  C   UNL A   1      46.405  24.048  33.960  1.00  0.00     0.134 A 
ATOM     84  F   UNL A   1      43.079  23.104  32.857  1.00  0.00    -0.206 F 
ATOM     85  C   UNL A   1      44.588  21.981  34.248  1.00  0.00     0.040 A 
ATOM     86  C   UNL A   1      46.705  22.969  34.794  1.00  0.00     0.040 A 
ATOM     87  F   UNL A   1      47.354  24.988  33.835  1.00  0.00    -0.206 F 
ATOM     88  C   UNL A   1      45.796  21.928  34.936  1.00  0.00     0.006 A 
ENDBRANCH  64  81
ENDBRANCH  38  39
ENDBRANCH  30  33
ENDBRANCH  28  29
ENDBRANCH  27  28
ENDBRANCH   1  27
TORSDOF 13
ENDMDL
MODEL 2
REMARK VINA RESULT:     -13.0      4.603      9.656
REMARK SMILES Cc1ccc(NC(=O)[C@H]2CC(Cl)=CC[C@@H]2C(=O)NCCCNC(=O)c2ccc(-c3c4nc(c(-c5c(F)cccc5F)c5ccc([nH]5)c(-c5c(F)cccc5F)c5nc(c(-c6c(F)cccc6F)c6ccc3[nH]6)C=C5)C=C4)cc2)cc1[N+](=O)[O-]
REMARK SMILES IDX 19 1 18 2 16 3 17 4 15 6 9 7 10 8 11 9 14 10 12 11 13 12
REMARK SMILES IDX 7 13 6 14 8 16 5 17 1 18 2 19 3 20 80 21 4 22 79 23 81 24
REMARK SMILES IDX 82 25 83 26 20 27 21 28 22 29 23 30 24 32 25 33 26 34 78 35
REMARK SMILES IDX 27 36 77 37 28 38 29 39 30 40 71 41 31 42 76 43 70 44 72 45
REMARK SMILES IDX 32 46 75 47 69 48 68 49 33 51 59 52 42 53 58 54 43 55 46 56
REMARK SMILES IDX 57 57 73 58 44 59 45 60 56 62 74 63 47 64 34 65 35 66 40 67
REMARK SMILES IDX 36 68 37 69 39 70 41 71 38 72 60 73 61 74 66 75 62 76 63 77
REMARK SMILES IDX 65 78 67 79 64 80 48 81 49 82 54 83 50 84 51 85 53 86 55 87
REMARK SMILES IDX 52 88
REMARK H PARENT 18 5 6 15 22 31 72 50 46 61
REMARK Flexibility Score: inf
ROOT
ATOM      1  C   UNL A   1      37.777  23.328  25.336  1.00  0.00     0.117 C 
ENDROOT
BRANCH   1   2
ATOM      2  N   UNL A   1      36.857  23.096  24.235  1.00  0.00    -0.356 N 
ATOM      3  C   UNL A   1      35.580  23.508  24.014  1.00  0.00     0.224 C 
ATOM      4  O   UNL A   1      35.110  23.261  22.898  1.00  0.00    -0.275 OA
ATOM      5  H   UNL A   1      37.228  22.536  23.515  1.00  0.00     0.163 HD
BRANCH   3   6
ATOM      6  C   UNL A   1      34.731  24.194  25.091  1.00  0.00     0.095 C 
ATOM      7  C   UNL A   1      33.669  23.194  25.603  1.00  0.00     0.097 C 
ATOM      8  C   UNL A   1      32.603  23.857  26.484  1.00  0.00     0.062 C 
ATOM      9  C   UNL A   1      31.975  25.004  25.770  1.00  0.00     0.015 C 
ATOM     10  C   UNL A   1      34.053  25.437  24.443  1.00  0.00     0.043 C 
ATOM     11  Cl  UNL A   1      30.324  25.329  26.141  1.00  0.00    -0.089 Cl
ATOM     12  C   UNL A   1      32.629  25.714  24.845  1.00  0.00    -0.010 C 
BRANCH   7  13
ATOM     13  C   UNL A   1      34.283  22.081  26.431  1.00  0.00     0.228 C 
ATOM     14  N   UNL A   1      33.968  20.769  26.219  1.00  0.00    -0.326 N 
ATOM     15  H   UNL A   1      34.274  20.136  26.908  1.00  0.00     0.169 HD
ATOM     16  O   UNL A   1      35.152  22.326  27.274  1.00  0.00    -0.274 OA
BRANCH  14  17
ATOM     17  C   UNL A   1      33.264  20.213  25.146  1.00  0.00     0.048 A 
ATOM     18  C   UNL A   1      32.170  18.414  21.377  1.00  0.00     0.052 C 
ATOM     19  C   UNL A   1      32.426  18.987  22.739  1.00  0.00     0.027 A 
ATOM     20  C   UNL A   1      32.157  20.336  22.983  1.00  0.00     0.012 A 
ATOM     21  C   UNL A   1      33.009  18.275  23.790  1.00  0.00     0.274 A 
ATOM     22  C   UNL A   1      32.560  20.939  24.185  1.00  0.00     0.027 A 
ATOM     23  C   UNL A   1      33.392  18.848  25.002  1.00  0.00     0.112 A 
BRANCH  21  24
ATOM     24  N   UNL A   1      33.315  16.886  23.675  1.00  0.00     0.063 N 
ATOM     25  O   UNL A   1      34.102  16.570  22.768  1.00  0.00    -0.258 OA
ATOM     26  O   UNL A   1      32.888  16.167  24.585  1.00  0.00    -0.258 OA
ENDBRANCH  21  24
ENDBRANCH  14  17
ENDBRANCH   7  13
ENDBRANCH   3   6
ENDBRANCH   1   2
BRANCH   1  27
ATOM     27  C   UNL A   1      38.570  22.080  25.727  1.00  0.00     0.042 C 
BRANCH  27  28
ATOM     28  C   UNL A   1      39.575  22.290  26.869  1.00  0.00     0.118 C 
BRANCH  28  29
ATOM     29  N   UNL A   1      40.894  22.715  26.404  1.00  0.00    -0.352 N 
ATOM     30  C   UNL A   1      41.487  23.970  26.412  1.00  0.00     0.251 C 
ATOM     31  H   UNL A   1      41.450  21.998  26.025  1.00  0.00     0.163 HD
ATOM     32  O   UNL A   1      42.667  24.079  26.135  1.00  0.00    -0.269 OA
BRANCH  30  33
ATOM     33  C   UNL A   1      40.719  25.162  26.855  1.00  0.00     0.039 A 
ATOM     34  C   UNL A   1      40.855  26.347  26.123  1.00  0.00     0.014 A 
ATOM     35  C   UNL A   1      39.950  25.154  28.014  1.00  0.00     0.014 A 
ATOM     36  C   UNL A   1      40.434  27.558  26.680  1.00  0.00     0.010 A 
ATOM     37  C   UNL A   1      39.579  26.362  28.594  1.00  0.00     0.010 A 
ATOM     38  C   UNL A   1      39.907  27.578  27.975  1.00  0.00    -0.014 A 
BRANCH  38  39
ATOM     39  C   UNL A   1      40.009  28.781  28.820  1.00  0.00     0.031 A 
ATOM     40  C   UNL A   1      38.913  29.736  29.095  1.00  0.00     0.074 A 
ATOM     41  C   UNL A   1      41.122  28.909  29.585  1.00  0.00     0.049 A 
ATOM     42  N   UNL A   1      39.123  30.951  29.501  1.00  0.00    -0.248 NA
ATOM     43  C   UNL A   1      37.497  29.414  28.968  1.00  0.00     0.031 C 
ATOM     44  C   UNL A   1      41.292  29.735  30.783  1.00  0.00     0.029 A 
ATOM     45  N   UNL A   1      42.365  28.278  29.437  1.00  0.00    -0.354 N 
ATOM     46  C   UNL A   1      37.933  31.438  29.981  1.00  0.00     0.074 A 
ATOM     47  C   UNL A   1      36.934  30.483  29.547  1.00  0.00     0.031 C 
ATOM     48  C   UNL A   1      42.586  29.754  31.126  1.00  0.00     0.029 A 
ATOM     49  C   UNL A   1      43.324  29.100  30.066  1.00  0.00     0.049 A 
ATOM     50  H   UNL A   1      42.536  27.422  28.981  1.00  0.00     0.167 HD
ATOM     51  C   UNL A   1      37.902  32.520  30.813  1.00  0.00     0.037 A 
ATOM     52  C   UNL A   1      44.305  29.686  29.321  1.00  0.00     0.037 A 
ATOM     53  C   UNL A   1      39.230  33.008  31.184  1.00  0.00     0.049 A 
ATOM     54  C   UNL A   1      44.183  31.192  29.218  1.00  0.00     0.074 A 
ATOM     55  C   UNL A   1      40.005  32.931  32.331  1.00  0.00     0.029 A 
ATOM     56  N   UNL A   1      40.076  33.486  30.197  1.00  0.00    -0.354 N 
ATOM     57  N   UNL A   1      43.335  31.914  29.897  1.00  0.00    -0.248 NA
ATOM     58  C   UNL A   1      44.947  31.997  28.262  1.00  0.00     0.031 C 
ATOM     59  C   UNL A   1      41.324  33.365  32.018  1.00  0.00     0.029 A 
ATOM     60  C   UNL A   1      41.354  33.698  30.677  1.00  0.00     0.049 A 
ATOM     61  H   UNL A   1      39.799  33.656  29.267  1.00  0.00     0.167 HD
ATOM     62  C   UNL A   1      43.320  33.184  29.393  1.00  0.00     0.074 A 
ATOM     63  C   UNL A   1      44.383  33.207  28.407  1.00  0.00     0.031 C 
ATOM     64  C   UNL A   1      42.395  34.115  29.755  1.00  0.00     0.037 A 
BRANCH  51  65
ATOM     65  C   UNL A   1      36.623  33.000  31.451  1.00  0.00     0.057 A 
ATOM     66  C   UNL A   1      35.705  33.823  30.774  1.00  0.00     0.134 A 
ATOM     67  C   UNL A   1      36.247  32.648  32.760  1.00  0.00     0.134 A 
ATOM     68  F   UNL A   1      35.886  34.184  29.498  1.00  0.00    -0.206 F 
ATOM     69  C   UNL A   1      34.550  34.330  31.383  1.00  0.00     0.040 A 
ATOM     70  C   UNL A   1      35.122  33.187  33.398  1.00  0.00     0.040 A 
ATOM     71  F   UNL A   1      36.952  31.749  33.463  1.00  0.00    -0.206 F 
ATOM     72  C   UNL A   1      34.271  34.041  32.710  1.00  0.00     0.006 A 
ENDBRANCH  51  65
BRANCH  52  73
ATOM     73  C   UNL A   1      44.811  28.778  28.260  1.00  0.00     0.057 A 
ATOM     74  C   UNL A   1      45.728  27.777  28.630  1.00  0.00     0.134 A 
ATOM     75  C   UNL A   1      44.145  28.617  27.042  1.00  0.00     0.134 A 
ATOM     76  F   UNL A   1      46.392  27.866  29.793  1.00  0.00    -0.206 F 
ATOM     77  C   UNL A   1      45.895  26.614  27.874  1.00  0.00     0.040 A 
ATOM     78  C   UNL A   1      44.314  27.462  26.271  1.00  0.00     0.040 A 
ATOM     79  F   UNL A   1      43.233  29.512  26.639  1.00  0.00    -0.206 F 
ATOM     80  C   UNL A   1      45.160  26.441  26.705  1.00  0.00     0.006 A 
ENDBRANCH  52  73
BRANCH  64  81
ATOM     81  C   UNL A   1      42.422  35.514  29.235  1.00  0.00     0.057 A 
ATOM     82  C   UNL A   1      41.576  35.923  28.195  1.00  0.00     0.134 A 
ATOM     83  C   UNL A   1      43.382  36.447  29.662  1.00  0.00     0.134 A 
ATOM     84  F   UNL A   1      40.649  35.091  27.695  1.00  0.00    -0.206 F 
ATOM     85  C   UNL A   1      41.668  37.196  27.623  1.00  0.00     0.040 A 
ATOM     86  C   UNL A   1      43.509  37.706  29.074  1.00  0.00     0.040 A 
ATOM     87  F   UNL A   1      44.218  36.173  30.675  1.00  0.00    -0.206 F 
ATOM     88  C   UNL A   1      42.647  38.087  28.053  1.00  0.00     0.006 A 
ENDBRANCH  64  81
ENDBRANCH  38  39
ENDBRANCH  30  33
ENDBRANCH  28  29
ENDBRANCH  27  28
ENDBRANCH   1  27
TORSDOF 13
ENDMDL
MODEL 3
REMARK VINA RESULT:     -12.9      1.867      3.640
REMARK SMILES Cc1ccc(NC(=O)[C@H]2CC(Cl)=CC[C@@H]2C(=O)NCCCNC(=O)c2ccc(-c3c4nc(c(-c5c(F)cccc5F)c5ccc([nH]5)c(-c5c(F)cccc5F)c5nc(c(-c6c(F)cccc6F)c6ccc3[nH]6)C=C5)C=C4)cc2)cc1[N+](=O)[O-]
REMARK SMILES IDX 19 1 18 2 16 3 17 4 15 6 9 7 10 8 11 9 14 10 12 11 13 12
REMARK SMILES IDX 7 13 6 14 8 16 5 17 1 18 2 19 3 20 80 21 4 22 79 23 81 24
REMARK SMILES IDX 82 25 83 26 20 27 21 28 22 29 23 30 24 32 25 33 26 34 78 35
REMARK SMILES IDX 27 36 77 37 28 38 29 39 30 40 71 41 31 42 76 43 70 44 72 45
REMARK SMILES IDX 32 46 75 47 69 48 68 49 33 51 59 52 42 53 58 54 43 55 46 56
REMARK SMILES IDX 57 57 73 58 44 59 45 60 56 62 74 63 47 64 34 65 35 66 40 67
REMARK SMILES IDX 36 68 37 69 39 70 41 71 38 72 60 73 61 74 66 75 62 76 63 77
REMARK SMILES IDX 65 78 67 79 64 80 48 81 49 82 54 83 50 84 51 85 53 86 55 87
REMARK SMILES IDX 52 88
REMARK H PARENT 18 5 6 15 22 31 72 50 46 61
REMARK Flexibility Score: inf
ROOT
ATOM      1  C   UNL A   1      32.108  29.518  26.784  1.00  0.00     0.117 C 
ENDROOT
BRANCH   1   2
ATOM      2  N   UNL A   1      32.850  28.268  26.774  1.00  0.00    -0.356 N 
ATOM      3  C   UNL A   1      33.134  27.385  25.779  1.00  0.00     0.224 C 
ATOM      4  O   UNL A   1      33.921  26.476  26.060  1.00  0.00    -0.275 OA
ATOM      5  H   UNL A   1      33.216  28.012  27.652  1.00  0.00     0.163 HD
BRANCH   3   6
ATOM      6  C   UNL A   1      32.483  27.462  24.393  1.00  0.00     0.095 C 
ATOM      7  C   UNL A   1      31.914  26.072  24.029  1.00  0.00     0.097 C 
ATOM      8  C   UNL A   1      31.483  25.970  22.561  1.00  0.00     0.062 C 
ATOM      9  C   UNL A   1      32.604  26.354  21.659  1.00  0.00     0.015 C 
ATOM     10  C   UNL A   1      33.580  27.894  23.375  1.00  0.00     0.043 C 
ATOM     11  Cl  UNL A   1      32.664  25.566  20.128  1.00  0.00    -0.089 Cl
ATOM     12  C   UNL A   1      33.554  27.220  22.029  1.00  0.00    -0.010 C 
BRANCH   7  13
ATOM     13  C   UNL A   1      30.698  25.715  24.863  1.00  0.00     0.228 C 
ATOM     14  N   UNL A   1      30.440  24.429  25.245  1.00  0.00    -0.326 N 
ATOM     15  H   UNL A   1      29.549  24.265  25.630  1.00  0.00     0.169 HD
ATOM     16  O   UNL A   1      29.945  26.596  25.290  1.00  0.00    -0.274 OA
BRANCH  14  17
ATOM     17  C   UNL A   1      31.283  23.317  25.157  1.00  0.00     0.048 A 
ATOM     18  C   UNL A   1      34.668  20.701  24.575  1.00  0.00     0.052 C 
ATOM     19  C   UNL A   1      33.437  21.508  24.864  1.00  0.00     0.027 A 
ATOM     20  C   UNL A   1      32.390  21.526  23.938  1.00  0.00     0.012 A 
ATOM     21  C   UNL A   1      33.287  22.334  25.980  1.00  0.00     0.274 A 
ATOM     22  C   UNL A   1      31.314  22.414  24.095  1.00  0.00     0.027 A 
ATOM     23  C   UNL A   1      32.214  23.203  26.168  1.00  0.00     0.112 A 
BRANCH  21  24
ATOM     24  N   UNL A   1      34.276  22.390  27.007  1.00  0.00     0.063 N 
ATOM     25  O   UNL A   1      34.184  21.538  27.906  1.00  0.00    -0.258 OA
ATOM     26  O   UNL A   1      35.206  23.179  26.811  1.00  0.00    -0.258 OA
ENDBRANCH  21  24
ENDBRANCH  14  17
ENDBRANCH   7  13
ENDBRANCH   3   6
ENDBRANCH   1   2
BRANCH   1  27
ATOM     27  C   UNL A   1      32.934  30.699  27.297  1.00  0.00     0.042 C 
BRANCH  27  28
ATOM     28  C   UNL A   1      34.409  30.377  27.576  1.00  0.00     0.118 C 
BRANCH  28  29
ATOM     29  N   UNL A   1      34.984  31.192  28.644  1.00  0.00    -0.352 N 
ATOM     30  C   UNL A   1      36.193  31.068  29.316  1.00  0.00     0.251 C 
ATOM     31  H   UNL A   1      34.426  31.948  28.934  1.00  0.00     0.163 HD
ATOM     32  O   UNL A   1      36.562  31.958  30.059  1.00  0.00    -0.269 OA
BRANCH  30  33
ATOM     33  C   UNL A   1      37.082  29.908  29.055  1.00  0.00     0.039 A 
ATOM     34  C   UNL A   1      37.250  28.959  30.071  1.00  0.00     0.014 A 
ATOM     35  C   UNL A   1      37.813  29.789  27.878  1.00  0.00     0.014 A 
ATOM     36  C   UNL A   1      38.313  28.055  30.007  1.00  0.00     0.010 A 
ATOM     37  C   UNL A   1      38.903  28.926  27.836  1.00  0.00     0.010 A 
ATOM     38  C   UNL A   1      39.216  28.123  28.943  1.00  0.00    -0.014 A 
BRANCH  38  39
ATOM     39  C   UNL A   1      40.609  27.665  29.096  1.00  0.00     0.031 A 
ATOM     40  C   UNL A   1      41.213  26.500  28.412  1.00  0.00     0.074 A 
ATOM     41  C   UNL A   1      41.468  28.497  29.735  1.00  0.00     0.049 A 
ATOM     42  N   UNL A   1      42.281  25.905  28.848  1.00  0.00    -0.248 NA
ATOM     43  C   UNL A   1      40.698  25.919  27.178  1.00  0.00     0.031 C 
ATOM     44  C   UNL A   1      42.931  28.502  29.657  1.00  0.00     0.029 A 
ATOM     45  N   UNL A   1      41.178  29.561  30.601  1.00  0.00    -0.354 N 
ATOM     46  C   UNL A   1      42.759  25.117  27.831  1.00  0.00     0.074 A 
ATOM     47  C   UNL A   1      41.696  25.089  26.847  1.00  0.00     0.031 C 
ATOM     48  C   UNL A   1      43.421  29.330  30.588  1.00  0.00     0.029 A 
ATOM     49  C   UNL A   1      42.311  29.748  31.421  1.00  0.00     0.049 A 
ATOM     50  H   UNL A   1      40.341  30.079  30.632  1.00  0.00     0.167 HD
ATOM     51  C   UNL A   1      44.049  24.670  27.836  1.00  0.00     0.037 A 
ATOM     52  C   UNL A   1      42.219  29.531  32.764  1.00  0.00     0.037 A 
ATOM     53  C   UNL A   1      44.840  25.188  28.952  1.00  0.00     0.049 A 
ATOM     54  C   UNL A   1      43.000  28.326  33.248  1.00  0.00     0.074 A 
ATOM     55  C   UNL A   1      45.830  26.152  29.072  1.00  0.00     0.029 A 
ATOM     56  N   UNL A   1      44.470  24.872  30.248  1.00  0.00    -0.354 N 
ATOM     57  N   UNL A   1      43.827  27.637  32.512  1.00  0.00    -0.248 NA
ATOM     58  C   UNL A   1      42.832  27.743  34.581  1.00  0.00     0.031 C 
ATOM     59  C   UNL A   1      46.044  26.411  30.455  1.00  0.00     0.029 A 
ATOM     60  C   UNL A   1      45.178  25.611  31.177  1.00  0.00     0.049 A 
ATOM     61  H   UNL A   1      43.787  24.202  30.479  1.00  0.00     0.167 HD
ATOM     62  C   UNL A   1      44.169  26.490  33.172  1.00  0.00     0.074 A 
ATOM     63  C   UNL A   1      43.567  26.622  34.485  1.00  0.00     0.031 C 
ATOM     64  C   UNL A   1      44.855  25.472  32.585  1.00  0.00     0.037 A 
BRANCH  51  65
ATOM     65  C   UNL A   1      44.634  23.908  26.674  1.00  0.00     0.057 A 
ATOM     66  C   UNL A   1      44.295  22.571  26.402  1.00  0.00     0.134 A 
ATOM     67  C   UNL A   1      45.547  24.481  25.771  1.00  0.00     0.134 A 
ATOM     68  F   UNL A   1      43.384  21.911  27.127  1.00  0.00    -0.206 F 
ATOM     69  C   UNL A   1      44.886  21.834  25.368  1.00  0.00     0.040 A 
ATOM     70  C   UNL A   1      46.184  23.742  24.764  1.00  0.00     0.040 A 
ATOM     71  F   UNL A   1      45.843  25.789  25.822  1.00  0.00    -0.206 F 
ATOM     72  C   UNL A   1      45.860  22.408  24.564  1.00  0.00     0.006 A 
ENDBRANCH  51  65
BRANCH  52  73
ATOM     73  C   UNL A   1      40.924  30.007  33.313  1.00  0.00     0.057 A 
ATOM     74  C   UNL A   1      40.767  31.388  33.530  1.00  0.00     0.134 A 
ATOM     75  C   UNL A   1      39.761  29.234  33.250  1.00  0.00     0.134 A 
ATOM     76  F   UNL A   1      41.843  32.189  33.590  1.00  0.00    -0.206 F 
ATOM     77  C   UNL A   1      39.508  31.990  33.573  1.00  0.00     0.040 A 
ATOM     78  C   UNL A   1      38.494  29.825  33.304  1.00  0.00     0.040 A 
ATOM     79  F   UNL A   1      39.829  27.917  33.013  1.00  0.00    -0.206 F 
ATOM     80  C   UNL A   1      38.366  31.209  33.427  1.00  0.00     0.006 A 
ENDBRANCH  52  73
BRANCH  64  81
ATOM     81  C   UNL A   1      45.266  24.247  33.333  1.00  0.00     0.057 A 
ATOM     82  C   UNL A   1      44.407  23.146  33.459  1.00  0.00     0.134 A 
ATOM     83  C   UNL A   1      46.467  24.188  34.059  1.00  0.00     0.134 A 
ATOM     84  F   UNL A   1      43.221  23.124  32.832  1.00  0.00    -0.206 F 
ATOM     85  C   UNL A   1      44.734  22.040  34.250  1.00  0.00     0.040 A 
ATOM     86  C   UNL A   1      46.788  23.107  34.881  1.00  0.00     0.040 A 
ATOM     87  F   UNL A   1      47.377  25.171  33.982  1.00  0.00    -0.206 F 
ATOM     88  C   UNL A   1      45.921  22.024  34.975  1.00  0.00     0.006 A 
ENDBRANCH  64  81
ENDBRANCH  38  39
ENDBRANCH  30  33
ENDBRANCH  28  29
ENDBRANCH  27  28
ENDBRANCH   1  27
TORSDOF 13
ENDMDL
