MODEL 1
REMARK VINA RESULT:     -12.9      0.000      0.000
REMARK SMILES CCc1cc(C(=O)c2[nH]c3cc(Cl)ccc3c2CC(=O)NCCCNC(=O)c2ccc(-c3c4nc(c(-c5c(F)cccc5F)c5ccc([nH]5)c(-c5c(F)cccc5F)c5nc(c(-c6c(F)cccc6F)c6ccc3[nH]6)C=C5)C=C4)cc2)ncc1Cl
REMARK SMILES IDX 22 1 21 2 19 3 20 4 18 6 17 7 8 8 9 9 10 10 16 12 11 13
REMARK SMILES IDX 15 14 12 15 14 16 13 17 6 18 7 19 5 20 3 21 4 22 84 23 83 24
REMARK SMILES IDX 85 25 82 26 2 27 1 28 23 29 24 30 25 31 26 32 27 34 28 35
REMARK SMILES IDX 29 36 81 37 30 38 80 39 31 40 32 41 33 42 74 43 34 44 79 45
REMARK SMILES IDX 73 46 75 47 35 48 78 49 72 50 71 51 36 53 62 54 45 55 61 56
REMARK SMILES IDX 46 57 49 58 60 59 76 60 47 61 48 62 59 64 77 65 50 66 37 67
REMARK SMILES IDX 38 68 43 69 39 70 40 71 42 72 44 73 41 74 63 75 64 76 69 77
REMARK SMILES IDX 65 78 66 79 68 80 70 81 67 82 51 83 52 84 57 85 53 86 54 87
REMARK SMILES IDX 56 88 58 89 55 90
REMARK H PARENT 21 5 9 11 25 33 75 52 49 63
REMARK Flexibility Score: inf
ROOT
ATOM      1  C   UNL A   1      32.452  27.219  26.460  1.00  0.00     0.117 C 
ENDROOT
BRANCH   1   2
ATOM      2  N   UNL A   1      31.569  26.133  26.845  1.00  0.00    -0.356 N 
ATOM      3  C   UNL A   1      31.703  24.789  26.654  1.00  0.00     0.224 C 
ATOM      4  O   UNL A   1      30.838  24.037  27.110  1.00  0.00    -0.275 OA
ATOM      5  H   UNL A   1      30.750  26.408  27.317  1.00  0.00     0.163 HD
BRANCH   3   6
ATOM      6  C   UNL A   1      32.905  24.226  25.918  1.00  0.00     0.138 C 
BRANCH   6   7
ATOM      7  C   UNL A   1      32.572  23.650  24.573  1.00  0.00    -0.002 A 
ATOM      8  C   UNL A   1      32.297  24.334  23.392  1.00  0.00     0.093 A 
ATOM      9  N   UNL A   1      32.179  23.400  22.390  1.00  0.00    -0.351 N 
ATOM     10  C   UNL A   1      32.243  22.129  22.902  1.00  0.00     0.048 A 
ATOM     11  H   UNL A   1      32.062  23.614  21.437  1.00  0.00     0.167 HD
ATOM     12  C   UNL A   1      32.494  22.248  24.268  1.00  0.00     0.004 A 
ATOM     13  C   UNL A   1      32.123  20.893  22.253  1.00  0.00     0.047 A 
ATOM     14  C   UNL A   1      32.640  21.067  25.027  1.00  0.00     0.012 A 
ATOM     15  C   UNL A   1      32.265  19.743  23.033  1.00  0.00     0.043 A 
ATOM     16  C   UNL A   1      32.521  19.821  24.399  1.00  0.00     0.021 A 
ATOM     17  Cl  UNL A   1      32.125  18.199  22.283  1.00  0.00    -0.084 Cl
BRANCH   8  18
ATOM     18  C   UNL A   1      32.222  25.756  23.108  1.00  0.00     0.227 C 
ATOM     19  O   UNL A   1      33.222  26.369  22.749  1.00  0.00    -0.285 OA
BRANCH  18  20
ATOM     20  C   UNL A   1      30.864  26.418  23.121  1.00  0.00     0.113 A 
ATOM     21  C   UNL A   1      29.425  28.343  22.772  1.00  0.00    -0.026 A 
ATOM     22  C   UNL A   1      30.676  27.713  22.628  1.00  0.00     0.037 A 
ATOM     23  C   UNL A   1      28.398  27.630  23.399  1.00  0.00     0.062 A 
ATOM     24  C   UNL A   1      28.668  26.342  23.849  1.00  0.00     0.132 A 
ATOM     25  Cl  UNL A   1      26.829  28.289  23.657  1.00  0.00    -0.082 Cl
ATOM     26  N   UNL A   1      29.872  25.730  23.739  1.00  0.00    -0.251 NA
BRANCH  21  27
ATOM     27  C   UNL A   1      29.272  29.773  22.308  1.00  0.00     0.034 C 
ATOM     28  C   UNL A   1      29.247  30.746  23.479  1.00  0.00     0.009 C 
ENDBRANCH  21  27
ENDBRANCH  18  20
ENDBRANCH   8  18
ENDBRANCH   6   7
ENDBRANCH   3   6
ENDBRANCH   1   2
BRANCH   1  29
ATOM     29  C   UNL A   1      31.715  28.477  26.002  1.00  0.00     0.042 C 
BRANCH  29  30
ATOM     30  C   UNL A   1      32.611  29.620  25.529  1.00  0.00     0.118 C 
BRANCH  30  31
ATOM     31  N   UNL A   1      32.116  30.923  25.944  1.00  0.00    -0.352 N 
ATOM     32  C   UNL A   1      32.584  31.775  26.912  1.00  0.00     0.251 C 
ATOM     33  H   UNL A   1      31.323  31.242  25.456  1.00  0.00     0.163 HD
ATOM     34  O   UNL A   1      31.921  32.763  27.218  1.00  0.00    -0.269 OA
BRANCH  32  35
ATOM     35  C   UNL A   1      33.868  31.520  27.606  1.00  0.00     0.039 A 
ATOM     36  C   UNL A   1      34.167  30.206  27.988  1.00  0.00     0.014 A 
ATOM     37  C   UNL A   1      34.734  32.559  27.957  1.00  0.00     0.014 A 
ATOM     38  C   UNL A   1      35.349  29.927  28.677  1.00  0.00     0.010 A 
ATOM     39  C   UNL A   1      35.926  32.278  28.629  1.00  0.00     0.010 A 
ATOM     40  C   UNL A   1      36.242  30.961  28.994  1.00  0.00    -0.014 A 
BRANCH  40  41
ATOM     41  C   UNL A   1      37.501  30.679  29.722  1.00  0.00     0.031 A 
ATOM     42  C   UNL A   1      38.597  29.895  29.062  1.00  0.00     0.074 A 
ATOM     43  C   UNL A   1      37.655  31.106  30.988  1.00  0.00     0.049 A 
ATOM     44  N   UNL A   1      39.700  29.421  29.586  1.00  0.00    -0.248 NA
ATOM     45  C   UNL A   1      38.427  29.597  27.633  1.00  0.00     0.031 C 
ATOM     46  C   UNL A   1      36.674  31.880  31.749  1.00  0.00     0.029 A 
ATOM     47  N   UNL A   1      38.702  30.940  31.859  1.00  0.00    -0.354 N 
ATOM     48  C   UNL A   1      40.333  28.728  28.564  1.00  0.00     0.074 A 
ATOM     49  C   UNL A   1      39.510  28.873  27.380  1.00  0.00     0.031 C 
ATOM     50  C   UNL A   1      37.171  32.132  32.972  1.00  0.00     0.029 A 
ATOM     51  C   UNL A   1      38.493  31.521  33.085  1.00  0.00     0.049 A 
ATOM     52  H   UNL A   1      39.525  30.452  31.627  1.00  0.00     0.167 HD
ATOM     53  C   UNL A   1      41.483  28.016  28.615  1.00  0.00     0.037 A 
ATOM     54  C   UNL A   1      39.276  31.547  34.178  1.00  0.00     0.037 A 
ATOM     55  C   UNL A   1      42.317  27.883  29.778  1.00  0.00     0.049 A 
ATOM     56  C   UNL A   1      40.602  30.849  34.171  1.00  0.00     0.074 A 
ATOM     57  C   UNL A   1      43.452  27.107  29.950  1.00  0.00     0.029 A 
ATOM     58  N   UNL A   1      42.122  28.572  30.963  1.00  0.00    -0.354 N 
ATOM     59  N   UNL A   1      41.139  30.114  33.230  1.00  0.00    -0.248 NA
ATOM     60  C   UNL A   1      41.427  30.980  35.381  1.00  0.00     0.031 C 
ATOM     61  C   UNL A   1      43.957  27.348  31.234  1.00  0.00     0.029 A 
ATOM     62  C   UNL A   1      43.134  28.271  31.857  1.00  0.00     0.049 A 
ATOM     63  H   UNL A   1      41.373  29.186  31.142  1.00  0.00     0.167 HD
ATOM     64  C   UNL A   1      42.353  29.676  33.739  1.00  0.00     0.074 A 
ATOM     65  C   UNL A   1      42.487  30.248  35.063  1.00  0.00     0.031 C 
ATOM     66  C   UNL A   1      43.263  28.856  33.163  1.00  0.00     0.037 A 
BRANCH  53  67
ATOM     67  C   UNL A   1      41.885  27.296  27.370  1.00  0.00     0.057 A 
ATOM     68  C   UNL A   1      42.642  27.925  26.377  1.00  0.00     0.134 A 
ATOM     69  C   UNL A   1      41.524  25.957  27.172  1.00  0.00     0.134 A 
ATOM     70  F   UNL A   1      43.004  29.209  26.509  1.00  0.00    -0.206 F 
ATOM     71  C   UNL A   1      43.025  27.244  25.220  1.00  0.00     0.040 A 
ATOM     72  C   UNL A   1      41.903  25.267  26.020  1.00  0.00     0.040 A 
ATOM     73  F   UNL A   1      40.792  25.308  28.089  1.00  0.00    -0.206 F 
ATOM     74  C   UNL A   1      42.656  25.911  25.041  1.00  0.00     0.006 A 
ENDBRANCH  53  67
BRANCH  54  75
ATOM     75  C   UNL A   1      38.816  32.262  35.387  1.00  0.00     0.057 A 
ATOM     76  C   UNL A   1      39.003  33.641  35.521  1.00  0.00     0.134 A 
ATOM     77  C   UNL A   1      38.179  31.581  36.428  1.00  0.00     0.134 A 
ATOM     78  F   UNL A   1      39.622  34.335  34.555  1.00  0.00    -0.206 F 
ATOM     79  C   UNL A   1      38.571  34.324  36.658  1.00  0.00     0.040 A 
ATOM     80  C   UNL A   1      37.739  32.253  37.569  1.00  0.00     0.040 A 
ATOM     81  F   UNL A   1      37.980  30.258  36.350  1.00  0.00    -0.206 F 
ATOM     82  C   UNL A   1      37.934  33.628  37.685  1.00  0.00     0.006 A 
ENDBRANCH  54  75
BRANCH  66  83
ATOM     83  C   UNL A   1      44.478  28.526  33.968  1.00  0.00     0.057 A 
ATOM     84  C   UNL A   1      45.626  29.325  33.898  1.00  0.00     0.134 A 
ATOM     85  C   UNL A   1      44.498  27.423  34.828  1.00  0.00     0.134 A 
ATOM     86  F   UNL A   1      45.665  30.390  33.084  1.00  0.00    -0.206 F 
ATOM     87  C   UNL A   1      46.759  29.034  34.659  1.00  0.00     0.040 A 
ATOM     88  C   UNL A   1      45.626  27.122  35.592  1.00  0.00     0.040 A 
ATOM     89  F   UNL A   1      43.431  26.617  34.925  1.00  0.00    -0.206 F 
ATOM     90  C   UNL A   1      46.760  27.929  35.510  1.00  0.00     0.006 A 
ENDBRANCH  66  83
ENDBRANCH  40  41
ENDBRANCH  32  35
ENDBRANCH  30  31
ENDBRANCH  29  30
ENDBRANCH   1  29
TORSDOF 14
ENDMDL
MODEL 2
REMARK VINA RESULT:     -12.7      1.999      6.440
REMARK SMILES CCc1cc(C(=O)c2[nH]c3cc(Cl)ccc3c2CC(=O)NCCCNC(=O)c2ccc(-c3c4nc(c(-c5c(F)cccc5F)c5ccc([nH]5)c(-c5c(F)cccc5F)c5nc(c(-c6c(F)cccc6F)c6ccc3[nH]6)C=C5)C=C4)cc2)ncc1Cl
REMARK SMILES IDX 22 1 21 2 19 3 20 4 18 6 17 7 8 8 9 9 10 10 16 12 11 13
REMARK SMILES IDX 15 14 12 15 14 16 13 17 6 18 7 19 5 20 3 21 4 22 84 23 83 24
REMARK SMILES IDX 85 25 82 26 2 27 1 28 23 29 24 30 25 31 26 32 27 34 28 35
REMARK SMILES IDX 29 36 81 37 30 38 80 39 31 40 32 41 33 42 74 43 34 44 79 45
REMARK SMILES IDX 73 46 75 47 35 48 78 49 72 50 71 51 36 53 62 54 45 55 61 56
REMARK SMILES IDX 46 57 49 58 60 59 76 60 47 61 48 62 59 64 77 65 50 66 37 67
REMARK SMILES IDX 38 68 43 69 39 70 40 71 42 72 44 73 41 74 63 75 64 76 69 77
REMARK SMILES IDX 65 78 66 79 68 80 70 81 67 82 51 83 52 84 57 85 53 86 54 87
REMARK SMILES IDX 56 88 58 89 55 90
REMARK H PARENT 21 5 9 11 25 33 75 52 49 63
REMARK Flexibility Score: inf
ROOT
ATOM      1  C   UNL A   1      31.826  27.504  26.245  1.00  0.00     0.117 C 
ENDROOT
BRANCH   1   2
ATOM      2  N   UNL A   1      31.246  26.282  26.773  1.00  0.00    -0.356 N 
ATOM      3  C   UNL A   1      31.654  24.988  26.627  1.00  0.00     0.224 C 
ATOM      4  O   UNL A   1      31.024  24.101  27.208  1.00  0.00    -0.275 OA
ATOM      5  H   UNL A   1      30.437  26.407  27.319  1.00  0.00     0.163 HD
BRANCH   3   6
ATOM      6  C   UNL A   1      32.873  24.648  25.789  1.00  0.00     0.138 C 
BRANCH   6   7
ATOM      7  C   UNL A   1      32.541  23.970  24.492  1.00  0.00    -0.002 A 
ATOM      8  C   UNL A   1      32.236  24.562  23.269  1.00  0.00     0.093 A 
ATOM      9  N   UNL A   1      32.132  23.558  22.336  1.00  0.00    -0.351 N 
ATOM     10  C   UNL A   1      32.235  22.328  22.935  1.00  0.00     0.048 A 
ATOM     11  H   UNL A   1      32.000  23.701  21.372  1.00  0.00     0.167 HD
ATOM     12  C   UNL A   1      32.496  22.549  24.286  1.00  0.00     0.004 A 
ATOM     13  C   UNL A   1      32.140  21.047  22.376  1.00  0.00     0.047 A 
ATOM     14  C   UNL A   1      32.681  21.429  25.125  1.00  0.00     0.012 A 
ATOM     15  C   UNL A   1      32.321  19.958  23.232  1.00  0.00     0.043 A 
ATOM     16  C   UNL A   1      32.589  20.139  24.586  1.00  0.00     0.021 A 
ATOM     17  Cl  UNL A   1      32.214  18.362  22.594  1.00  0.00    -0.084 Cl
BRANCH   8  18
ATOM     18  C   UNL A   1      32.120  25.959  22.887  1.00  0.00     0.227 C 
ATOM     19  O   UNL A   1      33.081  26.551  22.407  1.00  0.00    -0.285 OA
BRANCH  18  20
ATOM     20  C   UNL A   1      30.759  26.611  22.956  1.00  0.00     0.113 A 
ATOM     21  C   UNL A   1      29.291  28.523  22.664  1.00  0.00    -0.026 A 
ATOM     22  C   UNL A   1      30.539  27.902  22.468  1.00  0.00     0.037 A 
ATOM     23  C   UNL A   1      28.298  27.804  23.336  1.00  0.00     0.062 A 
ATOM     24  C   UNL A   1      28.598  26.519  23.779  1.00  0.00     0.132 A 
ATOM     25  Cl  UNL A   1      26.736  28.451  23.660  1.00  0.00    -0.082 Cl
ATOM     26  N   UNL A   1      29.800  25.916  23.619  1.00  0.00    -0.251 NA
BRANCH  21  27
ATOM     27  C   UNL A   1      29.107  29.949  22.201  1.00  0.00     0.034 C 
ATOM     28  C   UNL A   1      29.108  30.925  23.371  1.00  0.00     0.009 C 
ENDBRANCH  21  27
ENDBRANCH  18  20
ENDBRANCH   8  18
ENDBRANCH   6   7
ENDBRANCH   3   6
ENDBRANCH   1   2
BRANCH   1  29
ATOM     29  C   UNL A   1      32.882  28.127  27.158  1.00  0.00     0.042 C 
BRANCH  29  30
ATOM     30  C   UNL A   1      33.902  29.023  26.456  1.00  0.00     0.118 C 
BRANCH  30  31
ATOM     31  N   UNL A   1      33.803  30.412  26.877  1.00  0.00    -0.352 N 
ATOM     32  C   UNL A   1      34.572  31.119  27.765  1.00  0.00     0.251 C 
ATOM     33  H   UNL A   1      33.073  30.923  26.459  1.00  0.00     0.163 HD
ATOM     34  O   UNL A   1      34.221  32.246  28.104  1.00  0.00    -0.269 OA
BRANCH  32  35
ATOM     35  C   UNL A   1      35.813  30.544  28.336  1.00  0.00     0.039 A 
ATOM     36  C   UNL A   1      37.028  30.815  27.693  1.00  0.00     0.014 A 
ATOM     37  C   UNL A   1      35.787  29.683  29.437  1.00  0.00     0.014 A 
ATOM     38  C   UNL A   1      38.217  30.264  28.177  1.00  0.00     0.010 A 
ATOM     39  C   UNL A   1      36.978  29.147  29.933  1.00  0.00     0.010 A 
ATOM     40  C   UNL A   1      38.201  29.433  29.306  1.00  0.00    -0.014 A 
BRANCH  40  41
ATOM     41  C   UNL A   1      39.454  28.843  29.831  1.00  0.00     0.031 A 
ATOM     42  C   UNL A   1      40.090  29.399  31.072  1.00  0.00     0.074 A 
ATOM     43  C   UNL A   1      40.040  27.821  29.183  1.00  0.00     0.049 A 
ATOM     44  N   UNL A   1      41.257  29.119  31.595  1.00  0.00    -0.248 NA
ATOM     45  C   UNL A   1      39.318  30.407  31.814  1.00  0.00     0.031 C 
ATOM     46  C   UNL A   1      39.530  27.181  27.969  1.00  0.00     0.029 A 
ATOM     47  N   UNL A   1      41.201  27.144  29.457  1.00  0.00    -0.354 N 
ATOM     48  C   UNL A   1      41.382  29.949  32.700  1.00  0.00     0.074 A 
ATOM     49  C   UNL A   1      40.157  30.717  32.794  1.00  0.00     0.031 C 
ATOM     50  C   UNL A   1      40.370  26.197  27.609  1.00  0.00     0.029 A 
ATOM     51  C   UNL A   1      41.484  26.151  28.554  1.00  0.00     0.049 A 
ATOM     52  H   UNL A   1      41.776  27.351  30.229  1.00  0.00     0.167 HD
ATOM     53  C   UNL A   1      42.432  30.075  33.545  1.00  0.00     0.037 A 
ATOM     54  C   UNL A   1      42.529  25.306  28.491  1.00  0.00     0.037 A 
ATOM     55  C   UNL A   1      43.642  29.303  33.473  1.00  0.00     0.049 A 
ATOM     56  C   UNL A   1      43.624  25.387  29.510  1.00  0.00     0.074 A 
ATOM     57  C   UNL A   1      44.797  29.425  34.229  1.00  0.00     0.029 A 
ATOM     58  N   UNL A   1      43.841  28.239  32.610  1.00  0.00    -0.354 N 
ATOM     59  N   UNL A   1      43.775  26.244  30.489  1.00  0.00    -0.248 NA
ATOM     60  C   UNL A   1      44.697  24.386  29.412  1.00  0.00     0.031 C 
ATOM     61  C   UNL A   1      45.686  28.415  33.837  1.00  0.00     0.029 A 
ATOM     62  C   UNL A   1      45.082  27.670  32.838  1.00  0.00     0.049 A 
ATOM     63  H   UNL A   1      43.194  27.932  31.934  1.00  0.00     0.167 HD
ATOM     64  C   UNL A   1      44.968  25.903  31.109  1.00  0.00     0.074 A 
ATOM     65  C   UNL A   1      45.490  24.744  30.414  1.00  0.00     0.031 C 
ATOM     66  C   UNL A   1      45.582  26.512  32.150  1.00  0.00     0.037 A 
BRANCH  53  67
ATOM     67  C   UNL A   1      42.321  31.120  34.607  1.00  0.00     0.057 A 
ATOM     68  C   UNL A   1      42.690  32.446  34.364  1.00  0.00     0.134 A 
ATOM     69  C   UNL A   1      41.827  30.797  35.877  1.00  0.00     0.134 A 
ATOM     70  F   UNL A   1      43.181  32.808  33.169  1.00  0.00    -0.206 F 
ATOM     71  C   UNL A   1      42.574  33.422  35.355  1.00  0.00     0.040 A 
ATOM     72  C   UNL A   1      41.705  31.764  36.874  1.00  0.00     0.040 A 
ATOM     73  F   UNL A   1      41.465  29.538  36.165  1.00  0.00    -0.206 F 
ATOM     74  C   UNL A   1      42.079  33.081  36.614  1.00  0.00     0.006 A 
ENDBRANCH  53  67
BRANCH  54  75
ATOM     75  C   UNL A   1      42.592  24.304  27.407  1.00  0.00     0.057 A 
ATOM     76  C   UNL A   1      42.069  23.020  27.584  1.00  0.00     0.134 A 
ATOM     77  C   UNL A   1      43.170  24.614  26.173  1.00  0.00     0.134 A 
ATOM     78  F   UNL A   1      41.517  22.671  28.755  1.00  0.00    -0.206 F 
ATOM     79  C   UNL A   1      42.124  22.068  26.565  1.00  0.00     0.040 A 
ATOM     80  C   UNL A   1      43.229  23.673  25.145  1.00  0.00     0.040 A 
ATOM     81  F   UNL A   1      43.689  25.830  25.954  1.00  0.00    -0.206 F 
ATOM     82  C   UNL A   1      42.703  22.396  25.340  1.00  0.00     0.006 A 
ENDBRANCH  54  75
BRANCH  66  83
ATOM     83  C   UNL A   1      46.889  25.938  32.592  1.00  0.00     0.057 A 
ATOM     84  C   UNL A   1      48.091  26.343  31.999  1.00  0.00     0.134 A 
ATOM     85  C   UNL A   1      46.952  24.993  33.622  1.00  0.00     0.134 A 
ATOM     86  F   UNL A   1      48.088  27.240  31.001  1.00  0.00    -0.206 F 
ATOM     87  C   UNL A   1      49.316  25.825  32.417  1.00  0.00     0.040 A 
ATOM     88  C   UNL A   1      48.173  24.467  34.047  1.00  0.00     0.040 A 
ATOM     89  F   UNL A   1      45.832  24.560  34.217  1.00  0.00    -0.206 F 
ATOM     90  C   UNL A   1      49.359  24.884  33.445  1.00  0.00     0.006 A 
ENDBRANCH  66  83
ENDBRANCH  40  41
ENDBRANCH  32  35
ENDBRANCH  30  31
ENDBRANCH  29  30
ENDBRANCH   1  29
TORSDOF 14
ENDMDL
MODEL 3
REMARK VINA RESULT:     -12.5      3.809      8.055
REMARK SMILES CCc1cc(C(=O)c2[nH]c3cc(Cl)ccc3c2CC(=O)NCCCNC(=O)c2ccc(-c3c4nc(c(-c5c(F)cccc5F)c5ccc([nH]5)c(-c5c(F)cccc5F)c5nc(c(-c6c(F)cccc6F)c6ccc3[nH]6)C=C5)C=C4)cc2)ncc1Cl
REMARK SMILES IDX 22 1 21 2 19 3 20 4 18 6 17 7 8 8 9 9 10 10 16 12 11 13
REMARK SMILES IDX 15 14 12 15 14 16 13 17 6 18 7 19 5 20 3 21 4 22 84 23 83 24
REMARK SMILES IDX 85 25 82 26 2 27 1 28 23 29 24 30 25 31 26 32 27 34 28 35
REMARK SMILES IDX 29 36 81 37 30 38 80 39 31 40 32 41 33 42 74 43 34 44 79 45
REMARK SMILES IDX 73 46 75 47 35 48 78 49 72 50 71 51 36 53 62 54 45 55 61 56
REMARK SMILES IDX 46 57 49 58 60 59 76 60 47 61 48 62 59 64 77 65 50 66 37 67
REMARK SMILES IDX 38 68 43 69 39 70 40 71 42 72 44 73 41 74 63 75 64 76 69 77
REMARK SMILES IDX 65 78 66 79 68 80 70 81 67 82 51 83 52 84 57 85 53 86 54 87
REMARK SMILES IDX 56 88 58 89 55 90
REMARK H PARENT 21 5 9 11 25 33 75 52 49 63
REMARK Flexibility Score: inf
ROOT
ATOM      1  C   UNL A   1      37.765  21.774  25.144  1.00  0.00     0.117 C 
ENDROOT
BRANCH   1   2
ATOM      2  N   UNL A   1      36.900  22.180  24.051  1.00  0.00    -0.356 N 
ATOM      3  C   UNL A   1      35.987  23.192  23.990  1.00  0.00     0.224 C 
ATOM      4  O   UNL A   1      35.389  23.385  22.929  1.00  0.00    -0.275 OA
ATOM      5  H   UNL A   1      36.987  21.645  23.229  1.00  0.00     0.163 HD
BRANCH   3   6
ATOM      6  C   UNL A   1      35.733  24.082  25.193  1.00  0.00     0.138 C 
BRANCH   6   7
ATOM      7  C   UNL A   1      34.285  24.419  25.396  1.00  0.00    -0.002 A 
ATOM      8  C   UNL A   1      33.282  23.609  25.921  1.00  0.00     0.093 A 
ATOM      9  N   UNL A   1      32.148  24.377  26.041  1.00  0.00    -0.351 N 
ATOM     10  C   UNL A   1      32.345  25.619  25.495  1.00  0.00     0.048 A 
ATOM     11  H   UNL A   1      31.310  24.075  26.459  1.00  0.00     0.167 HD
ATOM     12  C   UNL A   1      33.675  25.683  25.085  1.00  0.00     0.004 A 
ATOM     13  C   UNL A   1      31.453  26.691  25.359  1.00  0.00     0.047 A 
ATOM     14  C   UNL A   1      34.145  26.885  24.514  1.00  0.00     0.012 A 
ATOM     15  C   UNL A   1      31.945  27.866  24.784  1.00  0.00     0.043 A 
ATOM     16  C   UNL A   1      33.269  27.969  24.368  1.00  0.00     0.021 A 
ATOM     17  Cl  UNL A   1      30.889  29.213  24.594  1.00  0.00    -0.084 Cl
BRANCH   8  18
ATOM     18  C   UNL A   1      33.313  22.235  26.392  1.00  0.00     0.227 C 
ATOM     19  O   UNL A   1      33.498  21.991  27.580  1.00  0.00    -0.285 OA
BRANCH  18  20
ATOM     20  C   UNL A   1      32.966  21.135  25.416  1.00  0.00     0.113 A 
ATOM     21  C   UNL A   1      32.954  18.801  24.747  1.00  0.00    -0.026 A 
ATOM     22  C   UNL A   1      33.171  19.788  25.727  1.00  0.00     0.037 A 
ATOM     23  C   UNL A   1      32.518  19.214  23.484  1.00  0.00     0.062 A 
ATOM     24  C   UNL A   1      32.329  20.574  23.263  1.00  0.00     0.132 A 
ATOM     25  Cl  UNL A   1      32.235  18.114  22.190  1.00  0.00    -0.082 Cl
ATOM     26  N   UNL A   1      32.555  21.538  24.188  1.00  0.00    -0.251 NA
BRANCH  21  27
ATOM     27  C   UNL A   1      33.263  17.361  25.083  1.00  0.00     0.034 C 
ATOM     28  C   UNL A   1      34.606  16.926  24.511  1.00  0.00     0.009 C 
ENDBRANCH  21  27
ENDBRANCH  18  20
ENDBRANCH   8  18
ENDBRANCH   6   7
ENDBRANCH   3   6
ENDBRANCH   1   2
BRANCH   1  29
ATOM     29  C   UNL A   1      38.413  20.405  24.939  1.00  0.00     0.042 C 
BRANCH  29  30
ATOM     30  C   UNL A   1      39.058  19.798  26.183  1.00  0.00     0.118 C 
BRANCH  30  31
ATOM     31  N   UNL A   1      40.311  19.122  25.885  1.00  0.00    -0.352 N 
ATOM     32  C   UNL A   1      41.597  19.600  25.910  1.00  0.00     0.251 C 
ATOM     33  H   UNL A   1      40.223  18.176  25.627  1.00  0.00     0.163 HD
ATOM     34  O   UNL A   1      42.507  18.906  25.464  1.00  0.00    -0.269 OA
BRANCH  32  35
ATOM     35  C   UNL A   1      41.908  20.945  26.450  1.00  0.00     0.039 A 
ATOM     36  C   UNL A   1      41.846  21.134  27.836  1.00  0.00     0.014 A 
ATOM     37  C   UNL A   1      42.175  22.031  25.612  1.00  0.00     0.014 A 
ATOM     38  C   UNL A   1      42.095  22.394  28.385  1.00  0.00     0.010 A 
ATOM     39  C   UNL A   1      42.444  23.287  26.161  1.00  0.00     0.010 A 
ATOM     40  C   UNL A   1      42.406  23.478  27.551  1.00  0.00    -0.014 A 
BRANCH  40  41
ATOM     41  C   UNL A   1      42.676  24.819  28.119  1.00  0.00     0.031 A 
ATOM     42  C   UNL A   1      44.064  25.193  28.548  1.00  0.00     0.074 A 
ATOM     43  C   UNL A   1      41.670  25.698  28.273  1.00  0.00     0.049 A 
ATOM     44  N   UNL A   1      44.465  26.254  29.202  1.00  0.00    -0.248 NA
ATOM     45  C   UNL A   1      45.138  24.249  28.207  1.00  0.00     0.031 C 
ATOM     46  C   UNL A   1      40.275  25.468  27.896  1.00  0.00     0.029 A 
ATOM     47  N   UNL A   1      41.672  26.965  28.797  1.00  0.00    -0.354 N 
ATOM     48  C   UNL A   1      45.829  26.084  29.394  1.00  0.00     0.074 A 
ATOM     49  C   UNL A   1      46.194  24.835  28.755  1.00  0.00     0.031 C 
ATOM     50  C   UNL A   1      39.556  26.564  28.192  1.00  0.00     0.029 A 
ATOM     51  C   UNL A   1      40.437  27.562  28.795  1.00  0.00     0.049 A 
ATOM     52  H   UNL A   1      42.483  27.406  29.141  1.00  0.00     0.167 HD
ATOM     53  C   UNL A   1      46.693  26.884  30.061  1.00  0.00     0.037 A 
ATOM     54  C   UNL A   1      40.056  28.774  29.239  1.00  0.00     0.037 A 
ATOM     55  C   UNL A   1      46.345  28.134  30.679  1.00  0.00     0.049 A 
ATOM     56  C   UNL A   1      41.058  29.692  29.870  1.00  0.00     0.074 A 
ATOM     57  C   UNL A   1      47.133  28.968  31.456  1.00  0.00     0.029 A 
ATOM     58  N   UNL A   1      45.110  28.747  30.562  1.00  0.00    -0.354 N 
ATOM     59  N   UNL A   1      42.322  29.474  30.134  1.00  0.00    -0.248 NA
ATOM     60  C   UNL A   1      40.578  31.024  30.270  1.00  0.00     0.031 C 
ATOM     61  C   UNL A   1      46.378  30.100  31.788  1.00  0.00     0.029 A 
ATOM     62  C   UNL A   1      45.123  29.966  31.218  1.00  0.00     0.049 A 
ATOM     63  H   UNL A   1      44.336  28.372  30.082  1.00  0.00     0.167 HD
ATOM     64  C   UNL A   1      42.784  30.628  30.749  1.00  0.00     0.074 A 
ATOM     65  C   UNL A   1      41.673  31.556  30.798  1.00  0.00     0.031 C 
ATOM     66  C   UNL A   1      44.017  30.883  31.247  1.00  0.00     0.037 A 
BRANCH  53  67
ATOM     67  C   UNL A   1      48.102  26.402  30.182  1.00  0.00     0.057 A 
ATOM     68  C   UNL A   1      49.045  26.655  29.181  1.00  0.00     0.134 A 
ATOM     69  C   UNL A   1      48.519  25.693  31.315  1.00  0.00     0.134 A 
ATOM     70  F   UNL A   1      48.697  27.319  28.069  1.00  0.00    -0.206 F 
ATOM     71  C   UNL A   1      50.364  26.212  29.303  1.00  0.00     0.040 A 
ATOM     72  C   UNL A   1      49.834  25.248  31.448  1.00  0.00     0.040 A 
ATOM     73  F   UNL A   1      47.652  25.417  32.301  1.00  0.00    -0.206 F 
ATOM     74  C   UNL A   1      50.760  25.508  30.440  1.00  0.00     0.006 A 
ENDBRANCH  53  67
BRANCH  54  75
ATOM     75  C   UNL A   1      38.644  29.188  29.109  1.00  0.00     0.057 A 
ATOM     76  C   UNL A   1      38.139  29.645  27.888  1.00  0.00     0.134 A 
ATOM     77  C   UNL A   1      37.772  29.130  30.199  1.00  0.00     0.134 A 
ATOM     78  F   UNL A   1      38.941  29.731  26.816  1.00  0.00    -0.206 F 
ATOM     79  C   UNL A   1      36.807  30.036  27.755  1.00  0.00     0.040 A 
ATOM     80  C   UNL A   1      36.437  29.516  30.079  1.00  0.00     0.040 A 
ATOM     81  F   UNL A   1      38.208  28.704  31.393  1.00  0.00    -0.206 F 
ATOM     82  C   UNL A   1      35.952  29.970  28.854  1.00  0.00     0.006 A 
ENDBRANCH  54  75
BRANCH  66  83
ATOM     83  C   UNL A   1      44.222  32.216  31.891  1.00  0.00     0.057 A 
ATOM     84  C   UNL A   1      44.684  33.310  31.150  1.00  0.00     0.134 A 
ATOM     85  C   UNL A   1      43.940  32.414  33.247  1.00  0.00     0.134 A 
ATOM     86  F   UNL A   1      44.977  33.174  29.848  1.00  0.00    -0.206 F 
ATOM     87  C   UNL A   1      44.861  34.562  31.739  1.00  0.00     0.040 A 
ATOM     88  C   UNL A   1      44.116  33.662  33.847  1.00  0.00     0.040 A 
ATOM     89  F   UNL A   1      43.507  31.399  34.007  1.00  0.00    -0.206 F 
ATOM     90  C   UNL A   1      44.576  34.740  33.092  1.00  0.00     0.006 A 
ENDBRANCH  66  83
ENDBRANCH  40  41
ENDBRANCH  32  35
ENDBRANCH  30  31
ENDBRANCH  29  30
ENDBRANCH   1  29
TORSDOF 14
ENDMDL
