MODEL 1
REMARK VINA RESULT:     -10.8      0.000      0.000
REMARK SMILES C[C@@H]1CC[C@@H](C(=O)NCCCNC(=O)c2ccc(-c3c4nc(c(-c5c(F)cccc5F)c5ccc([nH]5)c(-c5c(F)cccc5F)c5nc(c(-c6c(F)cccc6F)c6ccc3[nH]6)C=C5)C=C4)cc2)[C@H](SCC[NH+](C)C)C1
REMARK SMILES IDX 9 1 8 2 6 3 7 4 5 6 1 7 2 8 3 9 76 10 4 11 69 12 70 13 71 14
REMARK SMILES IDX 72 15 73 16 74 17 75 18 10 20 11 21 12 22 13 23 14 25 15 26
REMARK SMILES IDX 16 27 68 28 17 29 67 30 18 31 19 32 20 33 61 34 21 35 66 36
REMARK SMILES IDX 60 37 62 38 22 39 65 40 59 41 58 42 23 44 49 45 32 46 48 47
REMARK SMILES IDX 33 48 36 49 47 50 63 51 34 52 35 53 46 55 64 56 37 57 24 58
REMARK SMILES IDX 25 59 30 60 26 61 27 62 29 63 31 64 28 65 50 66 51 67 56 68
REMARK SMILES IDX 52 69 53 70 55 71 57 72 54 73 38 74 39 75 44 76 40 77 41 78
REMARK SMILES IDX 43 79 45 80 42 81
REMARK H PARENT 8 5 73 19 12 24 62 43 36 54
REMARK Flexibility Score: inf
ROOT
ATOM      1  C   UNL A   1      36.589  20.305  25.002  1.00  0.00     0.117 C 
ENDROOT
BRANCH   1   2
ATOM      2  N   UNL A   1      36.915  21.705  25.119  1.00  0.00    -0.356 N 
ATOM      3  C   UNL A   1      36.209  22.826  24.858  1.00  0.00     0.224 C 
ATOM      4  O   UNL A   1      36.793  23.884  25.117  1.00  0.00    -0.275 OA
ATOM      5  H   UNL A   1      37.825  21.875  25.454  1.00  0.00     0.163 HD
BRANCH   3   6
ATOM      6  C   UNL A   1      34.810  22.810  24.196  1.00  0.00     0.091 C 
ATOM      7  C   UNL A   1      31.775  24.831  26.178  1.00  0.00     0.007 C 
ATOM      8  C   UNL A   1      33.285  24.584  26.126  1.00  0.00    -0.013 C 
ATOM      9  C   UNL A   1      33.966  25.198  24.887  1.00  0.00     0.004 C 
ATOM     10  C   UNL A   1      33.590  23.117  26.423  1.00  0.00     0.018 C 
ATOM     11  C   UNL A   1      34.623  24.290  23.836  1.00  0.00     0.015 C 
ATOM     12  C   UNL A   1      33.792  22.209  25.200  1.00  0.00     0.059 C 
BRANCH  12  13
ATOM     13  S   UNL A   1      32.193  21.226  24.941  1.00  0.00    -0.152 SA
BRANCH  13  14
ATOM     14  C   UNL A   1      32.383  19.589  24.117  1.00  0.00     0.131 C 
BRANCH  14  15
ATOM     15  C   UNL A   1      32.872  18.373  24.978  1.00  0.00     0.272 C 
BRANCH  15  16
ATOM     16  N   UNL A   1      32.641  17.005  24.464  1.00  0.00    -0.339 N 
ATOM     17  C   UNL A   1      33.662  16.579  23.500  1.00  0.00     0.332 C 
ATOM     18  C   UNL A   1      32.537  16.048  25.534  1.00  0.00     0.332 C 
ATOM     19  H   UNL A   1      31.750  17.040  23.968  1.00  0.00     0.347 HD
ENDBRANCH  15  16
ENDBRANCH  14  15
ENDBRANCH  13  14
ENDBRANCH  12  13
ENDBRANCH   3   6
ENDBRANCH   1   2
BRANCH   1  20
ATOM     20  C   UNL A   1      37.824  19.407  24.986  1.00  0.00     0.042 C 
BRANCH  20  21
ATOM     21  C   UNL A   1      39.039  19.934  25.752  1.00  0.00     0.118 C 
BRANCH  21  22
ATOM     22  N   UNL A   1      40.156  18.999  25.801  1.00  0.00    -0.352 N 
ATOM     23  C   UNL A   1      41.493  19.209  26.026  1.00  0.00     0.251 C 
ATOM     24  H   UNL A   1      39.909  18.059  25.648  1.00  0.00     0.163 HD
ATOM     25  O   UNL A   1      42.282  18.273  25.892  1.00  0.00    -0.269 OA
BRANCH  23  26
ATOM     26  C   UNL A   1      42.006  20.544  26.396  1.00  0.00     0.039 A 
ATOM     27  C   UNL A   1      42.315  21.450  25.377  1.00  0.00     0.014 A 
ATOM     28  C   UNL A   1      42.213  20.901  27.730  1.00  0.00     0.014 A 
ATOM     29  C   UNL A   1      42.760  22.735  25.698  1.00  0.00     0.010 A 
ATOM     30  C   UNL A   1      42.577  22.208  28.051  1.00  0.00     0.010 A 
ATOM     31  C   UNL A   1      42.856  23.140  27.040  1.00  0.00    -0.014 A 
BRANCH  31  32
ATOM     32  C   UNL A   1      43.236  24.532  27.393  1.00  0.00     0.031 A 
ATOM     33  C   UNL A   1      44.676  24.966  27.346  1.00  0.00     0.074 A 
ATOM     34  C   UNL A   1      42.287  25.395  27.807  1.00  0.00     0.049 A 
ATOM     35  N   UNL A   1      45.201  26.127  27.651  1.00  0.00    -0.248 NA
ATOM     36  C   UNL A   1      45.661  23.957  26.927  1.00  0.00     0.031 C 
ATOM     37  C   UNL A   1      40.863  25.084  27.947  1.00  0.00     0.029 A 
ATOM     38  N   UNL A   1      42.377  26.710  28.191  1.00  0.00    -0.354 N 
ATOM     39  C   UNL A   1      46.571  25.984  27.471  1.00  0.00     0.074 A 
ATOM     40  C   UNL A   1      46.803  24.608  27.090  1.00  0.00     0.031 C 
ATOM     41  C   UNL A   1      40.210  26.183  28.355  1.00  0.00     0.029 A 
ATOM     42  C   UNL A   1      41.170  27.265  28.544  1.00  0.00     0.049 A 
ATOM     43  H   UNL A   1      43.225  27.209  28.213  1.00  0.00     0.167 HD
ATOM     44  C   UNL A   1      47.544  26.919  27.585  1.00  0.00     0.037 A 
ATOM     45  C   UNL A   1      40.870  28.505  28.976  1.00  0.00     0.037 A 
ATOM     46  C   UNL A   1      47.306  28.292  27.949  1.00  0.00     0.049 A 
ATOM     47  C   UNL A   1      41.970  29.522  29.106  1.00  0.00     0.074 A 
ATOM     48  C   UNL A   1      48.219  29.329  28.043  1.00  0.00     0.029 A 
ATOM     49  N   UNL A   1      46.068  28.818  28.286  1.00  0.00    -0.354 N 
ATOM     50  N   UNL A   1      43.251  29.391  28.861  1.00  0.00    -0.248 NA
ATOM     51  C   UNL A   1      41.580  30.863  29.563  1.00  0.00     0.031 C 
ATOM     52  C   UNL A   1      47.541  30.469  28.488  1.00  0.00     0.029 A 
ATOM     53  C   UNL A   1      46.196  30.159  28.611  1.00  0.00     0.049 A 
ATOM     54  H   UNL A   1      45.224  28.312  28.295  1.00  0.00     0.167 HD
ATOM     55  C   UNL A   1      43.814  30.639  29.098  1.00  0.00     0.074 A 
ATOM     56  C   UNL A   1      42.732  31.516  29.494  1.00  0.00     0.031 C 
ATOM     57  C   UNL A   1      45.109  31.024  28.992  1.00  0.00     0.037 A 
BRANCH  44  58
ATOM     58  C   UNL A   1      48.958  26.487  27.313  1.00  0.00     0.057 A 
ATOM     59  C   UNL A   1      49.805  26.038  28.334  1.00  0.00     0.134 A 
ATOM     60  C   UNL A   1      49.468  26.486  26.008  1.00  0.00     0.134 A 
ATOM     61  F   UNL A   1      49.384  26.021  29.609  1.00  0.00    -0.206 F 
ATOM     62  C   UNL A   1      51.116  25.633  28.074  1.00  0.00     0.040 A 
ATOM     63  C   UNL A   1      50.765  26.054  25.731  1.00  0.00     0.040 A 
ATOM     64  F   UNL A   1      48.710  26.896  24.979  1.00  0.00    -0.206 F 
ATOM     65  C   UNL A   1      51.596  25.633  26.767  1.00  0.00     0.006 A 
ENDBRANCH  44  58
BRANCH  45  66
ATOM     66  C   UNL A   1      39.463  28.864  29.292  1.00  0.00     0.057 A 
ATOM     67  C   UNL A   1      38.933  28.661  30.571  1.00  0.00     0.134 A 
ATOM     68  C   UNL A   1      38.611  29.408  28.322  1.00  0.00     0.134 A 
ATOM     69  F   UNL A   1      39.695  28.128  31.539  1.00  0.00    -0.206 F 
ATOM     70  C   UNL A   1      37.604  28.961  30.871  1.00  0.00     0.040 A 
ATOM     71  C   UNL A   1      37.287  29.739  28.615  1.00  0.00     0.040 A 
ATOM     72  F   UNL A   1      39.057  29.638  27.079  1.00  0.00    -0.206 F 
ATOM     73  C   UNL A   1      36.777  29.507  29.891  1.00  0.00     0.006 A 
ENDBRANCH  45  66
BRANCH  57  74
ATOM     74  C   UNL A   1      45.422  32.470  29.258  1.00  0.00     0.057 A 
ATOM     75  C   UNL A   1      45.349  33.445  28.257  1.00  0.00     0.134 A 
ATOM     76  C   UNL A   1      45.764  32.893  30.549  1.00  0.00     0.134 A 
ATOM     77  F   UNL A   1      45.039  33.105  26.996  1.00  0.00    -0.206 F 
ATOM     78  C   UNL A   1      45.635  34.786  28.523  1.00  0.00     0.040 A 
ATOM     79  C   UNL A   1      46.020  34.235  30.834  1.00  0.00     0.040 A 
ATOM     80  F   UNL A   1      45.842  32.013  31.559  1.00  0.00    -0.206 F 
ATOM     81  C   UNL A   1      45.963  35.185  29.818  1.00  0.00     0.006 A 
ENDBRANCH  57  74
ENDBRANCH  31  32
ENDBRANCH  23  26
ENDBRANCH  21  22
ENDBRANCH  20  21
ENDBRANCH   1  20
TORSDOF 14
ENDMDL
MODEL 2
REMARK VINA RESULT:     -10.8      0.497      6.325
REMARK SMILES C[C@@H]1CC[C@@H](C(=O)NCCCNC(=O)c2ccc(-c3c4nc(c(-c5c(F)cccc5F)c5ccc([nH]5)c(-c5c(F)cccc5F)c5nc(c(-c6c(F)cccc6F)c6ccc3[nH]6)C=C5)C=C4)cc2)[C@H](SCC[NH+](C)C)C1
REMARK SMILES IDX 9 1 8 2 6 3 7 4 5 6 1 7 2 8 3 9 76 10 4 11 69 12 70 13 71 14
REMARK SMILES IDX 72 15 73 16 74 17 75 18 10 20 11 21 12 22 13 23 14 25 15 26
REMARK SMILES IDX 16 27 68 28 17 29 67 30 18 31 19 32 20 33 61 34 21 35 66 36
REMARK SMILES IDX 60 37 62 38 22 39 65 40 59 41 58 42 23 44 49 45 32 46 48 47
REMARK SMILES IDX 33 48 36 49 47 50 63 51 34 52 35 53 46 55 64 56 37 57 24 58
REMARK SMILES IDX 25 59 30 60 26 61 27 62 29 63 31 64 28 65 50 66 51 67 56 68
REMARK SMILES IDX 52 69 53 70 55 71 57 72 54 73 38 74 39 75 44 76 40 77 41 78
REMARK SMILES IDX 43 79 45 80 42 81
REMARK H PARENT 8 5 73 19 12 24 62 43 36 54
REMARK Flexibility Score: inf
ROOT
ATOM      1  C   UNL A   1      36.628  20.492  25.000  1.00  0.00     0.117 C 
ENDROOT
BRANCH   1   2
ATOM      2  N   UNL A   1      36.911  21.821  25.487  1.00  0.00    -0.356 N 
ATOM      3  C   UNL A   1      36.255  22.994  25.357  1.00  0.00     0.224 C 
ATOM      4  O   UNL A   1      36.768  23.948  25.951  1.00  0.00    -0.275 OA
ATOM      5  H   UNL A   1      37.741  21.883  26.013  1.00  0.00     0.163 HD
BRANCH   3   6
ATOM      6  C   UNL A   1      35.005  23.169  24.462  1.00  0.00     0.091 C 
ATOM      7  C   UNL A   1      31.453  24.148  26.371  1.00  0.00     0.007 C 
ATOM      8  C   UNL A   1      32.967  24.006  26.546  1.00  0.00    -0.013 C 
ATOM      9  C   UNL A   1      33.777  25.075  25.786  1.00  0.00     0.004 C 
ATOM     10  C   UNL A   1      33.387  22.551  26.344  1.00  0.00     0.018 C 
ATOM     11  C   UNL A   1      34.710  24.665  24.636  1.00  0.00     0.015 C 
ATOM     12  C   UNL A   1      33.906  22.187  24.944  1.00  0.00     0.059 C 
BRANCH  12  13
ATOM     13  S   UNL A   1      32.505  21.308  24.020  1.00  0.00    -0.152 SA
BRANCH  13  14
ATOM     14  C   UNL A   1      32.543  19.467  24.070  1.00  0.00     0.131 C 
BRANCH  14  15
ATOM     15  C   UNL A   1      32.890  18.765  25.428  1.00  0.00     0.272 C 
BRANCH  15  16
ATOM     16  N   UNL A   1      33.724  17.543  25.400  1.00  0.00    -0.339 N 
ATOM     17  C   UNL A   1      32.953  16.321  25.659  1.00  0.00     0.332 C 
ATOM     18  C   UNL A   1      34.444  17.422  24.160  1.00  0.00     0.332 C 
ATOM     19  H   UNL A   1      34.396  17.645  26.161  1.00  0.00     0.347 HD
ENDBRANCH  15  16
ENDBRANCH  14  15
ENDBRANCH  13  14
ENDBRANCH  12  13
ENDBRANCH   3   6
ENDBRANCH   1   2
BRANCH   1  20
ATOM     20  C   UNL A   1      37.871  19.608  24.930  1.00  0.00     0.042 C 
BRANCH  20  21
ATOM     21  C   UNL A   1      39.073  20.084  25.750  1.00  0.00     0.118 C 
BRANCH  21  22
ATOM     22  N   UNL A   1      40.152  19.108  25.836  1.00  0.00    -0.352 N 
ATOM     23  C   UNL A   1      41.485  19.267  26.111  1.00  0.00     0.251 C 
ATOM     24  H   UNL A   1      39.875  18.178  25.670  1.00  0.00     0.163 HD
ATOM     25  O   UNL A   1      42.243  18.301  26.002  1.00  0.00    -0.269 OA
BRANCH  23  26
ATOM     26  C   UNL A   1      42.035  20.581  26.504  1.00  0.00     0.039 A 
ATOM     27  C   UNL A   1      42.478  21.449  25.502  1.00  0.00     0.014 A 
ATOM     28  C   UNL A   1      42.144  20.953  27.845  1.00  0.00     0.014 A 
ATOM     29  C   UNL A   1      42.962  22.715  25.842  1.00  0.00     0.010 A 
ATOM     30  C   UNL A   1      42.547  22.246  28.177  1.00  0.00     0.010 A 
ATOM     31  C   UNL A   1      42.961  23.141  27.180  1.00  0.00    -0.014 A 
BRANCH  31  32
ATOM     32  C   UNL A   1      43.383  24.519  27.544  1.00  0.00     0.031 A 
ATOM     33  C   UNL A   1      42.363  25.551  27.942  1.00  0.00     0.074 A 
ATOM     34  C   UNL A   1      44.686  24.857  27.465  1.00  0.00     0.049 A 
ATOM     35  N   UNL A   1      42.539  26.809  28.259  1.00  0.00    -0.248 NA
ATOM     36  C   UNL A   1      40.956  25.120  27.962  1.00  0.00     0.031 C 
ATOM     37  C   UNL A   1      45.767  23.966  27.042  1.00  0.00     0.029 A 
ATOM     38  N   UNL A   1      45.321  26.044  27.734  1.00  0.00    -0.354 N 
ATOM     39  C   UNL A   1      41.270  27.320  28.504  1.00  0.00     0.074 A 
ATOM     40  C   UNL A   1      40.329  26.254  28.241  1.00  0.00     0.031 C 
ATOM     41  C   UNL A   1      46.934  24.626  27.110  1.00  0.00     0.029 A 
ATOM     42  C   UNL A   1      46.682  25.996  27.541  1.00  0.00     0.049 A 
ATOM     43  H   UNL A   1      44.849  26.853  28.036  1.00  0.00     0.167 HD
ATOM     44  C   UNL A   1      40.923  28.556  28.936  1.00  0.00     0.037 A 
ATOM     45  C   UNL A   1      47.620  26.951  27.690  1.00  0.00     0.037 A 
ATOM     46  C   UNL A   1      41.864  29.610  29.213  1.00  0.00     0.049 A 
ATOM     47  C   UNL A   1      47.207  28.318  28.159  1.00  0.00     0.074 A 
ATOM     48  C   UNL A   1      41.615  30.881  29.703  1.00  0.00     0.029 A 
ATOM     49  N   UNL A   1      43.234  29.519  29.018  1.00  0.00    -0.354 N 
ATOM     50  N   UNL A   1      46.012  28.764  28.458  1.00  0.00    -0.248 NA
ATOM     51  C   UNL A   1      48.277  29.313  28.323  1.00  0.00     0.031 C 
ATOM     52  C   UNL A   1      42.828  31.575  29.753  1.00  0.00     0.029 A 
ATOM     53  C   UNL A   1      43.841  30.717  29.355  1.00  0.00     0.049 A 
ATOM     54  H   UNL A   1      43.704  28.720  28.687  1.00  0.00     0.167 HD
ATOM     55  C   UNL A   1      46.188  30.076  28.879  1.00  0.00     0.074 A 
ATOM     56  C   UNL A   1      47.608  30.349  28.809  1.00  0.00     0.031 C 
ATOM     57  C   UNL A   1      45.258  30.972  29.291  1.00  0.00     0.037 A 
BRANCH  44  58
ATOM     58  C   UNL A   1      39.459  28.835  29.137  1.00  0.00     0.057 A 
ATOM     59  C   UNL A   1      38.834  28.656  30.377  1.00  0.00     0.134 A 
ATOM     60  C   UNL A   1      38.672  29.324  28.085  1.00  0.00     0.134 A 
ATOM     61  F   UNL A   1      39.526  28.182  31.425  1.00  0.00    -0.206 F 
ATOM     62  C   UNL A   1      37.475  28.922  30.559  1.00  0.00     0.040 A 
ATOM     63  C   UNL A   1      37.321  29.624  28.262  1.00  0.00     0.040 A 
ATOM     64  F   UNL A   1      39.206  29.528  26.871  1.00  0.00    -0.206 F 
ATOM     65  C   UNL A   1      36.716  29.415  29.500  1.00  0.00     0.006 A 
ENDBRANCH  44  58
BRANCH  45  66
ATOM     66  C   UNL A   1      49.048  26.641  27.420  1.00  0.00     0.057 A 
ATOM     67  C   UNL A   1      49.876  26.110  28.416  1.00  0.00     0.134 A 
ATOM     68  C   UNL A   1      49.623  26.878  26.165  1.00  0.00     0.134 A 
ATOM     69  F   UNL A   1      49.388  25.876  29.643  1.00  0.00    -0.206 F 
ATOM     70  C   UNL A   1      51.227  25.849  28.185  1.00  0.00     0.040 A 
ATOM     71  C   UNL A   1      50.966  26.595  25.911  1.00  0.00     0.040 A 
ATOM     72  F   UNL A   1      48.884  27.376  25.163  1.00  0.00    -0.206 F 
ATOM     73  C   UNL A   1      51.775  26.087  26.926  1.00  0.00     0.006 A 
ENDBRANCH  45  66
BRANCH  57  74
ATOM     74  C   UNL A   1      45.750  32.317  29.748  1.00  0.00     0.057 A 
ATOM     75  C   UNL A   1      45.828  33.416  28.885  1.00  0.00     0.134 A 
ATOM     76  C   UNL A   1      46.115  32.519  31.086  1.00  0.00     0.134 A 
ATOM     77  F   UNL A   1      45.505  33.287  27.588  1.00  0.00    -0.206 F 
ATOM     78  C   UNL A   1      46.280  34.660  29.328  1.00  0.00     0.040 A 
ATOM     79  C   UNL A   1      46.536  33.766  31.548  1.00  0.00     0.040 A 
ATOM     80  F   UNL A   1      46.053  31.512  31.971  1.00  0.00    -0.206 F 
ATOM     81  C   UNL A   1      46.627  34.840  30.666  1.00  0.00     0.006 A 
ENDBRANCH  57  74
ENDBRANCH  31  32
ENDBRANCH  23  26
ENDBRANCH  21  22
ENDBRANCH  20  21
ENDBRANCH   1  20
TORSDOF 14
ENDMDL
MODEL 3
REMARK VINA RESULT:     -10.7      6.042     10.330
REMARK SMILES C[C@@H]1CC[C@@H](C(=O)NCCCNC(=O)c2ccc(-c3c4nc(c(-c5c(F)cccc5F)c5ccc([nH]5)c(-c5c(F)cccc5F)c5nc(c(-c6c(F)cccc6F)c6ccc3[nH]6)C=C5)C=C4)cc2)[C@H](SCC[NH+](C)C)C1
REMARK SMILES IDX 9 1 8 2 6 3 7 4 5 6 1 7 2 8 3 9 76 10 4 11 69 12 70 13 71 14
REMARK SMILES IDX 72 15 73 16 74 17 75 18 10 20 11 21 12 22 13 23 14 25 15 26
REMARK SMILES IDX 16 27 68 28 17 29 67 30 18 31 19 32 20 33 61 34 21 35 66 36
REMARK SMILES IDX 60 37 62 38 22 39 65 40 59 41 58 42 23 44 49 45 32 46 48 47
REMARK SMILES IDX 33 48 36 49 47 50 63 51 34 52 35 53 46 55 64 56 37 57 24 58
REMARK SMILES IDX 25 59 30 60 26 61 27 62 29 63 31 64 28 65 50 66 51 67 56 68
REMARK SMILES IDX 52 69 53 70 55 71 57 72 54 73 38 74 39 75 44 76 40 77 41 78
REMARK SMILES IDX 43 79 45 80 42 81
REMARK H PARENT 8 5 73 19 12 24 62 43 36 54
REMARK Flexibility Score: inf
ROOT
ATOM      1  C   UNL A   1      31.543  30.859  25.969  1.00  0.00     0.117 C 
ENDROOT
BRANCH   1   2
ATOM      2  N   UNL A   1      32.816  30.207  26.161  1.00  0.00    -0.356 N 
ATOM      3  C   UNL A   1      33.202  28.918  26.045  1.00  0.00     0.224 C 
ATOM      4  O   UNL A   1      34.404  28.713  26.246  1.00  0.00    -0.275 OA
ATOM      5  H   UNL A   1      33.540  30.819  26.425  1.00  0.00     0.163 HD
BRANCH   3   6
ATOM      6  C   UNL A   1      32.212  27.760  25.777  1.00  0.00     0.091 C 
ATOM      7  C   UNL A   1      33.147  25.180  22.663  1.00  0.00     0.007 C 
ATOM      8  C   UNL A   1      33.671  26.317  23.543  1.00  0.00    -0.013 C 
ATOM      9  C   UNL A   1      33.902  25.903  25.010  1.00  0.00     0.004 C 
ATOM     10  C   UNL A   1      32.855  27.586  23.307  1.00  0.00     0.018 C 
ATOM     11  C   UNL A   1      33.067  26.535  26.133  1.00  0.00     0.015 C 
ATOM     12  C   UNL A   1      31.721  27.856  24.308  1.00  0.00     0.059 C 
BRANCH  12  13
ATOM     13  S   UNL A   1      30.092  27.346  23.486  1.00  0.00    -0.152 SA
BRANCH  13  14
ATOM     14  C   UNL A   1      29.103  28.715  22.749  1.00  0.00     0.131 C 
BRANCH  14  15
ATOM     15  C   UNL A   1      29.865  29.883  22.033  1.00  0.00     0.272 C 
BRANCH  15  16
ATOM     16  N   UNL A   1      29.479  31.276  22.348  1.00  0.00    -0.339 N 
ATOM     17  C   UNL A   1      28.693  31.904  21.278  1.00  0.00     0.332 C 
ATOM     18  C   UNL A   1      28.773  31.361  23.598  1.00  0.00     0.332 C 
ATOM     19  H   UNL A   1      30.353  31.797  22.428  1.00  0.00     0.347 HD
ENDBRANCH  15  16
ENDBRANCH  14  15
ENDBRANCH  13  14
ENDBRANCH  12  13
ENDBRANCH   3   6
ENDBRANCH   1   2
BRANCH   1  20
ATOM     20  C   UNL A   1      31.373  32.099  26.843  1.00  0.00     0.042 C 
BRANCH  20  21
ATOM     21  C   UNL A   1      32.662  32.848  27.192  1.00  0.00     0.118 C 
BRANCH  21  22
ATOM     22  N   UNL A   1      32.444  34.217  27.643  1.00  0.00    -0.352 N 
ATOM     23  C   UNL A   1      33.062  34.947  28.625  1.00  0.00     0.251 C 
ATOM     24  H   UNL A   1      31.734  34.698  27.160  1.00  0.00     0.163 HD
ATOM     25  O   UNL A   1      32.620  36.059  28.920  1.00  0.00    -0.269 OA
BRANCH  23  26
ATOM     26  C   UNL A   1      34.229  34.413  29.356  1.00  0.00     0.039 A 
ATOM     27  C   UNL A   1      34.015  33.745  30.566  1.00  0.00     0.014 A 
ATOM     28  C   UNL A   1      35.530  34.586  28.879  1.00  0.00     0.014 A 
ATOM     29  C   UNL A   1      35.096  33.192  31.256  1.00  0.00     0.010 A 
ATOM     30  C   UNL A   1      36.596  33.962  29.524  1.00  0.00     0.010 A 
ATOM     31  C   UNL A   1      36.392  33.259  30.721  1.00  0.00    -0.014 A 
BRANCH  31  32
ATOM     32  C   UNL A   1      37.535  32.591  31.397  1.00  0.00     0.031 A 
ATOM     33  C   UNL A   1      38.219  31.413  30.759  1.00  0.00     0.074 A 
ATOM     34  C   UNL A   1      37.924  33.015  32.616  1.00  0.00     0.049 A 
ATOM     35  N   UNL A   1      39.207  30.684  31.214  1.00  0.00    -0.248 NA
ATOM     36  C   UNL A   1      37.710  30.979  29.449  1.00  0.00     0.031 C 
ATOM     37  C   UNL A   1      37.310  34.113  33.366  1.00  0.00     0.029 A 
ATOM     38  N   UNL A   1      38.928  32.572  33.441  1.00  0.00    -0.354 N 
ATOM     39  C   UNL A   1      39.429  29.704  30.254  1.00  0.00     0.074 A 
ATOM     40  C   UNL A   1      38.434  29.893  29.222  1.00  0.00     0.031 C 
ATOM     41  C   UNL A   1      37.968  34.277  34.525  1.00  0.00     0.029 A 
ATOM     42  C   UNL A   1      39.023  33.274  34.619  1.00  0.00     0.049 A 
ATOM     43  H   UNL A   1      39.523  31.822  33.213  1.00  0.00     0.167 HD
ATOM     44  C   UNL A   1      40.391  28.751  30.222  1.00  0.00     0.037 A 
ATOM     45  C   UNL A   1      39.863  33.124  35.661  1.00  0.00     0.037 A 
ATOM     46  C   UNL A   1      41.390  28.576  31.245  1.00  0.00     0.049 A 
ATOM     47  C   UNL A   1      40.915  32.051  35.607  1.00  0.00     0.074 A 
ATOM     48  C   UNL A   1      42.438  27.672  31.279  1.00  0.00     0.029 A 
ATOM     49  N   UNL A   1      41.461  29.315  32.416  1.00  0.00    -0.354 N 
ATOM     50  N   UNL A   1      41.159  31.179  34.659  1.00  0.00    -0.248 NA
ATOM     51  C   UNL A   1      41.816  31.948  36.763  1.00  0.00     0.031 C 
ATOM     52  C   UNL A   1      43.111  27.829  32.496  1.00  0.00     0.029 A 
ATOM     53  C   UNL A   1      42.521  28.873  33.191  1.00  0.00     0.049 A 
ATOM     54  H   UNL A   1      40.848  30.045  32.660  1.00  0.00     0.167 HD
ATOM     55  C   UNL A   1      42.261  30.449  35.086  1.00  0.00     0.074 A 
ATOM     56  C   UNL A   1      42.645  30.989  36.373  1.00  0.00     0.031 C 
ATOM     57  C   UNL A   1      42.900  29.427  34.466  1.00  0.00     0.037 A 
BRANCH  44  58
ATOM     58  C   UNL A   1      40.409  27.822  29.041  1.00  0.00     0.057 A 
ATOM     59  C   UNL A   1      41.193  28.078  27.909  1.00  0.00     0.134 A 
ATOM     60  C   UNL A   1      39.660  26.637  29.049  1.00  0.00     0.134 A 
ATOM     61  F   UNL A   1      41.928  29.199  27.830  1.00  0.00    -0.206 F 
ATOM     62  C   UNL A   1      41.210  27.209  26.816  1.00  0.00     0.040 A 
ATOM     63  C   UNL A   1      39.692  25.745  27.976  1.00  0.00     0.040 A 
ATOM     64  F   UNL A   1      38.892  26.323  30.103  1.00  0.00    -0.206 F 
ATOM     65  C   UNL A   1      40.463  26.034  26.852  1.00  0.00     0.006 A 
ENDBRANCH  44  58
BRANCH  45  66
ATOM     66  C   UNL A   1      39.765  34.030  36.835  1.00  0.00     0.057 A 
ATOM     67  C   UNL A   1      40.465  35.242  36.876  1.00  0.00     0.134 A 
ATOM     68  C   UNL A   1      38.980  33.704  37.948  1.00  0.00     0.134 A 
ATOM     69  F   UNL A   1      41.247  35.603  35.847  1.00  0.00    -0.206 F 
ATOM     70  C   UNL A   1      40.409  36.084  37.987  1.00  0.00     0.040 A 
ATOM     71  C   UNL A   1      38.892  34.550  39.054  1.00  0.00     0.040 A 
ATOM     72  F   UNL A   1      38.275  32.563  37.970  1.00  0.00    -0.206 F 
ATOM     73  C   UNL A   1      39.615  35.740  39.080  1.00  0.00     0.006 A 
ENDBRANCH  45  66
BRANCH  57  74
ATOM     74  C   UNL A   1      44.114  28.859  35.146  1.00  0.00     0.057 A 
ATOM     75  C   UNL A   1      44.032  27.792  36.049  1.00  0.00     0.134 A 
ATOM     76  C   UNL A   1      45.388  29.365  34.858  1.00  0.00     0.134 A 
ATOM     77  F   UNL A   1      42.841  27.267  36.377  1.00  0.00    -0.206 F 
ATOM     78  C   UNL A   1      45.170  27.270  36.665  1.00  0.00     0.040 A 
ATOM     79  C   UNL A   1      46.536  28.831  35.443  1.00  0.00     0.040 A 
ATOM     80  F   UNL A   1      45.540  30.380  33.994  1.00  0.00    -0.206 F 
ATOM     81  C   UNL A   1      46.429  27.784  36.356  1.00  0.00     0.006 A 
ENDBRANCH  57  74
ENDBRANCH  31  32
ENDBRANCH  23  26
ENDBRANCH  21  22
ENDBRANCH  20  21
ENDBRANCH   1  20
TORSDOF 14
ENDMDL
