MODEL 1
REMARK VINA RESULT:     -11.6      0.000      0.000
REMARK SMILES CC[C@@H](C(=O)NCCCNC(=O)c1ccc(-c2c3nc(c(-c4c(F)cccc4F)c4ccc([nH]4)c(-c4c(F)cccc4F)c4nc(c(-c5c(F)cccc5F)c5ccc2[nH]5)C=C4)C=C3)cc1)n1c(SCc2cccc(C(F)(F)F)c2)nc2ccncc21
REMARK SMILES IDX 4 1 5 2 6 3 3 5 2 6 1 7 67 8 68 9 87 10 81 11 82 12 86 13
REMARK SMILES IDX 83 14 85 15 84 16 69 17 70 18 71 19 72 20 80 21 73 22 75 23
REMARK SMILES IDX 74 24 76 25 77 26 78 27 79 28 7 29 8 30 9 31 10 32 11 33
REMARK SMILES IDX 12 35 13 36 14 37 66 38 15 39 65 40 16 41 17 42 18 43 59 44
REMARK SMILES IDX 19 45 64 46 58 47 60 48 20 49 63 50 57 51 56 52 21 54 47 55
REMARK SMILES IDX 30 56 46 57 31 58 34 59 45 60 61 61 32 62 33 63 44 65 62 66
REMARK SMILES IDX 35 67 22 68 23 69 28 70 24 71 25 72 27 73 29 74 26 75 48 76
REMARK SMILES IDX 49 77 54 78 50 79 51 80 53 81 55 82 52 83 36 84 37 85 42 86
REMARK SMILES IDX 38 87 39 88 41 89 43 90 40 91
REMARK H PARENT 6 4 10 34 60 53 34 64
REMARK Flexibility Score: inf
ROOT
ATOM      1  C   UNL A   1      32.535  28.411  25.904  1.00  0.00     0.243 C 
ATOM      2  O   UNL A   1      33.615  27.959  26.286  1.00  0.00    -0.273 OA
ATOM      3  N   UNL A   1      32.386  29.752  26.108  1.00  0.00    -0.354 N 
ATOM      4  H   UNL A   1      33.147  30.158  26.582  1.00  0.00     0.163 HD
ENDROOT
BRANCH   1   5
ATOM      5  C   UNL A   1      31.418  27.539  25.324  1.00  0.00     0.178 C 
BRANCH   5   6
ATOM      6  C   UNL A   1      31.683  26.040  25.604  1.00  0.00     0.032 C 
ATOM      7  C   UNL A   1      30.557  25.112  25.198  1.00  0.00     0.006 C 
ENDBRANCH   5   6
BRANCH   5   8
ATOM      8  N   UNL A   1      31.170  27.703  23.858  1.00  0.00    -0.305 N 
ATOM      9  C   UNL A   1      32.182  28.149  23.015  1.00  0.00     0.170 A 
ATOM     10  C   UNL A   1      30.000  28.225  23.303  1.00  0.00     0.088 A 
ATOM     11  N   UNL A   1      31.810  29.216  22.345  1.00  0.00    -0.222 NA
ATOM     12  C   UNL A   1      30.445  29.237  22.453  1.00  0.00     0.093 A 
ATOM     13  C   UNL A   1      28.643  27.968  23.443  1.00  0.00     0.139 A 
ATOM     14  C   UNL A   1      29.529  30.066  21.806  1.00  0.00     0.051 A 
ATOM     15  N   UNL A   1      27.752  28.744  22.779  1.00  0.00    -0.262 NA
ATOM     16  C   UNL A   1      28.196  29.758  22.006  1.00  0.00     0.113 A 
BRANCH   9  17
ATOM     17  S   UNL A   1      33.497  27.176  22.458  1.00  0.00    -0.083 SA
BRANCH  17  18
ATOM     18  C   UNL A   1      32.922  25.522  22.112  1.00  0.00     0.113 C 
BRANCH  18  19
ATOM     19  C   UNL A   1      33.411  24.317  22.876  1.00  0.00    -0.037 A 
ATOM     20  C   UNL A   1      32.641  23.142  22.779  1.00  0.00     0.004 A 
ATOM     21  C   UNL A   1      34.609  24.267  23.601  1.00  0.00     0.017 A 
ATOM     22  C   UNL A   1      33.016  21.973  23.436  1.00  0.00     0.001 A 
ATOM     23  C   UNL A   1      34.983  23.101  24.297  1.00  0.00     0.056 A 
ATOM     24  C   UNL A   1      34.172  21.959  24.208  1.00  0.00     0.013 A 
BRANCH  23  25
ATOM     25  C   UNL A   1      36.198  23.082  25.196  1.00  0.00     0.416 C 
ATOM     26  F   UNL A   1      35.892  23.473  26.466  1.00  0.00    -0.166 F 
ATOM     27  F   UNL A   1      36.745  21.840  25.314  1.00  0.00    -0.166 F 
ATOM     28  F   UNL A   1      37.204  23.897  24.781  1.00  0.00    -0.166 F 
ENDBRANCH  23  25
ENDBRANCH  18  19
ENDBRANCH  17  18
ENDBRANCH   9  17
ENDBRANCH   5   8
ENDBRANCH   1   5
BRANCH   3  29
ATOM     29  C   UNL A   1      31.342  30.708  25.776  1.00  0.00     0.117 C 
BRANCH  29  30
ATOM     30  C   UNL A   1      31.274  31.909  26.723  1.00  0.00     0.042 C 
BRANCH  30  31
ATOM     31  C   UNL A   1      32.595  32.626  26.999  1.00  0.00     0.118 C 
BRANCH  31  32
ATOM     32  N   UNL A   1      32.411  33.920  27.632  1.00  0.00    -0.352 N 
ATOM     33  C   UNL A   1      33.139  34.531  28.627  1.00  0.00     0.251 C 
ATOM     34  H   UNL A   1      31.646  34.443  27.297  1.00  0.00     0.163 HD
ATOM     35  O   UNL A   1      32.691  35.540  29.164  1.00  0.00    -0.269 OA
BRANCH  33  36
ATOM     36  C   UNL A   1      34.439  33.979  29.082  1.00  0.00     0.039 A 
ATOM     37  C   UNL A   1      34.467  33.202  30.246  1.00  0.00     0.014 A 
ATOM     38  C   UNL A   1      35.633  34.258  28.412  1.00  0.00     0.014 A 
ATOM     39  C   UNL A   1      35.672  32.650  30.695  1.00  0.00     0.010 A 
ATOM     40  C   UNL A   1      36.825  33.655  28.824  1.00  0.00     0.010 A 
ATOM     41  C   UNL A   1      36.856  32.841  29.966  1.00  0.00    -0.014 A 
BRANCH  41  42
ATOM     42  C   UNL A   1      38.126  32.176  30.369  1.00  0.00     0.031 A 
ATOM     43  C   UNL A   1      39.064  32.834  31.343  1.00  0.00     0.074 A 
ATOM     44  C   UNL A   1      38.467  31.000  29.807  1.00  0.00     0.049 A 
ATOM     45  N   UNL A   1      40.240  32.433  31.759  1.00  0.00    -0.248 NA
ATOM     46  C   UNL A   1      38.632  34.121  31.907  1.00  0.00     0.031 C 
ATOM     47  C   UNL A   1      37.663  30.266  28.830  1.00  0.00     0.029 A 
ATOM     48  N   UNL A   1      39.586  30.220  29.973  1.00  0.00    -0.354 N 
ATOM     49  C   UNL A   1      40.694  33.421  32.624  1.00  0.00     0.074 A 
ATOM     50  C   UNL A   1      39.686  34.462  32.635  1.00  0.00     0.031 C 
ATOM     51  C   UNL A   1      38.300  29.131  28.502  1.00  0.00     0.029 A 
ATOM     52  C   UNL A   1      39.575  29.077  29.211  1.00  0.00     0.049 A 
ATOM     53  H   UNL A   1      40.324  30.457  30.579  1.00  0.00     0.167 HD
ATOM     54  C   UNL A   1      41.834  33.451  33.357  1.00  0.00     0.037 A 
ATOM     55  C   UNL A   1      40.492  28.099  29.087  1.00  0.00     0.037 A 
ATOM     56  C   UNL A   1      42.832  32.412  33.355  1.00  0.00     0.049 A 
ATOM     57  C   UNL A   1      41.773  28.178  29.868  1.00  0.00     0.074 A 
ATOM     58  C   UNL A   1      43.987  32.323  34.112  1.00  0.00     0.029 A 
ATOM     59  N   UNL A   1      42.799  31.287  32.544  1.00  0.00    -0.354 N 
ATOM     60  N   UNL A   1      42.159  29.086  30.731  1.00  0.00    -0.248 NA
ATOM     61  C   UNL A   1      42.747  27.100  29.653  1.00  0.00     0.031 C 
ATOM     62  C   UNL A   1      44.679  31.170  33.724  1.00  0.00     0.029 A 
ATOM     63  C   UNL A   1      43.931  30.516  32.757  1.00  0.00     0.049 A 
ATOM     64  H   UNL A   1      42.078  31.068  31.911  1.00  0.00     0.167 HD
ATOM     65  C   UNL A   1      43.410  28.680  31.177  1.00  0.00     0.074 A 
ATOM     66  C   UNL A   1      43.713  27.438  30.498  1.00  0.00     0.031 C 
ATOM     67  C   UNL A   1      44.231  29.285  32.070  1.00  0.00     0.037 A 
BRANCH  54  68
ATOM     68  C   UNL A   1      42.064  34.662  34.217  1.00  0.00     0.057 A 
ATOM     69  C   UNL A   1      41.631  34.717  35.549  1.00  0.00     0.134 A 
ATOM     70  C   UNL A   1      42.736  35.782  33.711  1.00  0.00     0.134 A 
ATOM     71  F   UNL A   1      40.973  33.681  36.093  1.00  0.00    -0.206 F 
ATOM     72  C   UNL A   1      41.823  35.855  36.334  1.00  0.00     0.040 A 
ATOM     73  C   UNL A   1      42.958  36.916  34.495  1.00  0.00     0.040 A 
ATOM     74  F   UNL A   1      43.187  35.794  32.447  1.00  0.00    -0.206 F 
ATOM     75  C   UNL A   1      42.492  36.958  35.807  1.00  0.00     0.006 A 
ENDBRANCH  54  68
BRANCH  55  76
ATOM     76  C   UNL A   1      40.216  26.941  28.201  1.00  0.00     0.057 A 
ATOM     77  C   UNL A   1      40.752  26.884  26.910  1.00  0.00     0.134 A 
ATOM     78  C   UNL A   1      39.435  25.859  28.626  1.00  0.00     0.134 A 
ATOM     79  F   UNL A   1      41.493  27.899  26.442  1.00  0.00    -0.206 F 
ATOM     80  C   UNL A   1      40.519  25.795  26.069  1.00  0.00     0.040 A 
ATOM     81  C   UNL A   1      39.211  24.754  27.804  1.00  0.00     0.040 A 
ATOM     82  F   UNL A   1      38.899  25.852  29.855  1.00  0.00    -0.206 F 
ATOM     83  C   UNL A   1      39.752  24.721  26.520  1.00  0.00     0.006 A 
ENDBRANCH  55  76
BRANCH  67  84
ATOM     84  C   UNL A   1      45.532  28.603  32.377  1.00  0.00     0.057 A 
ATOM     85  C   UNL A   1      45.634  27.627  33.376  1.00  0.00     0.134 A 
ATOM     86  C   UNL A   1      46.686  28.898  31.640  1.00  0.00     0.134 A 
ATOM     87  F   UNL A   1      44.570  27.309  34.127  1.00  0.00    -0.206 F 
ATOM     88  C   UNL A   1      46.843  26.980  33.642  1.00  0.00     0.040 A 
ATOM     89  C   UNL A   1      47.893  28.241  31.880  1.00  0.00     0.040 A 
ATOM     90  F   UNL A   1      46.655  29.820  30.666  1.00  0.00    -0.206 F 
ATOM     91  C   UNL A   1      47.975  27.282  32.887  1.00  0.00     0.006 A 
ENDBRANCH  67  84
ENDBRANCH  41  42
ENDBRANCH  33  36
ENDBRANCH  31  32
ENDBRANCH  30  31
ENDBRANCH  29  30
ENDBRANCH   3  29
TORSDOF 16
ENDMDL
MODEL 2
REMARK VINA RESULT:     -11.6      3.423      5.528
REMARK SMILES CC[C@@H](C(=O)NCCCNC(=O)c1ccc(-c2c3nc(c(-c4c(F)cccc4F)c4ccc([nH]4)c(-c4c(F)cccc4F)c4nc(c(-c5c(F)cccc5F)c5ccc2[nH]5)C=C4)C=C3)cc1)n1c(SCc2cccc(C(F)(F)F)c2)nc2ccncc21
REMARK SMILES IDX 4 1 5 2 6 3 3 5 2 6 1 7 67 8 68 9 87 10 81 11 82 12 86 13
REMARK SMILES IDX 83 14 85 15 84 16 69 17 70 18 71 19 72 20 80 21 73 22 75 23
REMARK SMILES IDX 74 24 76 25 77 26 78 27 79 28 7 29 8 30 9 31 10 32 11 33
REMARK SMILES IDX 12 35 13 36 14 37 66 38 15 39 65 40 16 41 17 42 18 43 59 44
REMARK SMILES IDX 19 45 64 46 58 47 60 48 20 49 63 50 57 51 56 52 21 54 47 55
REMARK SMILES IDX 30 56 46 57 31 58 34 59 45 60 61 61 32 62 33 63 44 65 62 66
REMARK SMILES IDX 35 67 22 68 23 69 28 70 24 71 25 72 27 73 29 74 26 75 48 76
REMARK SMILES IDX 49 77 54 78 50 79 51 80 53 81 55 82 52 83 36 84 37 85 42 86
REMARK SMILES IDX 38 87 39 88 41 89 43 90 40 91
REMARK H PARENT 6 4 10 34 60 53 34 64
REMARK Flexibility Score: inf
ROOT
ATOM      1  C   UNL A   1      31.784  24.255  26.442  1.00  0.00     0.243 C 
ATOM      2  O   UNL A   1      31.611  23.323  27.229  1.00  0.00    -0.273 OA
ATOM      3  N   UNL A   1      31.554  25.489  26.978  1.00  0.00    -0.354 N 
ATOM      4  H   UNL A   1      31.230  25.453  27.907  1.00  0.00     0.163 HD
ENDROOT
BRANCH   1   5
ATOM      5  C   UNL A   1      32.144  24.053  24.968  1.00  0.00     0.178 C 
BRANCH   5   6
ATOM      6  C   UNL A   1      31.849  22.603  24.518  1.00  0.00     0.032 C 
ATOM      7  C   UNL A   1      31.596  22.440  23.034  1.00  0.00     0.006 C 
ENDBRANCH   5   6
BRANCH   5   8
ATOM      8  N   UNL A   1      33.558  24.377  24.603  1.00  0.00    -0.305 N 
ATOM      9  C   UNL A   1      33.861  24.919  23.358  1.00  0.00     0.170 A 
ATOM     10  C   UNL A   1      34.663  23.581  24.912  1.00  0.00     0.088 A 
ATOM     11  N   UNL A   1      34.748  24.189  22.722  1.00  0.00    -0.222 NA
ATOM     12  C   UNL A   1      35.309  23.400  23.690  1.00  0.00     0.093 A 
ATOM     13  C   UNL A   1      35.159  22.990  26.066  1.00  0.00     0.139 A 
ATOM     14  C   UNL A   1      36.408  22.546  23.595  1.00  0.00     0.051 A 
ATOM     15  N   UNL A   1      36.255  22.196  25.983  1.00  0.00    -0.262 NA
ATOM     16  C   UNL A   1      36.835  21.983  24.783  1.00  0.00     0.113 A 
BRANCH   9  17
ATOM     17  S   UNL A   1      33.602  26.570  22.917  1.00  0.00    -0.083 SA
BRANCH  17  18
ATOM     18  C   UNL A   1      31.884  26.825  22.504  1.00  0.00     0.113 C 
BRANCH  18  19
ATOM     19  C   UNL A   1      31.099  28.012  23.001  1.00  0.00    -0.037 A 
ATOM     20  C   UNL A   1      31.739  28.863  23.923  1.00  0.00     0.004 A 
ATOM     21  C   UNL A   1      29.821  28.366  22.550  1.00  0.00     0.017 A 
ATOM     22  C   UNL A   1      31.103  29.992  24.431  1.00  0.00     0.001 A 
ATOM     23  C   UNL A   1      29.152  29.487  23.080  1.00  0.00     0.056 A 
ATOM     24  C   UNL A   1      29.807  30.292  24.025  1.00  0.00     0.013 A 
BRANCH  23  25
ATOM     25  C   UNL A   1      27.720  29.794  22.706  1.00  0.00     0.416 C 
ATOM     26  F   UNL A   1      27.269  30.922  23.324  1.00  0.00    -0.166 F 
ATOM     27  F   UNL A   1      27.563  30.016  21.371  1.00  0.00    -0.166 F 
ATOM     28  F   UNL A   1      26.842  28.808  23.028  1.00  0.00    -0.166 F 
ENDBRANCH  23  25
ENDBRANCH  18  19
ENDBRANCH  17  18
ENDBRANCH   9  17
ENDBRANCH   5   8
ENDBRANCH   1   5
BRANCH   3  29
ATOM     29  C   UNL A   1      31.683  26.844  26.469  1.00  0.00     0.117 C 
BRANCH  29  30
ATOM     30  C   UNL A   1      32.131  27.864  27.519  1.00  0.00     0.042 C 
BRANCH  30  31
ATOM     31  C   UNL A   1      33.502  28.501  27.299  1.00  0.00     0.118 C 
BRANCH  31  32
ATOM     32  N   UNL A   1      33.515  29.924  27.594  1.00  0.00    -0.352 N 
ATOM     33  C   UNL A   1      34.491  30.697  28.179  1.00  0.00     0.251 C 
ATOM     34  H   UNL A   1      32.698  30.410  27.335  1.00  0.00     0.163 HD
ATOM     35  O   UNL A   1      34.219  31.844  28.525  1.00  0.00    -0.269 OA
BRANCH  33  36
ATOM     36  C   UNL A   1      35.854  30.166  28.423  1.00  0.00     0.039 A 
ATOM     37  C   UNL A   1      36.775  30.173  27.368  1.00  0.00     0.014 A 
ATOM     38  C   UNL A   1      36.222  29.616  29.654  1.00  0.00     0.014 A 
ATOM     39  C   UNL A   1      38.076  29.697  27.568  1.00  0.00     0.010 A 
ATOM     40  C   UNL A   1      37.539  29.201  29.871  1.00  0.00     0.010 A 
ATOM     41  C   UNL A   1      38.481  29.241  28.832  1.00  0.00    -0.014 A 
BRANCH  41  42
ATOM     42  C   UNL A   1      39.888  28.830  29.090  1.00  0.00     0.031 A 
ATOM     43  C   UNL A   1      40.858  29.772  29.746  1.00  0.00     0.074 A 
ATOM     44  C   UNL A   1      40.313  27.621  28.673  1.00  0.00     0.049 A 
ATOM     45  N   UNL A   1      42.135  29.608  29.991  1.00  0.00    -0.248 NA
ATOM     46  C   UNL A   1      40.328  31.078  30.164  1.00  0.00     0.031 C 
ATOM     47  C   UNL A   1      39.485  26.620  28.000  1.00  0.00     0.029 A 
ATOM     48  N   UNL A   1      41.552  27.033  28.748  1.00  0.00    -0.354 N 
ATOM     49  C   UNL A   1      42.563  30.790  30.581  1.00  0.00     0.074 A 
ATOM     50  C   UNL A   1      41.420  31.681  30.613  1.00  0.00     0.031 C 
ATOM     51  C   UNL A   1      40.230  25.533  27.747  1.00  0.00     0.029 A 
ATOM     52  C   UNL A   1      41.597  25.774  28.200  1.00  0.00     0.049 A 
ATOM     53  H   UNL A   1      42.334  27.471  29.156  1.00  0.00     0.167 HD
ATOM     54  C   UNL A   1      43.789  31.102  31.068  1.00  0.00     0.037 A 
ATOM     55  C   UNL A   1      42.623  24.913  28.066  1.00  0.00     0.037 A 
ATOM     56  C   UNL A   1      44.924  30.215  31.047  1.00  0.00     0.049 A 
ATOM     57  C   UNL A   1      43.986  25.299  28.565  1.00  0.00     0.074 A 
ATOM     58  C   UNL A   1      46.188  30.416  31.575  1.00  0.00     0.029 A 
ATOM     59  N   UNL A   1      44.936  28.962  30.452  1.00  0.00    -0.354 N 
ATOM     60  N   UNL A   1      44.361  26.395  29.178  1.00  0.00    -0.248 NA
ATOM     61  C   UNL A   1      45.070  24.330  28.349  1.00  0.00     0.031 C 
ATOM     62  C   UNL A   1      46.979  29.307  31.256  1.00  0.00     0.029 A 
ATOM     63  C   UNL A   1      46.195  28.394  30.569  1.00  0.00     0.049 A 
ATOM     64  H   UNL A   1      44.165  28.538  30.013  1.00  0.00     0.167 HD
ATOM     65  C   UNL A   1      45.716  26.241  29.439  1.00  0.00     0.074 A 
ATOM     66  C   UNL A   1      46.095  24.941  28.927  1.00  0.00     0.031 C 
ATOM     67  C   UNL A   1      46.568  27.102  30.049  1.00  0.00     0.037 A 
BRANCH  54  68
ATOM     68  C   UNL A   1      43.965  32.473  31.659  1.00  0.00     0.057 A 
ATOM     69  C   UNL A   1      43.727  32.730  33.016  1.00  0.00     0.134 A 
ATOM     70  C   UNL A   1      44.386  33.546  30.864  1.00  0.00     0.134 A 
ATOM     71  F   UNL A   1      43.313  31.747  33.832  1.00  0.00    -0.206 F 
ATOM     72  C   UNL A   1      43.864  34.011  33.554  1.00  0.00     0.040 A 
ATOM     73  C   UNL A   1      44.553  34.827  31.395  1.00  0.00     0.040 A 
ATOM     74  F   UNL A   1      44.641  33.370  29.559  1.00  0.00    -0.206 F 
ATOM     75  C   UNL A   1      44.282  35.064  32.741  1.00  0.00     0.006 A 
ENDBRANCH  54  68
BRANCH  55  76
ATOM     76  C   UNL A   1      42.391  23.583  27.450  1.00  0.00     0.057 A 
ATOM     77  C   UNL A   1      42.475  23.412  26.064  1.00  0.00     0.134 A 
ATOM     78  C   UNL A   1      42.105  22.453  28.226  1.00  0.00     0.134 A 
ATOM     79  F   UNL A   1      42.728  24.462  25.269  1.00  0.00    -0.206 F 
ATOM     80  C   UNL A   1      42.278  22.165  25.468  1.00  0.00     0.040 A 
ATOM     81  C   UNL A   1      41.926  21.197  27.646  1.00  0.00     0.040 A 
ATOM     82  F   UNL A   1      42.017  22.552  29.560  1.00  0.00    -0.206 F 
ATOM     83  C   UNL A   1      42.011  21.051  26.262  1.00  0.00     0.006 A 
ENDBRANCH  55  76
BRANCH  67  84
ATOM     84  C   UNL A   1      47.992  26.659  30.210  1.00  0.00     0.057 A 
ATOM     85  C   UNL A   1      48.980  27.004  29.279  1.00  0.00     0.134 A 
ATOM     86  C   UNL A   1      48.388  25.912  31.327  1.00  0.00     0.134 A 
ATOM     87  F   UNL A   1      48.664  27.704  28.181  1.00  0.00    -0.206 F 
ATOM     88  C   UNL A   1      50.309  26.607  29.446  1.00  0.00     0.040 A 
ATOM     89  C   UNL A   1      49.716  25.530  31.517  1.00  0.00     0.040 A 
ATOM     90  F   UNL A   1      47.492  25.553  32.258  1.00  0.00    -0.206 F 
ATOM     91  C   UNL A   1      50.681  25.874  30.572  1.00  0.00     0.006 A 
ENDBRANCH  67  84
ENDBRANCH  41  42
ENDBRANCH  33  36
ENDBRANCH  31  32
ENDBRANCH  30  31
ENDBRANCH  29  30
ENDBRANCH   3  29
TORSDOF 16
ENDMDL
MODEL 3
REMARK VINA RESULT:     -11.3      2.564      7.325
REMARK SMILES CC[C@@H](C(=O)NCCCNC(=O)c1ccc(-c2c3nc(c(-c4c(F)cccc4F)c4ccc([nH]4)c(-c4c(F)cccc4F)c4nc(c(-c5c(F)cccc5F)c5ccc2[nH]5)C=C4)C=C3)cc1)n1c(SCc2cccc(C(F)(F)F)c2)nc2ccncc21
REMARK SMILES IDX 4 1 5 2 6 3 3 5 2 6 1 7 67 8 68 9 87 10 81 11 82 12 86 13
REMARK SMILES IDX 83 14 85 15 84 16 69 17 70 18 71 19 72 20 80 21 73 22 75 23
REMARK SMILES IDX 74 24 76 25 77 26 78 27 79 28 7 29 8 30 9 31 10 32 11 33
REMARK SMILES IDX 12 35 13 36 14 37 66 38 15 39 65 40 16 41 17 42 18 43 59 44
REMARK SMILES IDX 19 45 64 46 58 47 60 48 20 49 63 50 57 51 56 52 21 54 47 55
REMARK SMILES IDX 30 56 46 57 31 58 34 59 45 60 61 61 32 62 33 63 44 65 62 66
REMARK SMILES IDX 35 67 22 68 23 69 28 70 24 71 25 72 27 73 29 74 26 75 48 76
REMARK SMILES IDX 49 77 54 78 50 79 51 80 53 81 55 82 52 83 36 84 37 85 42 86
REMARK SMILES IDX 38 87 39 88 41 89 43 90 40 91
REMARK H PARENT 6 4 10 34 60 53 34 64
REMARK Flexibility Score: inf
ROOT
ATOM      1  C   UNL A   1      33.410  25.429  22.719  1.00  0.00     0.243 C 
ATOM      2  O   UNL A   1      33.502  26.029  21.647  1.00  0.00    -0.273 OA
ATOM      3  N   UNL A   1      34.430  24.554  22.958  1.00  0.00    -0.354 N 
ATOM      4  H   UNL A   1      35.068  24.490  22.212  1.00  0.00     0.163 HD
ENDROOT
BRANCH   1   5
ATOM      5  C   UNL A   1      32.219  25.582  23.668  1.00  0.00     0.178 C 
BRANCH   5   6
ATOM      6  C   UNL A   1      31.176  26.570  23.094  1.00  0.00     0.032 C 
ATOM      7  C   UNL A   1      29.752  26.324  23.550  1.00  0.00     0.006 C 
ENDBRANCH   5   6
BRANCH   5   8
ATOM      8  N   UNL A   1      32.557  26.016  25.059  1.00  0.00    -0.305 N 
ATOM      9  C   UNL A   1      31.943  25.421  26.155  1.00  0.00     0.170 A 
ATOM     10  C   UNL A   1      32.760  27.341  25.452  1.00  0.00     0.088 A 
ATOM     11  N   UNL A   1      31.356  26.315  26.918  1.00  0.00    -0.222 NA
ATOM     12  C   UNL A   1      31.908  27.510  26.542  1.00  0.00     0.093 A 
ATOM     13  C   UNL A   1      33.540  28.395  24.996  1.00  0.00     0.139 A 
ATOM     14  C   UNL A   1      31.759  28.766  27.130  1.00  0.00     0.051 A 
ATOM     15  N   UNL A   1      33.429  29.606  25.596  1.00  0.00    -0.262 NA
ATOM     16  C   UNL A   1      32.557  29.769  26.613  1.00  0.00     0.113 A 
BRANCH   9  17
ATOM     17  S   UNL A   1      32.348  23.862  26.781  1.00  0.00    -0.083 SA
BRANCH  17  18
ATOM     18  C   UNL A   1      31.258  22.629  26.088  1.00  0.00     0.113 C 
BRANCH  18  19
ATOM     19  C   UNL A   1      31.651  21.766  24.915  1.00  0.00    -0.037 A 
ATOM     20  C   UNL A   1      31.501  22.325  23.631  1.00  0.00     0.004 A 
ATOM     21  C   UNL A   1      32.225  20.493  25.021  1.00  0.00     0.017 A 
ATOM     22  C   UNL A   1      31.848  21.613  22.486  1.00  0.00     0.001 A 
ATOM     23  C   UNL A   1      32.549  19.749  23.870  1.00  0.00     0.056 A 
ATOM     24  C   UNL A   1      32.352  20.323  22.604  1.00  0.00     0.013 A 
BRANCH  23  25
ATOM     25  C   UNL A   1      33.034  18.321  23.972  1.00  0.00     0.416 C 
ATOM     26  F   UNL A   1      32.265  17.587  24.826  1.00  0.00    -0.166 F 
ATOM     27  F   UNL A   1      32.990  17.665  22.778  1.00  0.00    -0.166 F 
ATOM     28  F   UNL A   1      34.313  18.203  24.417  1.00  0.00    -0.166 F 
ENDBRANCH  23  25
ENDBRANCH  18  19
ENDBRANCH  17  18
ENDBRANCH   9  17
ENDBRANCH   5   8
ENDBRANCH   1   5
BRANCH   3  29
ATOM     29  C   UNL A   1      34.773  23.696  24.080  1.00  0.00     0.117 C 
BRANCH  29  30
ATOM     30  C   UNL A   1      36.231  23.228  24.083  1.00  0.00     0.042 C 
BRANCH  30  31
ATOM     31  C   UNL A   1      37.085  23.692  25.262  1.00  0.00     0.118 C 
BRANCH  31  32
ATOM     32  N   UNL A   1      38.205  22.806  25.528  1.00  0.00    -0.352 N 
ATOM     33  C   UNL A   1      39.412  23.063  26.136  1.00  0.00     0.251 C 
ATOM     34  H   UNL A   1      38.082  21.876  25.226  1.00  0.00     0.163 HD
ATOM     35  O   UNL A   1      40.304  22.222  26.077  1.00  0.00    -0.269 OA
BRANCH  33  36
ATOM     36  C   UNL A   1      39.666  24.345  26.839  1.00  0.00     0.039 A 
ATOM     37  C   UNL A   1      39.149  24.516  28.129  1.00  0.00     0.014 A 
ATOM     38  C   UNL A   1      40.356  25.396  26.229  1.00  0.00     0.014 A 
ATOM     39  C   UNL A   1      39.384  25.705  28.828  1.00  0.00     0.010 A 
ATOM     40  C   UNL A   1      40.645  26.557  26.951  1.00  0.00     0.010 A 
ATOM     41  C   UNL A   1      40.167  26.722  28.260  1.00  0.00    -0.014 A 
BRANCH  41  42
ATOM     42  C   UNL A   1      40.514  27.949  29.028  1.00  0.00     0.031 A 
ATOM     43  C   UNL A   1      41.849  28.079  29.708  1.00  0.00     0.074 A 
ATOM     44  C   UNL A   1      39.598  28.927  29.168  1.00  0.00     0.049 A 
ATOM     45  N   UNL A   1      42.299  29.045  30.471  1.00  0.00    -0.248 NA
ATOM     46  C   UNL A   1      42.795  26.969  29.522  1.00  0.00     0.031 C 
ATOM     47  C   UNL A   1      38.257  28.917  28.584  1.00  0.00     0.029 A 
ATOM     48  N   UNL A   1      39.656  30.116  29.853  1.00  0.00    -0.354 N 
ATOM     49  C   UNL A   1      43.573  28.656  30.864  1.00  0.00     0.074 A 
ATOM     50  C   UNL A   1      43.805  27.344  30.294  1.00  0.00     0.031 C 
ATOM     51  C   UNL A   1      37.627  30.056  28.913  1.00  0.00     0.029 A 
ATOM     52  C   UNL A   1      38.502  30.857  29.764  1.00  0.00     0.049 A 
ATOM     53  H   UNL A   1      40.447  30.410  30.359  1.00  0.00     0.167 HD
ATOM     54  C   UNL A   1      44.475  29.334  31.615  1.00  0.00     0.037 A 
ATOM     55  C   UNL A   1      38.178  32.042  30.314  1.00  0.00     0.037 A 
ATOM     56  C   UNL A   1      44.251  30.643  32.174  1.00  0.00     0.049 A 
ATOM     57  C   UNL A   1      39.174  32.753  31.187  1.00  0.00     0.074 A 
ATOM     58  C   UNL A   1      45.128  31.437  32.892  1.00  0.00     0.029 A 
ATOM     59  N   UNL A   1      43.057  31.344  32.089  1.00  0.00    -0.354 N 
ATOM     60  N   UNL A   1      40.398  32.402  31.497  1.00  0.00    -0.248 NA
ATOM     61  C   UNL A   1      38.740  34.021  31.790  1.00  0.00     0.031 C 
ATOM     62  C   UNL A   1      44.450  32.597  33.285  1.00  0.00     0.029 A 
ATOM     63  C   UNL A   1      43.163  32.546  32.772  1.00  0.00     0.049 A 
ATOM     64  H   UNL A   1      42.253  31.034  31.613  1.00  0.00     0.167 HD
ATOM     65  C   UNL A   1      40.888  33.413  32.313  1.00  0.00     0.074 A 
ATOM     66  C   UNL A   1      39.832  34.396  32.441  1.00  0.00     0.031 C 
ATOM     67  C   UNL A   1      42.105  33.515  32.902  1.00  0.00     0.037 A 
BRANCH  54  68
ATOM     68  C   UNL A   1      45.791  28.659  31.882  1.00  0.00     0.057 A 
ATOM     69  C   UNL A   1      46.887  28.806  31.021  1.00  0.00     0.134 A 
ATOM     70  C   UNL A   1      45.967  27.861  33.020  1.00  0.00     0.134 A 
ATOM     71  F   UNL A   1      46.782  29.550  29.909  1.00  0.00    -0.206 F 
ATOM     72  C   UNL A   1      48.098  28.153  31.260  1.00  0.00     0.040 A 
ATOM     73  C   UNL A   1      47.182  27.225  33.284  1.00  0.00     0.040 A 
ATOM     74  F   UNL A   1      44.964  27.685  33.892  1.00  0.00    -0.206 F 
ATOM     75  C   UNL A   1      48.248  27.361  32.397  1.00  0.00     0.006 A 
ENDBRANCH  54  68
BRANCH  55  76
ATOM     76  C   UNL A   1      36.852  32.646  30.032  1.00  0.00     0.057 A 
ATOM     77  C   UNL A   1      35.742  32.337  30.826  1.00  0.00     0.134 A 
ATOM     78  C   UNL A   1      36.666  33.556  28.986  1.00  0.00     0.134 A 
ATOM     79  F   UNL A   1      35.856  31.458  31.832  1.00  0.00    -0.206 F 
ATOM     80  C   UNL A   1      34.492  32.909  30.588  1.00  0.00     0.040 A 
ATOM     81  C   UNL A   1      35.427  34.151  28.748  1.00  0.00     0.040 A 
ATOM     82  F   UNL A   1      37.693  33.897  28.193  1.00  0.00    -0.206 F 
ATOM     83  C   UNL A   1      34.334  33.826  29.550  1.00  0.00     0.006 A 
ENDBRANCH  55  76
BRANCH  67  84
ATOM     84  C   UNL A   1      42.367  34.741  33.728  1.00  0.00     0.057 A 
ATOM     85  C   UNL A   1      42.863  35.920  33.158  1.00  0.00     0.134 A 
ATOM     86  C   UNL A   1      42.084  34.754  35.100  1.00  0.00     0.134 A 
ATOM     87  F   UNL A   1      43.168  35.968  31.853  1.00  0.00    -0.206 F 
ATOM     88  C   UNL A   1      43.084  37.065  33.927  1.00  0.00     0.040 A 
ATOM     89  C   UNL A   1      42.278  35.898  35.874  1.00  0.00     0.040 A 
ATOM     90  F   UNL A   1      41.603  33.659  35.707  1.00  0.00    -0.206 F 
ATOM     91  C   UNL A   1      42.784  37.057  35.289  1.00  0.00     0.006 A 
ENDBRANCH  67  84
ENDBRANCH  41  42
ENDBRANCH  33  36
ENDBRANCH  31  32
ENDBRANCH  30  31
ENDBRANCH  29  30
ENDBRANCH   3  29
TORSDOF 16
ENDMDL
