MODEL 1
REMARK VINA RESULT:      -9.8      0.000      0.000
REMARK SMILES CC(C)Oc1ccc(-c2ccc(/C(=C\c3ccc(S(C)(=O)=O)cc3)C(=O)NCCCNC(=O)c3ccc(-c4c5nc(c(-c6c(F)cccc6F)c6ccc([nH]6)c(-c6c(F)cccc6F)c6nc(c(-c7c(F)cccc7F)c7ccc4[nH]7)C=C6)C=C5)cc3)cc2)cc1
REMARK SMILES IDX 28 1 27 2 25 3 26 4 13 6 14 7 12 8 9 9 10 10 89 11 11 12
REMARK SMILES IDX 88 13 8 14 5 15 6 16 91 17 7 18 90 19 4 20 2 21 1 22 3 23
REMARK SMILES IDX 15 24 16 25 24 26 17 27 23 28 18 29 19 30 20 31 21 32 22 33
REMARK SMILES IDX 29 34 30 35 31 36 32 37 33 39 34 40 35 41 87 42 36 43 86 44
REMARK SMILES IDX 37 45 38 46 39 47 80 48 40 49 85 50 79 51 81 52 41 53 84 54
REMARK SMILES IDX 78 55 77 56 42 58 68 59 51 60 67 61 52 62 55 63 66 64 82 65
REMARK SMILES IDX 53 66 54 67 65 69 83 70 56 71 43 72 44 73 49 74 45 75 46 76
REMARK SMILES IDX 48 77 50 78 47 79 69 80 70 81 75 82 71 83 72 84 74 85 76 86
REMARK SMILES IDX 73 87 57 88 58 89 63 90 59 91 60 92 62 93 64 94 61 95
REMARK H PARENT 27 5 31 38 81 57 55 68
REMARK Flexibility Score: inf
ROOT
ATOM      1  C   UNL A   1      34.773  32.968  30.853  1.00  0.00     0.118 C 
ENDROOT
BRANCH   1   2
ATOM      2  N   UNL A   1      35.156  34.038  31.752  1.00  0.00    -0.352 N 
ATOM      3  C   UNL A   1      36.248  34.305  32.516  1.00  0.00     0.251 C 
ATOM      4  O   UNL A   1      36.148  35.334  33.188  1.00  0.00    -0.269 OA
ATOM      5  H   UNL A   1      34.463  34.734  31.828  1.00  0.00     0.163 HD
BRANCH   3   6
ATOM      6  C   UNL A   1      37.519  33.463  32.517  1.00  0.00     0.047 C 
ATOM      7  C   UNL A   1      37.640  32.488  33.450  1.00  0.00     0.022 C 
BRANCH   6   8
ATOM      8  C   UNL A   1      38.667  33.842  31.615  1.00  0.00    -0.013 A 
ATOM      9  C   UNL A   1      40.699  34.973  29.911  1.00  0.00    -0.018 A 
ATOM     10  C   UNL A   1      40.888  34.826  31.290  1.00  0.00     0.009 A 
ATOM     11  C   UNL A   1      39.509  34.453  29.390  1.00  0.00     0.009 A 
ATOM     12  C   UNL A   1      39.922  34.219  32.107  1.00  0.00     0.009 A 
ATOM     13  C   UNL A   1      38.508  33.931  30.224  1.00  0.00     0.009 A 
BRANCH   9  14
ATOM     14  C   UNL A   1      41.703  35.644  29.053  1.00  0.00    -0.018 A 
ATOM     15  C   UNL A   1      43.642  36.904  27.404  1.00  0.00     0.119 A 
ATOM     16  C   UNL A   1      43.867  36.747  28.767  1.00  0.00     0.047 A 
ATOM     17  C   UNL A   1      42.460  36.426  26.854  1.00  0.00     0.047 A 
ATOM     18  C   UNL A   1      42.912  36.128  29.580  1.00  0.00     0.012 A 
ATOM     19  C   UNL A   1      41.495  35.822  27.673  1.00  0.00     0.012 A 
BRANCH  15  20
ATOM     20  O   UNL A   1      44.683  37.402  26.681  1.00  0.00    -0.491 OA
BRANCH  20  21
ATOM     21  C   UNL A   1      45.018  38.794  26.780  1.00  0.00     0.167 C 
ATOM     22  C   UNL A   1      46.287  39.171  26.024  1.00  0.00     0.052 C 
ATOM     23  C   UNL A   1      43.850  39.735  26.501  1.00  0.00     0.052 C 
ENDBRANCH  20  21
ENDBRANCH  15  20
ENDBRANCH   9  14
ENDBRANCH   6   8
BRANCH   7  24
ATOM     24  C   UNL A   1      38.683  31.463  33.611  1.00  0.00    -0.025 A 
ATOM     25  C   UNL A   1      39.688  31.686  34.568  1.00  0.00     0.009 A 
ATOM     26  C   UNL A   1      38.654  30.258  32.903  1.00  0.00     0.009 A 
ATOM     27  C   UNL A   1      40.623  30.692  34.858  1.00  0.00     0.021 A 
ATOM     28  C   UNL A   1      39.586  29.257  33.192  1.00  0.00     0.021 A 
ATOM     29  C   UNL A   1      40.561  29.478  34.170  1.00  0.00     0.067 A 
BRANCH  29  30
ATOM     30  S   UNL A   1      41.677  28.172  34.626  1.00  0.00     0.175 S 
ATOM     31  C   UNL A   1      42.820  28.108  33.273  1.00  0.00     0.163 C 
ATOM     32  O   UNL A   1      42.392  28.614  35.806  1.00  0.00    -0.224 OA
ATOM     33  O   UNL A   1      40.925  26.930  34.633  1.00  0.00    -0.224 OA
ENDBRANCH  29  30
ENDBRANCH   7  24
ENDBRANCH   3   6
ENDBRANCH   1   2
BRANCH   1  34
ATOM     34  C   UNL A   1      34.401  33.524  29.476  1.00  0.00     0.042 C 
BRANCH  34  35
ATOM     35  C   UNL A   1      34.925  32.681  28.318  1.00  0.00     0.118 C 
BRANCH  35  36
ATOM     36  N   UNL A   1      34.231  31.407  28.227  1.00  0.00    -0.352 N 
ATOM     37  C   UNL A   1      34.730  30.140  28.074  1.00  0.00     0.251 C 
ATOM     38  H   UNL A   1      33.250  31.463  28.283  1.00  0.00     0.163 HD
ATOM     39  O   UNL A   1      33.976  29.238  27.720  1.00  0.00    -0.269 OA
BRANCH  37  40
ATOM     40  C   UNL A   1      36.153  29.846  28.344  1.00  0.00     0.039 A 
ATOM     41  C   UNL A   1      37.080  30.029  27.314  1.00  0.00     0.014 A 
ATOM     42  C   UNL A   1      36.566  29.306  29.566  1.00  0.00     0.014 A 
ATOM     43  C   UNL A   1      38.417  29.682  27.515  1.00  0.00     0.010 A 
ATOM     44  C   UNL A   1      37.915  29.047  29.795  1.00  0.00     0.010 A 
ATOM     45  C   UNL A   1      38.849  29.198  28.761  1.00  0.00    -0.014 A 
BRANCH  45  46
ATOM     46  C   UNL A   1      40.259  28.782  28.968  1.00  0.00     0.031 A 
ATOM     47  C   UNL A   1      41.216  29.701  29.682  1.00  0.00     0.074 A 
ATOM     48  C   UNL A   1      40.679  27.589  28.506  1.00  0.00     0.049 A 
ATOM     49  N   UNL A   1      42.489  29.532  29.940  1.00  0.00    -0.248 NA
ATOM     50  C   UNL A   1      40.680  30.992  30.146  1.00  0.00     0.031 C 
ATOM     51  C   UNL A   1      39.857  26.631  27.763  1.00  0.00     0.029 A 
ATOM     52  N   UNL A   1      41.903  26.978  28.593  1.00  0.00    -0.354 N 
ATOM     53  C   UNL A   1      42.898  30.688  30.595  1.00  0.00     0.074 A 
ATOM     54  C   UNL A   1      41.764  31.583  30.626  1.00  0.00     0.031 C 
ATOM     55  C   UNL A   1      40.594  25.542  27.487  1.00  0.00     0.029 A 
ATOM     56  C   UNL A   1      41.944  25.739  28.002  1.00  0.00     0.049 A 
ATOM     57  H   UNL A   1      42.680  27.389  29.038  1.00  0.00     0.167 HD
ATOM     58  C   UNL A   1      44.100  30.965  31.157  1.00  0.00     0.037 A 
ATOM     59  C   UNL A   1      42.960  24.863  27.888  1.00  0.00     0.037 A 
ATOM     60  C   UNL A   1      45.224  30.068  31.137  1.00  0.00     0.049 A 
ATOM     61  C   UNL A   1      44.289  25.206  28.507  1.00  0.00     0.074 A 
ATOM     62  C   UNL A   1      46.484  30.248  31.680  1.00  0.00     0.029 A 
ATOM     63  N   UNL A   1      45.219  28.813  30.547  1.00  0.00    -0.354 N 
ATOM     64  N   UNL A   1      44.646  26.284  29.163  1.00  0.00    -0.248 NA
ATOM     65  C   UNL A   1      45.352  24.200  28.384  1.00  0.00     0.031 C 
ATOM     66  C   UNL A   1      47.252  29.116  31.390  1.00  0.00     0.029 A 
ATOM     67  C   UNL A   1      46.453  28.207  30.714  1.00  0.00     0.049 A 
ATOM     68  H   UNL A   1      44.452  28.412  30.079  1.00  0.00     0.167 HD
ATOM     69  C   UNL A   1      45.958  26.066  29.568  1.00  0.00     0.074 A 
ATOM     70  C   UNL A   1      46.322  24.745  29.101  1.00  0.00     0.031 C 
ATOM     71  C   UNL A   1      46.789  26.883  30.261  1.00  0.00     0.037 A 
BRANCH  58  72
ATOM     72  C   UNL A   1      44.247  32.284  31.863  1.00  0.00     0.057 A 
ATOM     73  C   UNL A   1      43.973  32.416  33.231  1.00  0.00     0.134 A 
ATOM     74  C   UNL A   1      44.704  33.420  31.185  1.00  0.00     0.134 A 
ATOM     75  F   UNL A   1      43.517  31.370  33.938  1.00  0.00    -0.206 F 
ATOM     76  C   UNL A   1      44.127  33.635  33.894  1.00  0.00     0.040 A 
ATOM     77  C   UNL A   1      44.890  34.637  31.844  1.00  0.00     0.040 A 
ATOM     78  F   UNL A   1      44.989  33.365  29.875  1.00  0.00    -0.206 F 
ATOM     79  C   UNL A   1      44.596  34.749  33.201  1.00  0.00     0.006 A 
ENDBRANCH  58  72
BRANCH  59  80
ATOM     80  C   UNL A   1      42.770  23.570  27.180  1.00  0.00     0.057 A 
ATOM     81  C   UNL A   1      42.295  22.436  27.851  1.00  0.00     0.134 A 
ATOM     82  C   UNL A   1      43.113  23.420  25.831  1.00  0.00     0.134 A 
ATOM     83  F   UNL A   1      41.961  22.509  29.149  1.00  0.00    -0.206 F 
ATOM     84  C   UNL A   1      42.213  21.192  27.222  1.00  0.00     0.040 A 
ATOM     85  C   UNL A   1      43.005  22.191  25.180  1.00  0.00     0.040 A 
ATOM     86  F   UNL A   1      43.561  24.469  25.125  1.00  0.00    -0.206 F 
ATOM     87  C   UNL A   1      42.569  21.069  25.881  1.00  0.00     0.006 A 
ENDBRANCH  59  80
BRANCH  71  88
ATOM     88  C   UNL A   1      48.144  26.338  30.611  1.00  0.00     0.057 A 
ATOM     89  C   UNL A   1      49.237  26.436  29.740  1.00  0.00     0.134 A 
ATOM     90  C   UNL A   1      48.354  25.704  31.842  1.00  0.00     0.134 A 
ATOM     91  F   UNL A   1      49.101  27.020  28.540  1.00  0.00    -0.206 F 
ATOM     92  C   UNL A   1      50.477  25.879  30.062  1.00  0.00     0.040 A 
ATOM     93  C   UNL A   1      49.598  25.176  32.190  1.00  0.00     0.040 A 
ATOM     94  F   UNL A   1      47.355  25.588  32.731  1.00  0.00    -0.206 F 
ATOM     95  C   UNL A   1      50.661  25.251  31.292  1.00  0.00     0.006 A 
ENDBRANCH  71  88
ENDBRANCH  45  46
ENDBRANCH  37  40
ENDBRANCH  35  36
ENDBRANCH  34  35
ENDBRANCH   1  34
TORSDOF 16
ENDMDL
MODEL 2
REMARK VINA RESULT:      -9.4      1.750      5.661
REMARK SMILES CC(C)Oc1ccc(-c2ccc(/C(=C\c3ccc(S(C)(=O)=O)cc3)C(=O)NCCCNC(=O)c3ccc(-c4c5nc(c(-c6c(F)cccc6F)c6ccc([nH]6)c(-c6c(F)cccc6F)c6nc(c(-c7c(F)cccc7F)c7ccc4[nH]7)C=C6)C=C5)cc3)cc2)cc1
REMARK SMILES IDX 28 1 27 2 25 3 26 4 13 6 14 7 12 8 9 9 10 10 89 11 11 12
REMARK SMILES IDX 88 13 8 14 5 15 6 16 91 17 7 18 90 19 4 20 2 21 1 22 3 23
REMARK SMILES IDX 15 24 16 25 24 26 17 27 23 28 18 29 19 30 20 31 21 32 22 33
REMARK SMILES IDX 29 34 30 35 31 36 32 37 33 39 34 40 35 41 87 42 36 43 86 44
REMARK SMILES IDX 37 45 38 46 39 47 80 48 40 49 85 50 79 51 81 52 41 53 84 54
REMARK SMILES IDX 78 55 77 56 42 58 68 59 51 60 67 61 52 62 55 63 66 64 82 65
REMARK SMILES IDX 53 66 54 67 65 69 83 70 56 71 43 72 44 73 49 74 45 75 46 76
REMARK SMILES IDX 48 77 50 78 47 79 69 80 70 81 75 82 71 83 72 84 74 85 76 86
REMARK SMILES IDX 73 87 57 88 58 89 63 90 59 91 60 92 62 93 64 94 61 95
REMARK H PARENT 27 5 31 38 81 57 55 68
REMARK Flexibility Score: inf
ROOT
ATOM      1  C   UNL A   1      35.349  31.948  32.362  1.00  0.00     0.118 C 
ENDROOT
BRANCH   1   2
ATOM      2  N   UNL A   1      35.848  32.614  33.548  1.00  0.00    -0.352 N 
ATOM      3  C   UNL A   1      37.061  33.080  33.948  1.00  0.00     0.251 C 
ATOM      4  O   UNL A   1      37.063  33.555  35.086  1.00  0.00    -0.269 OA
ATOM      5  H   UNL A   1      35.146  32.763  34.222  1.00  0.00     0.163 HD
BRANCH   3   6
ATOM      6  C   UNL A   1      38.309  33.085  33.072  1.00  0.00     0.047 C 
ATOM      7  C   UNL A   1      38.416  34.040  32.117  1.00  0.00     0.022 C 
BRANCH   6   8
ATOM      8  C   UNL A   1      39.292  31.944  33.166  1.00  0.00    -0.013 A 
ATOM      9  C   UNL A   1      40.990  29.687  33.738  1.00  0.00    -0.018 A 
ATOM     10  C   UNL A   1      39.802  29.553  33.010  1.00  0.00     0.009 A 
ATOM     11  C   UNL A   1      41.358  30.990  34.089  1.00  0.00     0.009 A 
ATOM     12  C   UNL A   1      39.009  30.662  32.680  1.00  0.00     0.009 A 
ATOM     13  C   UNL A   1      40.515  32.084  33.838  1.00  0.00     0.009 A 
BRANCH   9  14
ATOM     14  C   UNL A   1      41.810  28.512  34.115  1.00  0.00    -0.018 A 
ATOM     15  C   UNL A   1      43.406  26.278  34.845  1.00  0.00     0.119 A 
ATOM     16  C   UNL A   1      43.432  26.772  33.544  1.00  0.00     0.047 A 
ATOM     17  C   UNL A   1      42.597  26.899  35.788  1.00  0.00     0.047 A 
ATOM     18  C   UNL A   1      42.645  27.871  33.184  1.00  0.00     0.012 A 
ATOM     19  C   UNL A   1      41.796  27.990  35.421  1.00  0.00     0.012 A 
BRANCH  15  20
ATOM     20  O   UNL A   1      44.300  25.290  35.126  1.00  0.00    -0.491 OA
BRANCH  20  21
ATOM     21  C   UNL A   1      43.837  24.043  35.663  1.00  0.00     0.167 C 
ATOM     22  C   UNL A   1      42.623  23.478  34.934  1.00  0.00     0.052 C 
ATOM     23  C   UNL A   1      44.941  23.012  35.881  1.00  0.00     0.052 C 
ENDBRANCH  20  21
ENDBRANCH  15  20
ENDBRANCH   9  14
ENDBRANCH   6   8
BRANCH   7  24
ATOM     24  C   UNL A   1      39.541  34.354  31.223  1.00  0.00    -0.025 A 
ATOM     25  C   UNL A   1      39.279  34.469  29.846  1.00  0.00     0.009 A 
ATOM     26  C   UNL A   1      40.825  34.615  31.708  1.00  0.00     0.009 A 
ATOM     27  C   UNL A   1      40.276  34.895  28.969  1.00  0.00     0.021 A 
ATOM     28  C   UNL A   1      41.827  35.046  30.834  1.00  0.00     0.021 A 
ATOM     29  C   UNL A   1      41.545  35.188  29.472  1.00  0.00     0.067 A 
BRANCH  29  30
ATOM     30  S   UNL A   1      42.777  35.847  28.372  1.00  0.00     0.175 S 
ATOM     31  C   UNL A   1      41.850  36.902  27.291  1.00  0.00     0.163 C 
ATOM     32  O   UNL A   1      43.662  36.674  29.168  1.00  0.00    -0.224 OA
ATOM     33  O   UNL A   1      43.298  34.746  27.582  1.00  0.00    -0.224 OA
ENDBRANCH  29  30
ENDBRANCH   7  24
ENDBRANCH   3   6
ENDBRANCH   1   2
BRANCH   1  34
ATOM     34  C   UNL A   1      34.867  32.971  31.329  1.00  0.00     0.042 C 
BRANCH  34  35
ATOM     35  C   UNL A   1      35.408  32.718  29.926  1.00  0.00     0.118 C 
BRANCH  35  36
ATOM     36  N   UNL A   1      34.595  31.752  29.205  1.00  0.00    -0.352 N 
ATOM     37  C   UNL A   1      34.970  30.686  28.431  1.00  0.00     0.251 C 
ATOM     38  H   UNL A   1      33.623  31.885  29.286  1.00  0.00     0.163 HD
ATOM     39  O   UNL A   1      34.150  30.178  27.672  1.00  0.00    -0.269 OA
BRANCH  37  40
ATOM     40  C   UNL A   1      36.340  30.135  28.509  1.00  0.00     0.039 A 
ATOM     41  C   UNL A   1      36.689  29.364  29.621  1.00  0.00     0.014 A 
ATOM     42  C   UNL A   1      37.306  30.447  27.547  1.00  0.00     0.014 A 
ATOM     43  C   UNL A   1      37.997  28.899  29.761  1.00  0.00     0.010 A 
ATOM     44  C   UNL A   1      38.586  29.906  27.641  1.00  0.00     0.010 A 
ATOM     45  C   UNL A   1      38.955  29.158  28.766  1.00  0.00    -0.014 A 
BRANCH  45  46
ATOM     46  C   UNL A   1      40.360  28.708  28.930  1.00  0.00     0.031 A 
ATOM     47  C   UNL A   1      41.377  29.631  29.552  1.00  0.00     0.074 A 
ATOM     48  C   UNL A   1      40.723  27.481  28.511  1.00  0.00     0.049 A 
ATOM     49  N   UNL A   1      42.655  29.434  29.760  1.00  0.00    -0.248 NA
ATOM     50  C   UNL A   1      40.902  30.959  29.973  1.00  0.00     0.031 C 
ATOM     51  C   UNL A   1      39.839  26.513  27.856  1.00  0.00     0.029 A 
ATOM     52  N   UNL A   1      41.931  26.836  28.574  1.00  0.00    -0.354 N 
ATOM     53  C   UNL A   1      43.129  30.607  30.336  1.00  0.00     0.074 A 
ATOM     54  C   UNL A   1      42.024  31.538  30.372  1.00  0.00     0.031 C 
ATOM     55  C   UNL A   1      40.529  25.389  27.604  1.00  0.00     0.029 A 
ATOM     56  C   UNL A   1      41.907  25.568  28.046  1.00  0.00     0.049 A 
ATOM     57  H   UNL A   1      42.739  27.243  28.961  1.00  0.00     0.167 HD
ATOM     58  C   UNL A   1      44.363  30.873  30.828  1.00  0.00     0.037 A 
ATOM     59  C   UNL A   1      42.890  24.655  27.931  1.00  0.00     0.037 A 
ATOM     60  C   UNL A   1      45.458  29.940  30.803  1.00  0.00     0.049 A 
ATOM     61  C   UNL A   1      44.257  24.986  28.471  1.00  0.00     0.074 A 
ATOM     62  C   UNL A   1      46.747  30.107  31.278  1.00  0.00     0.029 A 
ATOM     63  N   UNL A   1      45.388  28.658  30.279  1.00  0.00    -0.354 N 
ATOM     64  N   UNL A   1      44.676  26.083  29.054  1.00  0.00    -0.248 NA
ATOM     65  C   UNL A   1      45.282  23.941  28.352  1.00  0.00     0.031 C 
ATOM     66  C   UNL A   1      47.467  28.938  31.012  1.00  0.00     0.029 A 
ATOM     67  C   UNL A   1      46.610  28.022  30.420  1.00  0.00     0.049 A 
ATOM     68  H   UNL A   1      44.588  28.259  29.867  1.00  0.00     0.167 HD
ATOM     69  C   UNL A   1      45.998  25.844  29.409  1.00  0.00     0.074 A 
ATOM     70  C   UNL A   1      46.301  24.490  28.995  1.00  0.00     0.031 C 
ATOM     71  C   UNL A   1      46.884  26.667  30.021  1.00  0.00     0.037 A 
BRANCH  58  72
ATOM     72  C   UNL A   1      44.582  32.220  31.458  1.00  0.00     0.057 A 
ATOM     73  C   UNL A   1      44.430  32.416  32.837  1.00  0.00     0.134 A 
ATOM     74  C   UNL A   1      44.988  33.319  30.691  1.00  0.00     0.134 A 
ATOM     75  F   UNL A   1      44.029  31.409  33.628  1.00  0.00    -0.206 F 
ATOM     76  C   UNL A   1      44.651  33.662  33.428  1.00  0.00     0.040 A 
ATOM     77  C   UNL A   1      45.241  34.562  31.276  1.00  0.00     0.040 A 
ATOM     78  F   UNL A   1      45.157  33.202  29.366  1.00  0.00    -0.206 F 
ATOM     79  C   UNL A   1      45.067  34.737  32.647  1.00  0.00     0.006 A 
ENDBRANCH  58  72
BRANCH  59  80
ATOM     80  C   UNL A   1      42.629  23.335  27.300  1.00  0.00     0.057 A 
ATOM     81  C   UNL A   1      42.192  22.241  28.056  1.00  0.00     0.134 A 
ATOM     82  C   UNL A   1      42.864  23.120  25.937  1.00  0.00     0.134 A 
ATOM     83  F   UNL A   1      41.961  22.377  29.371  1.00  0.00    -0.206 F 
ATOM     84  C   UNL A   1      42.045  20.972  27.494  1.00  0.00     0.040 A 
ATOM     85  C   UNL A   1      42.690  21.864  25.354  1.00  0.00     0.040 A 
ATOM     86  F   UNL A   1      43.271  24.129  25.152  1.00  0.00    -0.206 F 
ATOM     87  C   UNL A   1      42.295  20.782  26.136  1.00  0.00     0.006 A 
ENDBRANCH  59  80
BRANCH  71  88
ATOM     88  C   UNL A   1      48.238  26.097  30.337  1.00  0.00     0.057 A 
ATOM     89  C   UNL A   1      48.557  25.585  31.602  1.00  0.00     0.134 A 
ATOM     90  C   UNL A   1      49.237  26.062  29.356  1.00  0.00     0.134 A 
ATOM     91  F   UNL A   1      47.649  25.598  32.590  1.00  0.00    -0.206 F 
ATOM     92  C   UNL A   1      49.835  25.105  31.892  1.00  0.00     0.040 A 
ATOM     93  C   UNL A   1      50.507  25.551  29.624  1.00  0.00     0.040 A 
ATOM     94  F   UNL A   1      48.996  26.522  28.119  1.00  0.00    -0.206 F 
ATOM     95  C   UNL A   1      50.814  25.083  30.901  1.00  0.00     0.006 A 
ENDBRANCH  71  88
ENDBRANCH  45  46
ENDBRANCH  37  40
ENDBRANCH  35  36
ENDBRANCH  34  35
ENDBRANCH   1  34
TORSDOF 16
ENDMDL
MODEL 3
REMARK VINA RESULT:      -9.3      1.819      8.126
REMARK SMILES CC(C)Oc1ccc(-c2ccc(/C(=C\c3ccc(S(C)(=O)=O)cc3)C(=O)NCCCNC(=O)c3ccc(-c4c5nc(c(-c6c(F)cccc6F)c6ccc([nH]6)c(-c6c(F)cccc6F)c6nc(c(-c7c(F)cccc7F)c7ccc4[nH]7)C=C6)C=C5)cc3)cc2)cc1
REMARK SMILES IDX 28 1 27 2 25 3 26 4 13 6 14 7 12 8 9 9 10 10 89 11 11 12
REMARK SMILES IDX 88 13 8 14 5 15 6 16 91 17 7 18 90 19 4 20 2 21 1 22 3 23
REMARK SMILES IDX 15 24 16 25 24 26 17 27 23 28 18 29 19 30 20 31 21 32 22 33
REMARK SMILES IDX 29 34 30 35 31 36 32 37 33 39 34 40 35 41 87 42 36 43 86 44
REMARK SMILES IDX 37 45 38 46 39 47 80 48 40 49 85 50 79 51 81 52 41 53 84 54
REMARK SMILES IDX 78 55 77 56 42 58 68 59 51 60 67 61 52 62 55 63 66 64 82 65
REMARK SMILES IDX 53 66 54 67 65 69 83 70 56 71 43 72 44 73 49 74 45 75 46 76
REMARK SMILES IDX 48 77 50 78 47 79 69 80 70 81 75 82 71 83 72 84 74 85 76 86
REMARK SMILES IDX 73 87 57 88 58 89 63 90 59 91 60 92 62 93 64 94 61 95
REMARK H PARENT 27 5 31 38 81 57 55 68
REMARK Flexibility Score: inf
ROOT
ATOM      1  C   UNL A   1      35.397  31.918  32.253  1.00  0.00     0.118 C 
ENDROOT
BRANCH   1   2
ATOM      2  N   UNL A   1      35.862  32.658  33.409  1.00  0.00    -0.352 N 
ATOM      3  C   UNL A   1      37.060  33.165  33.805  1.00  0.00     0.251 C 
ATOM      4  O   UNL A   1      37.031  33.704  34.914  1.00  0.00    -0.269 OA
ATOM      5  H   UNL A   1      35.144  32.833  34.060  1.00  0.00     0.163 HD
BRANCH   3   6
ATOM      6  C   UNL A   1      38.324  33.141  32.954  1.00  0.00     0.047 C 
ATOM      7  C   UNL A   1      38.461  34.078  31.984  1.00  0.00     0.022 C 
BRANCH   6   8
ATOM      8  C   UNL A   1      39.293  31.991  33.087  1.00  0.00    -0.013 A 
ATOM      9  C   UNL A   1      40.964  29.735  33.738  1.00  0.00    -0.018 A 
ATOM     10  C   UNL A   1      39.769  29.589  33.023  1.00  0.00     0.009 A 
ATOM     11  C   UNL A   1      41.351  31.047  34.036  1.00  0.00     0.009 A 
ATOM     12  C   UNL A   1      38.989  30.695  32.655  1.00  0.00     0.009 A 
ATOM     13  C   UNL A   1      40.522  32.141  33.746  1.00  0.00     0.009 A 
BRANCH   9  14
ATOM     14  C   UNL A   1      41.771  28.565  34.157  1.00  0.00    -0.018 A 
ATOM     15  C   UNL A   1      43.340  26.341  34.966  1.00  0.00     0.119 A 
ATOM     16  C   UNL A   1      43.374  26.789  33.650  1.00  0.00     0.047 A 
ATOM     17  C   UNL A   1      42.537  27.002  35.886  1.00  0.00     0.047 A 
ATOM     18  C   UNL A   1      42.600  27.884  33.251  1.00  0.00     0.012 A 
ATOM     19  C   UNL A   1      41.748  28.088  35.480  1.00  0.00     0.012 A 
BRANCH  15  20
ATOM     20  O   UNL A   1      44.223  25.353  35.283  1.00  0.00    -0.491 OA
BRANCH  20  21
ATOM     21  C   UNL A   1      43.736  24.069  35.699  1.00  0.00     0.167 C 
ATOM     22  C   UNL A   1      42.376  23.713  35.108  1.00  0.00     0.052 C 
ATOM     23  C   UNL A   1      44.759  22.945  35.571  1.00  0.00     0.052 C 
ENDBRANCH  20  21
ENDBRANCH  15  20
ENDBRANCH   9  14
ENDBRANCH   6   8
BRANCH   7  24
ATOM     24  C   UNL A   1      39.606  34.363  31.107  1.00  0.00    -0.025 A 
ATOM     25  C   UNL A   1      39.367  34.492  29.728  1.00  0.00     0.009 A 
ATOM     26  C   UNL A   1      40.891  34.585  31.612  1.00  0.00     0.009 A 
ATOM     27  C   UNL A   1      40.388  34.895  28.867  1.00  0.00     0.021 A 
ATOM     28  C   UNL A   1      41.917  34.991  30.754  1.00  0.00     0.021 A 
ATOM     29  C   UNL A   1      41.658  35.148  29.389  1.00  0.00     0.067 A 
BRANCH  29  30
ATOM     30  S   UNL A   1      42.924  35.776  28.310  1.00  0.00     0.175 S 
ATOM     31  C   UNL A   1      42.091  37.032  27.376  1.00  0.00     0.163 C 
ATOM     32  O   UNL A   1      43.920  36.415  29.146  1.00  0.00    -0.224 OA
ATOM     33  O   UNL A   1      43.292  34.712  27.394  1.00  0.00    -0.224 OA
ENDBRANCH  29  30
ENDBRANCH   7  24
ENDBRANCH   3   6
ENDBRANCH   1   2
BRANCH   1  34
ATOM     34  C   UNL A   1      34.855  32.870  31.184  1.00  0.00     0.042 C 
BRANCH  34  35
ATOM     35  C   UNL A   1      35.385  32.576  29.784  1.00  0.00     0.118 C 
BRANCH  35  36
ATOM     36  N   UNL A   1      34.600  31.548  29.119  1.00  0.00    -0.352 N 
ATOM     37  C   UNL A   1      35.006  30.459  28.396  1.00  0.00     0.251 C 
ATOM     38  H   UNL A   1      33.625  31.653  29.201  1.00  0.00     0.163 HD
ATOM     39  O   UNL A   1      34.198  29.886  27.669  1.00  0.00    -0.269 OA
BRANCH  37  40
ATOM     40  C   UNL A   1      36.394  29.958  28.490  1.00  0.00     0.039 A 
ATOM     41  C   UNL A   1      36.796  29.318  29.665  1.00  0.00     0.014 A 
ATOM     42  C   UNL A   1      37.324  30.194  27.473  1.00  0.00     0.014 A 
ATOM     43  C   UNL A   1      38.122  28.908  29.814  1.00  0.00     0.010 A 
ATOM     44  C   UNL A   1      38.622  29.704  27.585  1.00  0.00     0.010 A 
ATOM     45  C   UNL A   1      39.045  29.088  28.770  1.00  0.00    -0.014 A 
BRANCH  45  46
ATOM     46  C   UNL A   1      40.467  28.697  28.938  1.00  0.00     0.031 A 
ATOM     47  C   UNL A   1      40.921  27.319  28.530  1.00  0.00     0.074 A 
ATOM     48  C   UNL A   1      41.343  29.573  29.465  1.00  0.00     0.049 A 
ATOM     49  N   UNL A   1      42.112  26.780  28.619  1.00  0.00    -0.248 NA
ATOM     50  C   UNL A   1      39.899  26.417  27.973  1.00  0.00     0.031 C 
ATOM     51  C   UNL A   1      41.015  30.921  29.936  1.00  0.00     0.029 A 
ATOM     52  N   UNL A   1      42.690  29.462  29.693  1.00  0.00    -0.354 N 
ATOM     53  C   UNL A   1      41.978  25.487  28.127  1.00  0.00     0.074 A 
ATOM     54  C   UNL A   1      40.580  25.293  27.817  1.00  0.00     0.031 C 
ATOM     55  C   UNL A   1      42.136  31.520  30.370  1.00  0.00     0.029 A 
ATOM     56  C   UNL A   1      43.252  30.589  30.242  1.00  0.00     0.049 A 
ATOM     57  H   UNL A   1      43.207  28.650  29.483  1.00  0.00     0.167 HD
ATOM     58  C   UNL A   1      42.939  24.555  27.915  1.00  0.00     0.037 A 
ATOM     59  C   UNL A   1      44.525  30.840  30.600  1.00  0.00     0.037 A 
ATOM     60  C   UNL A   1      44.333  24.755  28.212  1.00  0.00     0.049 A 
ATOM     61  C   UNL A   1      45.568  29.779  30.370  1.00  0.00     0.074 A 
ATOM     62  C   UNL A   1      45.389  23.879  28.031  1.00  0.00     0.029 A 
ATOM     63  N   UNL A   1      44.865  25.918  28.747  1.00  0.00    -0.354 N 
ATOM     64  N   UNL A   1      45.433  28.578  29.861  1.00  0.00    -0.248 NA
ATOM     65  C   UNL A   1      46.947  30.119  30.747  1.00  0.00     0.031 C 
ATOM     66  C   UNL A   1      46.556  24.501  28.487  1.00  0.00     0.029 A 
ATOM     67  C   UNL A   1      46.235  25.784  28.901  1.00  0.00     0.049 A 
ATOM     68  H   UNL A   1      44.346  26.721  28.982  1.00  0.00     0.167 HD
ATOM     69  C   UNL A   1      46.713  28.037  29.817  1.00  0.00     0.074 A 
ATOM     70  C   UNL A   1      47.610  29.051  30.330  1.00  0.00     0.031 C 
ATOM     71  C   UNL A   1      47.112  26.813  29.393  1.00  0.00     0.037 A 
BRANCH  58  72
ATOM     72  C   UNL A   1      42.515  23.248  27.308  1.00  0.00     0.057 A 
ATOM     73  C   UNL A   1      42.626  23.009  25.932  1.00  0.00     0.134 A 
ATOM     74  C   UNL A   1      42.032  22.204  28.106  1.00  0.00     0.134 A 
ATOM     75  F   UNL A   1      43.067  23.971  25.107  1.00  0.00    -0.206 F 
ATOM     76  C   UNL A   1      42.250  21.788  25.367  1.00  0.00     0.040 A 
ATOM     77  C   UNL A   1      41.681  20.968  27.557  1.00  0.00     0.040 A 
ATOM     78  F   UNL A   1      41.903  22.361  29.432  1.00  0.00    -0.206 F 
ATOM     79  C   UNL A   1      41.784  20.760  26.183  1.00  0.00     0.006 A 
ENDBRANCH  58  72
BRANCH  59  80
ATOM     80  C   UNL A   1      44.900  32.148  31.198  1.00  0.00     0.057 A 
ATOM     81  C   UNL A   1      45.322  33.218  30.400  1.00  0.00     0.134 A 
ATOM     82  C   UNL A   1      44.900  32.343  32.584  1.00  0.00     0.134 A 
ATOM     83  F   UNL A   1      45.359  33.092  29.064  1.00  0.00    -0.206 F 
ATOM     84  C   UNL A   1      45.778  34.414  30.957  1.00  0.00     0.040 A 
ATOM     85  C   UNL A   1      45.320  33.545  33.155  1.00  0.00     0.040 A 
ATOM     86  F   UNL A   1      44.493  31.364  33.406  1.00  0.00    -0.206 F 
ATOM     87  C   UNL A   1      45.776  34.579  32.340  1.00  0.00     0.006 A 
ENDBRANCH  59  80
BRANCH  71  88
ATOM     88  C   UNL A   1      48.589  26.537  29.405  1.00  0.00     0.057 A 
ATOM     89  C   UNL A   1      49.417  26.849  28.318  1.00  0.00     0.134 A 
ATOM     90  C   UNL A   1      49.189  25.948  30.525  1.00  0.00     0.134 A 
ATOM     91  F   UNL A   1      48.903  27.404  27.210  1.00  0.00    -0.206 F 
ATOM     92  C   UNL A   1      50.778  26.539  28.326  1.00  0.00     0.040 A 
ATOM     93  C   UNL A   1      50.555  25.667  30.559  1.00  0.00     0.040 A 
ATOM     94  F   UNL A   1      48.459  25.636  31.607  1.00  0.00    -0.206 F 
ATOM     95  C   UNL A   1      51.352  25.950  29.451  1.00  0.00     0.006 A 
ENDBRANCH  71  88
ENDBRANCH  45  46
ENDBRANCH  37  40
ENDBRANCH  35  36
ENDBRANCH  34  35
ENDBRANCH   1  34
TORSDOF 16
ENDMDL
