MODEL 1
REMARK VINA RESULT:     -11.4      0.000      0.000
REMARK SMILES O=C(CCC[NH2+][C@H]1CCOC2(CCOCC2)C1)NCCCNC(=O)c1ccc(-c2c3nc(c(-c4c(F)cccc4F)c4ccc([nH]4)c(-c4c(F)cccc4F)c4nc(c(-c5c(F)cccc5F)c5ccc2[nH]5)C=C4)C=C3)cc1
REMARK SMILES IDX 19 1 18 2 1 3 2 4 3 6 4 7 5 8 6 9 7 12 8 13 17 14 9 15 11 16
REMARK SMILES IDX 10 17 12 18 16 19 13 20 15 21 14 22 20 23 21 24 22 25 23 26
REMARK SMILES IDX 24 28 25 29 26 30 78 31 27 32 77 33 28 34 29 35 30 36 71 37
REMARK SMILES IDX 31 38 76 39 70 40 72 41 32 42 75 43 69 44 68 45 33 47 59 48
REMARK SMILES IDX 42 49 58 50 43 51 46 52 57 53 73 54 44 55 45 56 56 58 74 59
REMARK SMILES IDX 47 60 34 61 35 62 40 63 36 64 37 65 39 66 41 67 38 68 60 69
REMARK SMILES IDX 61 70 66 71 62 72 63 73 65 74 67 75 64 76 48 77 49 78 54 79
REMARK SMILES IDX 50 80 51 81 53 82 55 83 52 84
REMARK H PARENT 18 5 6 10 6 11 22 27 72 46 46 57
REMARK Flexibility Score: inf
ROOT
ATOM      1  C   UNL A   1      31.879  30.168  25.521  1.00  0.00     0.117 C 
ENDROOT
BRANCH   1   2
ATOM      2  N   UNL A   1      31.465  28.862  25.994  1.00  0.00    -0.356 N 
ATOM      3  O   UNL A   1      33.223  27.710  25.064  1.00  0.00    -0.275 OA
ATOM      4  C   UNL A   1      32.204  27.727  25.750  1.00  0.00     0.220 C 
ATOM      5  H   UNL A   1      30.628  28.784  26.506  1.00  0.00     0.163 HD
BRANCH   4   6
ATOM      6  C   UNL A   1      31.675  26.482  26.428  1.00  0.00     0.106 C 
BRANCH   6   7
ATOM      7  C   UNL A   1      30.253  26.142  25.981  1.00  0.00     0.071 C 
BRANCH   7   8
ATOM      8  C   UNL A   1      30.086  25.765  24.501  1.00  0.00     0.261 C 
BRANCH   8   9
ATOM      9  N   UNL A   1      29.108  26.603  23.820  1.00  0.00    -0.344 N 
ATOM     10  H   UNL A   1      28.325  26.738  24.460  1.00  0.00     0.346 HD
ATOM     11  H   UNL A   1      28.892  26.097  22.961  1.00  0.00     0.346 HD
BRANCH   9  12
ATOM     12  C   UNL A   1      29.541  27.935  23.369  1.00  0.00     0.187 C 
ATOM     13  C   UNL A   1      30.798  27.986  22.492  1.00  0.00     0.093 C 
ATOM     14  C   UNL A   1      28.391  28.667  22.659  1.00  0.00     0.100 C 
ATOM     15  C   UNL A   1      31.113  29.415  22.083  1.00  0.00     0.167 C 
ATOM     16  C   UNL A   1      28.791  30.085  22.189  1.00  0.00     0.078 C 
ATOM     17  O   UNL A   1      30.004  30.017  21.426  1.00  0.00    -0.374 OA
ATOM     18  C   UNL A   1      28.909  31.095  23.347  1.00  0.00     0.064 C 
ATOM     19  C   UNL A   1      27.714  30.605  21.227  1.00  0.00     0.064 C 
ATOM     20  C   UNL A   1      29.119  32.509  22.809  1.00  0.00     0.163 C 
ATOM     21  C   UNL A   1      27.966  32.046  20.806  1.00  0.00     0.163 C 
ATOM     22  O   UNL A   1      28.036  32.885  21.958  1.00  0.00    -0.381 OA
ENDBRANCH   9  12
ENDBRANCH   8   9
ENDBRANCH   7   8
ENDBRANCH   6   7
ENDBRANCH   4   6
ENDBRANCH   1   2
BRANCH   1  23
ATOM     23  C   UNL A   1      31.617  31.274  26.537  1.00  0.00     0.042 C 
BRANCH  23  24
ATOM     24  C   UNL A   1      32.853  32.052  26.977  1.00  0.00     0.118 C 
BRANCH  24  25
ATOM     25  N   UNL A   1      32.555  33.405  27.421  1.00  0.00    -0.352 N 
ATOM     26  C   UNL A   1      33.140  34.185  28.387  1.00  0.00     0.251 C 
ATOM     27  H   UNL A   1      31.807  33.835  26.947  1.00  0.00     0.163 HD
ATOM     28  O   UNL A   1      32.617  35.265  28.664  1.00  0.00    -0.269 OA
BRANCH  26  29
ATOM     29  C   UNL A   1      34.375  33.773  29.103  1.00  0.00     0.039 A 
ATOM     30  C   UNL A   1      34.238  32.966  30.241  1.00  0.00     0.014 A 
ATOM     31  C   UNL A   1      35.648  34.210  28.724  1.00  0.00     0.014 A 
ATOM     32  C   UNL A   1      35.368  32.526  30.933  1.00  0.00     0.010 A 
ATOM     33  C   UNL A   1      36.778  33.758  29.398  1.00  0.00     0.010 A 
ATOM     34  C   UNL A   1      36.645  32.887  30.483  1.00  0.00    -0.014 A 
BRANCH  34  35
ATOM     35  C   UNL A   1      37.862  32.233  31.009  1.00  0.00     0.031 A 
ATOM     36  C   UNL A   1      38.521  31.107  30.278  1.00  0.00     0.074 A 
ATOM     37  C   UNL A   1      38.262  32.586  32.245  1.00  0.00     0.049 A 
ATOM     38  N   UNL A   1      39.530  30.366  30.656  1.00  0.00    -0.248 NA
ATOM     39  C   UNL A   1      37.964  30.753  28.965  1.00  0.00     0.031 C 
ATOM     40  C   UNL A   1      37.632  33.624  33.068  1.00  0.00     0.029 A 
ATOM     41  N   UNL A   1      39.257  32.086  33.042  1.00  0.00    -0.354 N 
ATOM     42  C   UNL A   1      39.739  29.461  29.624  1.00  0.00     0.074 A 
ATOM     43  C   UNL A   1      38.724  29.721  28.623  1.00  0.00     0.031 C 
ATOM     44  C   UNL A   1      38.242  33.667  34.261  1.00  0.00     0.029 A 
ATOM     45  C   UNL A   1      39.289  32.652  34.293  1.00  0.00     0.049 A 
ATOM     46  H   UNL A   1      39.887  31.389  32.748  1.00  0.00     0.167 HD
ATOM     47  C   UNL A   1      40.703  28.513  29.525  1.00  0.00     0.037 A 
ATOM     48  C   UNL A   1      40.066  32.374  35.353  1.00  0.00     0.037 A 
ATOM     49  C   UNL A   1      41.693  28.260  30.542  1.00  0.00     0.049 A 
ATOM     50  C   UNL A   1      41.113  31.308  35.222  1.00  0.00     0.074 A 
ATOM     51  C   UNL A   1      42.759  27.378  30.509  1.00  0.00     0.029 A 
ATOM     52  N   UNL A   1      41.724  28.877  31.784  1.00  0.00    -0.354 N 
ATOM     53  N   UNL A   1      41.373  30.532  34.198  1.00  0.00    -0.248 NA
ATOM     54  C   UNL A   1      41.982  31.090  36.385  1.00  0.00     0.031 C 
ATOM     55  C   UNL A   1      43.408  27.429  31.749  1.00  0.00     0.029 A 
ATOM     56  C   UNL A   1      42.772  28.374  32.538  1.00  0.00     0.049 A 
ATOM     57  H   UNL A   1      41.094  29.571  32.085  1.00  0.00     0.167 HD
ATOM     58  C   UNL A   1      42.451  29.748  34.582  1.00  0.00     0.074 A 
ATOM     59  C   UNL A   1      42.801  30.152  35.931  1.00  0.00     0.031 C 
ATOM     60  C   UNL A   1      43.094  28.782  33.882  1.00  0.00     0.037 A 
BRANCH  47  61
ATOM     61  C   UNL A   1      40.737  27.685  28.274  1.00  0.00     0.057 A 
ATOM     62  C   UNL A   1      41.467  28.085  27.148  1.00  0.00     0.134 A 
ATOM     63  C   UNL A   1      40.079  26.449  28.209  1.00  0.00     0.134 A 
ATOM     64  F   UNL A   1      42.117  29.259  27.142  1.00  0.00    -0.206 F 
ATOM     65  C   UNL A   1      41.527  27.298  25.995  1.00  0.00     0.040 A 
ATOM     66  C   UNL A   1      40.149  25.644  27.071  1.00  0.00     0.040 A 
ATOM     67  F   UNL A   1      39.367  26.001  29.254  1.00  0.00    -0.206 F 
ATOM     68  C   UNL A   1      40.871  26.069  25.958  1.00  0.00     0.006 A 
ENDBRANCH  47  61
BRANCH  48  69
ATOM     69  C   UNL A   1      39.894  33.140  36.609  1.00  0.00     0.057 A 
ATOM     70  C   UNL A   1      40.629  34.307  36.842  1.00  0.00     0.134 A 
ATOM     71  C   UNL A   1      38.970  32.749  37.585  1.00  0.00     0.134 A 
ATOM     72  F   UNL A   1      41.535  34.723  35.946  1.00  0.00    -0.206 F 
ATOM     73  C   UNL A   1      40.460  35.055  38.008  1.00  0.00     0.040 A 
ATOM     74  C   UNL A   1      38.776  33.498  38.746  1.00  0.00     0.040 A 
ATOM     75  F   UNL A   1      38.225  31.647  37.411  1.00  0.00    -0.206 F 
ATOM     76  C   UNL A   1      39.527  34.653  38.962  1.00  0.00     0.006 A 
ENDBRANCH  48  69
BRANCH  60  77
ATOM     77  C   UNL A   1      44.249  28.114  34.564  1.00  0.00     0.057 A 
ATOM     78  C   UNL A   1      44.085  26.934  35.300  1.00  0.00     0.134 A 
ATOM     79  C   UNL A   1      45.540  28.646  34.468  1.00  0.00     0.134 A 
ATOM     80  F   UNL A   1      42.869  26.386  35.444  1.00  0.00    -0.206 F 
ATOM     81  C   UNL A   1      45.164  26.319  35.938  1.00  0.00     0.040 A 
ATOM     82  C   UNL A   1      46.630  28.028  35.082  1.00  0.00     0.040 A 
ATOM     83  F   UNL A   1      45.764  29.772  33.774  1.00  0.00    -0.206 F 
ATOM     84  C   UNL A   1      46.442  26.863  35.824  1.00  0.00     0.006 A 
ENDBRANCH  60  77
ENDBRANCH  34  35
ENDBRANCH  26  29
ENDBRANCH  24  25
ENDBRANCH  23  24
ENDBRANCH   1  23
TORSDOF 14
ENDMDL
MODEL 2
REMARK VINA RESULT:     -11.1      6.303     11.088
REMARK SMILES O=C(CCC[NH2+][C@H]1CCOC2(CCOCC2)C1)NCCCNC(=O)c1ccc(-c2c3nc(c(-c4c(F)cccc4F)c4ccc([nH]4)c(-c4c(F)cccc4F)c4nc(c(-c5c(F)cccc5F)c5ccc2[nH]5)C=C4)C=C3)cc1
REMARK SMILES IDX 19 1 18 2 1 3 2 4 3 6 4 7 5 8 6 9 7 12 8 13 17 14 9 15 11 16
REMARK SMILES IDX 10 17 12 18 16 19 13 20 15 21 14 22 20 23 21 24 22 25 23 26
REMARK SMILES IDX 24 28 25 29 26 30 78 31 27 32 77 33 28 34 29 35 30 36 71 37
REMARK SMILES IDX 31 38 76 39 70 40 72 41 32 42 75 43 69 44 68 45 33 47 59 48
REMARK SMILES IDX 42 49 58 50 43 51 46 52 57 53 73 54 44 55 45 56 56 58 74 59
REMARK SMILES IDX 47 60 34 61 35 62 40 63 36 64 37 65 39 66 41 67 38 68 60 69
REMARK SMILES IDX 61 70 66 71 62 72 63 73 65 74 67 75 64 76 48 77 49 78 54 79
REMARK SMILES IDX 50 80 51 81 53 82 55 83 52 84
REMARK H PARENT 18 5 6 10 6 11 22 27 72 46 46 57
REMARK Flexibility Score: inf
ROOT
ATOM      1  C   UNL A   1      37.018  21.400  24.071  1.00  0.00     0.117 C 
ENDROOT
BRANCH   1   2
ATOM      2  N   UNL A   1      35.897  22.125  24.635  1.00  0.00    -0.356 N 
ATOM      3  O   UNL A   1      35.421  23.332  22.738  1.00  0.00    -0.275 OA
ATOM      4  C   UNL A   1      35.158  23.020  23.897  1.00  0.00     0.220 C 
ATOM      5  H   UNL A   1      35.657  21.971  25.577  1.00  0.00     0.163 HD
BRANCH   4   6
ATOM      6  C   UNL A   1      33.955  23.583  24.624  1.00  0.00     0.106 C 
BRANCH   6   7
ATOM      7  C   UNL A   1      33.748  22.929  25.990  1.00  0.00     0.071 C 
BRANCH   7   8
ATOM      8  C   UNL A   1      32.756  21.756  26.028  1.00  0.00     0.261 C 
BRANCH   8   9
ATOM      9  N   UNL A   1      32.274  21.391  24.703  1.00  0.00    -0.344 N 
ATOM     10  H   UNL A   1      32.837  21.902  24.023  1.00  0.00     0.346 HD
ATOM     11  H   UNL A   1      31.281  21.626  24.718  1.00  0.00     0.346 HD
BRANCH   9  12
ATOM     12  C   UNL A   1      32.313  19.969  24.325  1.00  0.00     0.187 C 
ATOM     13  C   UNL A   1      32.233  19.655  22.826  1.00  0.00     0.093 C 
ATOM     14  C   UNL A   1      33.550  19.283  24.927  1.00  0.00     0.100 C 
ATOM     15  C   UNL A   1      32.308  18.157  22.584  1.00  0.00     0.167 C 
ATOM     16  C   UNL A   1      33.621  17.777  24.580  1.00  0.00     0.078 C 
ATOM     17  O   UNL A   1      33.483  17.602  23.163  1.00  0.00    -0.374 OA
ATOM     18  C   UNL A   1      32.596  16.929  25.356  1.00  0.00     0.064 C 
ATOM     19  C   UNL A   1      35.021  17.257  24.936  1.00  0.00     0.064 C 
ATOM     20  C   UNL A   1      32.838  15.440  25.117  1.00  0.00     0.163 C 
ATOM     21  C   UNL A   1      35.143  15.754  24.738  1.00  0.00     0.163 C 
ATOM     22  O   UNL A   1      34.159  15.078  25.519  1.00  0.00    -0.381 OA
ENDBRANCH   9  12
ENDBRANCH   8   9
ENDBRANCH   7   8
ENDBRANCH   6   7
ENDBRANCH   4   6
ENDBRANCH   1   2
BRANCH   1  23
ATOM     23  C   UNL A   1      37.504  20.270  24.971  1.00  0.00     0.042 C 
BRANCH  23  24
ATOM     24  C   UNL A   1      38.727  20.601  25.820  1.00  0.00     0.118 C 
BRANCH  24  25
ATOM     25  N   UNL A   1      39.726  19.544  25.830  1.00  0.00    -0.352 N 
ATOM     26  C   UNL A   1      41.077  19.584  26.062  1.00  0.00     0.251 C 
ATOM     27  H   UNL A   1      39.371  18.645  25.638  1.00  0.00     0.163 HD
ATOM     28  O   UNL A   1      41.734  18.557  25.887  1.00  0.00    -0.269 OA
BRANCH  26  29
ATOM     29  C   UNL A   1      41.771  20.817  26.517  1.00  0.00     0.039 A 
ATOM     30  C   UNL A   1      42.263  21.694  25.540  1.00  0.00     0.014 A 
ATOM     31  C   UNL A   1      42.003  21.098  27.867  1.00  0.00     0.014 A 
ATOM     32  C   UNL A   1      42.896  22.882  25.913  1.00  0.00     0.010 A 
ATOM     33  C   UNL A   1      42.615  22.289  28.245  1.00  0.00     0.010 A 
ATOM     34  C   UNL A   1      43.032  23.202  27.271  1.00  0.00    -0.014 A 
BRANCH  34  35
ATOM     35  C   UNL A   1      43.441  24.553  27.708  1.00  0.00     0.031 A 
ATOM     36  C   UNL A   1      42.431  25.599  28.059  1.00  0.00     0.074 A 
ATOM     37  C   UNL A   1      44.751  24.853  27.626  1.00  0.00     0.049 A 
ATOM     38  N   UNL A   1      42.626  26.856  28.362  1.00  0.00    -0.248 NA
ATOM     39  C   UNL A   1      41.020  25.187  28.052  1.00  0.00     0.031 C 
ATOM     40  C   UNL A   1      45.804  23.918  27.218  1.00  0.00     0.029 A 
ATOM     41  N   UNL A   1      45.415  26.033  27.836  1.00  0.00    -0.354 N 
ATOM     42  C   UNL A   1      41.365  27.389  28.590  1.00  0.00     0.074 A 
ATOM     43  C   UNL A   1      40.409  26.326  28.351  1.00  0.00     0.031 C 
ATOM     44  C   UNL A   1      46.977  24.566  27.186  1.00  0.00     0.029 A 
ATOM     45  C   UNL A   1      46.756  25.960  27.552  1.00  0.00     0.049 A 
ATOM     46  H   UNL A   1      44.974  26.852  28.158  1.00  0.00     0.167 HD
ATOM     47  C   UNL A   1      41.046  28.647  28.978  1.00  0.00     0.037 A 
ATOM     48  C   UNL A   1      47.702  26.915  27.570  1.00  0.00     0.037 A 
ATOM     49  C   UNL A   1      42.013  29.695  29.194  1.00  0.00     0.049 A 
ATOM     50  C   UNL A   1      47.318  28.304  27.986  1.00  0.00     0.074 A 
ATOM     51  C   UNL A   1      41.805  30.980  29.661  1.00  0.00     0.029 A 
ATOM     52  N   UNL A   1      43.371  29.580  28.935  1.00  0.00    -0.354 N 
ATOM     53  N   UNL A   1      46.135  28.769  28.308  1.00  0.00    -0.248 NA
ATOM     54  C   UNL A   1      48.400  29.294  28.058  1.00  0.00     0.031 C 
ATOM     55  C   UNL A   1      43.030  31.657  29.642  1.00  0.00     0.029 A 
ATOM     56  C   UNL A   1      44.009  30.781  29.204  1.00  0.00     0.049 A 
ATOM     57  H   UNL A   1      43.817  28.765  28.609  1.00  0.00     0.167 HD
ATOM     58  C   UNL A   1      46.331  30.101  28.642  1.00  0.00     0.074 A 
ATOM     59  C   UNL A   1      47.750  30.364  28.494  1.00  0.00     0.031 C 
ATOM     60  C   UNL A   1      45.420  31.023  29.037  1.00  0.00     0.037 A 
BRANCH  47  61
ATOM     61  C   UNL A   1      39.595  28.959  29.200  1.00  0.00     0.057 A 
ATOM     62  C   UNL A   1      38.757  29.344  28.145  1.00  0.00     0.134 A 
ATOM     63  C   UNL A   1      39.013  28.822  30.467  1.00  0.00     0.134 A 
ATOM     64  F   UNL A   1      39.251  29.498  26.907  1.00  0.00    -0.206 F 
ATOM     65  C   UNL A   1      37.399  29.601  28.344  1.00  0.00     0.040 A 
ATOM     66  C   UNL A   1      37.653  29.055  30.675  1.00  0.00     0.040 A 
ATOM     67  F   UNL A   1      39.755  28.449  31.521  1.00  0.00    -0.206 F 
ATOM     68  C   UNL A   1      36.842  29.450  29.612  1.00  0.00     0.006 A 
ENDBRANCH  47  61
BRANCH  48  69
ATOM     69  C   UNL A   1      49.097  26.572  27.211  1.00  0.00     0.057 A 
ATOM     70  C   UNL A   1      49.963  26.012  28.156  1.00  0.00     0.134 A 
ATOM     71  C   UNL A   1      49.586  26.759  25.913  1.00  0.00     0.134 A 
ATOM     72  F   UNL A   1      49.550  25.820  29.418  1.00  0.00    -0.206 F 
ATOM     73  C   UNL A   1      51.272  25.659  27.827  1.00  0.00     0.040 A 
ATOM     74  C   UNL A   1      50.887  26.392  25.565  1.00  0.00     0.040 A 
ATOM     75  F   UNL A   1      48.798  27.277  24.959  1.00  0.00    -0.206 F 
ATOM     76  C   UNL A   1      51.735  25.844  26.526  1.00  0.00     0.006 A 
ENDBRANCH  48  69
BRANCH  60  77
ATOM     77  C   UNL A   1      45.941  32.392  29.351  1.00  0.00     0.057 A 
ATOM     78  C   UNL A   1      46.072  33.373  28.360  1.00  0.00     0.134 A 
ATOM     79  C   UNL A   1      46.299  32.738  30.659  1.00  0.00     0.134 A 
ATOM     80  F   UNL A   1      45.763  33.095  27.084  1.00  0.00    -0.206 F 
ATOM     81  C   UNL A   1      46.564  34.645  28.656  1.00  0.00     0.040 A 
ATOM     82  C   UNL A   1      46.770  34.014  30.971  1.00  0.00     0.040 A 
ATOM     83  F   UNL A   1      46.193  31.844  31.654  1.00  0.00    -0.206 F 
ATOM     84  C   UNL A   1      46.908  34.970  29.967  1.00  0.00     0.006 A 
ENDBRANCH  60  77
ENDBRANCH  34  35
ENDBRANCH  26  29
ENDBRANCH  24  25
ENDBRANCH  23  24
ENDBRANCH   1  23
TORSDOF 14
ENDMDL
MODEL 3
REMARK VINA RESULT:     -11.0      2.652      7.419
REMARK SMILES O=C(CCC[NH2+][C@H]1CCOC2(CCOCC2)C1)NCCCNC(=O)c1ccc(-c2c3nc(c(-c4c(F)cccc4F)c4ccc([nH]4)c(-c4c(F)cccc4F)c4nc(c(-c5c(F)cccc5F)c5ccc2[nH]5)C=C4)C=C3)cc1
REMARK SMILES IDX 19 1 18 2 1 3 2 4 3 6 4 7 5 8 6 9 7 12 8 13 17 14 9 15 11 16
REMARK SMILES IDX 10 17 12 18 16 19 13 20 15 21 14 22 20 23 21 24 22 25 23 26
REMARK SMILES IDX 24 28 25 29 26 30 78 31 27 32 77 33 28 34 29 35 30 36 71 37
REMARK SMILES IDX 31 38 76 39 70 40 72 41 32 42 75 43 69 44 68 45 33 47 59 48
REMARK SMILES IDX 42 49 58 50 43 51 46 52 57 53 73 54 44 55 45 56 56 58 74 59
REMARK SMILES IDX 47 60 34 61 35 62 40 63 36 64 37 65 39 66 41 67 38 68 60 69
REMARK SMILES IDX 61 70 66 71 62 72 63 73 65 74 67 75 64 76 48 77 49 78 54 79
REMARK SMILES IDX 50 80 51 81 53 82 55 83 52 84
REMARK H PARENT 18 5 6 10 6 11 22 27 72 46 46 57
REMARK Flexibility Score: inf
ROOT
ATOM      1  C   UNL A   1      34.443  35.746  28.003  1.00  0.00     0.117 C 
ENDROOT
BRANCH   1   2
ATOM      2  N   UNL A   1      34.186  34.322  28.082  1.00  0.00    -0.356 N 
ATOM      3  O   UNL A   1      36.324  33.734  28.687  1.00  0.00    -0.275 OA
ATOM      4  C   UNL A   1      35.158  33.423  28.458  1.00  0.00     0.220 C 
ATOM      5  H   UNL A   1      33.288  33.987  27.860  1.00  0.00     0.163 HD
BRANCH   4   6
ATOM      6  C   UNL A   1      34.667  31.999  28.599  1.00  0.00     0.106 C 
BRANCH   6   7
ATOM      7  C   UNL A   1      35.417  31.035  27.680  1.00  0.00     0.071 C 
BRANCH   7   8
ATOM      8  C   UNL A   1      35.119  29.542  27.885  1.00  0.00     0.261 C 
BRANCH   8   9
ATOM      9  N   UNL A   1      33.692  29.251  27.864  1.00  0.00    -0.344 N 
ATOM     10  H   UNL A   1      33.212  30.103  27.572  1.00  0.00     0.346 HD
ATOM     11  H   UNL A   1      33.482  28.930  28.810  1.00  0.00     0.346 HD
BRANCH   9  12
ATOM     12  C   UNL A   1      33.226  28.162  26.990  1.00  0.00     0.187 C 
ATOM     13  C   UNL A   1      31.714  27.904  26.964  1.00  0.00     0.093 C 
ATOM     14  C   UNL A   1      33.735  28.365  25.554  1.00  0.00     0.100 C 
ATOM     15  C   UNL A   1      31.377  26.773  26.007  1.00  0.00     0.167 C 
ATOM     16  C   UNL A   1      33.294  27.228  24.603  1.00  0.00     0.078 C 
ATOM     17  O   UNL A   1      31.874  27.041  24.701  1.00  0.00    -0.374 OA
ATOM     18  C   UNL A   1      34.055  25.910  24.840  1.00  0.00     0.064 C 
ATOM     19  C   UNL A   1      33.563  27.667  23.156  1.00  0.00     0.064 C 
ATOM     20  C   UNL A   1      33.714  24.889  23.757  1.00  0.00     0.163 C 
ATOM     21  C   UNL A   1      33.267  26.560  22.155  1.00  0.00     0.163 C 
ATOM     22  O   UNL A   1      34.042  25.403  22.465  1.00  0.00    -0.381 OA
ENDBRANCH   9  12
ENDBRANCH   8   9
ENDBRANCH   7   8
ENDBRANCH   6   7
ENDBRANCH   4   6
ENDBRANCH   1   2
BRANCH   1  23
ATOM     23  C   UNL A   1      33.491  36.566  28.868  1.00  0.00     0.042 C 
BRANCH  23  24
ATOM     24  C   UNL A   1      32.578  35.748  29.776  1.00  0.00     0.118 C 
BRANCH  24  25
ATOM     25  N   UNL A   1      32.348  36.366  31.072  1.00  0.00    -0.352 N 
ATOM     26  C   UNL A   1      32.899  36.110  32.302  1.00  0.00     0.251 C 
ATOM     27  H   UNL A   1      31.685  37.094  31.066  1.00  0.00     0.163 HD
ATOM     28  O   UNL A   1      32.441  36.695  33.284  1.00  0.00    -0.269 OA
BRANCH  26  29
ATOM     29  C   UNL A   1      34.024  35.157  32.488  1.00  0.00     0.039 A 
ATOM     30  C   UNL A   1      35.287  35.526  32.003  1.00  0.00     0.014 A 
ATOM     31  C   UNL A   1      33.857  33.895  33.067  1.00  0.00     0.014 A 
ATOM     32  C   UNL A   1      36.385  34.681  32.179  1.00  0.00     0.010 A 
ATOM     33  C   UNL A   1      34.951  33.058  33.263  1.00  0.00     0.010 A 
ATOM     34  C   UNL A   1      36.225  33.462  32.852  1.00  0.00    -0.014 A 
BRANCH  34  35
ATOM     35  C   UNL A   1      37.389  32.669  33.299  1.00  0.00     0.031 A 
ATOM     36  C   UNL A   1      38.148  33.029  34.537  1.00  0.00     0.074 A 
ATOM     37  C   UNL A   1      37.833  31.709  32.467  1.00  0.00     0.049 A 
ATOM     38  N   UNL A   1      39.247  32.497  35.006  1.00  0.00    -0.248 NA
ATOM     39  C   UNL A   1      37.619  34.139  35.341  1.00  0.00     0.031 C 
ATOM     40  C   UNL A   1      37.200  31.339  31.197  1.00  0.00     0.029 A 
ATOM     41  N   UNL A   1      38.938  30.903  32.537  1.00  0.00    -0.354 N 
ATOM     42  C   UNL A   1      39.540  33.199  36.167  1.00  0.00     0.074 A 
ATOM     43  C   UNL A   1      38.524  34.223  36.308  1.00  0.00     0.031 C 
ATOM     44  C   UNL A   1      37.940  30.395  30.598  1.00  0.00     0.029 A 
ATOM     45  C   UNL A   1      39.102  30.108  31.430  1.00  0.00     0.049 A 
ATOM     46  H   UNL A   1      39.554  30.894  33.306  1.00  0.00     0.167 HD
ATOM     47  C   UNL A   1      40.558  32.991  37.036  1.00  0.00     0.037 A 
ATOM     48  C   UNL A   1      40.090  29.253  31.113  1.00  0.00     0.037 A 
ATOM     49  C   UNL A   1      41.569  31.977  36.868  1.00  0.00     0.049 A 
ATOM     50  C   UNL A   1      41.214  29.054  32.085  1.00  0.00     0.074 A 
ATOM     51  C   UNL A   1      42.598  31.631  37.726  1.00  0.00     0.029 A 
ATOM     52  N   UNL A   1      41.688  31.159  35.753  1.00  0.00    -0.354 N 
ATOM     53  N   UNL A   1      41.422  29.648  33.236  1.00  0.00    -0.248 NA
ATOM     54  C   UNL A   1      42.231  28.059  31.725  1.00  0.00     0.031 C 
ATOM     55  C   UNL A   1      43.365  30.635  37.110  1.00  0.00     0.029 A 
ATOM     56  C   UNL A   1      42.790  30.330  35.887  1.00  0.00     0.049 A 
ATOM     57  H   UNL A   1      41.078  31.167  34.980  1.00  0.00     0.167 HD
ATOM     58  C   UNL A   1      42.580  29.084  33.749  1.00  0.00     0.074 A 
ATOM     59  C   UNL A   1      43.022  28.092  32.788  1.00  0.00     0.031 C 
ATOM     60  C   UNL A   1      43.219  29.359  34.912  1.00  0.00     0.037 A 
BRANCH  47  61
ATOM     61  C   UNL A   1      40.627  33.872  38.249  1.00  0.00     0.057 A 
ATOM     62  C   UNL A   1      41.398  35.041  38.265  1.00  0.00     0.134 A 
ATOM     63  C   UNL A   1      39.874  33.582  39.395  1.00  0.00     0.134 A 
ATOM     64  F   UNL A   1      42.145  35.376  37.202  1.00  0.00    -0.206 F 
ATOM     65  C   UNL A   1      41.436  35.880  39.381  1.00  0.00     0.040 A 
ATOM     66  C   UNL A   1      39.887  34.423  40.509  1.00  0.00     0.040 A 
ATOM     67  F   UNL A   1      39.108  32.482  39.446  1.00  0.00    -0.206 F 
ATOM     68  C   UNL A   1      40.672  35.574  40.506  1.00  0.00     0.006 A 
ENDBRANCH  47  61
BRANCH  48  69
ATOM     69  C   UNL A   1      40.032  28.508  29.834  1.00  0.00     0.057 A 
ATOM     70  C   UNL A   1      40.710  28.973  28.702  1.00  0.00     0.134 A 
ATOM     71  C   UNL A   1      39.335  27.300  29.722  1.00  0.00     0.134 A 
ATOM     72  F   UNL A   1      41.386  30.130  28.750  1.00  0.00    -0.206 F 
ATOM     73  C   UNL A   1      40.687  28.269  27.498  1.00  0.00     0.040 A 
ATOM     74  C   UNL A   1      39.321  26.574  28.530  1.00  0.00     0.040 A 
ATOM     75  F   UNL A   1      38.680  26.795  30.778  1.00  0.00    -0.206 F 
ATOM     76  C   UNL A   1      39.995  27.063  27.412  1.00  0.00     0.006 A 
ENDBRANCH  48  69
BRANCH  60  77
ATOM     77  C   UNL A   1      44.452  28.562  35.207  1.00  0.00     0.057 A 
ATOM     78  C   UNL A   1      45.724  29.008  34.825  1.00  0.00     0.134 A 
ATOM     79  C   UNL A   1      44.370  27.345  35.894  1.00  0.00     0.134 A 
ATOM     80  F   UNL A   1      45.866  30.158  34.148  1.00  0.00    -0.206 F 
ATOM     81  C   UNL A   1      46.870  28.259  35.097  1.00  0.00     0.040 A 
ATOM     82  C   UNL A   1      45.510  26.599  36.192  1.00  0.00     0.040 A 
ATOM     83  F   UNL A   1      43.181  26.866  36.290  1.00  0.00    -0.206 F 
ATOM     84  C   UNL A   1      46.764  27.053  35.788  1.00  0.00     0.006 A 
ENDBRANCH  60  77
ENDBRANCH  34  35
ENDBRANCH  26  29
ENDBRANCH  24  25
ENDBRANCH  23  24
ENDBRANCH   1  23
TORSDOF 14
ENDMDL
