MODEL 1
REMARK VINA RESULT:     -12.6      0.000      0.000
REMARK SMILES COc1cccc(C(=O)/C=C(/Nc2cc(C)c(C)cc2[N+](=O)[O-])C(=O)NCCCNC(=O)c2ccc(-c3c4nc(c(-c5c(F)cccc5F)c5ccc([nH]5)c(-c5c(F)cccc5F)c5nc(c(-c6c(F)cccc6F)c6ccc3[nH]6)C=C5)C=C4)cc2)c1
REMARK SMILES IDX 27 1 26 2 24 3 25 4 11 6 10 7 8 8 9 9 7 10 3 11 4 12 87 13
REMARK SMILES IDX 5 14 6 15 2 16 1 17 12 18 13 20 14 21 20 22 15 23 19 24
REMARK SMILES IDX 16 25 17 26 18 27 21 28 22 29 23 30 28 31 29 32 30 33 31 34
REMARK SMILES IDX 32 36 33 37 34 38 86 39 35 40 85 41 36 42 37 43 38 44 79 45
REMARK SMILES IDX 39 46 84 47 78 48 80 49 40 50 83 51 77 52 76 53 41 55 67 56
REMARK SMILES IDX 50 57 66 58 51 59 54 60 65 61 81 62 52 63 53 64 64 66 82 67
REMARK SMILES IDX 55 68 42 69 43 70 48 71 44 72 45 73 47 74 49 75 46 76 68 77
REMARK SMILES IDX 69 78 74 79 70 80 71 81 73 82 75 83 72 84 56 85 57 86 62 87
REMARK SMILES IDX 58 88 59 89 61 90 63 91 60 92
REMARK H PARENT 26 5 12 19 30 35 80 54 54 65
REMARK Flexibility Score: inf
ROOT
ATOM      1  C   UNL A   1      36.427  21.711  24.967  1.00  0.00     0.118 C 
ENDROOT
BRANCH   1   2
ATOM      2  N   UNL A   1      35.825  22.034  26.241  1.00  0.00    -0.351 N 
ATOM      3  C   UNL A   1      34.583  22.571  26.466  1.00  0.00     0.267 C 
ATOM      4  O   UNL A   1      34.116  22.577  27.600  1.00  0.00    -0.268 OA
ATOM      5  H   UNL A   1      36.369  21.848  27.039  1.00  0.00     0.163 HD
BRANCH   3   6
ATOM      6  C   UNL A   1      33.821  23.172  25.323  1.00  0.00     0.108 C 
ATOM      7  C   UNL A   1      32.844  22.426  24.769  1.00  0.00     0.084 C 
BRANCH   7   8
ATOM      8  C   UNL A   1      32.266  21.058  24.955  1.00  0.00     0.188 C 
ATOM      9  O   UNL A   1      31.268  20.957  25.671  1.00  0.00    -0.289 OA
BRANCH   8  10
ATOM     10  C   UNL A   1      32.763  19.830  24.309  1.00  0.00     0.026 A 
ATOM     11  C   UNL A   1      34.218  17.900  24.199  1.00  0.00     0.119 A 
ATOM     12  C   UNL A   1      33.586  17.516  23.012  1.00  0.00     0.046 A 
ATOM     13  C   UNL A   1      33.770  19.037  24.876  1.00  0.00     0.058 A 
ATOM     14  C   UNL A   1      32.518  18.247  22.497  1.00  0.00     0.005 A 
ATOM     15  C   UNL A   1      32.107  19.407  23.145  1.00  0.00     0.012 A 
BRANCH  11  16
ATOM     16  O   UNL A   1      35.250  17.078  24.546  1.00  0.00    -0.497 OA
ATOM     17  C   UNL A   1      35.011  15.925  25.327  1.00  0.00     0.278 C 
ENDBRANCH  11  16
ENDBRANCH   8  10
ENDBRANCH   7   8
BRANCH   6  18
ATOM     18  N   UNL A   1      34.103  24.472  24.865  1.00  0.00    -0.345 N 
ATOM     19  H   UNL A   1      35.026  24.622  24.555  1.00  0.00     0.167 HD
BRANCH  18  20
ATOM     20  C   UNL A   1      33.245  25.595  24.789  1.00  0.00     0.118 A 
ATOM     21  C   UNL A   1      32.814  26.132  26.022  1.00  0.00     0.037 A 
ATOM     22  C   UNL A   1      32.993  26.360  23.643  1.00  0.00     0.292 A 
ATOM     23  C   UNL A   1      32.325  27.452  26.137  1.00  0.00    -0.046 A 
ATOM     24  C   UNL A   1      32.501  27.675  23.733  1.00  0.00     0.091 A 
ATOM     25  C   UNL A   1      32.061  27.988  27.521  1.00  0.00     0.045 C 
ATOM     26  C   UNL A   1      32.236  28.253  24.984  1.00  0.00    -0.041 A 
ATOM     27  C   UNL A   1      31.913  29.722  25.054  1.00  0.00     0.045 C 
BRANCH  22  28
ATOM     28  N   UNL A   1      33.197  25.806  22.308  1.00  0.00     0.064 N 
ATOM     29  O   UNL A   1      32.773  24.659  22.103  1.00  0.00    -0.258 OA
ATOM     30  O   UNL A   1      33.841  26.487  21.497  1.00  0.00    -0.258 OA
ENDBRANCH  22  28
ENDBRANCH  18  20
ENDBRANCH   6  18
ENDBRANCH   3   6
ENDBRANCH   1   2
BRANCH   1  31
ATOM     31  C   UNL A   1      37.436  20.587  24.948  1.00  0.00     0.042 C 
BRANCH  31  32
ATOM     32  C   UNL A   1      38.740  20.837  25.688  1.00  0.00     0.118 C 
BRANCH  32  33
ATOM     33  N   UNL A   1      39.743  19.781  25.611  1.00  0.00    -0.352 N 
ATOM     34  C   UNL A   1      41.045  19.723  26.043  1.00  0.00     0.251 C 
ATOM     35  H   UNL A   1      39.428  18.959  25.170  1.00  0.00     0.163 HD
ATOM     36  O   UNL A   1      41.687  18.686  25.889  1.00  0.00    -0.269 OA
BRANCH  34  37
ATOM     37  C   UNL A   1      41.718  20.918  26.599  1.00  0.00     0.039 A 
ATOM     38  C   UNL A   1      42.306  21.820  25.706  1.00  0.00     0.014 A 
ATOM     39  C   UNL A   1      41.721  21.196  27.964  1.00  0.00     0.014 A 
ATOM     40  C   UNL A   1      42.753  23.060  26.166  1.00  0.00     0.010 A 
ATOM     41  C   UNL A   1      42.051  22.474  28.401  1.00  0.00     0.010 A 
ATOM     42  C   UNL A   1      42.549  23.430  27.503  1.00  0.00    -0.014 A 
BRANCH  42  43
ATOM     43  C   UNL A   1      42.814  24.810  27.986  1.00  0.00     0.031 A 
ATOM     44  C   UNL A   1      44.198  25.203  28.422  1.00  0.00     0.074 A 
ATOM     45  C   UNL A   1      41.789  25.674  28.140  1.00  0.00     0.049 A 
ATOM     46  N   UNL A   1      44.597  26.291  29.030  1.00  0.00    -0.248 NA
ATOM     47  C   UNL A   1      45.268  24.222  28.183  1.00  0.00     0.031 C 
ATOM     48  C   UNL A   1      40.387  25.401  27.813  1.00  0.00     0.029 A 
ATOM     49  N   UNL A   1      41.768  26.957  28.630  1.00  0.00    -0.354 N 
ATOM     50  C   UNL A   1      45.949  26.108  29.279  1.00  0.00     0.074 A 
ATOM     51  C   UNL A   1      46.294  24.786  28.803  1.00  0.00     0.031 C 
ATOM     52  C   UNL A   1      39.650  26.490  28.085  1.00  0.00     0.029 A 
ATOM     53  C   UNL A   1      40.514  27.520  28.649  1.00  0.00     0.049 A 
ATOM     54  H   UNL A   1      42.574  27.428  28.940  1.00  0.00     0.167 HD
ATOM     55  C   UNL A   1      46.834  26.971  29.834  1.00  0.00     0.037 A 
ATOM     56  C   UNL A   1      40.104  28.726  29.084  1.00  0.00     0.037 A 
ATOM     57  C   UNL A   1      46.505  28.307  30.253  1.00  0.00     0.049 A 
ATOM     58  C   UNL A   1      41.108  29.677  29.668  1.00  0.00     0.074 A 
ATOM     59  C   UNL A   1      47.347  29.288  30.745  1.00  0.00     0.029 A 
ATOM     60  N   UNL A   1      45.231  28.852  30.218  1.00  0.00    -0.354 N 
ATOM     61  N   UNL A   1      42.396  29.509  29.849  1.00  0.00    -0.248 NA
ATOM     62  C   UNL A   1      40.603  30.984  30.114  1.00  0.00     0.031 C 
ATOM     63  C   UNL A   1      46.577  30.419  31.036  1.00  0.00     0.029 A 
ATOM     64  C   UNL A   1      45.261  30.152  30.694  1.00  0.00     0.049 A 
ATOM     65  H   UNL A   1      44.424  28.385  29.901  1.00  0.00     0.167 HD
ATOM     66  C   UNL A   1      42.859  30.692  30.410  1.00  0.00     0.074 A 
ATOM     67  C   UNL A   1      41.716  31.575  30.526  1.00  0.00     0.031 C 
ATOM     68  C   UNL A   1      44.116  31.017  30.798  1.00  0.00     0.037 A 
BRANCH  55  69
ATOM     69  C   UNL A   1      48.245  26.494  30.005  1.00  0.00     0.057 A 
ATOM     70  C   UNL A   1      48.661  25.822  31.162  1.00  0.00     0.134 A 
ATOM     71  C   UNL A   1      49.195  26.695  28.997  1.00  0.00     0.134 A 
ATOM     72  F   UNL A   1      47.803  25.612  32.172  1.00  0.00    -0.206 F 
ATOM     73  C   UNL A   1      49.980  25.394  31.323  1.00  0.00     0.040 A 
ATOM     74  C   UNL A   1      50.511  26.249  29.135  1.00  0.00     0.040 A 
ATOM     75  F   UNL A   1      48.863  27.329  27.862  1.00  0.00    -0.206 F 
ATOM     76  C   UNL A   1      50.907  25.602  30.305  1.00  0.00     0.006 A 
ENDBRANCH  55  69
BRANCH  56  77
ATOM     77  C   UNL A   1      38.676  29.114  28.969  1.00  0.00     0.057 A 
ATOM     78  C   UNL A   1      37.821  29.033  30.074  1.00  0.00     0.134 A 
ATOM     79  C   UNL A   1      38.130  29.562  27.762  1.00  0.00     0.134 A 
ATOM     80  F   UNL A   1      38.283  28.593  31.253  1.00  0.00    -0.206 F 
ATOM     81  C   UNL A   1      36.469  29.367  29.979  1.00  0.00     0.040 A 
ATOM     82  C   UNL A   1      36.784  29.919  27.656  1.00  0.00     0.040 A 
ATOM     83  F   UNL A   1      38.900  29.669  26.669  1.00  0.00    -0.206 F 
ATOM     84  C   UNL A   1      35.948  29.815  28.766  1.00  0.00     0.006 A 
ENDBRANCH  56  77
BRANCH  68  85
ATOM     85  C   UNL A   1      44.323  32.389  31.363  1.00  0.00     0.057 A 
ATOM     86  C   UNL A   1      44.604  33.486  30.541  1.00  0.00     0.134 A 
ATOM     87  C   UNL A   1      44.200  32.621  32.738  1.00  0.00     0.134 A 
ATOM     88  F   UNL A   1      44.749  33.325  29.217  1.00  0.00    -0.206 F 
ATOM     89  C   UNL A   1      44.768  34.767  31.069  1.00  0.00     0.040 A 
ATOM     90  C   UNL A   1      44.341  33.899  33.276  1.00  0.00     0.040 A 
ATOM     91  F   UNL A   1      43.927  31.610  33.578  1.00  0.00    -0.206 F 
ATOM     92  C   UNL A   1      44.630  34.977  32.441  1.00  0.00     0.006 A 
ENDBRANCH  68  85
ENDBRANCH  42  43
ENDBRANCH  34  37
ENDBRANCH  32  33
ENDBRANCH  31  32
ENDBRANCH   1  31
TORSDOF 16
ENDMDL
MODEL 2
REMARK VINA RESULT:     -12.2      1.976      6.050
REMARK SMILES COc1cccc(C(=O)/C=C(/Nc2cc(C)c(C)cc2[N+](=O)[O-])C(=O)NCCCNC(=O)c2ccc(-c3c4nc(c(-c5c(F)cccc5F)c5ccc([nH]5)c(-c5c(F)cccc5F)c5nc(c(-c6c(F)cccc6F)c6ccc3[nH]6)C=C5)C=C4)cc2)c1
REMARK SMILES IDX 27 1 26 2 24 3 25 4 11 6 10 7 8 8 9 9 7 10 3 11 4 12 87 13
REMARK SMILES IDX 5 14 6 15 2 16 1 17 12 18 13 20 14 21 20 22 15 23 19 24
REMARK SMILES IDX 16 25 17 26 18 27 21 28 22 29 23 30 28 31 29 32 30 33 31 34
REMARK SMILES IDX 32 36 33 37 34 38 86 39 35 40 85 41 36 42 37 43 38 44 79 45
REMARK SMILES IDX 39 46 84 47 78 48 80 49 40 50 83 51 77 52 76 53 41 55 67 56
REMARK SMILES IDX 50 57 66 58 51 59 54 60 65 61 81 62 52 63 53 64 64 66 82 67
REMARK SMILES IDX 55 68 42 69 43 70 48 71 44 72 45 73 47 74 49 75 46 76 68 77
REMARK SMILES IDX 69 78 74 79 70 80 71 81 73 82 75 83 72 84 56 85 57 86 62 87
REMARK SMILES IDX 58 88 59 89 61 90 63 91 60 92
REMARK H PARENT 26 5 12 19 30 35 80 54 54 65
REMARK Flexibility Score: inf
ROOT
ATOM      1  C   UNL A   1      36.499  22.550  24.382  1.00  0.00     0.118 C 
ENDROOT
BRANCH   1   2
ATOM      2  N   UNL A   1      35.867  22.889  25.638  1.00  0.00    -0.351 N 
ATOM      3  C   UNL A   1      34.554  23.227  25.848  1.00  0.00     0.267 C 
ATOM      4  O   UNL A   1      34.108  23.264  26.990  1.00  0.00    -0.268 OA
ATOM      5  H   UNL A   1      36.445  22.876  26.433  1.00  0.00     0.163 HD
BRANCH   3   6
ATOM      6  C   UNL A   1      33.685  23.576  24.676  1.00  0.00     0.108 C 
ATOM      7  C   UNL A   1      32.742  22.682  24.316  1.00  0.00     0.084 C 
BRANCH   7   8
ATOM      8  C   UNL A   1      32.286  21.327  24.759  1.00  0.00     0.188 C 
ATOM      9  O   UNL A   1      31.413  21.279  25.629  1.00  0.00    -0.289 OA
BRANCH   8  10
ATOM     10  C   UNL A   1      32.758  20.047  24.202  1.00  0.00     0.026 A 
ATOM     11  C   UNL A   1      34.183  18.091  24.223  1.00  0.00     0.119 A 
ATOM     12  C   UNL A   1      33.534  17.631  23.073  1.00  0.00     0.046 A 
ATOM     13  C   UNL A   1      33.758  19.282  24.818  1.00  0.00     0.058 A 
ATOM     14  C   UNL A   1      32.473  18.338  22.514  1.00  0.00     0.005 A 
ATOM     15  C   UNL A   1      32.085  19.550  23.077  1.00  0.00     0.012 A 
BRANCH  11  16
ATOM     16  O   UNL A   1      35.205  17.281  24.621  1.00  0.00    -0.497 OA
ATOM     17  C   UNL A   1      34.931  16.030  25.220  1.00  0.00     0.278 C 
ENDBRANCH  11  16
ENDBRANCH   8  10
ENDBRANCH   7   8
BRANCH   6  18
ATOM     18  N   UNL A   1      33.838  24.799  23.997  1.00  0.00    -0.345 N 
ATOM     19  H   UNL A   1      34.549  24.820  23.316  1.00  0.00     0.167 HD
BRANCH  18  20
ATOM     20  C   UNL A   1      33.111  26.002  24.158  1.00  0.00     0.118 A 
ATOM     21  C   UNL A   1      32.427  26.156  25.383  1.00  0.00     0.037 A 
ATOM     22  C   UNL A   1      33.211  27.137  23.342  1.00  0.00     0.292 A 
ATOM     23  C   UNL A   1      32.023  27.420  25.866  1.00  0.00    -0.046 A 
ATOM     24  C   UNL A   1      32.810  28.406  23.799  1.00  0.00     0.091 A 
ATOM     25  C   UNL A   1      31.463  27.496  27.262  1.00  0.00     0.045 C 
ATOM     26  C   UNL A   1      32.285  28.565  25.091  1.00  0.00    -0.041 A 
ATOM     27  C   UNL A   1      32.064  29.957  25.621  1.00  0.00     0.045 C 
BRANCH  22  28
ATOM     28  N   UNL A   1      33.701  27.037  21.971  1.00  0.00     0.064 N 
ATOM     29  O   UNL A   1      34.237  28.045  21.488  1.00  0.00    -0.258 OA
ATOM     30  O   UNL A   1      33.483  25.980  21.361  1.00  0.00    -0.258 OA
ENDBRANCH  22  28
ENDBRANCH  18  20
ENDBRANCH   6  18
ENDBRANCH   3   6
ENDBRANCH   1   2
BRANCH   1  31
ATOM     31  C   UNL A   1      37.070  21.158  24.253  1.00  0.00     0.042 C 
BRANCH  31  32
ATOM     32  C   UNL A   1      37.494  20.479  25.546  1.00  0.00     0.118 C 
BRANCH  32  33
ATOM     33  N   UNL A   1      38.753  19.745  25.510  1.00  0.00    -0.352 N 
ATOM     34  C   UNL A   1      39.998  20.040  26.009  1.00  0.00     0.251 C 
ATOM     35  H   UNL A   1      38.702  18.879  25.044  1.00  0.00     0.163 HD
ATOM     36  O   UNL A   1      40.910  19.226  25.878  1.00  0.00    -0.269 OA
BRANCH  34  37
ATOM     37  C   UNL A   1      40.285  21.360  26.612  1.00  0.00     0.039 A 
ATOM     38  C   UNL A   1      41.221  21.424  27.649  1.00  0.00     0.014 A 
ATOM     39  C   UNL A   1      39.703  22.532  26.134  1.00  0.00     0.014 A 
ATOM     40  C   UNL A   1      41.682  22.664  28.093  1.00  0.00     0.010 A 
ATOM     41  C   UNL A   1      40.250  23.761  26.487  1.00  0.00     0.010 A 
ATOM     42  C   UNL A   1      41.263  23.840  27.454  1.00  0.00    -0.014 A 
BRANCH  42  43
ATOM     43  C   UNL A   1      41.883  25.158  27.749  1.00  0.00     0.031 A 
ATOM     44  C   UNL A   1      41.095  26.218  28.469  1.00  0.00     0.074 A 
ATOM     45  C   UNL A   1      43.112  25.443  27.271  1.00  0.00     0.049 A 
ATOM     46  N   UNL A   1      41.389  27.477  28.666  1.00  0.00    -0.248 NA
ATOM     47  C   UNL A   1      39.780  25.818  28.995  1.00  0.00     0.031 C 
ATOM     48  C   UNL A   1      43.962  24.527  26.505  1.00  0.00     0.029 A 
ATOM     49  N   UNL A   1      43.855  26.595  27.345  1.00  0.00    -0.354 N 
ATOM     50  C   UNL A   1      40.284  28.026  29.302  1.00  0.00     0.074 A 
ATOM     51  C   UNL A   1      39.294  26.977  29.414  1.00  0.00     0.031 C 
ATOM     52  C   UNL A   1      45.117  25.143  26.206  1.00  0.00     0.029 A 
ATOM     53  C   UNL A   1      45.073  26.509  26.714  1.00  0.00     0.049 A 
ATOM     54  H   UNL A   1      43.544  27.407  27.806  1.00  0.00     0.167 HD
ATOM     55  C   UNL A   1      40.116  29.284  29.775  1.00  0.00     0.037 A 
ATOM     56  C   UNL A   1      46.040  27.430  26.549  1.00  0.00     0.037 A 
ATOM     57  C   UNL A   1      41.122  30.310  29.717  1.00  0.00     0.049 A 
ATOM     58  C   UNL A   1      45.843  28.810  27.108  1.00  0.00     0.074 A 
ATOM     59  C   UNL A   1      41.080  31.589  30.244  1.00  0.00     0.029 A 
ATOM     60  N   UNL A   1      42.357  30.169  29.104  1.00  0.00    -0.354 N 
ATOM     61  N   UNL A   1      44.812  29.299  27.755  1.00  0.00    -0.248 NA
ATOM     62  C   UNL A   1      46.939  29.769  26.909  1.00  0.00     0.031 C 
ATOM     63  C   UNL A   1      42.281  32.232  29.924  1.00  0.00     0.029 A 
ATOM     64  C   UNL A   1      43.081  31.342  29.226  1.00  0.00     0.049 A 
ATOM     65  H   UNL A   1      42.673  29.355  28.648  1.00  0.00     0.167 HD
ATOM     66  C   UNL A   1      45.142  30.613  28.057  1.00  0.00     0.074 A 
ATOM     67  C   UNL A   1      46.475  30.842  27.535  1.00  0.00     0.031 C 
ATOM     68  C   UNL A   1      44.407  31.549  28.705  1.00  0.00     0.037 A 
BRANCH  55  69
ATOM     69  C   UNL A   1      38.795  29.611  30.405  1.00  0.00     0.057 A 
ATOM     70  C   UNL A   1      37.738  30.153  29.662  1.00  0.00     0.134 A 
ATOM     71  C   UNL A   1      38.573  29.368  31.766  1.00  0.00     0.134 A 
ATOM     72  F   UNL A   1      37.893  30.424  28.358  1.00  0.00    -0.206 F 
ATOM     73  C   UNL A   1      36.515  30.470  30.257  1.00  0.00     0.040 A 
ATOM     74  C   UNL A   1      37.346  29.657  32.366  1.00  0.00     0.040 A 
ATOM     75  F   UNL A   1      39.542  28.848  32.533  1.00  0.00    -0.206 F 
ATOM     76  C   UNL A   1      36.316  30.217  31.613  1.00  0.00     0.006 A 
ENDBRANCH  55  69
BRANCH  56  77
ATOM     77  C   UNL A   1      47.295  27.076  25.840  1.00  0.00     0.057 A 
ATOM     78  C   UNL A   1      47.440  27.333  24.472  1.00  0.00     0.134 A 
ATOM     79  C   UNL A   1      48.368  26.469  26.501  1.00  0.00     0.134 A 
ATOM     80  F   UNL A   1      46.439  27.896  23.781  1.00  0.00    -0.206 F 
ATOM     81  C   UNL A   1      48.601  26.981  23.781  1.00  0.00     0.040 A 
ATOM     82  C   UNL A   1      49.544  26.130  25.828  1.00  0.00     0.040 A 
ATOM     83  F   UNL A   1      48.293  26.205  27.814  1.00  0.00    -0.206 F 
ATOM     84  C   UNL A   1      49.659  26.382  24.462  1.00  0.00     0.006 A 
ENDBRANCH  56  77
BRANCH  68  85
ATOM     85  C   UNL A   1      45.035  32.895  28.903  1.00  0.00     0.057 A 
ATOM     86  C   UNL A   1      45.846  33.170  30.011  1.00  0.00     0.134 A 
ATOM     87  C   UNL A   1      44.860  33.911  27.956  1.00  0.00     0.134 A 
ATOM     88  F   UNL A   1      46.038  32.242  30.960  1.00  0.00    -0.206 F 
ATOM     89  C   UNL A   1      46.452  34.416  30.176  1.00  0.00     0.040 A 
ATOM     90  C   UNL A   1      45.478  35.153  28.099  1.00  0.00     0.040 A 
ATOM     91  F   UNL A   1      44.100  33.707  26.870  1.00  0.00    -0.206 F 
ATOM     92  C   UNL A   1      46.273  35.410  29.214  1.00  0.00     0.006 A 
ENDBRANCH  68  85
ENDBRANCH  42  43
ENDBRANCH  34  37
ENDBRANCH  32  33
ENDBRANCH  31  32
ENDBRANCH   1  31
TORSDOF 16
ENDMDL
MODEL 3
REMARK VINA RESULT:     -12.2      3.666      9.275
REMARK SMILES COc1cccc(C(=O)/C=C(/Nc2cc(C)c(C)cc2[N+](=O)[O-])C(=O)NCCCNC(=O)c2ccc(-c3c4nc(c(-c5c(F)cccc5F)c5ccc([nH]5)c(-c5c(F)cccc5F)c5nc(c(-c6c(F)cccc6F)c6ccc3[nH]6)C=C5)C=C4)cc2)c1
REMARK SMILES IDX 27 1 26 2 24 3 25 4 11 6 10 7 8 8 9 9 7 10 3 11 4 12 87 13
REMARK SMILES IDX 5 14 6 15 2 16 1 17 12 18 13 20 14 21 20 22 15 23 19 24
REMARK SMILES IDX 16 25 17 26 18 27 21 28 22 29 23 30 28 31 29 32 30 33 31 34
REMARK SMILES IDX 32 36 33 37 34 38 86 39 35 40 85 41 36 42 37 43 38 44 79 45
REMARK SMILES IDX 39 46 84 47 78 48 80 49 40 50 83 51 77 52 76 53 41 55 67 56
REMARK SMILES IDX 50 57 66 58 51 59 54 60 65 61 81 62 52 63 53 64 64 66 82 67
REMARK SMILES IDX 55 68 42 69 43 70 48 71 44 72 45 73 47 74 49 75 46 76 68 77
REMARK SMILES IDX 69 78 74 79 70 80 71 81 73 82 75 83 72 84 56 85 57 86 62 87
REMARK SMILES IDX 58 88 59 89 61 90 63 91 60 92
REMARK H PARENT 26 5 12 19 30 35 80 54 54 65
REMARK Flexibility Score: inf
ROOT
ATOM      1  C   UNL A   1      32.354  29.865  26.274  1.00  0.00     0.118 C 
ENDROOT
BRANCH   1   2
ATOM      2  N   UNL A   1      31.512  28.750  26.647  1.00  0.00    -0.351 N 
ATOM      3  C   UNL A   1      31.404  27.537  26.016  1.00  0.00     0.267 C 
ATOM      4  O   UNL A   1      30.826  26.609  26.572  1.00  0.00    -0.268 OA
ATOM      5  H   UNL A   1      30.951  28.877  27.445  1.00  0.00     0.163 HD
BRANCH   3   6
ATOM      6  C   UNL A   1      31.970  27.369  24.638  1.00  0.00     0.108 C 
ATOM      7  C   UNL A   1      31.152  27.624  23.597  1.00  0.00     0.084 C 
BRANCH   7   8
ATOM      8  C   UNL A   1      29.727  28.033  23.393  1.00  0.00     0.188 C 
ATOM      9  O   UNL A   1      28.859  27.176  23.577  1.00  0.00    -0.289 OA
BRANCH   8  10
ATOM     10  C   UNL A   1      29.273  29.391  23.043  1.00  0.00     0.026 A 
ATOM     11  C   UNL A   1      28.171  30.976  21.584  1.00  0.00     0.119 A 
ATOM     12  C   UNL A   1      28.441  31.987  22.512  1.00  0.00     0.046 A 
ATOM     13  C   UNL A   1      28.546  29.662  21.875  1.00  0.00     0.058 A 
ATOM     14  C   UNL A   1      29.076  31.705  23.719  1.00  0.00     0.005 A 
ATOM     15  C   UNL A   1      29.495  30.405  23.984  1.00  0.00     0.012 A 
BRANCH  11  16
ATOM     16  O   UNL A   1      27.558  31.436  20.455  1.00  0.00    -0.497 OA
ATOM     17  C   UNL A   1      27.683  32.793  20.080  1.00  0.00     0.278 C 
ENDBRANCH  11  16
ENDBRANCH   8  10
ENDBRANCH   7   8
BRANCH   6  18
ATOM     18  N   UNL A   1      33.308  26.982  24.444  1.00  0.00    -0.345 N 
ATOM     19  H   UNL A   1      33.961  27.718  24.403  1.00  0.00     0.167 HD
BRANCH  18  20
ATOM     20  C   UNL A   1      33.847  25.682  24.301  1.00  0.00     0.118 A 
ATOM     21  C   UNL A   1      34.240  25.036  25.494  1.00  0.00     0.037 A 
ATOM     22  C   UNL A   1      33.793  24.893  23.143  1.00  0.00     0.292 A 
ATOM     23  C   UNL A   1      34.390  23.635  25.576  1.00  0.00    -0.046 A 
ATOM     24  C   UNL A   1      33.945  23.496  23.201  1.00  0.00     0.091 A 
ATOM     25  C   UNL A   1      34.635  23.031  26.935  1.00  0.00     0.045 C 
ATOM     26  C   UNL A   1      34.169  22.853  24.428  1.00  0.00    -0.041 A 
ATOM     27  C   UNL A   1      34.118  21.349  24.482  1.00  0.00     0.045 C 
BRANCH  22  28
ATOM     28  N   UNL A   1      33.614  25.500  21.828  1.00  0.00     0.064 N 
ATOM     29  O   UNL A   1      33.976  26.678  21.696  1.00  0.00    -0.258 OA
ATOM     30  O   UNL A   1      33.050  24.823  20.957  1.00  0.00    -0.258 OA
ENDBRANCH  22  28
ENDBRANCH  18  20
ENDBRANCH   6  18
ENDBRANCH   3   6
ENDBRANCH   1   2
BRANCH   1  31
ATOM     31  C   UNL A   1      31.917  31.239  26.723  1.00  0.00     0.042 C 
BRANCH  31  32
ATOM     32  C   UNL A   1      33.023  32.208  27.108  1.00  0.00     0.118 C 
BRANCH  32  33
ATOM     33  N   UNL A   1      32.600  33.510  27.610  1.00  0.00    -0.352 N 
ATOM     34  C   UNL A   1      33.208  34.406  28.454  1.00  0.00     0.251 C 
ATOM     35  H   UNL A   1      31.717  33.800  27.283  1.00  0.00     0.163 HD
ATOM     36  O   UNL A   1      32.651  35.473  28.704  1.00  0.00    -0.269 OA
BRANCH  34  37
ATOM     37  C   UNL A   1      34.471  34.066  29.146  1.00  0.00     0.039 A 
ATOM     38  C   UNL A   1      34.393  33.408  30.378  1.00  0.00     0.014 A 
ATOM     39  C   UNL A   1      35.716  34.323  28.577  1.00  0.00     0.014 A 
ATOM     40  C   UNL A   1      35.548  32.875  30.954  1.00  0.00     0.010 A 
ATOM     41  C   UNL A   1      36.844  33.689  29.085  1.00  0.00     0.010 A 
ATOM     42  C   UNL A   1      36.769  32.937  30.268  1.00  0.00    -0.014 A 
BRANCH  42  43
ATOM     43  C   UNL A   1      37.973  32.205  30.739  1.00  0.00     0.031 A 
ATOM     44  C   UNL A   1      38.827  32.784  31.834  1.00  0.00     0.074 A 
ATOM     45  C   UNL A   1      38.362  31.078  30.108  1.00  0.00     0.049 A 
ATOM     46  N   UNL A   1      39.999  32.392  32.264  1.00  0.00    -0.248 NA
ATOM     47  C   UNL A   1      38.314  33.991  32.501  1.00  0.00     0.031 C 
ATOM     48  C   UNL A   1      37.659  30.440  28.991  1.00  0.00     0.029 A 
ATOM     49  N   UNL A   1      39.459  30.276  30.305  1.00  0.00    -0.354 N 
ATOM     50  C   UNL A   1      40.379  33.324  33.220  1.00  0.00     0.074 A 
ATOM     51  C   UNL A   1      39.337  34.326  33.273  1.00  0.00     0.031 C 
ATOM     52  C   UNL A   1      38.326  29.335  28.623  1.00  0.00     0.029 A 
ATOM     53  C   UNL A   1      39.526  29.210  29.441  1.00  0.00     0.049 A 
ATOM     54  H   UNL A   1      40.135  30.450  30.999  1.00  0.00     0.167 HD
ATOM     55  C   UNL A   1      41.484  33.333  34.003  1.00  0.00     0.037 A 
ATOM     56  C   UNL A   1      40.458  28.246  29.313  1.00  0.00     0.037 A 
ATOM     57  C   UNL A   1      42.489  32.305  33.993  1.00  0.00     0.049 A 
ATOM     58  C   UNL A   1      41.660  28.260  30.212  1.00  0.00     0.074 A 
ATOM     59  C   UNL A   1      43.601  32.178  34.808  1.00  0.00     0.029 A 
ATOM     60  N   UNL A   1      42.499  31.221  33.130  1.00  0.00    -0.354 N 
ATOM     61  N   UNL A   1      41.978  29.120  31.150  1.00  0.00    -0.248 NA
ATOM     62  C   UNL A   1      42.635  27.175  30.034  1.00  0.00     0.031 C 
ATOM     63  C   UNL A   1      44.300  31.031  34.418  1.00  0.00     0.029 A 
ATOM     64  C   UNL A   1      43.605  30.427  33.382  1.00  0.00     0.049 A 
ATOM     65  H   UNL A   1      41.820  31.041  32.439  1.00  0.00     0.167 HD
ATOM     66  C   UNL A   1      43.178  28.670  31.686  1.00  0.00     0.074 A 
ATOM     67  C   UNL A   1      43.523  27.453  30.978  1.00  0.00     0.031 C 
ATOM     68  C   UNL A   1      43.929  29.218  32.671  1.00  0.00     0.037 A 
BRANCH  55  69
ATOM     69  C   UNL A   1      41.651  34.488  34.944  1.00  0.00     0.057 A 
ATOM     70  C   UNL A   1      41.118  34.467  36.240  1.00  0.00     0.134 A 
ATOM     71  C   UNL A   1      42.365  35.628  34.557  1.00  0.00     0.134 A 
ATOM     72  F   UNL A   1      40.409  33.410  36.666  1.00  0.00    -0.206 F 
ATOM     73  C   UNL A   1      41.263  35.551  37.107  1.00  0.00     0.040 A 
ATOM     74  C   UNL A   1      42.540  36.708  35.424  1.00  0.00     0.040 A 
ATOM     75  F   UNL A   1      42.904  35.712  33.332  1.00  0.00    -0.206 F 
ATOM     76  C   UNL A   1      41.981  36.674  36.701  1.00  0.00     0.006 A 
ENDBRANCH  55  69
BRANCH  56  77
ATOM     77  C   UNL A   1      40.284  27.172  28.303  1.00  0.00     0.057 A 
ATOM     78  C   UNL A   1      39.551  26.017  28.605  1.00  0.00     0.134 A 
ATOM     79  C   UNL A   1      40.847  27.263  27.026  1.00  0.00     0.134 A 
ATOM     80  F   UNL A   1      39.004  25.865  29.818  1.00  0.00    -0.206 F 
ATOM     81  C   UNL A   1      39.400  24.984  27.679  1.00  0.00     0.040 A 
ATOM     82  C   UNL A   1      40.687  26.247  26.081  1.00  0.00     0.040 A 
ATOM     83  F   UNL A   1      41.553  28.348  26.674  1.00  0.00    -0.206 F 
ATOM     84  C   UNL A   1      39.967  25.100  26.410  1.00  0.00     0.006 A 
ENDBRANCH  56  77
BRANCH  68  85
ATOM     85  C   UNL A   1      45.184  28.495  33.056  1.00  0.00     0.057 A 
ATOM     86  C   UNL A   1      46.420  28.814  32.482  1.00  0.00     0.134 A 
ATOM     87  C   UNL A   1      45.161  27.499  34.041  1.00  0.00     0.134 A 
ATOM     88  F   UNL A   1      46.504  29.748  31.523  1.00  0.00    -0.206 F 
ATOM     89  C   UNL A   1      47.590  28.157  32.865  1.00  0.00     0.040 A 
ATOM     90  C   UNL A   1      46.327  26.851  34.447  1.00  0.00     0.040 A 
ATOM     91  F   UNL A   1      44.008  27.153  34.632  1.00  0.00    -0.206 F 
ATOM     92  C   UNL A   1      47.546  27.177  33.856  1.00  0.00     0.006 A 
ENDBRANCH  68  85
ENDBRANCH  42  43
ENDBRANCH  34  37
ENDBRANCH  32  33
ENDBRANCH  31  32
ENDBRANCH   1  31
TORSDOF 16
ENDMDL
