MODEL 1
REMARK VINA RESULT:     -12.2      0.000      0.000
REMARK SMILES O=C(NCCCNC(=O)c1c(C(F)(F)F)nn(-c2ccccc2)c1C(F)(F)Cl)c1ccc(-c2c3nc(c(-c4c(F)cccc4F)c4ccc([nH]4)c(-c4c(F)cccc4F)c4nc(c(-c5c(F)cccc5F)c5ccc2[nH]5)C=C4)C=C3)cc1
REMARK SMILES IDX 4 1 3 2 1 3 2 4 29 6 30 7 82 8 31 9 81 10 32 11 33 12 34 13
REMARK SMILES IDX 75 14 35 15 80 16 74 17 76 18 36 19 79 20 73 21 72 22 37 24
REMARK SMILES IDX 63 25 46 26 62 27 47 28 50 29 61 30 77 31 48 32 49 33 60 35
REMARK SMILES IDX 78 36 51 37 38 38 39 39 44 40 40 41 41 42 43 43 45 44 42 45
REMARK SMILES IDX 64 46 65 47 70 48 66 49 67 50 69 51 71 52 68 53 52 54 53 55
REMARK SMILES IDX 58 56 54 57 55 58 57 59 59 60 56 61 5 62 6 63 7 64 8 65 9 67
REMARK SMILES IDX 10 68 11 69 24 70 16 71 17 72 12 73 13 74 14 75 15 76 25 77
REMARK SMILES IDX 26 78 27 79 28 80 18 81 19 82 23 83 20 84 22 85 21 86
REMARK H PARENT 3 5 76 23 50 34 7 66
REMARK Flexibility Score: inf
ROOT
ATOM      1  C   UNL A   1      38.729  21.965  26.125  1.00  0.00     0.118 C 
ENDROOT
BRANCH   1   2
ATOM      2  N   UNL A   1      40.143  22.041  25.821  1.00  0.00    -0.352 N 
ATOM      3  O   UNL A   1      42.309  22.435  25.966  1.00  0.00    -0.269 OA
ATOM      4  C   UNL A   1      41.174  22.835  26.238  1.00  0.00     0.251 C 
ATOM      5  H   UNL A   1      40.426  21.366  25.164  1.00  0.00     0.163 HD
BRANCH   4   6
ATOM      6  C   UNL A   1      41.027  24.162  26.894  1.00  0.00     0.039 A 
ATOM      7  C   UNL A   1      40.138  25.172  26.526  1.00  0.00     0.014 A 
ATOM      8  C   UNL A   1      41.919  24.404  27.957  1.00  0.00     0.014 A 
ATOM      9  C   UNL A   1      40.206  26.426  27.136  1.00  0.00     0.010 A 
ATOM     10  C   UNL A   1      41.985  25.646  28.575  1.00  0.00     0.010 A 
ATOM     11  C   UNL A   1      41.154  26.670  28.135  1.00  0.00    -0.014 A 
BRANCH  11  12
ATOM     12  C   UNL A   1      41.143  27.957  28.828  1.00  0.00     0.031 A 
ATOM     13  C   UNL A   1      42.245  28.879  28.426  1.00  0.00     0.074 A 
ATOM     14  C   UNL A   1      40.126  28.365  29.617  1.00  0.00     0.049 A 
ATOM     15  N   UNL A   1      43.168  29.399  29.168  1.00  0.00    -0.248 NA
ATOM     16  C   UNL A   1      42.400  29.179  26.991  1.00  0.00     0.031 C 
ATOM     17  C   UNL A   1      38.844  27.694  29.850  1.00  0.00     0.029 A 
ATOM     18  N   UNL A   1      39.981  29.536  30.303  1.00  0.00    -0.354 N 
ATOM     19  C   UNL A   1      43.912  30.234  28.334  1.00  0.00     0.074 A 
ATOM     20  C   UNL A   1      43.491  29.947  26.988  1.00  0.00     0.031 C 
ATOM     21  C   UNL A   1      37.981  28.564  30.425  1.00  0.00     0.029 A 
ATOM     22  C   UNL A   1      38.680  29.804  30.719  1.00  0.00     0.049 A 
ATOM     23  H   UNL A   1      40.735  30.141  30.490  1.00  0.00     0.167 HD
ATOM     24  C   UNL A   1      44.665  31.255  28.828  1.00  0.00     0.037 A 
ATOM     25  C   UNL A   1      38.205  30.978  31.209  1.00  0.00     0.037 A 
ATOM     26  C   UNL A   1      44.914  31.090  30.234  1.00  0.00     0.049 A 
ATOM     27  C   UNL A   1      39.367  31.787  31.646  1.00  0.00     0.074 A 
ATOM     28  C   UNL A   1      45.556  30.146  31.010  1.00  0.00     0.029 A 
ATOM     29  N   UNL A   1      44.164  31.839  31.105  1.00  0.00    -0.354 N 
ATOM     30  N   UNL A   1      40.114  31.493  32.672  1.00  0.00    -0.248 NA
ATOM     31  C   UNL A   1      39.966  32.685  30.671  1.00  0.00     0.031 C 
ATOM     32  C   UNL A   1      44.779  30.063  32.203  1.00  0.00     0.029 A 
ATOM     33  C   UNL A   1      43.753  31.002  32.106  1.00  0.00     0.049 A 
ATOM     34  H   UNL A   1      43.958  32.798  31.024  1.00  0.00     0.167 HD
ATOM     35  C   UNL A   1      41.404  31.790  32.259  1.00  0.00     0.074 A 
ATOM     36  C   UNL A   1      41.242  32.600  31.054  1.00  0.00     0.031 C 
ATOM     37  C   UNL A   1      42.476  31.115  32.767  1.00  0.00     0.037 A 
BRANCH  24  38
ATOM     38  C   UNL A   1      44.857  32.588  28.144  1.00  0.00     0.057 A 
ATOM     39  C   UNL A   1      43.771  33.481  28.062  1.00  0.00     0.134 A 
ATOM     40  C   UNL A   1      45.944  32.891  27.298  1.00  0.00     0.134 A 
ATOM     41  F   UNL A   1      42.672  33.299  28.809  1.00  0.00    -0.206 F 
ATOM     42  C   UNL A   1      43.733  34.537  27.142  1.00  0.00     0.040 A 
ATOM     43  C   UNL A   1      45.937  33.973  26.414  1.00  0.00     0.040 A 
ATOM     44  F   UNL A   1      47.021  32.103  27.205  1.00  0.00    -0.206 F 
ATOM     45  C   UNL A   1      44.815  34.779  26.306  1.00  0.00     0.006 A 
ENDBRANCH  24  38
BRANCH  25  46
ATOM     46  C   UNL A   1      36.861  31.586  31.046  1.00  0.00     0.057 A 
ATOM     47  C   UNL A   1      36.054  31.885  32.155  1.00  0.00     0.134 A 
ATOM     48  C   UNL A   1      36.460  32.155  29.825  1.00  0.00     0.134 A 
ATOM     49  F   UNL A   1      36.374  31.429  33.374  1.00  0.00    -0.206 F 
ATOM     50  C   UNL A   1      34.930  32.720  32.060  1.00  0.00     0.040 A 
ATOM     51  C   UNL A   1      35.339  32.985  29.714  1.00  0.00     0.040 A 
ATOM     52  F   UNL A   1      37.198  32.003  28.717  1.00  0.00    -0.206 F 
ATOM     53  C   UNL A   1      34.577  33.282  30.837  1.00  0.00     0.006 A 
ENDBRANCH  25  46
BRANCH  37  54
ATOM     54  C   UNL A   1      42.251  30.233  33.961  1.00  0.00     0.057 A 
ATOM     55  C   UNL A   1      41.862  28.887  33.887  1.00  0.00     0.134 A 
ATOM     56  C   UNL A   1      42.590  30.725  35.226  1.00  0.00     0.134 A 
ATOM     57  F   UNL A   1      41.614  28.299  32.710  1.00  0.00    -0.206 F 
ATOM     58  C   UNL A   1      41.775  28.082  35.026  1.00  0.00     0.040 A 
ATOM     59  C   UNL A   1      42.543  29.921  36.366  1.00  0.00     0.040 A 
ATOM     60  F   UNL A   1      43.025  31.988  35.366  1.00  0.00    -0.206 F 
ATOM     61  C   UNL A   1      42.124  28.597  36.271  1.00  0.00     0.006 A 
ENDBRANCH  37  54
ENDBRANCH  11  12
ENDBRANCH   4   6
ENDBRANCH   1   2
BRANCH   1  62
ATOM     62  C   UNL A   1      37.795  21.964  24.918  1.00  0.00     0.042 C 
BRANCH  62  63
ATOM     63  C   UNL A   1      36.690  20.912  24.954  1.00  0.00     0.118 C 
BRANCH  63  64
ATOM     64  N   UNL A   1      35.872  20.956  26.159  1.00  0.00    -0.352 N 
ATOM     65  C   UNL A   1      34.577  21.376  26.337  1.00  0.00     0.255 C 
ATOM     66  H   UNL A   1      36.320  20.634  26.975  1.00  0.00     0.163 HD
ATOM     67  O   UNL A   1      34.052  21.301  27.438  1.00  0.00    -0.269 OA
BRANCH  65  68
ATOM     68  C   UNL A   1      33.870  21.923  25.197  1.00  0.00     0.101 A 
ATOM     69  C   UNL A   1      33.049  21.192  24.301  1.00  0.00     0.180 A 
ATOM     70  C   UNL A   1      33.868  23.240  24.731  1.00  0.00     0.143 A 
ATOM     71  N   UNL A   1      32.390  22.038  23.493  1.00  0.00    -0.162 NA
ATOM     72  N   UNL A   1      32.915  23.265  23.725  1.00  0.00    -0.229 N 
BRANCH  69  73
ATOM     73  C   UNL A   1      32.819  19.699  24.247  1.00  0.00     0.436 C 
ATOM     74  F   UNL A   1      33.989  19.007  24.173  1.00  0.00    -0.164 F 
ATOM     75  F   UNL A   1      32.163  19.247  25.349  1.00  0.00    -0.164 F 
ATOM     76  F   UNL A   1      32.089  19.304  23.172  1.00  0.00    -0.164 F 
ENDBRANCH  69  73
BRANCH  70  77
ATOM     77  C   UNL A   1      34.521  24.470  25.263  1.00  0.00     0.365 C 
ATOM     78  F   UNL A   1      35.565  24.210  26.084  1.00  0.00    -0.181 F 
ATOM     79  F   UNL A   1      35.027  25.197  24.231  1.00  0.00    -0.181 F 
ATOM     80  Cl  UNL A   1      33.429  25.510  26.205  1.00  0.00    -0.040 Cl
ENDBRANCH  70  77
BRANCH  72  81
ATOM     81  C   UNL A   1      32.359  24.361  23.020  1.00  0.00     0.065 A 
ATOM     82  C   UNL A   1      31.244  25.015  23.565  1.00  0.00     0.028 A 
ATOM     83  C   UNL A   1      32.875  24.773  21.791  1.00  0.00     0.028 A 
ATOM     84  C   UNL A   1      30.722  26.141  22.928  1.00  0.00     0.002 A 
ATOM     85  C   UNL A   1      32.346  25.897  21.157  1.00  0.00     0.002 A 
ATOM     86  C   UNL A   1      31.283  26.592  21.734  1.00  0.00     0.000 A 
ENDBRANCH  72  81
ENDBRANCH  65  68
ENDBRANCH  63  64
ENDBRANCH  62  63
ENDBRANCH   1  62
TORSDOF 13
ENDMDL
MODEL 2
REMARK VINA RESULT:     -12.1      3.478      8.141
REMARK SMILES O=C(NCCCNC(=O)c1c(C(F)(F)F)nn(-c2ccccc2)c1C(F)(F)Cl)c1ccc(-c2c3nc(c(-c4c(F)cccc4F)c4ccc([nH]4)c(-c4c(F)cccc4F)c4nc(c(-c5c(F)cccc5F)c5ccc2[nH]5)C=C4)C=C3)cc1
REMARK SMILES IDX 4 1 3 2 1 3 2 4 29 6 30 7 82 8 31 9 81 10 32 11 33 12 34 13
REMARK SMILES IDX 75 14 35 15 80 16 74 17 76 18 36 19 79 20 73 21 72 22 37 24
REMARK SMILES IDX 63 25 46 26 62 27 47 28 50 29 61 30 77 31 48 32 49 33 60 35
REMARK SMILES IDX 78 36 51 37 38 38 39 39 44 40 40 41 41 42 43 43 45 44 42 45
REMARK SMILES IDX 64 46 65 47 70 48 66 49 67 50 69 51 71 52 68 53 52 54 53 55
REMARK SMILES IDX 58 56 54 57 55 58 57 59 59 60 56 61 5 62 6 63 7 64 8 65 9 67
REMARK SMILES IDX 10 68 11 69 24 70 16 71 17 72 12 73 13 74 14 75 15 76 25 77
REMARK SMILES IDX 26 78 27 79 28 80 18 81 19 82 23 83 20 84 22 85 21 86
REMARK H PARENT 3 5 76 23 50 34 7 66
REMARK Flexibility Score: inf
ROOT
ATOM      1  C   UNL A   1      33.840  30.993  27.241  1.00  0.00     0.118 C 
ENDROOT
BRANCH   1   2
ATOM      2  N   UNL A   1      34.027  31.649  28.519  1.00  0.00    -0.352 N 
ATOM      3  O   UNL A   1      34.945  32.669  30.246  1.00  0.00    -0.269 OA
ATOM      4  C   UNL A   1      35.086  31.814  29.368  1.00  0.00     0.251 C 
ATOM      5  H   UNL A   1      33.204  32.074  28.851  1.00  0.00     0.163 HD
BRANCH   4   6
ATOM      6  C   UNL A   1      36.324  30.991  29.370  1.00  0.00     0.039 A 
ATOM      7  C   UNL A   1      36.392  29.600  29.453  1.00  0.00     0.014 A 
ATOM      8  C   UNL A   1      37.527  31.722  29.326  1.00  0.00     0.014 A 
ATOM      9  C   UNL A   1      37.626  28.963  29.593  1.00  0.00     0.010 A 
ATOM     10  C   UNL A   1      38.759  31.094  29.455  1.00  0.00     0.010 A 
ATOM     11  C   UNL A   1      38.804  29.715  29.628  1.00  0.00    -0.014 A 
BRANCH  11  12
ATOM     12  C   UNL A   1      40.091  29.023  29.676  1.00  0.00     0.031 A 
ATOM     13  C   UNL A   1      40.643  28.849  31.051  1.00  0.00     0.074 A 
ATOM     14  C   UNL A   1      40.646  28.417  28.604  1.00  0.00     0.049 A 
ATOM     15  N   UNL A   1      41.769  29.276  31.524  1.00  0.00    -0.248 NA
ATOM     16  C   UNL A   1      39.784  28.204  32.060  1.00  0.00     0.031 C 
ATOM     17  C   UNL A   1      40.066  28.241  27.270  1.00  0.00     0.029 A 
ATOM     18  N   UNL A   1      41.821  27.728  28.514  1.00  0.00    -0.354 N 
ATOM     19  C   UNL A   1      41.844  28.802  32.834  1.00  0.00     0.074 A 
ATOM     20  C   UNL A   1      40.542  28.280  33.155  1.00  0.00     0.031 C 
ATOM     21  C   UNL A   1      40.778  27.313  26.590  1.00  0.00     0.029 A 
ATOM     22  C   UNL A   1      41.932  26.924  27.383  1.00  0.00     0.049 A 
ATOM     23  H   UNL A   1      42.531  27.795  29.192  1.00  0.00     0.167 HD
ATOM     24  C   UNL A   1      43.035  28.677  33.484  1.00  0.00     0.037 A 
ATOM     25  C   UNL A   1      42.870  25.969  27.149  1.00  0.00     0.037 A 
ATOM     26  C   UNL A   1      44.064  29.450  32.845  1.00  0.00     0.049 A 
ATOM     27  C   UNL A   1      44.004  26.217  28.070  1.00  0.00     0.074 A 
ATOM     28  C   UNL A   1      44.264  30.791  32.588  1.00  0.00     0.029 A 
ATOM     29  N   UNL A   1      44.959  28.782  32.047  1.00  0.00    -0.354 N 
ATOM     30  N   UNL A   1      44.809  27.236  27.978  1.00  0.00    -0.248 NA
ATOM     31  C   UNL A   1      43.971  25.561  29.369  1.00  0.00     0.031 C 
ATOM     32  C   UNL A   1      44.898  30.829  31.311  1.00  0.00     0.029 A 
ATOM     33  C   UNL A   1      45.100  29.512  30.899  1.00  0.00     0.049 A 
ATOM     34  H   UNL A   1      45.412  27.934  32.260  1.00  0.00     0.167 HD
ATOM     35  C   UNL A   1      45.033  27.623  29.290  1.00  0.00     0.074 A 
ATOM     36  C   UNL A   1      44.563  26.505  30.104  1.00  0.00     0.031 C 
ATOM     37  C   UNL A   1      45.311  28.923  29.600  1.00  0.00     0.037 A 
BRANCH  24  38
ATOM     38  C   UNL A   1      43.367  27.572  34.459  1.00  0.00     0.057 A 
ATOM     39  C   UNL A   1      43.402  26.241  34.002  1.00  0.00     0.134 A 
ATOM     40  C   UNL A   1      43.335  27.722  35.860  1.00  0.00     0.134 A 
ATOM     41  F   UNL A   1      43.426  25.963  32.689  1.00  0.00    -0.206 F 
ATOM     42  C   UNL A   1      43.318  25.145  34.871  1.00  0.00     0.040 A 
ATOM     43  C   UNL A   1      43.303  26.634  36.737  1.00  0.00     0.040 A 
ATOM     44  F   UNL A   1      43.228  28.917  36.452  1.00  0.00    -0.206 F 
ATOM     45  C   UNL A   1      43.257  25.341  36.243  1.00  0.00     0.006 A 
ENDBRANCH  24  38
BRANCH  25  46
ATOM     46  C   UNL A   1      42.737  24.684  26.420  1.00  0.00     0.057 A 
ATOM     47  C   UNL A   1      43.548  24.383  25.314  1.00  0.00     0.134 A 
ATOM     48  C   UNL A   1      42.018  23.606  26.964  1.00  0.00     0.134 A 
ATOM     49  F   UNL A   1      44.309  25.331  24.749  1.00  0.00    -0.206 F 
ATOM     50  C   UNL A   1      43.656  23.083  24.798  1.00  0.00     0.040 A 
ATOM     51  C   UNL A   1      42.113  22.306  26.456  1.00  0.00     0.040 A 
ATOM     52  F   UNL A   1      41.273  23.760  28.068  1.00  0.00    -0.206 F 
ATOM     53  C   UNL A   1      42.946  22.037  25.377  1.00  0.00     0.006 A 
ENDBRANCH  25  46
BRANCH  37  54
ATOM     54  C   UNL A   1      45.622  29.865  28.472  1.00  0.00     0.057 A 
ATOM     55  C   UNL A   1      44.657  30.593  27.762  1.00  0.00     0.134 A 
ATOM     56  C   UNL A   1      46.963  30.158  28.200  1.00  0.00     0.134 A 
ATOM     57  F   UNL A   1      43.350  30.455  28.022  1.00  0.00    -0.206 F 
ATOM     58  C   UNL A   1      45.011  31.540  26.796  1.00  0.00     0.040 A 
ATOM     59  C   UNL A   1      47.330  31.127  27.265  1.00  0.00     0.040 A 
ATOM     60  F   UNL A   1      47.942  29.541  28.882  1.00  0.00    -0.206 F 
ATOM     61  C   UNL A   1      46.353  31.815  26.550  1.00  0.00     0.006 A 
ENDBRANCH  37  54
ENDBRANCH  11  12
ENDBRANCH   4   6
ENDBRANCH   1   2
BRANCH   1  62
ATOM     62  C   UNL A   1      32.675  30.008  27.172  1.00  0.00     0.042 C 
BRANCH  62  63
ATOM     63  C   UNL A   1      31.739  30.193  25.981  1.00  0.00     0.118 C 
BRANCH  63  64
ATOM     64  N   UNL A   1      32.401  30.079  24.688  1.00  0.00    -0.352 N 
ATOM     65  C   UNL A   1      32.381  29.058  23.770  1.00  0.00     0.255 C 
ATOM     66  H   UNL A   1      32.949  30.855  24.433  1.00  0.00     0.163 HD
ATOM     67  O   UNL A   1      32.985  29.169  22.713  1.00  0.00    -0.269 OA
BRANCH  65  68
ATOM     68  C   UNL A   1      31.647  27.853  24.098  1.00  0.00     0.101 A 
ATOM     69  C   UNL A   1      30.287  27.598  23.785  1.00  0.00     0.180 A 
ATOM     70  C   UNL A   1      32.096  26.731  24.798  1.00  0.00     0.143 A 
ATOM     71  N   UNL A   1      29.991  26.315  24.050  1.00  0.00    -0.162 NA
ATOM     72  N   UNL A   1      31.067  25.808  24.697  1.00  0.00    -0.229 N 
BRANCH  69  73
ATOM     73  C   UNL A   1      29.277  28.536  23.165  1.00  0.00     0.436 C 
ATOM     74  F   UNL A   1      29.604  28.862  21.885  1.00  0.00    -0.164 F 
ATOM     75  F   UNL A   1      28.033  27.987  23.125  1.00  0.00    -0.164 F 
ATOM     76  F   UNL A   1      29.158  29.715  23.828  1.00  0.00    -0.164 F 
ENDBRANCH  69  73
BRANCH  70  77
ATOM     77  C   UNL A   1      33.435  26.397  25.363  1.00  0.00     0.365 C 
ATOM     78  F   UNL A   1      34.195  27.488  25.618  1.00  0.00    -0.181 F 
ATOM     79  F   UNL A   1      33.278  25.762  26.555  1.00  0.00    -0.181 F 
ATOM     80  Cl  UNL A   1      34.425  25.371  24.302  1.00  0.00    -0.040 Cl
ENDBRANCH  70  77
BRANCH  72  81
ATOM     81  C   UNL A   1      31.030  24.438  25.057  1.00  0.00     0.065 A 
ATOM     82  C   UNL A   1      31.513  23.489  24.145  1.00  0.00     0.028 A 
ATOM     83  C   UNL A   1      30.495  24.020  26.277  1.00  0.00     0.028 A 
ATOM     84  C   UNL A   1      31.554  22.141  24.503  1.00  0.00     0.002 A 
ATOM     85  C   UNL A   1      30.536  22.670  26.628  1.00  0.00     0.002 A 
ATOM     86  C   UNL A   1      31.082  21.735  25.750  1.00  0.00     0.000 A 
ENDBRANCH  72  81
ENDBRANCH  65  68
ENDBRANCH  63  64
ENDBRANCH  62  63
ENDBRANCH   1  62
TORSDOF 13
ENDMDL
MODEL 3
REMARK VINA RESULT:     -12.0      1.964      2.814
REMARK SMILES O=C(NCCCNC(=O)c1c(C(F)(F)F)nn(-c2ccccc2)c1C(F)(F)Cl)c1ccc(-c2c3nc(c(-c4c(F)cccc4F)c4ccc([nH]4)c(-c4c(F)cccc4F)c4nc(c(-c5c(F)cccc5F)c5ccc2[nH]5)C=C4)C=C3)cc1
REMARK SMILES IDX 4 1 3 2 1 3 2 4 29 6 30 7 82 8 31 9 81 10 32 11 33 12 34 13
REMARK SMILES IDX 75 14 35 15 80 16 74 17 76 18 36 19 79 20 73 21 72 22 37 24
REMARK SMILES IDX 63 25 46 26 62 27 47 28 50 29 61 30 77 31 48 32 49 33 60 35
REMARK SMILES IDX 78 36 51 37 38 38 39 39 44 40 40 41 41 42 43 43 45 44 42 45
REMARK SMILES IDX 64 46 65 47 70 48 66 49 67 50 69 51 71 52 68 53 52 54 53 55
REMARK SMILES IDX 58 56 54 57 55 58 57 59 59 60 56 61 5 62 6 63 7 64 8 65 9 67
REMARK SMILES IDX 10 68 11 69 24 70 16 71 17 72 12 73 13 74 14 75 15 76 25 77
REMARK SMILES IDX 26 78 27 79 28 80 18 81 19 82 23 83 20 84 22 85 21 86
REMARK H PARENT 3 5 76 23 50 34 7 66
REMARK Flexibility Score: inf
ROOT
ATOM      1  C   UNL A   1      37.456  22.125  25.524  1.00  0.00     0.118 C 
ENDROOT
BRANCH   1   2
ATOM      2  N   UNL A   1      38.830  21.700  25.694  1.00  0.00    -0.352 N 
ATOM      3  O   UNL A   1      40.838  21.359  26.541  1.00  0.00    -0.269 OA
ATOM      4  C   UNL A   1      39.884  22.136  26.447  1.00  0.00     0.251 C 
ATOM      5  H   UNL A   1      39.056  20.919  25.141  1.00  0.00     0.163 HD
BRANCH   4   6
ATOM      6  C   UNL A   1      40.002  23.484  27.064  1.00  0.00     0.039 A 
ATOM      7  C   UNL A   1      39.139  24.562  26.866  1.00  0.00     0.014 A 
ATOM      8  C   UNL A   1      41.130  23.666  27.888  1.00  0.00     0.014 A 
ATOM      9  C   UNL A   1      39.449  25.817  27.393  1.00  0.00     0.010 A 
ATOM     10  C   UNL A   1      41.438  24.910  28.424  1.00  0.00     0.010 A 
ATOM     11  C   UNL A   1      40.616  25.995  28.142  1.00  0.00    -0.014 A 
BRANCH  11  12
ATOM     12  C   UNL A   1      40.871  27.292  28.768  1.00  0.00     0.031 A 
ATOM     13  C   UNL A   1      42.081  27.995  28.248  1.00  0.00     0.074 A 
ATOM     14  C   UNL A   1      39.996  27.899  29.597  1.00  0.00     0.049 A 
ATOM     15  N   UNL A   1      43.128  28.380  28.903  1.00  0.00    -0.248 NA
ATOM     16  C   UNL A   1      42.181  28.206  26.793  1.00  0.00     0.031 C 
ATOM     17  C   UNL A   1      38.639  27.467  29.945  1.00  0.00     0.029 A 
ATOM     18  N   UNL A   1      40.099  29.104  30.230  1.00  0.00    -0.354 N 
ATOM     19  C   UNL A   1      43.940  29.041  27.981  1.00  0.00     0.074 A 
ATOM     20  C   UNL A   1      43.382  28.776  26.682  1.00  0.00     0.031 C 
ATOM     21  C   UNL A   1      37.978  28.493  30.529  1.00  0.00     0.029 A 
ATOM     22  C   UNL A   1      38.894  29.606  30.713  1.00  0.00     0.049 A 
ATOM     23  H   UNL A   1      40.955  29.578  30.337  1.00  0.00     0.167 HD
ATOM     24  C   UNL A   1      44.888  29.937  28.373  1.00  0.00     0.037 A 
ATOM     25  C   UNL A   1      38.659  30.863  31.171  1.00  0.00     0.037 A 
ATOM     26  C   UNL A   1      45.205  29.788  29.767  1.00  0.00     0.049 A 
ATOM     27  C   UNL A   1      39.968  31.479  31.491  1.00  0.00     0.074 A 
ATOM     28  C   UNL A   1      45.733  28.780  30.548  1.00  0.00     0.029 A 
ATOM     29  N   UNL A   1      44.655  30.689  30.645  1.00  0.00    -0.354 N 
ATOM     30  N   UNL A   1      40.727  31.103  32.481  1.00  0.00    -0.248 NA
ATOM     31  C   UNL A   1      40.638  32.221  30.435  1.00  0.00     0.031 C 
ATOM     32  C   UNL A   1      45.041  28.879  31.791  1.00  0.00     0.029 A 
ATOM     33  C   UNL A   1      44.182  29.975  31.711  1.00  0.00     0.049 A 
ATOM     34  H   UNL A   1      44.608  31.665  30.527  1.00  0.00     0.167 HD
ATOM     35  C   UNL A   1      42.015  31.159  31.972  1.00  0.00     0.074 A 
ATOM     36  C   UNL A   1      41.906  31.935  30.739  1.00  0.00     0.031 C 
ATOM     37  C   UNL A   1      42.992  30.331  32.445  1.00  0.00     0.037 A 
BRANCH  24  38
ATOM     38  C   UNL A   1      45.251  31.189  27.610  1.00  0.00     0.057 A 
ATOM     39  C   UNL A   1      46.562  31.336  27.117  1.00  0.00     0.134 A 
ATOM     40  C   UNL A   1      44.481  32.369  27.619  1.00  0.00     0.134 A 
ATOM     41  F   UNL A   1      47.400  30.289  27.064  1.00  0.00    -0.206 F 
ATOM     42  C   UNL A   1      47.093  32.580  26.751  1.00  0.00     0.040 A 
ATOM     43  C   UNL A   1      44.985  33.606  27.207  1.00  0.00     0.040 A 
ATOM     44  F   UNL A   1      43.242  32.414  28.123  1.00  0.00    -0.206 F 
ATOM     45  C   UNL A   1      46.306  33.722  26.806  1.00  0.00     0.006 A 
ENDBRANCH  24  38
BRANCH  25  46
ATOM     46  C   UNL A   1      37.428  31.685  31.063  1.00  0.00     0.057 A 
ATOM     47  C   UNL A   1      36.973  32.163  29.823  1.00  0.00     0.134 A 
ATOM     48  C   UNL A   1      36.514  31.775  32.127  1.00  0.00     0.134 A 
ATOM     49  F   UNL A   1      37.752  32.081  28.735  1.00  0.00    -0.206 F 
ATOM     50  C   UNL A   1      35.679  32.676  29.648  1.00  0.00     0.040 A 
ATOM     51  C   UNL A   1      35.222  32.289  31.967  1.00  0.00     0.040 A 
ATOM     52  F   UNL A   1      36.811  31.278  33.336  1.00  0.00    -0.206 F 
ATOM     53  C   UNL A   1      34.795  32.729  30.721  1.00  0.00     0.006 A 
ENDBRANCH  25  46
BRANCH  37  54
ATOM     54  C   UNL A   1      42.708  29.549  33.695  1.00  0.00     0.057 A 
ATOM     55  C   UNL A   1      42.064  28.303  33.718  1.00  0.00     0.134 A 
ATOM     56  C   UNL A   1      43.246  30.006  34.904  1.00  0.00     0.134 A 
ATOM     57  F   UNL A   1      41.605  27.737  32.595  1.00  0.00    -0.206 F 
ATOM     58  C   UNL A   1      41.925  27.568  34.899  1.00  0.00     0.040 A 
ATOM     59  C   UNL A   1      43.146  29.264  36.082  1.00  0.00     0.040 A 
ATOM     60  F   UNL A   1      43.926  31.163  34.947  1.00  0.00    -0.206 F 
ATOM     61  C   UNL A   1      42.474  28.045  36.085  1.00  0.00     0.006 A 
ENDBRANCH  37  54
ENDBRANCH  11  12
ENDBRANCH   4   6
ENDBRANCH   1   2
BRANCH   1  62
ATOM     62  C   UNL A   1      36.994  22.299  24.079  1.00  0.00     0.042 C 
BRANCH  62  63
ATOM     63  C   UNL A   1      36.033  23.460  23.841  1.00  0.00     0.118 C 
BRANCH  63  64
ATOM     64  N   UNL A   1      34.861  23.103  23.054  1.00  0.00    -0.352 N 
ATOM     65  C   UNL A   1      33.555  23.513  23.171  1.00  0.00     0.255 C 
ATOM     66  H   UNL A   1      35.031  22.468  22.322  1.00  0.00     0.163 HD
ATOM     67  O   UNL A   1      32.713  23.119  22.379  1.00  0.00    -0.269 OA
BRANCH  65  68
ATOM     68  C   UNL A   1      33.210  24.401  24.263  1.00  0.00     0.101 A 
ATOM     69  C   UNL A   1      32.883  24.004  25.585  1.00  0.00     0.180 A 
ATOM     70  C   UNL A   1      33.098  25.793  24.242  1.00  0.00     0.143 A 
ATOM     71  N   UNL A   1      32.820  25.082  26.382  1.00  0.00    -0.162 NA
ATOM     72  N   UNL A   1      32.908  26.159  25.565  1.00  0.00    -0.229 N 
BRANCH  69  73
ATOM     73  C   UNL A   1      32.702  22.604  26.124  1.00  0.00     0.436 C 
ATOM     74  F   UNL A   1      33.830  21.855  25.984  1.00  0.00    -0.164 F 
ATOM     75  F   UNL A   1      32.394  22.607  27.449  1.00  0.00    -0.164 F 
ATOM     76  F   UNL A   1      31.718  21.908  25.499  1.00  0.00    -0.164 F 
ENDBRANCH  69  73
BRANCH  70  77
ATOM     77  C   UNL A   1      33.340  26.782  23.152  1.00  0.00     0.365 C 
ATOM     78  F   UNL A   1      34.306  27.681  23.451  1.00  0.00    -0.181 F 
ATOM     79  F   UNL A   1      33.765  26.130  22.037  1.00  0.00    -0.181 F 
ATOM     80  Cl  UNL A   1      31.909  27.750  22.731  1.00  0.00    -0.040 Cl
ENDBRANCH  70  77
BRANCH  72  81
ATOM     81  C   UNL A   1      32.908  27.441  26.168  1.00  0.00     0.065 A 
ATOM     82  C   UNL A   1      34.131  27.991  26.581  1.00  0.00     0.028 A 
ATOM     83  C   UNL A   1      31.722  28.144  26.386  1.00  0.00     0.028 A 
ATOM     84  C   UNL A   1      34.168  29.280  27.112  1.00  0.00     0.002 A 
ATOM     85  C   UNL A   1      31.765  29.432  26.920  1.00  0.00     0.002 A 
ATOM     86  C   UNL A   1      32.987  30.007  27.264  1.00  0.00     0.000 A 
ENDBRANCH  72  81
ENDBRANCH  65  68
ENDBRANCH  63  64
ENDBRANCH  62  63
ENDBRANCH   1  62
TORSDOF 13
ENDMDL
