MODEL 1
REMARK VINA RESULT:     -12.2      0.000      0.000
REMARK SMILES CC(C)c1ccc(NC(=O)C[C@H]2SC[C@@H](C(=O)NCCCNC(=O)c3ccc(-c4c5nc(c(-c6c(F)cccc6F)c6ccc([nH]6)c(-c6c(F)cccc6F)c6nc(c(-c7c(F)cccc7F)c7ccc4[nH]7)C=C6)C=C5)cc3)NC2=O)cc1
REMARK SMILES IDX 19 1 18 2 16 3 17 4 15 6 12 7 13 8 80 9 14 10 79 11 81 12
REMARK SMILES IDX 11 14 9 15 8 16 10 18 7 19 4 20 5 21 83 22 6 23 82 24 2 25
REMARK SMILES IDX 1 26 3 27 20 28 21 29 22 30 23 31 24 33 25 34 26 35 78 36
REMARK SMILES IDX 27 37 77 38 28 39 29 40 30 41 71 42 31 43 76 44 70 45 72 46
REMARK SMILES IDX 32 47 75 48 69 49 68 50 33 52 59 53 42 54 58 55 43 56 46 57
REMARK SMILES IDX 57 58 73 59 44 60 45 61 56 63 74 64 47 65 34 66 35 67 40 68
REMARK SMILES IDX 36 69 37 70 39 71 41 72 38 73 60 74 61 75 66 76 62 77 63 78
REMARK SMILES IDX 65 79 67 80 64 81 48 82 49 83 54 84 50 85 51 86 53 87 55 88
REMARK SMILES IDX 52 89
REMARK H PARENT 18 5 79 13 8 17 22 32 72 51 46 62
REMARK Flexibility Score: inf
ROOT
ATOM      1  C   UNL A   1      37.263  21.216  24.579  1.00  0.00     0.117 C 
ENDROOT
BRANCH   1   2
ATOM      2  N   UNL A   1      35.839  20.974  24.702  1.00  0.00    -0.354 N 
ATOM      3  C   UNL A   1      34.964  21.535  25.593  1.00  0.00     0.243 C 
ATOM      4  O   UNL A   1      33.966  20.883  25.891  1.00  0.00    -0.273 OA
ATOM      5  H   UNL A   1      35.455  20.328  24.067  1.00  0.00     0.163 HD
BRANCH   3   6
ATOM      6  C   UNL A   1      35.156  23.021  25.960  1.00  0.00     0.181 C 
ATOM      7  C   UNL A   1      33.530  24.587  23.886  1.00  0.00     0.145 C 
ATOM      8  S   UNL A   1      32.568  23.982  25.340  1.00  0.00    -0.145 SA
ATOM      9  C   UNL A   1      34.821  23.792  23.651  1.00  0.00     0.234 C 
ATOM     10  C   UNL A   1      33.915  23.700  26.524  1.00  0.00     0.105 C 
ATOM     11  N   UNL A   1      35.659  23.608  24.725  1.00  0.00    -0.343 N 
ATOM     12  O   UNL A   1      35.245  23.414  22.563  1.00  0.00    -0.274 OA
ATOM     13  H   UNL A   1      36.605  23.873  24.660  1.00  0.00     0.164 HD
BRANCH   7  14
ATOM     14  C   UNL A   1      32.550  24.733  22.712  1.00  0.00     0.124 C 
BRANCH  14  15
ATOM     15  C   UNL A   1      32.849  25.709  21.592  1.00  0.00     0.226 C 
ATOM     16  N   UNL A   1      32.847  27.059  21.746  1.00  0.00    -0.326 N 
ATOM     17  H   UNL A   1      33.092  27.552  20.929  1.00  0.00     0.169 HD
ATOM     18  O   UNL A   1      33.102  25.273  20.461  1.00  0.00    -0.275 OA
BRANCH  16  19
ATOM     19  C   UNL A   1      32.566  27.885  22.839  1.00  0.00     0.041 A 
ATOM     20  C   UNL A   1      32.180  29.432  25.181  1.00  0.00    -0.045 A 
ATOM     21  C   UNL A   1      31.103  29.069  24.358  1.00  0.00     0.006 A 
ATOM     22  C   UNL A   1      33.462  29.016  24.789  1.00  0.00     0.006 A 
ATOM     23  C   UNL A   1      31.294  28.311  23.194  1.00  0.00     0.026 A 
ATOM     24  C   UNL A   1      33.654  28.279  23.618  1.00  0.00     0.026 A 
BRANCH  20  25
ATOM     25  C   UNL A   1      31.999  30.201  26.488  1.00  0.00     0.013 C 
ATOM     26  C   UNL A   1      33.331  30.434  27.218  1.00  0.00     0.012 C 
ATOM     27  C   UNL A   1      31.285  31.553  26.341  1.00  0.00     0.012 C 
ENDBRANCH  20  25
ENDBRANCH  16  19
ENDBRANCH  14  15
ENDBRANCH   7  14
ENDBRANCH   3   6
ENDBRANCH   1   2
BRANCH   1  28
ATOM     28  C   UNL A   1      38.037  19.958  24.965  1.00  0.00     0.042 C 
BRANCH  28  29
ATOM     29  C   UNL A   1      39.136  20.216  25.996  1.00  0.00     0.118 C 
BRANCH  29  30
ATOM     30  N   UNL A   1      40.212  19.235  25.917  1.00  0.00    -0.352 N 
ATOM     31  C   UNL A   1      41.564  19.416  26.037  1.00  0.00     0.251 C 
ATOM     32  H   UNL A   1      39.924  18.308  25.755  1.00  0.00     0.163 HD
ATOM     33  O   UNL A   1      42.333  18.500  25.743  1.00  0.00    -0.269 OA
BRANCH  31  34
ATOM     34  C   UNL A   1      42.102  20.711  26.494  1.00  0.00     0.039 A 
ATOM     35  C   UNL A   1      42.555  21.627  25.540  1.00  0.00     0.014 A 
ATOM     36  C   UNL A   1      42.172  21.020  27.856  1.00  0.00     0.014 A 
ATOM     37  C   UNL A   1      43.019  22.878  25.949  1.00  0.00     0.010 A 
ATOM     38  C   UNL A   1      42.571  22.292  28.258  1.00  0.00     0.010 A 
ATOM     39  C   UNL A   1      42.998  23.233  27.308  1.00  0.00    -0.014 A 
BRANCH  39  40
ATOM     40  C   UNL A   1      43.411  24.586  27.755  1.00  0.00     0.031 A 
ATOM     41  C   UNL A   1      42.375  25.624  28.083  1.00  0.00     0.074 A 
ATOM     42  C   UNL A   1      44.720  24.900  27.801  1.00  0.00     0.049 A 
ATOM     43  N   UNL A   1      42.538  26.881  28.405  1.00  0.00    -0.248 NA
ATOM     44  C   UNL A   1      40.968  25.197  28.019  1.00  0.00     0.031 C 
ATOM     45  C   UNL A   1      45.822  23.992  27.469  1.00  0.00     0.029 A 
ATOM     46  N   UNL A   1      45.347  26.074  28.135  1.00  0.00    -0.354 N 
ATOM     47  C   UNL A   1      41.260  27.399  28.567  1.00  0.00     0.074 A 
ATOM     48  C   UNL A   1      40.329  26.332  28.263  1.00  0.00     0.031 C 
ATOM     49  C   UNL A   1      46.987  24.639  27.633  1.00  0.00     0.029 A 
ATOM     50  C   UNL A   1      46.717  26.012  28.043  1.00  0.00     0.049 A 
ATOM     51  H   UNL A   1      44.861  26.884  28.412  1.00  0.00     0.167 HD
ATOM     52  C   UNL A   1      40.893  28.644  28.953  1.00  0.00     0.037 A 
ATOM     53  C   UNL A   1      47.648  26.961  28.255  1.00  0.00     0.037 A 
ATOM     54  C   UNL A   1      41.819  29.697  29.278  1.00  0.00     0.049 A 
ATOM     55  C   UNL A   1      47.213  28.338  28.672  1.00  0.00     0.074 A 
ATOM     56  C   UNL A   1      41.545  30.977  29.729  1.00  0.00     0.029 A 
ATOM     57  N   UNL A   1      43.198  29.592  29.187  1.00  0.00    -0.354 N 
ATOM     58  N   UNL A   1      46.002  28.797  28.874  1.00  0.00    -0.248 NA
ATOM     59  C   UNL A   1      48.276  29.329  28.894  1.00  0.00     0.031 C 
ATOM     60  C   UNL A   1      42.758  31.657  29.878  1.00  0.00     0.029 A 
ATOM     61  C   UNL A   1      43.789  30.788  29.558  1.00  0.00     0.049 A 
ATOM     62  H   UNL A   1      43.685  28.785  28.902  1.00  0.00     0.167 HD
ATOM     63  C   UNL A   1      46.158  30.118  29.271  1.00  0.00     0.074 A 
ATOM     64  C   UNL A   1      47.582  30.384  29.295  1.00  0.00     0.031 C 
ATOM     65  C   UNL A   1      45.208  31.031  29.585  1.00  0.00     0.037 A 
BRANCH  52  66
ATOM     66  C   UNL A   1      39.425  28.934  29.054  1.00  0.00     0.057 A 
ATOM     67  C   UNL A   1      38.685  29.376  27.950  1.00  0.00     0.134 A 
ATOM     68  C   UNL A   1      38.735  28.731  30.255  1.00  0.00     0.134 A 
ATOM     69  F   UNL A   1      39.290  29.602  26.773  1.00  0.00    -0.206 F 
ATOM     70  C   UNL A   1      37.316  29.628  28.042  1.00  0.00     0.040 A 
ATOM     71  C   UNL A   1      37.361  28.956  30.354  1.00  0.00     0.040 A 
ATOM     72  F   UNL A   1      39.382  28.303  31.349  1.00  0.00    -0.206 F 
ATOM     73  C   UNL A   1      36.648  29.410  29.246  1.00  0.00     0.006 A 
ENDBRANCH  52  66
BRANCH  53  74
ATOM     74  C   UNL A   1      49.088  26.641  28.092  1.00  0.00     0.057 A 
ATOM     75  C   UNL A   1      49.839  26.143  29.163  1.00  0.00     0.134 A 
ATOM     76  C   UNL A   1      49.750  26.838  26.875  1.00  0.00     0.134 A 
ATOM     77  F   UNL A   1      49.264  25.951  30.359  1.00  0.00    -0.206 F 
ATOM     78  C   UNL A   1      51.202  25.873  29.036  1.00  0.00     0.040 A 
ATOM     79  C   UNL A   1      51.108  26.550  26.727  1.00  0.00     0.040 A 
ATOM     80  F   UNL A   1      49.083  27.306  25.809  1.00  0.00    -0.206 F 
ATOM     81  C   UNL A   1      51.839  26.073  27.813  1.00  0.00     0.006 A 
ENDBRANCH  53  74
BRANCH  65  82
ATOM     82  C   UNL A   1      45.679  32.389  30.015  1.00  0.00     0.057 A 
ATOM     83  C   UNL A   1      45.968  32.680  31.354  1.00  0.00     0.134 A 
ATOM     84  C   UNL A   1      45.878  33.405  29.072  1.00  0.00     0.134 A 
ATOM     85  F   UNL A   1      45.783  31.754  32.307  1.00  0.00    -0.206 F 
ATOM     86  C   UNL A   1      46.418  33.943  31.743  1.00  0.00     0.040 A 
ATOM     87  C   UNL A   1      46.351  34.663  29.447  1.00  0.00     0.040 A 
ATOM     88  F   UNL A   1      45.627  33.188  27.773  1.00  0.00    -0.206 F 
ATOM     89  C   UNL A   1      46.617  34.937  30.786  1.00  0.00     0.006 A 
ENDBRANCH  65  82
ENDBRANCH  39  40
ENDBRANCH  31  34
ENDBRANCH  29  30
ENDBRANCH  28  29
ENDBRANCH   1  28
TORSDOF 14
ENDMDL
MODEL 2
REMARK VINA RESULT:     -12.1      5.038     10.258
REMARK SMILES CC(C)c1ccc(NC(=O)C[C@H]2SC[C@@H](C(=O)NCCCNC(=O)c3ccc(-c4c5nc(c(-c6c(F)cccc6F)c6ccc([nH]6)c(-c6c(F)cccc6F)c6nc(c(-c7c(F)cccc7F)c7ccc4[nH]7)C=C6)C=C5)cc3)NC2=O)cc1
REMARK SMILES IDX 19 1 18 2 16 3 17 4 15 6 12 7 13 8 80 9 14 10 79 11 81 12
REMARK SMILES IDX 11 14 9 15 8 16 10 18 7 19 4 20 5 21 83 22 6 23 82 24 2 25
REMARK SMILES IDX 1 26 3 27 20 28 21 29 22 30 23 31 24 33 25 34 26 35 78 36
REMARK SMILES IDX 27 37 77 38 28 39 29 40 30 41 71 42 31 43 76 44 70 45 72 46
REMARK SMILES IDX 32 47 75 48 69 49 68 50 33 52 59 53 42 54 58 55 43 56 46 57
REMARK SMILES IDX 57 58 73 59 44 60 45 61 56 63 74 64 47 65 34 66 35 67 40 68
REMARK SMILES IDX 36 69 37 70 39 71 41 72 38 73 60 74 61 75 66 76 62 77 63 78
REMARK SMILES IDX 65 79 67 80 64 81 48 82 49 83 54 84 50 85 51 86 53 87 55 88
REMARK SMILES IDX 52 89
REMARK H PARENT 18 5 79 13 8 17 22 32 72 51 46 62
REMARK Flexibility Score: inf
ROOT
ATOM      1  C   UNL A   1      31.791  30.540  26.862  1.00  0.00     0.117 C 
ENDROOT
BRANCH   1   2
ATOM      2  N   UNL A   1      31.371  29.860  25.653  1.00  0.00    -0.354 N 
ATOM      3  C   UNL A   1      32.150  29.177  24.758  1.00  0.00     0.243 C 
ATOM      4  O   UNL A   1      31.751  29.111  23.598  1.00  0.00    -0.273 OA
ATOM      5  H   UNL A   1      30.409  29.894  25.451  1.00  0.00     0.163 HD
BRANCH   3   6
ATOM      6  C   UNL A   1      33.321  28.336  25.309  1.00  0.00     0.181 C 
ATOM      7  C   UNL A   1      32.197  25.507  25.661  1.00  0.00     0.145 C 
ATOM      8  S   UNL A   1      32.809  25.901  23.965  1.00  0.00    -0.145 SA
ATOM      9  C   UNL A   1      31.841  26.758  26.474  1.00  0.00     0.234 C 
ATOM     10  C   UNL A   1      33.885  27.317  24.330  1.00  0.00     0.105 C 
ATOM     11  N   UNL A   1      32.775  27.765  26.533  1.00  0.00    -0.343 N 
ATOM     12  O   UNL A   1      30.852  26.894  27.188  1.00  0.00    -0.274 OA
ATOM     13  H   UNL A   1      33.077  28.102  27.407  1.00  0.00     0.164 HD
BRANCH   7  14
ATOM     14  C   UNL A   1      31.132  24.408  25.524  1.00  0.00     0.124 C 
BRANCH  14  15
ATOM     15  C   UNL A   1      30.886  23.444  26.666  1.00  0.00     0.226 C 
ATOM     16  N   UNL A   1      31.758  22.467  27.030  1.00  0.00    -0.326 N 
ATOM     17  H   UNL A   1      31.464  21.944  27.812  1.00  0.00     0.169 HD
ATOM     18  O   UNL A   1      29.833  23.526  27.312  1.00  0.00    -0.275 OA
BRANCH  16  19
ATOM     19  C   UNL A   1      32.991  22.059  26.511  1.00  0.00     0.041 A 
ATOM     20  C   UNL A   1      35.559  21.480  25.465  1.00  0.00    -0.045 A 
ATOM     21  C   UNL A   1      34.420  20.775  25.043  1.00  0.00     0.006 A 
ATOM     22  C   UNL A   1      35.380  22.471  26.441  1.00  0.00     0.006 A 
ATOM     23  C   UNL A   1      33.151  21.055  25.567  1.00  0.00     0.026 A 
ATOM     24  C   UNL A   1      34.117  22.735  26.979  1.00  0.00     0.026 A 
BRANCH  20  25
ATOM     25  C   UNL A   1      36.945  21.243  24.869  1.00  0.00     0.013 C 
ATOM     26  C   UNL A   1      38.039  22.036  25.601  1.00  0.00     0.012 C 
ATOM     27  C   UNL A   1      37.374  19.770  24.810  1.00  0.00     0.012 C 
ENDBRANCH  20  25
ENDBRANCH  16  19
ENDBRANCH  14  15
ENDBRANCH   7  14
ENDBRANCH   3   6
ENDBRANCH   1   2
BRANCH   1  28
ATOM     28  C   UNL A   1      31.594  32.046  26.705  1.00  0.00     0.042 C 
BRANCH  28  29
ATOM     29  C   UNL A   1      32.827  32.862  27.094  1.00  0.00     0.118 C 
BRANCH  29  30
ATOM     30  N   UNL A   1      32.483  34.202  27.553  1.00  0.00    -0.352 N 
ATOM     31  C   UNL A   1      32.989  34.919  28.604  1.00  0.00     0.251 C 
ATOM     32  H   UNL A   1      31.785  34.659  27.029  1.00  0.00     0.163 HD
ATOM     33  O   UNL A   1      32.434  35.959  28.960  1.00  0.00    -0.269 OA
BRANCH  31  34
ATOM     34  C   UNL A   1      34.182  34.437  29.325  1.00  0.00     0.039 A 
ATOM     35  C   UNL A   1      34.017  33.845  30.580  1.00  0.00     0.014 A 
ATOM     36  C   UNL A   1      35.460  34.575  28.774  1.00  0.00     0.014 A 
ATOM     37  C   UNL A   1      35.127  33.334  31.255  1.00  0.00     0.010 A 
ATOM     38  C   UNL A   1      36.556  34.006  29.416  1.00  0.00     0.010 A 
ATOM     39  C   UNL A   1      36.400  33.380  30.663  1.00  0.00    -0.014 A 
BRANCH  39  40
ATOM     40  C   UNL A   1      37.578  32.772  31.328  1.00  0.00     0.031 A 
ATOM     41  C   UNL A   1      38.254  31.573  30.723  1.00  0.00     0.074 A 
ATOM     42  C   UNL A   1      37.998  33.258  32.512  1.00  0.00     0.049 A 
ATOM     43  N   UNL A   1      39.238  30.853  31.197  1.00  0.00    -0.248 NA
ATOM     44  C   UNL A   1      37.741  31.111  29.424  1.00  0.00     0.031 C 
ATOM     45  C   UNL A   1      37.402  34.393  33.222  1.00  0.00     0.029 A 
ATOM     46  N   UNL A   1      39.020  32.853  33.334  1.00  0.00    -0.354 N 
ATOM     47  C   UNL A   1      39.452  29.845  30.265  1.00  0.00     0.074 A 
ATOM     48  C   UNL A   1      38.465  30.020  29.219  1.00  0.00     0.031 C 
ATOM     49  C   UNL A   1      38.079  34.602  34.362  1.00  0.00     0.029 A 
ATOM     50  C   UNL A   1      39.130  33.597  34.484  1.00  0.00     0.049 A 
ATOM     51  H   UNL A   1      39.616  32.100  33.120  1.00  0.00     0.167 HD
ATOM     52  C   UNL A   1      40.396  28.876  30.269  1.00  0.00     0.037 A 
ATOM     53  C   UNL A   1      39.976  33.474  35.523  1.00  0.00     0.037 A 
ATOM     54  C   UNL A   1      41.391  28.717  31.296  1.00  0.00     0.049 A 
ATOM     55  C   UNL A   1      41.008  32.382  35.507  1.00  0.00     0.074 A 
ATOM     56  C   UNL A   1      42.423  27.796  31.363  1.00  0.00     0.029 A 
ATOM     57  N   UNL A   1      41.479  29.499  32.437  1.00  0.00    -0.354 N 
ATOM     58  N   UNL A   1      41.233  31.471  34.592  1.00  0.00    -0.248 NA
ATOM     59  C   UNL A   1      41.906  32.303  36.668  1.00  0.00     0.031 C 
ATOM     60  C   UNL A   1      43.114  28.000  32.561  1.00  0.00     0.029 A 
ATOM     61  C   UNL A   1      42.537  29.073  33.222  1.00  0.00     0.049 A 
ATOM     62  H   UNL A   1      40.879  30.248  32.656  1.00  0.00     0.167 HD
ATOM     63  C   UNL A   1      42.312  30.728  35.053  1.00  0.00     0.074 A 
ATOM     64  C   UNL A   1      42.705  31.304  36.323  1.00  0.00     0.031 C 
ATOM     65  C   UNL A   1      42.921  29.664  34.478  1.00  0.00     0.037 A 
BRANCH  52  66
ATOM     66  C   UNL A   1      40.403  27.912  29.119  1.00  0.00     0.057 A 
ATOM     67  C   UNL A   1      39.596  26.768  29.113  1.00  0.00     0.134 A 
ATOM     68  C   UNL A   1      41.196  28.150  27.989  1.00  0.00     0.134 A 
ATOM     69  F   UNL A   1      38.823  26.476  30.170  1.00  0.00    -0.206 F 
ATOM     70  C   UNL A   1      39.592  25.882  28.034  1.00  0.00     0.040 A 
ATOM     71  C   UNL A   1      41.183  27.285  26.893  1.00  0.00     0.040 A 
ATOM     72  F   UNL A   1      41.989  29.230  27.928  1.00  0.00    -0.206 F 
ATOM     73  C   UNL A   1      40.382  26.145  26.916  1.00  0.00     0.006 A 
ENDBRANCH  52  66
BRANCH  53  74
ATOM     74  C   UNL A   1      39.896  34.421  36.664  1.00  0.00     0.057 A 
ATOM     75  C   UNL A   1      40.579  35.642  36.634  1.00  0.00     0.134 A 
ATOM     76  C   UNL A   1      39.153  34.124  37.812  1.00  0.00     0.134 A 
ATOM     77  F   UNL A   1      41.322  35.973  35.568  1.00  0.00    -0.206 F 
ATOM     78  C   UNL A   1      40.545  36.525  37.713  1.00  0.00     0.040 A 
ATOM     79  C   UNL A   1      39.091  35.009  38.890  1.00  0.00     0.040 A 
ATOM     80  F   UNL A   1      38.470  32.973  37.899  1.00  0.00    -0.206 F 
ATOM     81  C   UNL A   1      39.795  36.210  38.845  1.00  0.00     0.006 A 
ENDBRANCH  53  74
BRANCH  65  82
ATOM     82  C   UNL A   1      44.097  29.077  35.200  1.00  0.00     0.057 A 
ATOM     83  C   UNL A   1      43.951  28.039  36.129  1.00  0.00     0.134 A 
ATOM     84  C   UNL A   1      45.395  29.533  34.935  1.00  0.00     0.134 A 
ATOM     85  F   UNL A   1      42.732  27.570  36.436  1.00  0.00    -0.206 F 
ATOM     86  C   UNL A   1      45.053  27.490  36.787  1.00  0.00     0.040 A 
ATOM     87  C   UNL A   1      46.506  28.975  35.568  1.00  0.00     0.040 A 
ATOM     88  F   UNL A   1      45.604  30.518  34.050  1.00  0.00    -0.206 F 
ATOM     89  C   UNL A   1      46.336  27.954  36.501  1.00  0.00     0.006 A 
ENDBRANCH  65  82
ENDBRANCH  39  40
ENDBRANCH  31  34
ENDBRANCH  29  30
ENDBRANCH  28  29
ENDBRANCH   1  28
TORSDOF 14
ENDMDL
MODEL 3
REMARK VINA RESULT:     -12.0      1.822      6.581
REMARK SMILES CC(C)c1ccc(NC(=O)C[C@H]2SC[C@@H](C(=O)NCCCNC(=O)c3ccc(-c4c5nc(c(-c6c(F)cccc6F)c6ccc([nH]6)c(-c6c(F)cccc6F)c6nc(c(-c7c(F)cccc7F)c7ccc4[nH]7)C=C6)C=C5)cc3)NC2=O)cc1
REMARK SMILES IDX 19 1 18 2 16 3 17 4 15 6 12 7 13 8 80 9 14 10 79 11 81 12
REMARK SMILES IDX 11 14 9 15 8 16 10 18 7 19 4 20 5 21 83 22 6 23 82 24 2 25
REMARK SMILES IDX 1 26 3 27 20 28 21 29 22 30 23 31 24 33 25 34 26 35 78 36
REMARK SMILES IDX 27 37 77 38 28 39 29 40 30 41 71 42 31 43 76 44 70 45 72 46
REMARK SMILES IDX 32 47 75 48 69 49 68 50 33 52 59 53 42 54 58 55 43 56 46 57
REMARK SMILES IDX 57 58 73 59 44 60 45 61 56 63 74 64 47 65 34 66 35 67 40 68
REMARK SMILES IDX 36 69 37 70 39 71 41 72 38 73 60 74 61 75 66 76 62 77 63 78
REMARK SMILES IDX 65 79 67 80 64 81 48 82 49 83 54 84 50 85 51 86 53 87 55 88
REMARK SMILES IDX 52 89
REMARK H PARENT 18 5 79 13 8 17 22 32 72 51 46 62
REMARK Flexibility Score: inf
ROOT
ATOM      1  C   UNL A   1      38.389  22.322  25.762  1.00  0.00     0.117 C 
ENDROOT
BRANCH   1   2
ATOM      2  N   UNL A   1      37.277  22.826  24.982  1.00  0.00    -0.354 N 
ATOM      3  C   UNL A   1      36.123  22.172  24.642  1.00  0.00     0.243 C 
ATOM      4  O   UNL A   1      35.555  22.530  23.613  1.00  0.00    -0.273 OA
ATOM      5  H   UNL A   1      37.361  23.751  24.659  1.00  0.00     0.163 HD
BRANCH   3   6
ATOM      6  C   UNL A   1      35.492  21.226  25.683  1.00  0.00     0.181 C 
ATOM      7  C   UNL A   1      32.558  22.089  25.895  1.00  0.00     0.145 C 
ATOM      8  S   UNL A   1      32.931  20.912  24.523  1.00  0.00    -0.145 SA
ATOM      9  C   UNL A   1      33.794  22.865  26.369  1.00  0.00     0.234 C 
ATOM     10  C   UNL A   1      34.504  20.220  25.109  1.00  0.00     0.105 C 
ATOM     11  N   UNL A   1      34.924  22.140  26.665  1.00  0.00    -0.343 N 
ATOM     12  O   UNL A   1      33.833  24.062  26.637  1.00  0.00    -0.274 OA
ATOM     13  H   UNL A   1      35.353  22.240  27.545  1.00  0.00     0.164 HD
BRANCH   7  14
ATOM     14  C   UNL A   1      31.315  22.894  25.488  1.00  0.00     0.124 C 
BRANCH  14  15
ATOM     15  C   UNL A   1      30.352  23.390  26.548  1.00  0.00     0.226 C 
ATOM     16  N   UNL A   1      29.943  24.682  26.652  1.00  0.00    -0.326 N 
ATOM     17  H   UNL A   1      29.293  24.835  27.375  1.00  0.00     0.169 HD
ATOM     18  O   UNL A   1      29.909  22.592  27.384  1.00  0.00    -0.275 OA
BRANCH  16  19
ATOM     19  C   UNL A   1      30.266  25.835  25.930  1.00  0.00     0.041 A 
ATOM     20  C   UNL A   1      30.893  28.033  24.256  1.00  0.00    -0.045 A 
ATOM     21  C   UNL A   1      31.518  27.859  25.501  1.00  0.00     0.006 A 
ATOM     22  C   UNL A   1      29.928  27.087  23.880  1.00  0.00     0.006 A 
ATOM     23  C   UNL A   1      31.202  26.777  26.333  1.00  0.00     0.026 A 
ATOM     24  C   UNL A   1      29.598  26.020  24.719  1.00  0.00     0.026 A 
BRANCH  20  25
ATOM     25  C   UNL A   1      31.260  29.164  23.298  1.00  0.00     0.013 C 
ATOM     26  C   UNL A   1      32.613  28.929  22.608  1.00  0.00     0.012 C 
ATOM     27  C   UNL A   1      30.210  29.454  22.216  1.00  0.00     0.012 C 
ENDBRANCH  20  25
ENDBRANCH  16  19
ENDBRANCH  14  15
ENDBRANCH   7  14
ENDBRANCH   3   6
ENDBRANCH   1   2
BRANCH   1  28
ATOM     28  C   UNL A   1      38.842  20.973  25.207  1.00  0.00     0.042 C 
BRANCH  28  29
ATOM     29  C   UNL A   1      39.224  19.968  26.294  1.00  0.00     0.118 C 
BRANCH  29  30
ATOM     30  N   UNL A   1      40.423  19.213  25.955  1.00  0.00    -0.352 N 
ATOM     31  C   UNL A   1      41.730  19.623  25.926  1.00  0.00     0.251 C 
ATOM     32  H   UNL A   1      40.272  18.271  25.712  1.00  0.00     0.163 HD
ATOM     33  O   UNL A   1      42.588  18.897  25.422  1.00  0.00    -0.269 OA
BRANCH  31  34
ATOM     34  C   UNL A   1      42.108  20.939  26.475  1.00  0.00     0.039 A 
ATOM     35  C   UNL A   1      42.479  21.956  25.591  1.00  0.00     0.014 A 
ATOM     36  C   UNL A   1      42.108  21.169  27.854  1.00  0.00     0.014 A 
ATOM     37  C   UNL A   1      42.789  23.223  26.087  1.00  0.00     0.010 A 
ATOM     38  C   UNL A   1      42.351  22.450  28.341  1.00  0.00     0.010 A 
ATOM     39  C   UNL A   1      42.693  23.489  27.462  1.00  0.00    -0.014 A 
BRANCH  39  40
ATOM     40  C   UNL A   1      42.940  24.849  28.000  1.00  0.00     0.031 A 
ATOM     41  C   UNL A   1      44.320  25.252  28.439  1.00  0.00     0.074 A 
ATOM     42  C   UNL A   1      41.907  25.700  28.157  1.00  0.00     0.049 A 
ATOM     43  N   UNL A   1      44.715  26.359  29.012  1.00  0.00    -0.248 NA
ATOM     44  C   UNL A   1      45.394  24.269  28.224  1.00  0.00     0.031 C 
ATOM     45  C   UNL A   1      40.513  25.415  27.806  1.00  0.00     0.029 A 
ATOM     46  N   UNL A   1      41.867  26.975  28.662  1.00  0.00    -0.354 N 
ATOM     47  C   UNL A   1      46.076  26.202  29.240  1.00  0.00     0.074 A 
ATOM     48  C   UNL A   1      46.431  24.874  28.785  1.00  0.00     0.031 C 
ATOM     49  C   UNL A   1      39.760  26.490  28.091  1.00  0.00     0.029 A 
ATOM     50  C   UNL A   1      40.607  27.522  28.678  1.00  0.00     0.049 A 
ATOM     51  H   UNL A   1      42.666  27.452  28.984  1.00  0.00     0.167 HD
ATOM     52  C   UNL A   1      46.955  27.089  29.762  1.00  0.00     0.037 A 
ATOM     53  C   UNL A   1      40.181  28.718  29.126  1.00  0.00     0.037 A 
ATOM     54  C   UNL A   1      46.607  28.418  30.192  1.00  0.00     0.049 A 
ATOM     55  C   UNL A   1      41.176  29.681  29.711  1.00  0.00     0.074 A 
ATOM     56  C   UNL A   1      47.436  29.410  30.687  1.00  0.00     0.029 A 
ATOM     57  N   UNL A   1      45.322  28.940  30.179  1.00  0.00    -0.354 N 
ATOM     58  N   UNL A   1      42.470  29.539  29.869  1.00  0.00    -0.248 NA
ATOM     59  C   UNL A   1      40.652  30.973  30.177  1.00  0.00     0.031 C 
ATOM     60  C   UNL A   1      46.648  30.521  31.005  1.00  0.00     0.029 A 
ATOM     61  C   UNL A   1      45.334  30.235  30.671  1.00  0.00     0.049 A 
ATOM     62  H   UNL A   1      44.522  28.462  29.864  1.00  0.00     0.167 HD
ATOM     63  C   UNL A   1      42.917  30.729  30.427  1.00  0.00     0.074 A 
ATOM     64  C   UNL A   1      41.758  31.587  30.568  1.00  0.00     0.031 C 
ATOM     65  C   UNL A   1      44.173  31.079  30.794  1.00  0.00     0.037 A 
BRANCH  52  66
ATOM     66  C   UNL A   1      48.385  26.655  29.890  1.00  0.00     0.057 A 
ATOM     67  C   UNL A   1      49.329  26.928  28.891  1.00  0.00     0.134 A 
ATOM     68  C   UNL A   1      48.833  25.991  31.038  1.00  0.00     0.134 A 
ATOM     69  F   UNL A   1      48.961  27.550  27.760  1.00  0.00    -0.206 F 
ATOM     70  C   UNL A   1      50.663  26.538  29.021  1.00  0.00     0.040 A 
ATOM     71  C   UNL A   1      50.170  25.618  31.191  1.00  0.00     0.040 A 
ATOM     72  F   UNL A   1      47.983  25.703  32.035  1.00  0.00    -0.206 F 
ATOM     73  C   UNL A   1      51.087  25.887  30.178  1.00  0.00     0.006 A 
ENDBRANCH  52  66
BRANCH  53  74
ATOM     74  C   UNL A   1      38.746  29.084  29.025  1.00  0.00     0.057 A 
ATOM     75  C   UNL A   1      38.206  29.548  27.821  1.00  0.00     0.134 A 
ATOM     76  C   UNL A   1      37.889  28.994  30.127  1.00  0.00     0.134 A 
ATOM     77  F   UNL A   1      38.982  29.672  26.736  1.00  0.00    -0.206 F 
ATOM     78  C   UNL A   1      36.867  29.931  27.721  1.00  0.00     0.040 A 
ATOM     79  C   UNL A   1      36.542  29.352  30.036  1.00  0.00     0.040 A 
ATOM     80  F   UNL A   1      38.345  28.549  31.307  1.00  0.00    -0.206 F 
ATOM     81  C   UNL A   1      36.031  29.830  28.831  1.00  0.00     0.006 A 
ENDBRANCH  53  74
BRANCH  65  82
ATOM     82  C   UNL A   1      44.365  32.460  31.347  1.00  0.00     0.057 A 
ATOM     83  C   UNL A   1      44.619  33.559  30.518  1.00  0.00     0.134 A 
ATOM     84  C   UNL A   1      44.260  32.695  32.724  1.00  0.00     0.134 A 
ATOM     85  F   UNL A   1      44.746  33.395  29.192  1.00  0.00    -0.206 F 
ATOM     86  C   UNL A   1      44.784  34.842  31.041  1.00  0.00     0.040 A 
ATOM     87  C   UNL A   1      44.398  33.978  33.255  1.00  0.00     0.040 A 
ATOM     88  F   UNL A   1      44.010  31.687  33.571  1.00  0.00    -0.206 F 
ATOM     89  C   UNL A   1      44.667  35.055  32.413  1.00  0.00     0.006 A 
ENDBRANCH  65  82
ENDBRANCH  39  40
ENDBRANCH  31  34
ENDBRANCH  29  30
ENDBRANCH  28  29
ENDBRANCH   1  28
TORSDOF 14
ENDMDL
