MODEL 1
REMARK VINA RESULT:     -12.3      0.000      0.000
REMARK SMILES CCc1c(C)sc(NC(=O)[C@H]2CC(C)=C(C)C[C@H]2C(=O)NCCCNC(=O)c2ccc(-c3c4nc(c(-c5c(F)cccc5F)c5ccc([nH]5)c(-c5c(F)cccc5F)c5nc(c(-c6c(F)cccc6F)c6ccc3[nH]6)C=C5)C=C4)cc2)c1C(=O)NC1CC1
REMARK SMILES IDX 22 1 21 2 19 3 20 4 18 6 11 7 12 8 13 9 17 10 14 11 15 12
REMARK SMILES IDX 16 13 9 14 8 15 10 17 7 18 3 19 4 20 82 21 5 22 6 23 2 24
REMARK SMILES IDX 1 25 83 26 84 27 85 28 86 30 87 31 88 32 23 33 24 34 25 35
REMARK SMILES IDX 26 36 27 38 28 39 29 40 81 41 30 42 80 43 31 44 32 45 33 46
REMARK SMILES IDX 74 47 34 48 79 49 73 50 75 51 35 52 78 53 72 54 71 55 36 57
REMARK SMILES IDX 62 58 45 59 61 60 46 61 49 62 60 63 76 64 47 65 48 66 59 68
REMARK SMILES IDX 77 69 50 70 37 71 38 72 43 73 39 74 40 75 42 76 44 77 41 78
REMARK SMILES IDX 63 79 64 80 69 81 65 82 66 83 68 84 70 85 67 86 51 87 52 88
REMARK SMILES IDX 57 89 53 90 54 91 56 92 58 93 55 94
REMARK H PARENT 21 5 8 16 85 29 25 37 75 56 49 67
REMARK Flexibility Score: inf
ROOT
ATOM      1  C   UNL A   1      36.931  22.203  25.357  1.00  0.00     0.117 C 
ENDROOT
BRANCH   1   2
ATOM      2  N   UNL A   1      35.760  21.628  24.709  1.00  0.00    -0.356 N 
ATOM      3  C   UNL A   1      34.427  21.859  24.728  1.00  0.00     0.224 C 
ATOM      4  O   UNL A   1      33.771  21.113  23.985  1.00  0.00    -0.275 OA
ATOM      5  H   UNL A   1      35.997  20.886  24.106  1.00  0.00     0.163 HD
BRANCH   3   6
ATOM      6  C   UNL A   1      33.675  22.958  25.494  1.00  0.00     0.095 C 
ATOM      7  C   UNL A   1      33.840  24.422  25.068  1.00  0.00     0.095 C 
ATOM      8  C   UNL A   1      33.080  25.413  25.964  1.00  0.00     0.045 C 
ATOM      9  C   UNL A   1      31.755  24.941  26.541  1.00  0.00    -0.074 C 
ATOM     10  C   UNL A   1      32.283  22.535  25.965  1.00  0.00     0.045 C 
ATOM     11  C   UNL A   1      30.821  26.101  26.845  1.00  0.00     0.039 C 
ATOM     12  C   UNL A   1      31.398  23.632  26.548  1.00  0.00    -0.074 C 
ATOM     13  C   UNL A   1      30.039  23.111  26.957  1.00  0.00     0.039 C 
BRANCH   7  14
ATOM     14  C   UNL A   1      34.015  24.832  23.596  1.00  0.00     0.229 C 
ATOM     15  N   UNL A   1      33.339  25.731  22.835  1.00  0.00    -0.317 N 
ATOM     16  H   UNL A   1      33.786  25.878  21.970  1.00  0.00     0.170 HD
ATOM     17  O   UNL A   1      34.914  24.237  22.968  1.00  0.00    -0.274 OA
BRANCH  15  18
ATOM     18  C   UNL A   1      32.191  26.496  22.950  1.00  0.00     0.108 A 
ATOM     19  C   UNL A   1      30.643  28.259  22.864  1.00  0.00    -0.020 A 
ATOM     20  C   UNL A   1      29.851  27.172  23.195  1.00  0.00     0.008 A 
ATOM     21  C   UNL A   1      32.071  27.890  23.078  1.00  0.00     0.078 A 
ATOM     22  C   UNL A   1      28.405  27.051  23.531  1.00  0.00     0.057 C 
ATOM     23  S   UNL A   1      30.718  25.766  23.003  1.00  0.00    -0.122 S 
BRANCH  19  24
ATOM     24  C   UNL A   1      29.974  29.535  22.426  1.00  0.00     0.034 C 
ATOM     25  C   UNL A   1      29.535  30.433  23.571  1.00  0.00     0.009 C 
ENDBRANCH  19  24
BRANCH  21  26
ATOM     26  C   UNL A   1      33.312  28.659  23.293  1.00  0.00     0.254 C 
ATOM     27  O   UNL A   1      34.237  28.624  22.464  1.00  0.00    -0.269 OA
ATOM     28  N   UNL A   1      33.590  29.366  24.425  1.00  0.00    -0.349 N 
ATOM     29  H   UNL A   1      34.474  29.799  24.429  1.00  0.00     0.164 HD
BRANCH  28  30
ATOM     30  C   UNL A   1      32.829  29.580  25.586  1.00  0.00     0.082 C 
ATOM     31  C   UNL A   1      33.284  28.947  26.872  1.00  0.00     0.027 C 
ATOM     32  C   UNL A   1      33.287  30.437  26.728  1.00  0.00     0.027 C 
ENDBRANCH  28  30
ENDBRANCH  21  26
ENDBRANCH  15  18
ENDBRANCH   7  14
ENDBRANCH   3   6
ENDBRANCH   1   2
BRANCH   1  33
ATOM     33  C   UNL A   1      38.194  21.367  25.085  1.00  0.00     0.042 C 
BRANCH  33  34
ATOM     34  C   UNL A   1      38.186  19.908  25.542  1.00  0.00     0.118 C 
BRANCH  34  35
ATOM     35  N   UNL A   1      39.485  19.240  25.494  1.00  0.00    -0.352 N 
ATOM     36  C   UNL A   1      40.746  19.461  26.000  1.00  0.00     0.251 C 
ATOM     37  H   UNL A   1      39.449  18.417  24.956  1.00  0.00     0.163 HD
ATOM     38  O   UNL A   1      41.548  18.532  25.853  1.00  0.00    -0.269 OA
BRANCH  36  39
ATOM     39  C   UNL A   1      41.263  20.722  26.625  1.00  0.00     0.039 A 
ATOM     40  C   UNL A   1      41.824  21.684  25.751  1.00  0.00     0.014 A 
ATOM     41  C   UNL A   1      41.203  21.047  27.976  1.00  0.00     0.014 A 
ATOM     42  C   UNL A   1      42.214  22.958  26.197  1.00  0.00     0.010 A 
ATOM     43  C   UNL A   1      41.566  22.326  28.424  1.00  0.00     0.010 A 
ATOM     44  C   UNL A   1      42.062  23.296  27.541  1.00  0.00    -0.014 A 
BRANCH  44  45
ATOM     45  C   UNL A   1      42.602  24.562  28.097  1.00  0.00     0.031 A 
ATOM     46  C   UNL A   1      41.618  25.664  28.377  1.00  0.00     0.074 A 
ATOM     47  C   UNL A   1      43.923  24.766  28.275  1.00  0.00     0.049 A 
ATOM     48  N   UNL A   1      41.830  26.900  28.739  1.00  0.00    -0.248 NA
ATOM     49  C   UNL A   1      40.196  25.322  28.195  1.00  0.00     0.031 C 
ATOM     50  C   UNL A   1      44.981  23.786  28.033  1.00  0.00     0.029 A 
ATOM     51  N   UNL A   1      44.602  25.891  28.683  1.00  0.00    -0.354 N 
ATOM     52  C   UNL A   1      40.574  27.489  28.804  1.00  0.00     0.074 A 
ATOM     53  C   UNL A   1      39.609  26.488  28.411  1.00  0.00     0.031 C 
ATOM     54  C   UNL A   1      46.176  24.356  28.286  1.00  0.00     0.029 A 
ATOM     55  C   UNL A   1      45.972  25.749  28.679  1.00  0.00     0.049 A 
ATOM     56  H   UNL A   1      44.150  26.723  28.954  1.00  0.00     0.167 HD
ATOM     57  C   UNL A   1      40.249  28.749  29.169  1.00  0.00     0.037 A 
ATOM     58  C   UNL A   1      46.941  26.650  28.943  1.00  0.00     0.037 A 
ATOM     59  C   UNL A   1      41.207  29.740  29.572  1.00  0.00     0.049 A 
ATOM     60  C   UNL A   1      46.548  28.062  29.318  1.00  0.00     0.074 A 
ATOM     61  C   UNL A   1      40.977  31.032  30.007  1.00  0.00     0.029 A 
ATOM     62  N   UNL A   1      42.579  29.546  29.582  1.00  0.00    -0.354 N 
ATOM     63  N   UNL A   1      45.353  28.583  29.454  1.00  0.00    -0.248 NA
ATOM     64  C   UNL A   1      47.642  29.010  29.579  1.00  0.00     0.031 C 
ATOM     65  C   UNL A   1      42.215  31.639  30.233  1.00  0.00     0.029 A 
ATOM     66  C   UNL A   1      43.211  30.705  29.994  1.00  0.00     0.049 A 
ATOM     67  H   UNL A   1      43.034  28.710  29.333  1.00  0.00     0.167 HD
ATOM     68  C   UNL A   1      45.552  29.899  29.859  1.00  0.00     0.074 A 
ATOM     69  C   UNL A   1      46.981  30.094  29.958  1.00  0.00     0.031 C 
ATOM     70  C   UNL A   1      44.636  30.863  30.124  1.00  0.00     0.037 A 
BRANCH  57  71
ATOM     71  C   UNL A   1      38.800  29.127  29.133  1.00  0.00     0.057 A 
ATOM     72  C   UNL A   1      38.179  29.568  27.957  1.00  0.00     0.134 A 
ATOM     73  C   UNL A   1      38.011  29.028  30.286  1.00  0.00     0.134 A 
ATOM     74  F   UNL A   1      38.886  29.706  26.826  1.00  0.00    -0.206 F 
ATOM     75  C   UNL A   1      36.828  29.916  27.933  1.00  0.00     0.040 A 
ATOM     76  C   UNL A   1      36.653  29.347  30.267  1.00  0.00     0.040 A 
ATOM     77  F   UNL A   1      38.546  28.616  31.444  1.00  0.00    -0.206 F 
ATOM     78  C   UNL A   1      36.059  29.797  29.090  1.00  0.00     0.006 A 
ENDBRANCH  57  71
BRANCH  58  79
ATOM     79  C   UNL A   1      48.384  26.286  28.864  1.00  0.00     0.057 A 
ATOM     80  C   UNL A   1      49.069  25.796  29.986  1.00  0.00     0.134 A 
ATOM     81  C   UNL A   1      49.138  26.510  27.707  1.00  0.00     0.134 A 
ATOM     82  F   UNL A   1      48.413  25.583  31.137  1.00  0.00    -0.206 F 
ATOM     83  C   UNL A   1      50.451  25.590  29.974  1.00  0.00     0.040 A 
ATOM     84  C   UNL A   1      50.516  26.279  27.671  1.00  0.00     0.040 A 
ATOM     85  F   UNL A   1      48.551  26.978  26.596  1.00  0.00    -0.206 F 
ATOM     86  C   UNL A   1      51.180  25.834  28.812  1.00  0.00     0.006 A 
ENDBRANCH  58  79
BRANCH  70  87
ATOM     87  C   UNL A   1      45.139  32.190  30.613  1.00  0.00     0.057 A 
ATOM     88  C   UNL A   1      45.398  33.255  29.742  1.00  0.00     0.134 A 
ATOM     89  C   UNL A   1      45.296  32.423  31.986  1.00  0.00     0.134 A 
ATOM     90  F   UNL A   1      45.277  33.094  28.416  1.00  0.00    -0.206 F 
ATOM     91  C   UNL A   1      45.813  34.500  30.218  1.00  0.00     0.040 A 
ATOM     92  C   UNL A   1      45.680  33.671  32.476  1.00  0.00     0.040 A 
ATOM     93  F   UNL A   1      45.051  31.449  32.875  1.00  0.00    -0.206 F 
ATOM     94  C   UNL A   1      45.945  34.713  31.589  1.00  0.00     0.006 A 
ENDBRANCH  70  87
ENDBRANCH  44  45
ENDBRANCH  36  39
ENDBRANCH  34  35
ENDBRANCH  33  34
ENDBRANCH   1  33
TORSDOF 15
ENDMDL
MODEL 2
REMARK VINA RESULT:     -12.0      3.742      7.429
REMARK SMILES CCc1c(C)sc(NC(=O)[C@H]2CC(C)=C(C)C[C@H]2C(=O)NCCCNC(=O)c2ccc(-c3c4nc(c(-c5c(F)cccc5F)c5ccc([nH]5)c(-c5c(F)cccc5F)c5nc(c(-c6c(F)cccc6F)c6ccc3[nH]6)C=C5)C=C4)cc2)c1C(=O)NC1CC1
REMARK SMILES IDX 22 1 21 2 19 3 20 4 18 6 11 7 12 8 13 9 17 10 14 11 15 12
REMARK SMILES IDX 16 13 9 14 8 15 10 17 7 18 3 19 4 20 82 21 5 22 6 23 2 24
REMARK SMILES IDX 1 25 83 26 84 27 85 28 86 30 87 31 88 32 23 33 24 34 25 35
REMARK SMILES IDX 26 36 27 38 28 39 29 40 81 41 30 42 80 43 31 44 32 45 33 46
REMARK SMILES IDX 74 47 34 48 79 49 73 50 75 51 35 52 78 53 72 54 71 55 36 57
REMARK SMILES IDX 62 58 45 59 61 60 46 61 49 62 60 63 76 64 47 65 48 66 59 68
REMARK SMILES IDX 77 69 50 70 37 71 38 72 43 73 39 74 40 75 42 76 44 77 41 78
REMARK SMILES IDX 63 79 64 80 69 81 65 82 66 83 68 84 70 85 67 86 51 87 52 88
REMARK SMILES IDX 57 89 53 90 54 91 56 92 58 93 55 94
REMARK H PARENT 21 5 8 16 85 29 25 37 75 56 49 67
REMARK Flexibility Score: inf
ROOT
ATOM      1  C   UNL A   1      37.089  22.647  25.094  1.00  0.00     0.117 C 
ENDROOT
BRANCH   1   2
ATOM      2  N   UNL A   1      35.937  21.902  24.604  1.00  0.00    -0.356 N 
ATOM      3  C   UNL A   1      34.593  21.997  24.730  1.00  0.00     0.224 C 
ATOM      4  O   UNL A   1      33.962  21.127  24.111  1.00  0.00    -0.275 OA
ATOM      5  H   UNL A   1      36.202  21.139  24.041  1.00  0.00     0.163 HD
BRANCH   3   6
ATOM      6  C   UNL A   1      33.793  23.077  25.475  1.00  0.00     0.095 C 
ATOM      7  C   UNL A   1      33.873  24.535  25.005  1.00  0.00     0.095 C 
ATOM      8  C   UNL A   1      33.073  25.509  25.884  1.00  0.00     0.045 C 
ATOM      9  C   UNL A   1      31.783  24.984  26.494  1.00  0.00    -0.074 C 
ATOM     10  C   UNL A   1      32.433  22.593  25.980  1.00  0.00     0.045 C 
ATOM     11  C   UNL A   1      30.793  26.099  26.779  1.00  0.00     0.039 C 
ATOM     12  C   UNL A   1      31.499  23.658  26.544  1.00  0.00    -0.074 C 
ATOM     13  C   UNL A   1      30.175  23.077  26.989  1.00  0.00     0.039 C 
BRANCH   7  14
ATOM     14  C   UNL A   1      34.005  24.910  23.519  1.00  0.00     0.229 C 
ATOM     15  N   UNL A   1      33.318  25.803  22.761  1.00  0.00    -0.317 N 
ATOM     16  H   UNL A   1      33.738  25.924  21.879  1.00  0.00     0.170 HD
ATOM     17  O   UNL A   1      34.873  24.286  22.875  1.00  0.00    -0.274 OA
BRANCH  15  18
ATOM     18  C   UNL A   1      32.187  26.590  22.897  1.00  0.00     0.108 A 
ATOM     19  C   UNL A   1      30.676  28.386  22.856  1.00  0.00    -0.020 A 
ATOM     20  C   UNL A   1      29.862  27.309  23.165  1.00  0.00     0.008 A 
ATOM     21  C   UNL A   1      32.098  27.982  23.057  1.00  0.00     0.078 A 
ATOM     22  C   UNL A   1      28.415  27.211  23.503  1.00  0.00     0.057 C 
ATOM     23  S   UNL A   1      30.699  25.890  22.939  1.00  0.00    -0.122 S 
BRANCH  19  24
ATOM     24  C   UNL A   1      30.034  29.685  22.449  1.00  0.00     0.034 C 
ATOM     25  C   UNL A   1      29.517  30.516  23.613  1.00  0.00     0.009 C 
ENDBRANCH  19  24
BRANCH  21  26
ATOM     26  C   UNL A   1      33.355  28.720  23.285  1.00  0.00     0.254 C 
ATOM     27  O   UNL A   1      34.201  28.835  22.382  1.00  0.00    -0.269 OA
ATOM     28  N   UNL A   1      33.737  29.231  24.489  1.00  0.00    -0.349 N 
ATOM     29  H   UNL A   1      34.618  29.669  24.486  1.00  0.00     0.164 HD
BRANCH  28  30
ATOM     30  C   UNL A   1      33.085  29.239  25.734  1.00  0.00     0.082 C 
ATOM     31  C   UNL A   1      33.490  30.268  26.753  1.00  0.00     0.027 C 
ATOM     32  C   UNL A   1      32.119  30.306  26.154  1.00  0.00     0.027 C 
ENDBRANCH  28  30
ENDBRANCH  21  26
ENDBRANCH  15  18
ENDBRANCH   7  14
ENDBRANCH   3   6
ENDBRANCH   1   2
BRANCH   1  33
ATOM     33  C   UNL A   1      38.265  21.713  25.430  1.00  0.00     0.042 C 
BRANCH  33  34
ATOM     34  C   UNL A   1      39.244  22.173  26.511  1.00  0.00     0.118 C 
BRANCH  34  35
ATOM     35  N   UNL A   1      40.520  22.679  26.011  1.00  0.00    -0.352 N 
ATOM     36  C   UNL A   1      41.415  23.664  26.361  1.00  0.00     0.251 C 
ATOM     37  H   UNL A   1      40.818  22.186  25.213  1.00  0.00     0.163 HD
ATOM     38  O   UNL A   1      42.489  23.650  25.749  1.00  0.00    -0.269 OA
BRANCH  36  39
ATOM     39  C   UNL A   1      41.193  24.785  27.331  1.00  0.00     0.039 A 
ATOM     40  C   UNL A   1      42.149  25.829  27.331  1.00  0.00     0.014 A 
ATOM     41  C   UNL A   1      40.114  24.912  28.200  1.00  0.00     0.014 A 
ATOM     42  C   UNL A   1      41.979  26.997  28.093  1.00  0.00     0.010 A 
ATOM     43  C   UNL A   1      39.923  26.086  28.943  1.00  0.00     0.010 A 
ATOM     44  C   UNL A   1      40.843  27.143  28.889  1.00  0.00    -0.014 A 
BRANCH  44  45
ATOM     45  C   UNL A   1      40.689  28.278  29.834  1.00  0.00     0.031 A 
ATOM     46  C   UNL A   1      41.580  28.288  31.045  1.00  0.00     0.074 A 
ATOM     47  C   UNL A   1      39.743  29.226  29.675  1.00  0.00     0.049 A 
ATOM     48  N   UNL A   1      41.568  29.081  32.082  1.00  0.00    -0.248 NA
ATOM     49  C   UNL A   1      42.610  27.236  31.099  1.00  0.00     0.031 C 
ATOM     50  C   UNL A   1      38.811  29.324  28.552  1.00  0.00     0.029 A 
ATOM     51  N   UNL A   1      39.397  30.281  30.485  1.00  0.00    -0.354 N 
ATOM     52  C   UNL A   1      42.569  28.609  32.921  1.00  0.00     0.074 A 
ATOM     53  C   UNL A   1      43.145  27.443  32.291  1.00  0.00     0.031 C 
ATOM     54  C   UNL A   1      37.991  30.375  28.751  1.00  0.00     0.029 A 
ATOM     55  C   UNL A   1      38.319  31.006  30.028  1.00  0.00     0.049 A 
ATOM     56  H   UNL A   1      39.875  30.499  31.318  1.00  0.00     0.167 HD
ATOM     57  C   UNL A   1      42.982  29.108  34.108  1.00  0.00     0.037 A 
ATOM     58  C   UNL A   1      37.667  32.045  30.592  1.00  0.00     0.037 A 
ATOM     59  C   UNL A   1      42.420  30.275  34.727  1.00  0.00     0.049 A 
ATOM     60  C   UNL A   1      38.132  32.562  31.935  1.00  0.00     0.074 A 
ATOM     61  C   UNL A   1      42.799  30.890  35.906  1.00  0.00     0.029 A 
ATOM     62  N   UNL A   1      41.352  30.995  34.218  1.00  0.00    -0.354 N 
ATOM     63  N   UNL A   1      39.133  32.157  32.680  1.00  0.00    -0.248 NA
ATOM     64  C   UNL A   1      37.378  33.684  32.514  1.00  0.00     0.031 C 
ATOM     65  C   UNL A   1      41.927  31.958  36.136  1.00  0.00     0.029 A 
ATOM     66  C   UNL A   1      41.043  32.040  35.071  1.00  0.00     0.049 A 
ATOM     67  H   UNL A   1      40.884  30.795  33.375  1.00  0.00     0.167 HD
ATOM     68  C   UNL A   1      39.154  33.001  33.786  1.00  0.00     0.074 A 
ATOM     69  C   UNL A   1      38.074  33.947  33.610  1.00  0.00     0.031 C 
ATOM     70  C   UNL A   1      39.989  32.994  34.854  1.00  0.00     0.037 A 
BRANCH  57  71
ATOM     71  C   UNL A   1      44.086  28.383  34.815  1.00  0.00     0.057 A 
ATOM     72  C   UNL A   1      43.828  27.347  35.722  1.00  0.00     0.134 A 
ATOM     73  C   UNL A   1      45.425  28.713  34.570  1.00  0.00     0.134 A 
ATOM     74  F   UNL A   1      42.566  27.000  36.016  1.00  0.00    -0.206 F 
ATOM     75  C   UNL A   1      44.862  26.676  36.375  1.00  0.00     0.040 A 
ATOM     76  C   UNL A   1      46.468  28.031  35.197  1.00  0.00     0.040 A 
ATOM     77  F   UNL A   1      45.738  29.697  33.717  1.00  0.00    -0.206 F 
ATOM     78  C   UNL A   1      46.188  27.013  36.106  1.00  0.00     0.006 A 
ENDBRANCH  57  71
BRANCH  58  79
ATOM     79  C   UNL A   1      36.498  32.684  29.924  1.00  0.00     0.057 A 
ATOM     80  C   UNL A   1      35.187  32.390  30.323  1.00  0.00     0.134 A 
ATOM     81  C   UNL A   1      36.652  33.520  28.811  1.00  0.00     0.134 A 
ATOM     82  F   UNL A   1      34.966  31.574  31.365  1.00  0.00    -0.206 F 
ATOM     83  C   UNL A   1      34.077  32.861  29.616  1.00  0.00     0.040 A 
ATOM     84  C   UNL A   1      35.551  34.023  28.112  1.00  0.00     0.040 A 
ATOM     85  F   UNL A   1      37.876  33.844  28.371  1.00  0.00    -0.206 F 
ATOM     86  C   UNL A   1      34.259  33.680  28.504  1.00  0.00     0.006 A 
ENDBRANCH  58  79
BRANCH  70  87
ATOM     87  C   UNL A   1      39.819  34.077  35.880  1.00  0.00     0.057 A 
ATOM     88  C   UNL A   1      39.075  33.886  37.050  1.00  0.00     0.134 A 
ATOM     89  C   UNL A   1      40.475  35.306  35.724  1.00  0.00     0.134 A 
ATOM     90  F   UNL A   1      38.415  32.736  37.255  1.00  0.00    -0.206 F 
ATOM     91  C   UNL A   1      38.973  34.884  38.020  1.00  0.00     0.040 A 
ATOM     92  C   UNL A   1      40.407  36.300  36.700  1.00  0.00     0.040 A 
ATOM     93  F   UNL A   1      41.216  35.549  34.632  1.00  0.00    -0.206 F 
ATOM     94  C   UNL A   1      39.649  36.091  37.850  1.00  0.00     0.006 A 
ENDBRANCH  70  87
ENDBRANCH  44  45
ENDBRANCH  36  39
ENDBRANCH  34  35
ENDBRANCH  33  34
ENDBRANCH   1  33
TORSDOF 15
ENDMDL
MODEL 3
REMARK VINA RESULT:     -12.0      3.507      8.861
REMARK SMILES CCc1c(C)sc(NC(=O)[C@H]2CC(C)=C(C)C[C@H]2C(=O)NCCCNC(=O)c2ccc(-c3c4nc(c(-c5c(F)cccc5F)c5ccc([nH]5)c(-c5c(F)cccc5F)c5nc(c(-c6c(F)cccc6F)c6ccc3[nH]6)C=C5)C=C4)cc2)c1C(=O)NC1CC1
REMARK SMILES IDX 22 1 21 2 19 3 20 4 18 6 11 7 12 8 13 9 17 10 14 11 15 12
REMARK SMILES IDX 16 13 9 14 8 15 10 17 7 18 3 19 4 20 82 21 5 22 6 23 2 24
REMARK SMILES IDX 1 25 83 26 84 27 85 28 86 30 87 31 88 32 23 33 24 34 25 35
REMARK SMILES IDX 26 36 27 38 28 39 29 40 81 41 30 42 80 43 31 44 32 45 33 46
REMARK SMILES IDX 74 47 34 48 79 49 73 50 75 51 35 52 78 53 72 54 71 55 36 57
REMARK SMILES IDX 62 58 45 59 61 60 46 61 49 62 60 63 76 64 47 65 48 66 59 68
REMARK SMILES IDX 77 69 50 70 37 71 38 72 43 73 39 74 40 75 42 76 44 77 41 78
REMARK SMILES IDX 63 79 64 80 69 81 65 82 66 83 68 84 70 85 67 86 51 87 52 88
REMARK SMILES IDX 57 89 53 90 54 91 56 92 58 93 55 94
REMARK H PARENT 21 5 8 16 85 29 25 37 75 56 49 67
REMARK Flexibility Score: inf
ROOT
ATOM      1  C   UNL A   1      33.020  29.628  26.456  1.00  0.00     0.117 C 
ENDROOT
BRANCH   1   2
ATOM      2  N   UNL A   1      31.845  29.145  25.743  1.00  0.00    -0.356 N 
ATOM      3  C   UNL A   1      31.597  28.206  24.801  1.00  0.00     0.224 C 
ATOM      4  O   UNL A   1      30.404  28.117  24.475  1.00  0.00    -0.275 OA
ATOM      5  H   UNL A   1      31.026  29.621  26.015  1.00  0.00     0.163 HD
BRANCH   3   6
ATOM      6  C   UNL A   1      32.595  27.224  24.169  1.00  0.00     0.095 C 
ATOM      7  C   UNL A   1      33.174  26.085  25.018  1.00  0.00     0.095 C 
ATOM      8  C   UNL A   1      34.206  25.224  24.270  1.00  0.00     0.045 C 
ATOM      9  C   UNL A   1      33.975  25.013  22.783  1.00  0.00    -0.074 C 
ATOM     10  C   UNL A   1      32.293  26.902  22.705  1.00  0.00     0.045 C 
ATOM     11  C   UNL A   1      34.605  23.723  22.287  1.00  0.00     0.039 C 
ATOM     12  C   UNL A   1      33.112  25.782  22.072  1.00  0.00    -0.074 C 
ATOM     13  C   UNL A   1      32.717  25.529  20.634  1.00  0.00     0.039 C 
BRANCH   7  14
ATOM     14  C   UNL A   1      32.351  25.372  26.102  1.00  0.00     0.229 C 
ATOM     15  N   UNL A   1      32.094  24.054  26.305  1.00  0.00    -0.317 N 
ATOM     16  H   UNL A   1      31.658  23.901  27.174  1.00  0.00     0.170 HD
ATOM     17  O   UNL A   1      31.799  26.112  26.942  1.00  0.00    -0.274 OA
BRANCH  15  18
ATOM     18  C   UNL A   1      32.282  22.867  25.615  1.00  0.00     0.108 A 
ATOM     19  C   UNL A   1      32.780  20.642  25.059  1.00  0.00    -0.020 A 
ATOM     20  C   UNL A   1      32.157  21.110  23.915  1.00  0.00     0.008 A 
ATOM     21  C   UNL A   1      33.156  21.808  25.909  1.00  0.00     0.078 A 
ATOM     22  C   UNL A   1      31.904  20.489  22.585  1.00  0.00     0.057 C 
ATOM     23  S   UNL A   1      31.453  22.585  24.223  1.00  0.00    -0.122 S 
BRANCH  19  24
ATOM     24  C   UNL A   1      32.993  19.159  25.211  1.00  0.00     0.034 C 
ATOM     25  C   UNL A   1      34.273  18.645  24.571  1.00  0.00     0.009 C 
ENDBRANCH  19  24
BRANCH  21  26
ATOM     26  C   UNL A   1      34.141  22.022  26.987  1.00  0.00     0.254 C 
ATOM     27  O   UNL A   1      33.773  22.242  28.153  1.00  0.00    -0.269 OA
ATOM     28  N   UNL A   1      35.487  22.099  26.791  1.00  0.00    -0.349 N 
ATOM     29  H   UNL A   1      36.009  22.277  27.607  1.00  0.00     0.164 HD
BRANCH  28  30
ATOM     30  C   UNL A   1      36.257  21.969  25.623  1.00  0.00     0.082 C 
ATOM     31  C   UNL A   1      37.070  23.146  25.161  1.00  0.00     0.027 C 
ATOM     32  C   UNL A   1      37.754  21.897  25.624  1.00  0.00     0.027 C 
ENDBRANCH  28  30
ENDBRANCH  21  26
ENDBRANCH  15  18
ENDBRANCH   7  14
ENDBRANCH   3   6
ENDBRANCH   1   2
BRANCH   1  33
ATOM     33  C   UNL A   1      32.702  30.887  27.282  1.00  0.00     0.042 C 
BRANCH  33  34
ATOM     34  C   UNL A   1      32.063  32.067  26.550  1.00  0.00     0.118 C 
BRANCH  34  35
ATOM     35  N   UNL A   1      32.010  33.311  27.315  1.00  0.00    -0.352 N 
ATOM     36  C   UNL A   1      32.883  34.066  28.065  1.00  0.00     0.251 C 
ATOM     37  H   UNL A   1      31.112  33.715  27.288  1.00  0.00     0.163 HD
ATOM     38  O   UNL A   1      32.462  35.173  28.416  1.00  0.00    -0.269 OA
BRANCH  36  39
ATOM     39  C   UNL A   1      34.236  33.656  28.562  1.00  0.00     0.039 A 
ATOM     40  C   UNL A   1      34.277  32.925  29.774  1.00  0.00     0.014 A 
ATOM     41  C   UNL A   1      35.448  33.893  27.922  1.00  0.00     0.014 A 
ATOM     42  C   UNL A   1      35.468  32.368  30.269  1.00  0.00     0.010 A 
ATOM     43  C   UNL A   1      36.637  33.318  28.395  1.00  0.00     0.010 A 
ATOM     44  C   UNL A   1      36.658  32.542  29.563  1.00  0.00    -0.014 A 
BRANCH  44  45
ATOM     45  C   UNL A   1      37.967  32.115  30.117  1.00  0.00     0.031 A 
ATOM     46  C   UNL A   1      38.562  30.846  29.571  1.00  0.00     0.074 A 
ATOM     47  C   UNL A   1      38.576  32.777  31.121  1.00  0.00     0.049 A 
ATOM     48  N   UNL A   1      39.619  30.185  29.961  1.00  0.00    -0.248 NA
ATOM     49  C   UNL A   1      37.844  30.227  28.444  1.00  0.00     0.031 C 
ATOM     50  C   UNL A   1      38.101  34.011  31.744  1.00  0.00     0.029 A 
ATOM     51  N   UNL A   1      39.727  32.479  31.814  1.00  0.00    -0.354 N 
ATOM     52  C   UNL A   1      39.676  29.063  29.145  1.00  0.00     0.074 A 
ATOM     53  C   UNL A   1      38.533  29.113  28.263  1.00  0.00     0.031 C 
ATOM     54  C   UNL A   1      38.946  34.359  32.734  1.00  0.00     0.029 A 
ATOM     55  C   UNL A   1      40.006  33.358  32.836  1.00  0.00     0.049 A 
ATOM     56  H   UNL A   1      40.299  31.707  31.598  1.00  0.00     0.167 HD
ATOM     57  C   UNL A   1      40.605  28.081  29.123  1.00  0.00     0.037 A 
ATOM     58  C   UNL A   1      40.994  33.337  33.756  1.00  0.00     0.037 A 
ATOM     59  C   UNL A   1      41.749  28.039  29.991  1.00  0.00     0.049 A 
ATOM     60  C   UNL A   1      42.001  32.209  33.726  1.00  0.00     0.074 A 
ATOM     61  C   UNL A   1      42.775  27.112  30.016  1.00  0.00     0.029 A 
ATOM     62  N   UNL A   1      42.009  28.961  30.990  1.00  0.00    -0.354 N 
ATOM     63  N   UNL A   1      42.090  31.197  32.897  1.00  0.00    -0.248 NA
ATOM     64  C   UNL A   1      43.047  32.223  34.760  1.00  0.00     0.031 C 
ATOM     65  C   UNL A   1      43.633  27.448  31.066  1.00  0.00     0.029 A 
ATOM     66  C   UNL A   1      43.172  28.614  31.655  1.00  0.00     0.049 A 
ATOM     67  H   UNL A   1      41.452  29.746  31.196  1.00  0.00     0.167 HD
ATOM     68  C   UNL A   1      43.222  30.485  33.281  1.00  0.00     0.074 A 
ATOM     69  C   UNL A   1      43.794  31.186  34.409  1.00  0.00     0.031 C 
ATOM     70  C   UNL A   1      43.743  29.351  32.751  1.00  0.00     0.037 A 
BRANCH  57  71
ATOM     71  C   UNL A   1      40.411  26.969  28.139  1.00  0.00     0.057 A 
ATOM     72  C   UNL A   1      41.033  26.975  26.884  1.00  0.00     0.134 A 
ATOM     73  C   UNL A   1      39.607  25.868  28.460  1.00  0.00     0.134 A 
ATOM     74  F   UNL A   1      41.797  28.011  26.509  1.00  0.00    -0.206 F 
ATOM     75  C   UNL A   1      40.847  25.933  25.974  1.00  0.00     0.040 A 
ATOM     76  C   UNL A   1      39.435  24.808  27.568  1.00  0.00     0.040 A 
ATOM     77  F   UNL A   1      38.980  25.804  29.643  1.00  0.00    -0.206 F 
ATOM     78  C   UNL A   1      40.052  24.841  26.320  1.00  0.00     0.006 A 
ENDBRANCH  57  71
BRANCH  58  79
ATOM     79  C   UNL A   1      41.107  34.395  34.800  1.00  0.00     0.057 A 
ATOM     80  C   UNL A   1      40.478  34.252  36.045  1.00  0.00     0.134 A 
ATOM     81  C   UNL A   1      41.753  35.610  34.550  1.00  0.00     0.134 A 
ATOM     82  F   UNL A   1      39.817  33.122  36.341  1.00  0.00    -0.206 F 
ATOM     83  C   UNL A   1      40.446  35.291  36.979  1.00  0.00     0.040 A 
ATOM     84  C   UNL A   1      41.755  36.648  35.487  1.00  0.00     0.040 A 
ATOM     85  F   UNL A   1      42.375  35.819  33.381  1.00  0.00    -0.206 F 
ATOM     86  C   UNL A   1      41.086  36.496  36.700  1.00  0.00     0.006 A 
ENDBRANCH  58  79
BRANCH  70  87
ATOM     87  C   UNL A   1      45.028  28.834  33.332  1.00  0.00     0.057 A 
ATOM     88  C   UNL A   1      46.278  29.277  32.887  1.00  0.00     0.134 A 
ATOM     89  C   UNL A   1      45.004  27.933  34.405  1.00  0.00     0.134 A 
ATOM     90  F   UNL A   1      46.370  30.133  31.857  1.00  0.00    -0.206 F 
ATOM     91  C   UNL A   1      47.462  28.827  33.475  1.00  0.00     0.040 A 
ATOM     92  C   UNL A   1      46.178  27.500  35.021  1.00  0.00     0.040 A 
ATOM     93  F   UNL A   1      43.838  27.480  34.889  1.00  0.00    -0.206 F 
ATOM     94  C   UNL A   1      47.412  27.944  34.552  1.00  0.00     0.006 A 
ENDBRANCH  70  87
ENDBRANCH  44  45
ENDBRANCH  36  39
ENDBRANCH  34  35
ENDBRANCH  33  34
ENDBRANCH   1  33
TORSDOF 15
ENDMDL
