MODEL 1
REMARK VINA RESULT:     -12.6      0.000      0.000
REMARK SMILES Cc1cc2c(c(C)c1Br)C=C(C(=O)NCCCNC(=O)c1ccc(-c3c4nc(c(-c5c(F)cccc5F)c5ccc([nH]5)c(-c5c(F)cccc5F)c5nc(c(-c6c(F)cccc6F)c6ccc3[nH]6)C=C5)C=C4)cc1)[C@@H](C(F)(F)F)O2
REMARK SMILES IDX 16 1 15 2 14 3 12 4 13 5 11 7 1 8 2 9 3 10 8 11 4 12 6 13
REMARK SMILES IDX 9 14 5 15 80 16 7 17 10 18 75 19 76 20 77 21 78 22 79 23
REMARK SMILES IDX 17 24 18 25 19 26 20 28 21 29 22 30 74 31 23 32 73 33 24 34
REMARK SMILES IDX 25 35 26 36 67 37 27 38 72 39 66 40 68 41 28 42 71 43 65 44
REMARK SMILES IDX 64 45 29 47 55 48 38 49 54 50 39 51 42 52 53 53 69 54 40 55
REMARK SMILES IDX 41 56 52 58 70 59 43 60 30 61 31 62 36 63 32 64 33 65 35 66
REMARK SMILES IDX 37 67 34 68 56 69 57 70 62 71 58 72 59 73 61 74 63 75 60 76
REMARK SMILES IDX 44 77 45 78 50 79 46 80 47 81 49 82 51 83 48 84
REMARK H PARENT 14 6 18 27 68 46 42 57
REMARK Flexibility Score: inf
ROOT
ATOM      1  C   UNL A   1      37.766  19.697  24.800  1.00  0.00     0.042 C 
ENDROOT
BRANCH   1   2
ATOM      2  C   UNL A   1      36.450  20.432  25.003  1.00  0.00     0.118 C 
BRANCH   2   3
ATOM      3  N   UNL A   1      35.313  19.526  24.948  1.00  0.00    -0.352 N 
ATOM      4  C   UNL A   1      33.964  19.623  24.967  1.00  0.00     0.251 C 
ATOM      5  O   UNL A   1      33.360  18.547  24.904  1.00  0.00    -0.270 OA
ATOM      6  H   UNL A   1      35.604  18.588  24.879  1.00  0.00     0.163 HD
BRANCH   4   7
ATOM      7  C   UNL A   1      33.199  20.900  25.053  1.00  0.00     0.067 C 
ATOM      8  C   UNL A   1      30.117  26.566  24.263  1.00  0.00     0.046 C 
ATOM      9  C   UNL A   1      30.912  25.301  24.090  1.00  0.00    -0.033 A 
ATOM     10  C   UNL A   1      30.886  24.371  25.132  1.00  0.00     0.051 A 
ATOM     11  C   UNL A   1      31.698  25.025  22.949  1.00  0.00     0.024 A 
ATOM     12  C   UNL A   1      31.625  23.197  25.049  1.00  0.00     0.128 A 
ATOM     13  C   UNL A   1      32.441  23.820  22.844  1.00  0.00    -0.026 A 
ATOM     14  Br  UNL A   1      31.736  26.327  21.546  1.00  0.00    -0.050 Br
ATOM     15  C   UNL A   1      32.397  22.900  23.922  1.00  0.00     0.021 A 
ATOM     16  O   UNL A   1      31.501  22.360  26.120  1.00  0.00    -0.475 OA
ATOM     17  C   UNL A   1      33.278  23.485  21.631  1.00  0.00     0.046 C 
ATOM     18  C   UNL A   1      33.105  21.614  23.915  1.00  0.00     0.026 C 
ATOM     19  C   UNL A   1      32.578  21.414  26.314  1.00  0.00     0.314 C 
BRANCH  19  20
ATOM     20  C   UNL A   1      33.612  22.002  27.296  1.00  0.00     0.429 C 
ATOM     21  F   UNL A   1      34.338  22.973  26.686  1.00  0.00    -0.167 F 
ATOM     22  F   UNL A   1      33.034  22.580  28.376  1.00  0.00    -0.167 F 
ATOM     23  F   UNL A   1      34.478  21.078  27.763  1.00  0.00    -0.167 F 
ENDBRANCH  19  20
ENDBRANCH   4   7
ENDBRANCH   2   3
ENDBRANCH   1   2
BRANCH   1  24
ATOM     24  C   UNL A   1      38.846  20.195  25.749  1.00  0.00     0.118 C 
BRANCH  24  25
ATOM     25  N   UNL A   1      39.902  19.202  25.936  1.00  0.00    -0.352 N 
ATOM     26  C   UNL A   1      41.255  19.366  26.078  1.00  0.00     0.251 C 
ATOM     27  H   UNL A   1      39.592  18.267  25.963  1.00  0.00     0.163 HD
ATOM     28  O   UNL A   1      42.010  18.407  25.931  1.00  0.00    -0.269 OA
BRANCH  26  29
ATOM     29  C   UNL A   1      41.803  20.694  26.407  1.00  0.00     0.039 A 
ATOM     30  C   UNL A   1      42.150  21.570  25.376  1.00  0.00     0.014 A 
ATOM     31  C   UNL A   1      41.993  21.060  27.740  1.00  0.00     0.014 A 
ATOM     32  C   UNL A   1      42.631  22.841  25.692  1.00  0.00     0.010 A 
ATOM     33  C   UNL A   1      42.363  22.359  28.052  1.00  0.00     0.010 A 
ATOM     34  C   UNL A   1      42.708  23.254  27.032  1.00  0.00    -0.014 A 
BRANCH  34  35
ATOM     35  C   UNL A   1      43.183  24.607  27.398  1.00  0.00     0.031 A 
ATOM     36  C   UNL A   1      42.194  25.651  27.831  1.00  0.00     0.074 A 
ATOM     37  C   UNL A   1      44.488  24.908  27.279  1.00  0.00     0.049 A 
ATOM     38  N   UNL A   1      42.399  26.907  28.134  1.00  0.00    -0.248 NA
ATOM     39  C   UNL A   1      40.781  25.240  27.900  1.00  0.00     0.031 C 
ATOM     40  C   UNL A   1      45.530  23.986  26.823  1.00  0.00     0.029 A 
ATOM     41  N   UNL A   1      45.162  26.075  27.530  1.00  0.00    -0.354 N 
ATOM     42  C   UNL A   1      41.146  27.432  28.419  1.00  0.00     0.074 A 
ATOM     43  C   UNL A   1      40.178  26.386  28.178  1.00  0.00     0.031 C 
ATOM     44  C   UNL A   1      46.717  24.611  26.866  1.00  0.00     0.029 A 
ATOM     45  C   UNL A   1      46.514  25.987  27.312  1.00  0.00     0.049 A 
ATOM     46  H   UNL A   1      44.718  26.899  27.837  1.00  0.00     0.167 HD
ATOM     47  C   UNL A   1      40.832  28.667  28.874  1.00  0.00     0.037 A 
ATOM     48  C   UNL A   1      47.482  26.911  27.458  1.00  0.00     0.037 A 
ATOM     49  C   UNL A   1      41.804  29.695  29.131  1.00  0.00     0.049 A 
ATOM     50  C   UNL A   1      47.112  28.283  27.946  1.00  0.00     0.074 A 
ATOM     51  C   UNL A   1      41.602  30.962  29.645  1.00  0.00     0.029 A 
ATOM     52  N   UNL A   1      43.166  29.570  28.891  1.00  0.00    -0.354 N 
ATOM     53  N   UNL A   1      45.931  28.750  28.273  1.00  0.00    -0.248 NA
ATOM     54  C   UNL A   1      48.204  29.255  28.086  1.00  0.00     0.031 C 
ATOM     55  C   UNL A   1      42.833  31.624  29.666  1.00  0.00     0.029 A 
ATOM     56  C   UNL A   1      43.812  30.750  29.217  1.00  0.00     0.049 A 
ATOM     57  H   UNL A   1      43.605  28.763  28.540  1.00  0.00     0.167 HD
ATOM     58  C   UNL A   1      46.138  30.064  28.674  1.00  0.00     0.074 A 
ATOM     59  C   UNL A   1      47.561  30.312  28.565  1.00  0.00     0.031 C 
ATOM     60  C   UNL A   1      45.231  30.979  29.095  1.00  0.00     0.037 A 
BRANCH  47  61
ATOM     61  C   UNL A   1      39.382  28.963  29.129  1.00  0.00     0.057 A 
ATOM     62  C   UNL A   1      38.795  28.756  30.386  1.00  0.00     0.134 A 
ATOM     63  C   UNL A   1      38.565  29.476  28.113  1.00  0.00     0.134 A 
ATOM     64  F   UNL A   1      39.516  28.252  31.398  1.00  0.00    -0.206 F 
ATOM     65  C   UNL A   1      37.443  29.019  30.614  1.00  0.00     0.040 A 
ATOM     66  C   UNL A   1      37.219  29.774  28.339  1.00  0.00     0.040 A 
ATOM     67  F   UNL A   1      39.060  29.702  26.888  1.00  0.00    -0.206 F 
ATOM     68  C   UNL A   1      36.653  29.537  29.590  1.00  0.00     0.006 A 
ENDBRANCH  47  61
BRANCH  48  69
ATOM     69  C   UNL A   1      48.892  26.536  27.188  1.00  0.00     0.057 A 
ATOM     70  C   UNL A   1      49.697  25.999  28.198  1.00  0.00     0.134 A 
ATOM     71  C   UNL A   1      49.448  26.641  25.907  1.00  0.00     0.134 A 
ATOM     72  F   UNL A   1      49.224  25.885  29.448  1.00  0.00    -0.206 F 
ATOM     73  C   UNL A   1      51.004  25.578  27.946  1.00  0.00     0.040 A 
ATOM     74  C   UNL A   1      50.746  26.204  25.635  1.00  0.00     0.040 A 
ATOM     75  F   UNL A   1      48.724  27.137  24.892  1.00  0.00    -0.206 F 
ATOM     76  C   UNL A   1      51.527  25.670  26.659  1.00  0.00     0.006 A 
ENDBRANCH  48  69
BRANCH  60  77
ATOM     77  C   UNL A   1      45.743  32.338  29.475  1.00  0.00     0.057 A 
ATOM     78  C   UNL A   1      45.779  33.393  28.554  1.00  0.00     0.134 A 
ATOM     79  C   UNL A   1      46.121  32.616  30.795  1.00  0.00     0.134 A 
ATOM     80  F   UNL A   1      45.439  33.189  27.273  1.00  0.00    -0.206 F 
ATOM     81  C   UNL A   1      46.182  34.674  28.932  1.00  0.00     0.040 A 
ATOM     82  C   UNL A   1      46.497  33.899  31.191  1.00  0.00     0.040 A 
ATOM     83  F   UNL A   1      46.096  31.653  31.728  1.00  0.00    -0.206 F 
ATOM     84  C   UNL A   1      46.532  34.933  30.256  1.00  0.00     0.006 A 
ENDBRANCH  60  77
ENDBRANCH  34  35
ENDBRANCH  26  29
ENDBRANCH  24  25
ENDBRANCH   1  24
TORSDOF 11
ENDMDL
MODEL 2
REMARK VINA RESULT:     -12.6      1.330      6.431
REMARK SMILES Cc1cc2c(c(C)c1Br)C=C(C(=O)NCCCNC(=O)c1ccc(-c3c4nc(c(-c5c(F)cccc5F)c5ccc([nH]5)c(-c5c(F)cccc5F)c5nc(c(-c6c(F)cccc6F)c6ccc3[nH]6)C=C5)C=C4)cc1)[C@@H](C(F)(F)F)O2
REMARK SMILES IDX 16 1 15 2 14 3 12 4 13 5 11 7 1 8 2 9 3 10 8 11 4 12 6 13
REMARK SMILES IDX 9 14 5 15 80 16 7 17 10 18 75 19 76 20 77 21 78 22 79 23
REMARK SMILES IDX 17 24 18 25 19 26 20 28 21 29 22 30 74 31 23 32 73 33 24 34
REMARK SMILES IDX 25 35 26 36 67 37 27 38 72 39 66 40 68 41 28 42 71 43 65 44
REMARK SMILES IDX 64 45 29 47 55 48 38 49 54 50 39 51 42 52 53 53 69 54 40 55
REMARK SMILES IDX 41 56 52 58 70 59 43 60 30 61 31 62 36 63 32 64 33 65 35 66
REMARK SMILES IDX 37 67 34 68 56 69 57 70 62 71 58 72 59 73 61 74 63 75 60 76
REMARK SMILES IDX 44 77 45 78 50 79 46 80 47 81 49 82 51 83 48 84
REMARK H PARENT 14 6 18 27 68 46 42 57
REMARK Flexibility Score: inf
ROOT
ATOM      1  C   UNL A   1      37.643  19.536  24.890  1.00  0.00     0.042 C 
ENDROOT
BRANCH   1   2
ATOM      2  C   UNL A   1      36.354  20.331  25.028  1.00  0.00     0.118 C 
BRANCH   2   3
ATOM      3  N   UNL A   1      35.182  19.472  24.970  1.00  0.00    -0.352 N 
ATOM      4  C   UNL A   1      33.838  19.623  24.988  1.00  0.00     0.251 C 
ATOM      5  O   UNL A   1      33.192  18.572  24.922  1.00  0.00    -0.270 OA
ATOM      6  H   UNL A   1      35.436  18.523  24.899  1.00  0.00     0.163 HD
BRANCH   4   7
ATOM      7  C   UNL A   1      33.125  20.929  25.077  1.00  0.00     0.067 C 
ATOM      8  C   UNL A   1      30.241  26.700  24.293  1.00  0.00     0.046 C 
ATOM      9  C   UNL A   1      30.983  25.403  24.116  1.00  0.00    -0.033 A 
ATOM     10  C   UNL A   1      30.948  24.486  25.169  1.00  0.00     0.051 A 
ATOM     11  C   UNL A   1      31.730  25.084  22.960  1.00  0.00     0.024 A 
ATOM     12  C   UNL A   1      31.639  23.285  25.083  1.00  0.00     0.128 A 
ATOM     13  C   UNL A   1      32.424  23.850  22.852  1.00  0.00    -0.026 A 
ATOM     14  Br  UNL A   1      31.783  26.368  21.540  1.00  0.00    -0.050 Br
ATOM     15  C   UNL A   1      32.371  22.945  23.941  1.00  0.00     0.021 A 
ATOM     16  O   UNL A   1      31.510  22.465  26.167  1.00  0.00    -0.475 OA
ATOM     17  C   UNL A   1      33.217  23.470  21.623  1.00  0.00     0.046 C 
ATOM     18  C   UNL A   1      33.029  21.633  23.934  1.00  0.00     0.026 C 
ATOM     19  C   UNL A   1      32.555  21.481  26.347  1.00  0.00     0.314 C 
BRANCH  19  20
ATOM     20  C   UNL A   1      33.634  22.040  27.296  1.00  0.00     0.429 C 
ATOM     21  F   UNL A   1      33.054  22.593  28.391  1.00  0.00    -0.167 F 
ATOM     22  F   UNL A   1      34.473  21.080  27.753  1.00  0.00    -0.167 F 
ATOM     23  F   UNL A   1      34.402  22.988  26.718  1.00  0.00    -0.167 F 
ENDBRANCH  19  20
ENDBRANCH   4   7
ENDBRANCH   2   3
ENDBRANCH   1   2
BRANCH   1  24
ATOM     24  C   UNL A   1      38.809  20.219  25.591  1.00  0.00     0.118 C 
BRANCH  24  25
ATOM     25  N   UNL A   1      39.930  19.303  25.793  1.00  0.00    -0.352 N 
ATOM     26  C   UNL A   1      41.241  19.564  26.092  1.00  0.00     0.251 C 
ATOM     27  H   UNL A   1      39.707  18.349  25.698  1.00  0.00     0.163 HD
ATOM     28  O   UNL A   1      42.093  18.691  25.935  1.00  0.00    -0.269 OA
BRANCH  26  29
ATOM     29  C   UNL A   1      41.628  20.891  26.602  1.00  0.00     0.039 A 
ATOM     30  C   UNL A   1      42.097  21.861  25.713  1.00  0.00     0.014 A 
ATOM     31  C   UNL A   1      41.547  21.166  27.968  1.00  0.00     0.014 A 
ATOM     32  C   UNL A   1      42.424  23.128  26.193  1.00  0.00     0.010 A 
ATOM     33  C   UNL A   1      41.765  22.455  28.426  1.00  0.00     0.010 A 
ATOM     34  C   UNL A   1      42.227  23.443  27.548  1.00  0.00    -0.014 A 
BRANCH  34  35
ATOM     35  C   UNL A   1      42.534  24.788  28.083  1.00  0.00     0.031 A 
ATOM     36  C   UNL A   1      43.942  25.127  28.483  1.00  0.00     0.074 A 
ATOM     37  C   UNL A   1      41.538  25.674  28.265  1.00  0.00     0.049 A 
ATOM     38  N   UNL A   1      44.404  26.223  29.027  1.00  0.00    -0.248 NA
ATOM     39  C   UNL A   1      44.960  24.083  28.279  1.00  0.00     0.031 C 
ATOM     40  C   UNL A   1      40.127  25.435  27.956  1.00  0.00     0.029 A 
ATOM     41  N   UNL A   1      41.560  26.953  28.757  1.00  0.00    -0.354 N 
ATOM     42  C   UNL A   1      45.758  25.995  29.234  1.00  0.00     0.074 A 
ATOM     43  C   UNL A   1      46.028  24.633  28.833  1.00  0.00     0.031 C 
ATOM     44  C   UNL A   1      39.426  26.546  28.226  1.00  0.00     0.029 A 
ATOM     45  C   UNL A   1      40.329  27.559  28.766  1.00  0.00     0.049 A 
ATOM     46  H   UNL A   1      42.381  27.395  29.074  1.00  0.00     0.167 HD
ATOM     47  C   UNL A   1      46.699  26.856  29.687  1.00  0.00     0.037 A 
ATOM     48  C   UNL A   1      39.969  28.794  29.163  1.00  0.00     0.037 A 
ATOM     49  C   UNL A   1      46.422  28.216  30.063  1.00  0.00     0.049 A 
ATOM     50  C   UNL A   1      41.025  29.729  29.681  1.00  0.00     0.074 A 
ATOM     51  C   UNL A   1      47.309  29.190  30.482  1.00  0.00     0.029 A 
ATOM     52  N   UNL A   1      45.159  28.792  30.065  1.00  0.00    -0.354 N 
ATOM     53  N   UNL A   1      42.313  29.525  29.814  1.00  0.00    -0.248 NA
ATOM     54  C   UNL A   1      40.580  31.064  30.103  1.00  0.00     0.031 C 
ATOM     55  C   UNL A   1      46.577  30.341  30.790  1.00  0.00     0.029 A 
ATOM     56  C   UNL A   1      45.240  30.102  30.509  1.00  0.00     0.049 A 
ATOM     57  H   UNL A   1      44.331  28.338  29.793  1.00  0.00     0.167 HD
ATOM     58  C   UNL A   1      42.838  30.708  30.318  1.00  0.00     0.074 A 
ATOM     59  C   UNL A   1      41.728  31.631  30.450  1.00  0.00     0.031 C 
ATOM     60  C   UNL A   1      44.121  31.003  30.640  1.00  0.00     0.037 A 
BRANCH  47  61
ATOM     61  C   UNL A   1      48.109  26.349  29.788  1.00  0.00     0.057 A 
ATOM     62  C   UNL A   1      49.011  26.458  28.719  1.00  0.00     0.134 A 
ATOM     63  C   UNL A   1      48.577  25.762  30.969  1.00  0.00     0.134 A 
ATOM     64  F   UNL A   1      48.623  26.996  27.554  1.00  0.00    -0.206 F 
ATOM     65  C   UNL A   1      50.316  25.973  28.813  1.00  0.00     0.040 A 
ATOM     66  C   UNL A   1      49.891  25.302  31.085  1.00  0.00     0.040 A 
ATOM     67  F   UNL A   1      47.770  25.629  32.032  1.00  0.00    -0.206 F 
ATOM     68  C   UNL A   1      50.762  25.400  30.002  1.00  0.00     0.006 A 
ENDBRANCH  47  61
BRANCH  48  69
ATOM     69  C   UNL A   1      38.554  29.218  29.028  1.00  0.00     0.057 A 
ATOM     70  C   UNL A   1      38.053  29.659  27.798  1.00  0.00     0.134 A 
ATOM     71  C   UNL A   1      37.654  29.131  30.097  1.00  0.00     0.134 A 
ATOM     72  F   UNL A   1      38.868  29.775  26.740  1.00  0.00    -0.206 F 
ATOM     73  C   UNL A   1      36.708  29.998  27.635  1.00  0.00     0.040 A 
ATOM     74  C   UNL A   1      36.302  29.444  29.943  1.00  0.00     0.040 A 
ATOM     75  F   UNL A   1      38.070  28.704  31.299  1.00  0.00    -0.206 F 
ATOM     76  C   UNL A   1      35.827  29.879  28.708  1.00  0.00     0.006 A 
ENDBRANCH  48  69
BRANCH  60  77
ATOM     77  C   UNL A   1      44.405  32.380  31.166  1.00  0.00     0.057 A 
ATOM     78  C   UNL A   1      44.429  32.651  32.540  1.00  0.00     0.134 A 
ATOM     79  C   UNL A   1      44.744  33.422  30.293  1.00  0.00     0.134 A 
ATOM     80  F   UNL A   1      44.106  31.698  33.426  1.00  0.00    -0.206 F 
ATOM     81  C   UNL A   1      44.770  33.913  33.026  1.00  0.00     0.040 A 
ATOM     82  C   UNL A   1      45.115  34.679  30.769  1.00  0.00     0.040 A 
ATOM     83  F   UNL A   1      44.753  33.224  28.966  1.00  0.00    -0.206 F 
ATOM     84  C   UNL A   1      45.126  34.929  32.140  1.00  0.00     0.006 A 
ENDBRANCH  60  77
ENDBRANCH  34  35
ENDBRANCH  26  29
ENDBRANCH  24  25
ENDBRANCH   1  24
TORSDOF 11
ENDMDL
MODEL 3
REMARK VINA RESULT:     -12.4      3.123      7.399
REMARK SMILES Cc1cc2c(c(C)c1Br)C=C(C(=O)NCCCNC(=O)c1ccc(-c3c4nc(c(-c5c(F)cccc5F)c5ccc([nH]5)c(-c5c(F)cccc5F)c5nc(c(-c6c(F)cccc6F)c6ccc3[nH]6)C=C5)C=C4)cc1)[C@@H](C(F)(F)F)O2
REMARK SMILES IDX 16 1 15 2 14 3 12 4 13 5 11 7 1 8 2 9 3 10 8 11 4 12 6 13
REMARK SMILES IDX 9 14 5 15 80 16 7 17 10 18 75 19 76 20 77 21 78 22 79 23
REMARK SMILES IDX 17 24 18 25 19 26 20 28 21 29 22 30 74 31 23 32 73 33 24 34
REMARK SMILES IDX 25 35 26 36 67 37 27 38 72 39 66 40 68 41 28 42 71 43 65 44
REMARK SMILES IDX 64 45 29 47 55 48 38 49 54 50 39 51 42 52 53 53 69 54 40 55
REMARK SMILES IDX 41 56 52 58 70 59 43 60 30 61 31 62 36 63 32 64 33 65 35 66
REMARK SMILES IDX 37 67 34 68 56 69 57 70 62 71 58 72 59 73 61 74 63 75 60 76
REMARK SMILES IDX 44 77 45 78 50 79 46 80 47 81 49 82 51 83 48 84
REMARK H PARENT 14 6 18 27 68 46 42 57
REMARK Flexibility Score: inf
ROOT
ATOM      1  C   UNL A   1      33.909  28.598  25.396  1.00  0.00     0.042 C 
ENDROOT
BRANCH   1   2
ATOM      2  C   UNL A   1      33.306  27.329  24.814  1.00  0.00     0.118 C 
BRANCH   2   3
ATOM      3  N   UNL A   1      32.258  26.790  25.665  1.00  0.00    -0.352 N 
ATOM      4  C   UNL A   1      31.862  25.574  26.105  1.00  0.00     0.251 C 
ATOM      5  O   UNL A   1      30.869  25.579  26.840  1.00  0.00    -0.270 OA
ATOM      6  H   UNL A   1      31.678  27.504  26.017  1.00  0.00     0.163 HD
BRANCH   4   7
ATOM      7  C   UNL A   1      32.529  24.284  25.768  1.00  0.00     0.067 C 
ATOM      8  C   UNL A   1      36.416  19.173  24.763  1.00  0.00     0.046 C 
ATOM      9  C   UNL A   1      35.825  20.508  25.125  1.00  0.00    -0.033 A 
ATOM     10  C   UNL A   1      34.435  20.637  25.078  1.00  0.00     0.051 A 
ATOM     11  C   UNL A   1      36.603  21.634  25.480  1.00  0.00     0.024 A 
ATOM     12  C   UNL A   1      33.829  21.853  25.369  1.00  0.00     0.128 A 
ATOM     13  C   UNL A   1      35.993  22.875  25.799  1.00  0.00    -0.026 A 
ATOM     14  Br  UNL A   1      38.507  21.437  25.513  1.00  0.00    -0.050 Br
ATOM     15  C   UNL A   1      34.580  22.973  25.736  1.00  0.00     0.021 A 
ATOM     16  O   UNL A   1      32.465  21.847  25.308  1.00  0.00    -0.475 OA
ATOM     17  C   UNL A   1      36.793  24.094  26.199  1.00  0.00     0.046 C 
ATOM     18  C   UNL A   1      33.840  24.197  26.065  1.00  0.00     0.026 C 
ATOM     19  C   UNL A   1      31.832  23.133  25.111  1.00  0.00     0.314 C 
BRANCH  19  20
ATOM     20  C   UNL A   1      31.582  23.362  23.607  1.00  0.00     0.429 C 
ATOM     21  F   UNL A   1      31.597  22.178  22.944  1.00  0.00    -0.167 F 
ATOM     22  F   UNL A   1      30.375  23.923  23.359  1.00  0.00    -0.167 F 
ATOM     23  F   UNL A   1      32.509  24.160  23.036  1.00  0.00    -0.167 F 
ENDBRANCH  19  20
ENDBRANCH   4   7
ENDBRANCH   2   3
ENDBRANCH   1   2
BRANCH   1  24
ATOM     24  C   UNL A   1      33.925  28.571  26.918  1.00  0.00     0.118 C 
BRANCH  24  25
ATOM     25  N   UNL A   1      33.848  29.916  27.484  1.00  0.00    -0.352 N 
ATOM     26  C   UNL A   1      34.718  30.580  28.308  1.00  0.00     0.251 C 
ATOM     27  H   UNL A   1      33.043  30.425  27.234  1.00  0.00     0.163 HD
ATOM     28  O   UNL A   1      34.348  31.584  28.913  1.00  0.00    -0.269 OA
BRANCH  26  29
ATOM     29  C   UNL A   1      36.098  30.087  28.468  1.00  0.00     0.039 A 
ATOM     30  C   UNL A   1      36.995  30.189  27.402  1.00  0.00     0.014 A 
ATOM     31  C   UNL A   1      36.495  29.503  29.672  1.00  0.00     0.014 A 
ATOM     32  C   UNL A   1      38.310  29.759  27.571  1.00  0.00     0.010 A 
ATOM     33  C   UNL A   1      37.827  29.180  29.875  1.00  0.00     0.010 A 
ATOM     34  C   UNL A   1      38.743  29.283  28.820  1.00  0.00    -0.014 A 
BRANCH  34  35
ATOM     35  C   UNL A   1      40.140  28.849  29.041  1.00  0.00     0.031 A 
ATOM     36  C   UNL A   1      41.113  29.781  29.705  1.00  0.00     0.074 A 
ATOM     37  C   UNL A   1      40.543  27.648  28.588  1.00  0.00     0.049 A 
ATOM     38  N   UNL A   1      42.390  29.615  29.935  1.00  0.00    -0.248 NA
ATOM     39  C   UNL A   1      40.591  31.089  30.138  1.00  0.00     0.031 C 
ATOM     40  C   UNL A   1      39.696  26.682  27.886  1.00  0.00     0.029 A 
ATOM     41  N   UNL A   1      41.768  27.036  28.648  1.00  0.00    -0.354 N 
ATOM     42  C   UNL A   1      42.819  30.794  30.528  1.00  0.00     0.074 A 
ATOM     43  C   UNL A   1      41.690  31.697  30.552  1.00  0.00     0.031 C 
ATOM     44  C   UNL A   1      40.416  25.582  27.619  1.00  0.00     0.029 A 
ATOM     45  C   UNL A   1      41.784  25.782  28.090  1.00  0.00     0.049 A 
ATOM     46  H   UNL A   1      42.562  27.456  29.052  1.00  0.00     0.167 HD
ATOM     47  C   UNL A   1      44.038  31.087  31.039  1.00  0.00     0.037 A 
ATOM     48  C   UNL A   1      42.787  24.893  27.975  1.00  0.00     0.037 A 
ATOM     49  C   UNL A   1      45.149  30.174  31.028  1.00  0.00     0.049 A 
ATOM     50  C   UNL A   1      44.139  25.244  28.530  1.00  0.00     0.074 A 
ATOM     51  C   UNL A   1      46.410  30.347  31.567  1.00  0.00     0.029 A 
ATOM     52  N   UNL A   1      45.128  28.913  30.447  1.00  0.00    -0.354 N 
ATOM     53  N   UNL A   1      44.518  26.338  29.146  1.00  0.00    -0.248 NA
ATOM     54  C   UNL A   1      45.200  24.240  28.378  1.00  0.00     0.031 C 
ATOM     55  C   UNL A   1      47.170  29.213  31.265  1.00  0.00     0.029 A 
ATOM     56  C   UNL A   1      46.366  28.309  30.587  1.00  0.00     0.049 A 
ATOM     57  H   UNL A   1      44.349  28.510  30.002  1.00  0.00     0.167 HD
ATOM     58  C   UNL A   1      45.856  26.150  29.470  1.00  0.00     0.074 A 
ATOM     59  C   UNL A   1      46.215  24.828  28.997  1.00  0.00     0.031 C 
ATOM     60  C   UNL A   1      46.706  26.994  30.102  1.00  0.00     0.037 A 
BRANCH  47  61
ATOM     61  C   UNL A   1      44.222  32.444  31.655  1.00  0.00     0.057 A 
ATOM     62  C   UNL A   1      44.662  33.544  30.903  1.00  0.00     0.134 A 
ATOM     63  C   UNL A   1      43.940  32.662  33.010  1.00  0.00     0.134 A 
ATOM     64  F   UNL A   1      44.965  33.401  29.604  1.00  0.00    -0.206 F 
ATOM     65  C   UNL A   1      44.845  34.800  31.483  1.00  0.00     0.040 A 
ATOM     66  C   UNL A   1      44.088  33.921  33.593  1.00  0.00     0.040 A 
ATOM     67  F   UNL A   1      43.512  31.657  33.787  1.00  0.00    -0.206 F 
ATOM     68  C   UNL A   1      44.550  34.993  32.831  1.00  0.00     0.006 A 
ENDBRANCH  47  61
BRANCH  48  69
ATOM     69  C   UNL A   1      42.521  23.572  27.354  1.00  0.00     0.057 A 
ATOM     70  C   UNL A   1      42.700  23.377  25.981  1.00  0.00     0.134 A 
ATOM     71  C   UNL A   1      42.149  22.461  28.121  1.00  0.00     0.134 A 
ATOM     72  F   UNL A   1      43.044  24.406  25.192  1.00  0.00    -0.206 F 
ATOM     73  C   UNL A   1      42.520  22.125  25.390  1.00  0.00     0.040 A 
ATOM     74  C   UNL A   1      41.988  21.198  27.548  1.00  0.00     0.040 A 
ATOM     75  F   UNL A   1      41.974  22.580  29.446  1.00  0.00    -0.206 F 
ATOM     76  C   UNL A   1      42.174  21.028  26.177  1.00  0.00     0.006 A 
ENDBRANCH  48  69
BRANCH  60  77
ATOM     77  C   UNL A   1      48.113  26.522  30.327  1.00  0.00     0.057 A 
ATOM     78  C   UNL A   1      48.476  25.819  31.483  1.00  0.00     0.134 A 
ATOM     79  C   UNL A   1      49.092  26.696  29.340  1.00  0.00     0.134 A 
ATOM     80  F   UNL A   1      47.587  25.627  32.468  1.00  0.00    -0.206 F 
ATOM     81  C   UNL A   1      49.766  25.314  31.652  1.00  0.00     0.040 A 
ATOM     82  C   UNL A   1      50.376  26.171  29.485  1.00  0.00     0.040 A 
ATOM     83  F   UNL A   1      48.805  27.350  28.204  1.00  0.00    -0.206 F 
ATOM     84  C   UNL A   1      50.717  25.480  30.646  1.00  0.00     0.006 A 
ENDBRANCH  60  77
ENDBRANCH  34  35
ENDBRANCH  26  29
ENDBRANCH  24  25
ENDBRANCH   1  24
TORSDOF 11
ENDMDL
