MODEL 1
REMARK VINA RESULT:     -11.0      0.000      0.000
REMARK SMILES C[C@H]1CCCN1c1cccc(OCC(=O)NCCCNC(=O)c2ccc(-c3c4nc(c(-c5c(F)cccc5F)c5ccc([nH]5)c(-c5c(F)cccc5F)c5nc(c(-c6c(F)cccc6F)c6ccc3[nH]6)C=C5)C=C4)cc2)c1
REMARK SMILES IDX 17 1 16 2 14 3 15 4 13 6 12 7 11 8 7 9 8 10 77 11 9 12 10 13
REMARK SMILES IDX 6 14 1 15 2 16 3 17 4 18 5 19 18 20 19 21 20 22 21 23 22 25
REMARK SMILES IDX 23 26 24 27 76 28 25 29 75 30 26 31 27 32 28 33 69 34 29 35
REMARK SMILES IDX 74 36 68 37 70 38 30 39 73 40 67 41 66 42 31 44 57 45 40 46
REMARK SMILES IDX 56 47 41 48 44 49 55 50 71 51 42 52 43 53 54 55 72 56 45 57
REMARK SMILES IDX 32 58 33 59 38 60 34 61 35 62 37 63 39 64 36 65 58 66 59 67
REMARK SMILES IDX 64 68 60 69 61 70 63 71 65 72 62 73 46 74 47 75 52 76 48 77
REMARK SMILES IDX 49 78 51 79 53 80 50 81
REMARK H PARENT 16 5 20 24 70 43 44 54
REMARK Flexibility Score: inf
ROOT
ATOM      1  C   UNL A   1      33.213  29.245  24.963  1.00  0.00     0.117 C 
ENDROOT
BRANCH   1   2
ATOM      2  N   UNL A   1      33.831  29.163  23.653  1.00  0.00    -0.353 N 
ATOM      3  C   UNL A   1      33.629  28.231  22.675  1.00  0.00     0.257 C 
ATOM      4  O   UNL A   1      34.225  28.359  21.604  1.00  0.00    -0.271 OA
ATOM      5  H   UNL A   1      34.481  29.872  23.441  1.00  0.00     0.163 HD
BRANCH   3   6
ATOM      6  C   UNL A   1      32.640  27.087  22.915  1.00  0.00     0.329 C 
BRANCH   6   7
ATOM      7  O   UNL A   1      33.176  25.779  22.793  1.00  0.00    -0.484 OA
BRANCH   7   8
ATOM      8  C   UNL A   1      33.459  25.091  23.942  1.00  0.00     0.122 A 
ATOM      9  C   UNL A   1      34.718  23.544  25.357  1.00  0.00     0.041 A 
ATOM     10  C   UNL A   1      33.800  23.788  26.384  1.00  0.00     0.026 A 
ATOM     11  C   UNL A   1      34.525  24.206  24.135  1.00  0.00     0.072 A 
ATOM     12  C   UNL A   1      32.742  24.683  26.214  1.00  0.00     0.006 A 
ATOM     13  C   UNL A   1      32.575  25.331  24.993  1.00  0.00     0.046 A 
BRANCH   9  14
ATOM     14  N   UNL A   1      35.756  22.662  25.552  1.00  0.00    -0.369 N 
ATOM     15  C   UNL A   1      37.877  23.831  25.944  1.00  0.00     0.031 C 
ATOM     16  C   UNL A   1      37.117  22.862  25.046  1.00  0.00     0.079 C 
ATOM     17  C   UNL A   1      37.737  21.457  25.092  1.00  0.00     0.026 C 
ATOM     18  C   UNL A   1      36.539  20.524  25.020  1.00  0.00     0.023 C 
ATOM     19  C   UNL A   1      35.469  21.258  25.822  1.00  0.00     0.117 C 
ENDBRANCH   9  14
ENDBRANCH   7   8
ENDBRANCH   6   7
ENDBRANCH   3   6
ENDBRANCH   1   2
BRANCH   1  20
ATOM     20  C   UNL A   1      33.985  28.477  26.029  1.00  0.00     0.042 C 
BRANCH  20  21
ATOM     21  C   UNL A   1      33.552  28.776  27.462  1.00  0.00     0.118 C 
BRANCH  21  22
ATOM     22  N   UNL A   1      33.682  30.185  27.817  1.00  0.00    -0.352 N 
ATOM     23  C   UNL A   1      34.732  30.874  28.371  1.00  0.00     0.251 C 
ATOM     24  H   UNL A   1      32.885  30.732  27.628  1.00  0.00     0.163 HD
ATOM     25  O   UNL A   1      34.572  32.036  28.738  1.00  0.00    -0.269 OA
BRANCH  23  26
ATOM     26  C   UNL A   1      36.046  30.223  28.559  1.00  0.00     0.039 A 
ATOM     27  C   UNL A   1      36.960  30.234  27.501  1.00  0.00     0.014 A 
ATOM     28  C   UNL A   1      36.379  29.602  29.765  1.00  0.00     0.014 A 
ATOM     29  C   UNL A   1      38.241  29.708  27.685  1.00  0.00     0.010 A 
ATOM     30  C   UNL A   1      37.677  29.142  29.970  1.00  0.00     0.010 A 
ATOM     31  C   UNL A   1      38.627  29.208  28.940  1.00  0.00    -0.014 A 
BRANCH  31  32
ATOM     32  C   UNL A   1      40.030  28.803  29.215  1.00  0.00     0.031 A 
ATOM     33  C   UNL A   1      41.007  29.781  29.801  1.00  0.00     0.074 A 
ATOM     34  C   UNL A   1      40.447  27.576  28.841  1.00  0.00     0.049 A 
ATOM     35  N   UNL A   1      42.295  29.648  29.993  1.00  0.00    -0.248 NA
ATOM     36  C   UNL A   1      40.470  31.089  30.206  1.00  0.00     0.031 C 
ATOM     37  C   UNL A   1      39.605  26.547  28.228  1.00  0.00     0.029 A 
ATOM     38  N   UNL A   1      41.689  26.993  28.902  1.00  0.00    -0.354 N 
ATOM     39  C   UNL A   1      42.725  30.857  30.525  1.00  0.00     0.074 A 
ATOM     40  C   UNL A   1      41.568  31.725  30.586  1.00  0.00     0.031 C 
ATOM     41  C   UNL A   1      40.351  25.460  27.975  1.00  0.00     0.029 A 
ATOM     42  C   UNL A   1      41.731  25.731  28.361  1.00  0.00     0.049 A 
ATOM     43  H   UNL A   1      42.474  27.439  29.296  1.00  0.00     0.167 HD
ATOM     44  C   UNL A   1      43.968  31.204  30.937  1.00  0.00     0.037 A 
ATOM     45  C   UNL A   1      42.769  24.894  28.170  1.00  0.00     0.037 A 
ATOM     46  C   UNL A   1      45.113  30.332  30.884  1.00  0.00     0.049 A 
ATOM     47  C   UNL A   1      44.146  25.320  28.600  1.00  0.00     0.074 A 
ATOM     48  C   UNL A   1      46.399  30.572  31.338  1.00  0.00     0.029 A 
ATOM     49  N   UNL A   1      45.114  29.058  30.335  1.00  0.00    -0.354 N 
ATOM     50  N   UNL A   1      44.525  26.438  29.168  1.00  0.00    -0.248 NA
ATOM     51  C   UNL A   1      45.240  24.368  28.362  1.00  0.00     0.031 C 
ATOM     52  C   UNL A   1      47.192  29.468  31.009  1.00  0.00     0.029 A 
ATOM     53  C   UNL A   1      46.388  28.515  30.405  1.00  0.00     0.049 A 
ATOM     54  H   UNL A   1      44.328  28.607  29.952  1.00  0.00     0.167 HD
ATOM     55  C   UNL A   1      45.894  26.317  29.376  1.00  0.00     0.074 A 
ATOM     56  C   UNL A   1      46.274  25.007  28.890  1.00  0.00     0.031 C 
ATOM     57  C   UNL A   1      46.756  27.209  29.918  1.00  0.00     0.037 A 
BRANCH  44  58
ATOM     58  C   UNL A   1      44.161  32.592  31.475  1.00  0.00     0.057 A 
ATOM     59  C   UNL A   1      44.026  32.884  32.839  1.00  0.00     0.134 A 
ATOM     60  C   UNL A   1      44.535  33.642  30.626  1.00  0.00     0.134 A 
ATOM     61  F   UNL A   1      43.663  31.927  33.707  1.00  0.00    -0.206 F 
ATOM     62  C   UNL A   1      44.233  34.173  33.334  1.00  0.00     0.040 A 
ATOM     63  C   UNL A   1      44.771  34.928  31.114  1.00  0.00     0.040 A 
ATOM     64  F   UNL A   1      44.690  33.432  29.310  1.00  0.00    -0.206 F 
ATOM     65  C   UNL A   1      44.614  35.199  32.471  1.00  0.00     0.006 A 
ENDBRANCH  44  58
BRANCH  45  66
ATOM     66  C   UNL A   1      42.551  23.570  27.534  1.00  0.00     0.057 A 
ATOM     67  C   UNL A   1      42.524  23.432  26.141  1.00  0.00     0.134 A 
ATOM     68  C   UNL A   1      42.349  22.414  28.299  1.00  0.00     0.134 A 
ATOM     69  F   UNL A   1      42.690  24.506  25.354  1.00  0.00    -0.206 F 
ATOM     70  C   UNL A   1      42.285  22.200  25.532  1.00  0.00     0.040 A 
ATOM     71  C   UNL A   1      42.138  21.170  27.703  1.00  0.00     0.040 A 
ATOM     72  F   UNL A   1      42.368  22.476  29.638  1.00  0.00    -0.206 F 
ATOM     73  C   UNL A   1      42.096  21.063  26.315  1.00  0.00     0.006 A 
ENDBRANCH  45  66
BRANCH  57  74
ATOM     74  C   UNL A   1      48.193  26.794  30.041  1.00  0.00     0.057 A 
ATOM     75  C   UNL A   1      48.677  26.125  31.172  1.00  0.00     0.134 A 
ATOM     76  C   UNL A   1      49.094  27.024  28.992  1.00  0.00     0.134 A 
ATOM     77  F   UNL A   1      47.870  25.888  32.218  1.00  0.00    -0.206 F 
ATOM     78  C   UNL A   1      50.008  25.716  31.265  1.00  0.00     0.040 A 
ATOM     79  C   UNL A   1      50.420  26.594  29.060  1.00  0.00     0.040 A 
ATOM     80  F   UNL A   1      48.695  27.652  27.875  1.00  0.00    -0.206 F 
ATOM     81  C   UNL A   1      50.881  25.942  30.202  1.00  0.00     0.006 A 
ENDBRANCH  57  74
ENDBRANCH  31  32
ENDBRANCH  23  26
ENDBRANCH  21  22
ENDBRANCH  20  21
ENDBRANCH   1  20
TORSDOF 13
ENDMDL
MODEL 2
REMARK VINA RESULT:     -10.8      3.580      6.614
REMARK SMILES C[C@H]1CCCN1c1cccc(OCC(=O)NCCCNC(=O)c2ccc(-c3c4nc(c(-c5c(F)cccc5F)c5ccc([nH]5)c(-c5c(F)cccc5F)c5nc(c(-c6c(F)cccc6F)c6ccc3[nH]6)C=C5)C=C4)cc2)c1
REMARK SMILES IDX 17 1 16 2 14 3 15 4 13 6 12 7 11 8 7 9 8 10 77 11 9 12 10 13
REMARK SMILES IDX 6 14 1 15 2 16 3 17 4 18 5 19 18 20 19 21 20 22 21 23 22 25
REMARK SMILES IDX 23 26 24 27 76 28 25 29 75 30 26 31 27 32 28 33 69 34 29 35
REMARK SMILES IDX 74 36 68 37 70 38 30 39 73 40 67 41 66 42 31 44 57 45 40 46
REMARK SMILES IDX 56 47 41 48 44 49 55 50 71 51 42 52 43 53 54 55 72 56 45 57
REMARK SMILES IDX 32 58 33 59 38 60 34 61 35 62 37 63 39 64 36 65 58 66 59 67
REMARK SMILES IDX 64 68 60 69 61 70 63 71 65 72 62 73 46 74 47 75 52 76 48 77
REMARK SMILES IDX 49 78 51 79 53 80 50 81
REMARK H PARENT 16 5 20 24 70 43 44 54
REMARK Flexibility Score: inf
ROOT
ATOM      1  C   UNL A   1      33.498  35.023  29.302  1.00  0.00     0.117 C 
ENDROOT
BRANCH   1   2
ATOM      2  N   UNL A   1      33.338  36.350  29.867  1.00  0.00    -0.353 N 
ATOM      3  C   UNL A   1      33.002  36.693  31.146  1.00  0.00     0.257 C 
ATOM      4  O   UNL A   1      32.957  37.888  31.444  1.00  0.00    -0.271 OA
ATOM      5  H   UNL A   1      33.491  37.100  29.248  1.00  0.00     0.163 HD
BRANCH   3   6
ATOM      6  C   UNL A   1      32.740  35.594  32.179  1.00  0.00     0.329 C 
BRANCH   6   7
ATOM      7  O   UNL A   1      33.770  35.395  33.135  1.00  0.00    -0.484 OA
BRANCH   7   8
ATOM      8  C   UNL A   1      34.793  34.546  32.809  1.00  0.00     0.122 A 
ATOM      9  C   UNL A   1      37.087  33.954  32.205  1.00  0.00     0.041 A 
ATOM     10  C   UNL A   1      36.690  32.615  32.138  1.00  0.00     0.026 A 
ATOM     11  C   UNL A   1      36.116  34.910  32.540  1.00  0.00     0.072 A 
ATOM     12  C   UNL A   1      35.377  32.233  32.421  1.00  0.00     0.006 A 
ATOM     13  C   UNL A   1      34.433  33.200  32.755  1.00  0.00     0.046 A 
BRANCH   9  14
ATOM     14  N   UNL A   1      38.389  34.304  31.927  1.00  0.00    -0.369 N 
ATOM     15  C   UNL A   1      38.742  34.647  29.523  1.00  0.00     0.031 C 
ATOM     16  C   UNL A   1      39.137  33.840  30.755  1.00  0.00     0.079 C 
ATOM     17  C   UNL A   1      40.605  34.087  31.134  1.00  0.00     0.026 C 
ATOM     18  C   UNL A   1      40.600  34.075  32.654  1.00  0.00     0.023 C 
ATOM     19  C   UNL A   1      39.268  34.731  33.009  1.00  0.00     0.117 C 
ENDBRANCH   9  14
ENDBRANCH   7   8
ENDBRANCH   6   7
ENDBRANCH   3   6
ENDBRANCH   1   2
BRANCH   1  20
ATOM     20  C   UNL A   1      34.922  34.750  28.831  1.00  0.00     0.042 C 
BRANCH  20  21
ATOM     21  C   UNL A   1      35.347  33.286  28.914  1.00  0.00     0.118 C 
BRANCH  21  22
ATOM     22  N   UNL A   1      34.497  32.399  28.128  1.00  0.00    -0.352 N 
ATOM     23  C   UNL A   1      34.695  31.104  27.717  1.00  0.00     0.251 C 
ATOM     24  H   UNL A   1      33.640  32.793  27.846  1.00  0.00     0.163 HD
ATOM     25  O   UNL A   1      33.912  30.591  26.920  1.00  0.00    -0.269 OA
BRANCH  23  26
ATOM     26  C   UNL A   1      35.857  30.329  28.200  1.00  0.00     0.039 A 
ATOM     27  C   UNL A   1      36.988  30.232  27.383  1.00  0.00     0.014 A 
ATOM     28  C   UNL A   1      35.838  29.696  29.445  1.00  0.00     0.014 A 
ATOM     29  C   UNL A   1      38.133  29.585  27.855  1.00  0.00     0.010 A 
ATOM     30  C   UNL A   1      37.001  29.113  29.942  1.00  0.00     0.010 A 
ATOM     31  C   UNL A   1      38.166  29.069  29.160  1.00  0.00    -0.014 A 
BRANCH  31  32
ATOM     32  C   UNL A   1      39.419  28.530  29.750  1.00  0.00     0.031 A 
ATOM     33  C   UNL A   1      40.027  29.168  30.966  1.00  0.00     0.074 A 
ATOM     34  C   UNL A   1      40.062  27.523  29.125  1.00  0.00     0.049 A 
ATOM     35  N   UNL A   1      41.174  28.918  31.544  1.00  0.00    -0.248 NA
ATOM     36  C   UNL A   1      39.253  30.243  31.604  1.00  0.00     0.031 C 
ATOM     37  C   UNL A   1      39.594  26.843  27.915  1.00  0.00     0.029 A 
ATOM     38  N   UNL A   1      41.257  26.910  29.407  1.00  0.00    -0.354 N 
ATOM     39  C   UNL A   1      41.268  29.812  32.602  1.00  0.00     0.074 A 
ATOM     40  C   UNL A   1      40.080  30.639  32.561  1.00  0.00     0.031 C 
ATOM     41  C   UNL A   1      40.488  25.904  27.564  1.00  0.00     0.029 A 
ATOM     42  C   UNL A   1      41.613  25.949  28.491  1.00  0.00     0.049 A 
ATOM     43  H   UNL A   1      41.807  27.137  30.192  1.00  0.00     0.167 HD
ATOM     44  C   UNL A   1      42.248  29.923  33.531  1.00  0.00     0.037 A 
ATOM     45  C   UNL A   1      42.732  25.206  28.391  1.00  0.00     0.037 A 
ATOM     46  C   UNL A   1      43.422  29.090  33.574  1.00  0.00     0.049 A 
ATOM     47  C   UNL A   1      43.823  25.377  29.412  1.00  0.00     0.074 A 
ATOM     48  C   UNL A   1      44.439  29.084  34.514  1.00  0.00     0.029 A 
ATOM     49  N   UNL A   1      43.743  28.124  32.632  1.00  0.00    -0.354 N 
ATOM     50  N   UNL A   1      43.865  26.176  30.449  1.00  0.00    -0.248 NA
ATOM     51  C   UNL A   1      45.021  24.543  29.247  1.00  0.00     0.031 C 
ATOM     52  C   UNL A   1      45.405  28.157  34.108  1.00  0.00     0.029 A 
ATOM     53  C   UNL A   1      44.961  27.542  32.948  1.00  0.00     0.049 A 
ATOM     54  H   UNL A   1      43.189  27.887  31.854  1.00  0.00     0.167 HD
ATOM     55  C   UNL A   1      45.081  25.927  31.074  1.00  0.00     0.074 A 
ATOM     56  C   UNL A   1      45.738  24.888  30.309  1.00  0.00     0.031 C 
ATOM     57  C   UNL A   1      45.606  26.507  32.179  1.00  0.00     0.037 A 
BRANCH  44  58
ATOM     58  C   UNL A   1      42.100  30.991  34.576  1.00  0.00     0.057 A 
ATOM     59  C   UNL A   1      41.296  30.812  35.709  1.00  0.00     0.134 A 
ATOM     60  C   UNL A   1      42.810  32.194  34.473  1.00  0.00     0.134 A 
ATOM     61  F   UNL A   1      40.583  29.686  35.868  1.00  0.00    -0.206 F 
ATOM     62  C   UNL A   1      41.184  31.801  36.689  1.00  0.00     0.040 A 
ATOM     63  C   UNL A   1      42.728  33.178  35.460  1.00  0.00     0.040 A 
ATOM     64  F   UNL A   1      43.605  32.429  33.418  1.00  0.00    -0.206 F 
ATOM     65  C   UNL A   1      41.908  32.986  36.569  1.00  0.00     0.006 A 
ENDBRANCH  44  58
BRANCH  45  66
ATOM     66  C   UNL A   1      42.883  24.236  27.276  1.00  0.00     0.057 A 
ATOM     67  C   UNL A   1      43.431  24.625  26.048  1.00  0.00     0.134 A 
ATOM     68  C   UNL A   1      42.473  22.903  27.404  1.00  0.00     0.134 A 
ATOM     69  F   UNL A   1      43.823  25.894  25.856  1.00  0.00    -0.206 F 
ATOM     70  C   UNL A   1      43.546  23.732  24.982  1.00  0.00     0.040 A 
ATOM     71  C   UNL A   1      42.609  21.991  26.356  1.00  0.00     0.040 A 
ATOM     72  F   UNL A   1      41.946  22.464  28.556  1.00  0.00    -0.206 F 
ATOM     73  C   UNL A   1      43.139  22.409  25.137  1.00  0.00     0.006 A 
ENDBRANCH  45  66
BRANCH  57  74
ATOM     74  C   UNL A   1      46.945  26.017  32.647  1.00  0.00     0.057 A 
ATOM     75  C   UNL A   1      47.069  24.983  33.584  1.00  0.00     0.134 A 
ATOM     76  C   UNL A   1      48.127  26.553  32.116  1.00  0.00     0.134 A 
ATOM     77  F   UNL A   1      45.978  24.438  34.143  1.00  0.00    -0.206 F 
ATOM     78  C   UNL A   1      48.319  24.514  33.991  1.00  0.00     0.040 A 
ATOM     79  C   UNL A   1      49.381  26.071  32.492  1.00  0.00     0.040 A 
ATOM     80  F   UNL A   1      48.079  27.539  31.207  1.00  0.00    -0.206 F 
ATOM     81  C   UNL A   1      49.479  25.051  33.437  1.00  0.00     0.006 A 
ENDBRANCH  57  74
ENDBRANCH  31  32
ENDBRANCH  23  26
ENDBRANCH  21  22
ENDBRANCH  20  21
ENDBRANCH   1  20
TORSDOF 13
ENDMDL
MODEL 3
REMARK VINA RESULT:     -10.8      3.510      6.898
REMARK SMILES C[C@H]1CCCN1c1cccc(OCC(=O)NCCCNC(=O)c2ccc(-c3c4nc(c(-c5c(F)cccc5F)c5ccc([nH]5)c(-c5c(F)cccc5F)c5nc(c(-c6c(F)cccc6F)c6ccc3[nH]6)C=C5)C=C4)cc2)c1
REMARK SMILES IDX 17 1 16 2 14 3 15 4 13 6 12 7 11 8 7 9 8 10 77 11 9 12 10 13
REMARK SMILES IDX 6 14 1 15 2 16 3 17 4 18 5 19 18 20 19 21 20 22 21 23 22 25
REMARK SMILES IDX 23 26 24 27 76 28 25 29 75 30 26 31 27 32 28 33 69 34 29 35
REMARK SMILES IDX 74 36 68 37 70 38 30 39 73 40 67 41 66 42 31 44 57 45 40 46
REMARK SMILES IDX 56 47 41 48 44 49 55 50 71 51 42 52 43 53 54 55 72 56 45 57
REMARK SMILES IDX 32 58 33 59 38 60 34 61 35 62 37 63 39 64 36 65 58 66 59 67
REMARK SMILES IDX 64 68 60 69 61 70 63 71 65 72 62 73 46 74 47 75 52 76 48 77
REMARK SMILES IDX 49 78 51 79 53 80 50 81
REMARK H PARENT 16 5 20 24 70 43 44 54
REMARK Flexibility Score: inf
ROOT
ATOM      1  C   UNL A   1      33.643  35.270  29.687  1.00  0.00     0.117 C 
ENDROOT
BRANCH   1   2
ATOM      2  N   UNL A   1      32.511  35.406  30.584  1.00  0.00    -0.353 N 
ATOM      3  C   UNL A   1      32.465  36.012  31.807  1.00  0.00     0.257 C 
ATOM      4  O   UNL A   1      31.387  36.060  32.403  1.00  0.00    -0.271 OA
ATOM      5  H   UNL A   1      31.666  35.010  30.270  1.00  0.00     0.163 HD
BRANCH   3   6
ATOM      6  C   UNL A   1      33.732  36.653  32.381  1.00  0.00     0.329 C 
BRANCH   6   7
ATOM      7  O   UNL A   1      34.183  36.116  33.615  1.00  0.00    -0.484 OA
BRANCH   7   8
ATOM      8  C   UNL A   1      35.210  35.212  33.584  1.00  0.00     0.122 A 
ATOM      9  C   UNL A   1      37.113  34.038  32.595  1.00  0.00     0.041 A 
ATOM     10  C   UNL A   1      37.210  33.276  33.764  1.00  0.00     0.026 A 
ATOM     11  C   UNL A   1      36.097  35.002  32.523  1.00  0.00     0.072 A 
ATOM     12  C   UNL A   1      36.345  33.485  34.839  1.00  0.00     0.006 A 
ATOM     13  C   UNL A   1      35.347  34.451  34.746  1.00  0.00     0.046 A 
BRANCH   9  14
ATOM     14  N   UNL A   1      37.983  33.816  31.551  1.00  0.00    -0.369 N 
ATOM     15  C   UNL A   1      40.301  34.321  32.180  1.00  0.00     0.031 C 
ATOM     16  C   UNL A   1      39.143  34.661  31.249  1.00  0.00     0.079 C 
ATOM     17  C   UNL A   1      39.480  34.313  29.790  1.00  0.00     0.026 C 
ATOM     18  C   UNL A   1      38.166  33.804  29.220  1.00  0.00     0.023 C 
ATOM     19  C   UNL A   1      37.539  33.054  30.391  1.00  0.00     0.117 C 
ENDBRANCH   9  14
ENDBRANCH   7   8
ENDBRANCH   6   7
ENDBRANCH   3   6
ENDBRANCH   1   2
BRANCH   1  20
ATOM     20  C   UNL A   1      33.428  34.198  28.625  1.00  0.00     0.042 C 
BRANCH  20  21
ATOM     21  C   UNL A   1      34.350  32.987  28.753  1.00  0.00     0.118 C 
BRANCH  21  22
ATOM     22  N   UNL A   1      33.921  31.853  27.942  1.00  0.00    -0.352 N 
ATOM     23  C   UNL A   1      34.559  30.675  27.644  1.00  0.00     0.251 C 
ATOM     24  H   UNL A   1      33.025  31.948  27.543  1.00  0.00     0.163 HD
ATOM     25  O   UNL A   1      34.078  29.917  26.804  1.00  0.00    -0.269 OA
BRANCH  23  26
ATOM     26  C   UNL A   1      35.836  30.322  28.300  1.00  0.00     0.039 A 
ATOM     27  C   UNL A   1      35.801  29.725  29.564  1.00  0.00     0.014 A 
ATOM     28  C   UNL A   1      37.061  30.578  27.681  1.00  0.00     0.014 A 
ATOM     29  C   UNL A   1      36.989  29.297  30.163  1.00  0.00     0.010 A 
ATOM     30  C   UNL A   1      38.237  30.089  28.245  1.00  0.00     0.010 A 
ATOM     31  C   UNL A   1      38.211  29.427  29.482  1.00  0.00    -0.014 A 
BRANCH  31  32
ATOM     32  C   UNL A   1      39.462  28.829  30.015  1.00  0.00     0.031 A 
ATOM     33  C   UNL A   1      40.146  29.427  31.211  1.00  0.00     0.074 A 
ATOM     34  C   UNL A   1      40.034  27.801  29.357  1.00  0.00     0.049 A 
ATOM     35  N   UNL A   1      41.304  29.122  31.739  1.00  0.00    -0.248 NA
ATOM     36  C   UNL A   1      39.447  30.529  31.889  1.00  0.00     0.031 C 
ATOM     37  C   UNL A   1      39.488  27.153  28.162  1.00  0.00     0.029 A 
ATOM     38  N   UNL A   1      41.212  27.133  29.585  1.00  0.00    -0.354 N 
ATOM     39  C   UNL A   1      41.480  30.001  32.799  1.00  0.00     0.074 A 
ATOM     40  C   UNL A   1      40.329  30.879  32.814  1.00  0.00     0.031 C 
ATOM     41  C   UNL A   1      40.324  26.180  27.767  1.00  0.00     0.029 A 
ATOM     42  C   UNL A   1      41.488  26.167  28.647  1.00  0.00     0.049 A 
ATOM     43  H   UNL A   1      41.803  27.329  30.348  1.00  0.00     0.167 HD
ATOM     44  C   UNL A   1      42.501  30.060  33.688  1.00  0.00     0.037 A 
ATOM     45  C   UNL A   1      42.568  25.377  28.495  1.00  0.00     0.037 A 
ATOM     46  C   UNL A   1      43.639  29.177  33.676  1.00  0.00     0.049 A 
ATOM     47  C   UNL A   1      43.706  25.491  29.471  1.00  0.00     0.074 A 
ATOM     48  C   UNL A   1      44.691  29.117  34.573  1.00  0.00     0.029 A 
ATOM     49  N   UNL A   1      43.879  28.207  32.713  1.00  0.00    -0.354 N 
ATOM     50  N   UNL A   1      43.826  26.277  30.512  1.00  0.00    -0.248 NA
ATOM     51  C   UNL A   1      44.859  24.607  29.251  1.00  0.00     0.031 C 
ATOM     52  C   UNL A   1      45.598  28.154  34.121  1.00  0.00     0.029 A 
ATOM     53  C   UNL A   1      45.081  27.570  32.975  1.00  0.00     0.049 A 
ATOM     54  H   UNL A   1      43.283  28.002  31.957  1.00  0.00     0.167 HD
ATOM     55  C   UNL A   1      45.054  25.969  31.084  1.00  0.00     0.074 A 
ATOM     56  C   UNL A   1      45.633  24.910  30.285  1.00  0.00     0.031 C 
ATOM     57  C   UNL A   1      45.648  26.516  32.172  1.00  0.00     0.037 A 
BRANCH  44  58
ATOM     58  C   UNL A   1      42.443  31.123  34.746  1.00  0.00     0.057 A 
ATOM     59  C   UNL A   1      42.912  32.424  34.517  1.00  0.00     0.134 A 
ATOM     60  C   UNL A   1      41.865  30.858  35.995  1.00  0.00     0.134 A 
ATOM     61  F   UNL A   1      43.484  32.745  33.346  1.00  0.00    -0.206 F 
ATOM     62  C   UNL A   1      42.831  33.413  35.499  1.00  0.00     0.040 A 
ATOM     63  C   UNL A   1      41.754  31.847  36.974  1.00  0.00     0.040 A 
ATOM     64  F   UNL A   1      41.388  29.637  36.279  1.00  0.00    -0.206 F 
ATOM     65  C   UNL A   1      42.243  33.127  36.730  1.00  0.00     0.006 A 
ENDBRANCH  44  58
BRANCH  45  66
ATOM     66  C   UNL A   1      42.631  24.412  27.367  1.00  0.00     0.057 A 
ATOM     67  C   UNL A   1      42.171  23.098  27.512  1.00  0.00     0.134 A 
ATOM     68  C   UNL A   1      43.164  24.774  26.123  1.00  0.00     0.134 A 
ATOM     69  F   UNL A   1      41.669  22.685  28.685  1.00  0.00    -0.206 F 
ATOM     70  C   UNL A   1      42.258  22.173  26.471  1.00  0.00     0.040 A 
ATOM     71  C   UNL A   1      43.230  23.868  25.064  1.00  0.00     0.040 A 
ATOM     72  F   UNL A   1      43.617  26.019  25.917  1.00  0.00    -0.206 F 
ATOM     73  C   UNL A   1      42.784  22.560  25.240  1.00  0.00     0.006 A 
ENDBRANCH  45  66
BRANCH  57  74
ATOM     74  C   UNL A   1      46.983  25.963  32.580  1.00  0.00     0.057 A 
ATOM     75  C   UNL A   1      48.181  26.445  32.038  1.00  0.00     0.134 A 
ATOM     76  C   UNL A   1      47.073  24.969  33.565  1.00  0.00     0.134 A 
ATOM     77  F   UNL A   1      48.164  27.384  31.080  1.00  0.00    -0.206 F 
ATOM     78  C   UNL A   1      49.419  25.945  32.445  1.00  0.00     0.040 A 
ATOM     79  C   UNL A   1      48.306  24.484  34.003  1.00  0.00     0.040 A 
ATOM     80  F   UNL A   1      45.964  24.470  34.133  1.00  0.00    -0.206 F 
ATOM     81  C   UNL A   1      49.484  24.969  33.438  1.00  0.00     0.006 A 
ENDBRANCH  57  74
ENDBRANCH  31  32
ENDBRANCH  23  26
ENDBRANCH  21  22
ENDBRANCH  20  21
ENDBRANCH   1  20
TORSDOF 13
ENDMDL
