MODEL 1
REMARK VINA RESULT:     -10.6      0.000      0.000
REMARK SMILES CCCC(O)(CCC)[C@@]1(C)CC[C@@H](C(=O)NCCCNC(=O)c2ccc(-c3c4nc(c(-c5c(F)cccc5F)c5ccc([nH]5)c(-c5c(F)cccc5F)c5nc(c(-c6c(F)cccc6F)c6ccc3[nH]6)C=C5)C=C4)cc2)C(C)(C)O1
REMARK SMILES IDX 17 1 16 2 14 3 15 4 13 6 9 7 10 8 11 9 80 10 12 11 77 12
REMARK SMILES IDX 78 13 79 14 4 15 3 16 2 17 1 18 5 19 6 21 7 22 8 23 18 24
REMARK SMILES IDX 19 25 20 26 21 27 22 29 23 30 24 31 76 32 25 33 75 34 26 35
REMARK SMILES IDX 27 36 28 37 69 38 29 39 74 40 68 41 70 42 30 43 73 44 67 45
REMARK SMILES IDX 66 46 31 48 57 49 40 50 56 51 41 52 44 53 55 54 71 55 42 56
REMARK SMILES IDX 43 57 54 59 72 60 45 61 32 62 33 63 38 64 34 65 35 66 37 67
REMARK SMILES IDX 39 68 36 69 58 70 59 71 64 72 60 73 61 74 63 75 65 76 62 77
REMARK SMILES IDX 46 78 47 79 52 80 48 81 49 82 51 83 53 84 50 85
REMARK H PARENT 16 5 5 20 20 28 70 47 44 58
REMARK Flexibility Score: inf
ROOT
ATOM      1  C   UNL A   1      31.578  30.204  26.826  1.00  0.00     0.117 C 
ENDROOT
BRANCH   1   2
ATOM      2  N   UNL A   1      32.867  29.778  27.357  1.00  0.00    -0.356 N 
ATOM      3  C   UNL A   1      33.888  29.032  26.860  1.00  0.00     0.226 C 
ATOM      4  O   UNL A   1      34.854  28.875  27.617  1.00  0.00    -0.275 OA
ATOM      5  H   UNL A   1      33.033  30.100  28.273  1.00  0.00     0.163 HD
BRANCH   3   6
ATOM      6  C   UNL A   1      33.898  28.359  25.482  1.00  0.00     0.110 C 
ATOM      7  C   UNL A   1      32.559  27.196  23.071  1.00  0.00     0.095 C 
ATOM      8  C   UNL A   1      33.032  26.379  21.842  1.00  0.00     0.045 C 
ATOM      9  C   UNL A   1      33.368  28.516  23.026  1.00  0.00     0.039 C 
ATOM     10  O   UNL A   1      33.025  26.394  24.169  1.00  0.00    -0.366 OA
ATOM     11  C   UNL A   1      33.473  29.268  24.340  1.00  0.00     0.019 C 
ATOM     12  C   UNL A   1      33.328  26.920  25.469  1.00  0.00     0.075 C 
ATOM     13  C   UNL A   1      32.131  26.694  26.385  1.00  0.00     0.043 C 
ATOM     14  C   UNL A   1      34.422  25.954  25.993  1.00  0.00     0.043 C 
BRANCH   7  15
ATOM     15  C   UNL A   1      30.964  27.363  23.039  1.00  0.00     0.093 C 
BRANCH  15  16
ATOM     16  C   UNL A   1      30.137  26.173  23.652  1.00  0.00     0.038 C 
BRANCH  16  17
ATOM     17  C   UNL A   1      30.310  24.737  23.126  1.00  0.00    -0.000 C 
ATOM     18  C   UNL A   1      30.884  23.753  24.134  1.00  0.00     0.004 C 
ENDBRANCH  16  17
ENDBRANCH  15  16
BRANCH  15  19
ATOM     19  O   UNL A   1      30.524  27.520  21.671  1.00  0.00    -0.387 OA
ATOM     20  H   UNL A   1      31.094  26.996  21.086  1.00  0.00     0.211 HD
ENDBRANCH  15  19
BRANCH  15  21
ATOM     21  C   UNL A   1      30.416  28.678  23.703  1.00  0.00     0.038 C 
BRANCH  21  22
ATOM     22  C   UNL A   1      29.431  29.586  22.966  1.00  0.00    -0.000 C 
ATOM     23  C   UNL A   1      29.193  30.925  23.650  1.00  0.00     0.004 C 
ENDBRANCH  21  22
ENDBRANCH  15  21
ENDBRANCH   7  15
ENDBRANCH   3   6
ENDBRANCH   1   2
BRANCH   1  24
ATOM     24  C   UNL A   1      31.390  31.717  26.804  1.00  0.00     0.042 C 
BRANCH  24  25
ATOM     25  C   UNL A   1      32.682  32.510  26.819  1.00  0.00     0.118 C 
BRANCH  25  26
ATOM     26  N   UNL A   1      32.499  33.845  27.362  1.00  0.00    -0.352 N 
ATOM     27  C   UNL A   1      33.086  34.443  28.450  1.00  0.00     0.251 C 
ATOM     28  H   UNL A   1      31.853  34.407  26.877  1.00  0.00     0.163 HD
ATOM     29  O   UNL A   1      32.620  35.499  28.880  1.00  0.00    -0.269 OA
BRANCH  27  30
ATOM     30  C   UNL A   1      34.261  33.839  29.124  1.00  0.00     0.039 A 
ATOM     31  C   UNL A   1      35.538  34.331  28.829  1.00  0.00     0.014 A 
ATOM     32  C   UNL A   1      34.130  32.752  29.992  1.00  0.00     0.014 A 
ATOM     33  C   UNL A   1      36.665  33.765  29.432  1.00  0.00     0.010 A 
ATOM     34  C   UNL A   1      35.241  32.253  30.667  1.00  0.00     0.010 A 
ATOM     35  C   UNL A   1      36.525  32.734  30.373  1.00  0.00    -0.014 A 
BRANCH  35  36
ATOM     36  C   UNL A   1      37.706  32.095  31.011  1.00  0.00     0.031 A 
ATOM     37  C   UNL A   1      38.460  31.016  30.278  1.00  0.00     0.074 A 
ATOM     38  C   UNL A   1      38.072  32.439  32.260  1.00  0.00     0.049 A 
ATOM     39  N   UNL A   1      39.458  30.274  30.691  1.00  0.00    -0.248 NA
ATOM     40  C   UNL A   1      38.012  30.707  28.911  1.00  0.00     0.031 C 
ATOM     41  C   UNL A   1      37.405  33.438  33.096  1.00  0.00     0.029 A 
ATOM     42  N   UNL A   1      39.097  31.976  33.049  1.00  0.00    -0.354 N 
ATOM     43  C   UNL A   1      39.733  29.397  29.648  1.00  0.00     0.074 A 
ATOM     44  C   UNL A   1      38.767  29.664  28.605  1.00  0.00     0.031 C 
ATOM     45  C   UNL A   1      38.054  33.533  34.269  1.00  0.00     0.029 A 
ATOM     46  C   UNL A   1      39.159  32.579  34.281  1.00  0.00     0.049 A 
ATOM     47  H   UNL A   1      39.726  31.278  32.758  1.00  0.00     0.167 HD
ATOM     48  C   UNL A   1      40.715  28.470  29.555  1.00  0.00     0.037 A 
ATOM     49  C   UNL A   1      40.011  32.385  35.304  1.00  0.00     0.037 A 
ATOM     50  C   UNL A   1      41.708  28.237  30.569  1.00  0.00     0.049 A 
ATOM     51  C   UNL A   1      41.108  31.366  35.170  1.00  0.00     0.074 A 
ATOM     52  C   UNL A   1      42.782  27.365  30.542  1.00  0.00     0.029 A 
ATOM     53  N   UNL A   1      41.751  28.890  31.790  1.00  0.00    -0.354 N 
ATOM     54  N   UNL A   1      41.384  30.578  34.159  1.00  0.00    -0.248 NA
ATOM     55  C   UNL A   1      42.015  31.214  36.316  1.00  0.00     0.031 C 
ATOM     56  C   UNL A   1      43.462  27.472  31.760  1.00  0.00     0.029 A 
ATOM     57  C   UNL A   1      42.829  28.434  32.530  1.00  0.00     0.049 A 
ATOM     58  H   UNL A   1      41.112  29.576  32.088  1.00  0.00     0.167 HD
ATOM     59  C   UNL A   1      42.508  29.854  34.536  1.00  0.00     0.074 A 
ATOM     60  C   UNL A   1      42.870  30.306  35.865  1.00  0.00     0.031 C 
ATOM     61  C   UNL A   1      43.180  28.903  33.846  1.00  0.00     0.037 A 
BRANCH  48  62
ATOM     62  C   UNL A   1      40.767  27.647  28.301  1.00  0.00     0.057 A 
ATOM     63  C   UNL A   1      40.083  26.429  28.190  1.00  0.00     0.134 A 
ATOM     64  C   UNL A   1      41.494  28.084  27.187  1.00  0.00     0.134 A 
ATOM     65  F   UNL A   1      39.380  25.948  29.226  1.00  0.00    -0.206 F 
ATOM     66  C   UNL A   1      40.144  25.660  27.027  1.00  0.00     0.040 A 
ATOM     67  C   UNL A   1      41.542  27.336  26.009  1.00  0.00     0.040 A 
ATOM     68  F   UNL A   1      42.168  29.243  27.225  1.00  0.00    -0.206 F 
ATOM     69  C   UNL A   1      40.873  26.117  25.929  1.00  0.00     0.006 A 
ENDBRANCH  48  62
BRANCH  49  70
ATOM     70  C   UNL A   1      39.885  33.199  36.538  1.00  0.00     0.057 A 
ATOM     71  C   UNL A   1      40.611  34.386  36.691  1.00  0.00     0.134 A 
ATOM     72  C   UNL A   1      39.044  32.815  37.588  1.00  0.00     0.134 A 
ATOM     73  F   UNL A   1      41.447  34.793  35.725  1.00  0.00    -0.206 F 
ATOM     74  C   UNL A   1      40.516  35.156  37.850  1.00  0.00     0.040 A 
ATOM     75  C   UNL A   1      38.923  33.587  38.746  1.00  0.00     0.040 A 
ATOM     76  F   UNL A   1      38.319  31.690  37.499  1.00  0.00    -0.206 F 
ATOM     77  C   UNL A   1      39.666  34.759  38.881  1.00  0.00     0.006 A 
ENDBRANCH  49  70
BRANCH  61  78
ATOM     78  C   UNL A   1      44.392  28.310  34.500  1.00  0.00     0.057 A 
ATOM     79  C   UNL A   1      44.316  27.144  35.271  1.00  0.00     0.134 A 
ATOM     80  C   UNL A   1      45.653  28.891  34.320  1.00  0.00     0.134 A 
ATOM     81  F   UNL A   1      43.134  26.550  35.489  1.00  0.00    -0.206 F 
ATOM     82  C   UNL A   1      45.452  26.586  35.858  1.00  0.00     0.040 A 
ATOM     83  C   UNL A   1      46.799  28.331  34.885  1.00  0.00     0.040 A 
ATOM     84  F   UNL A   1      45.792  30.004  33.585  1.00  0.00    -0.206 F 
ATOM     85  C   UNL A   1      46.699  27.177  35.660  1.00  0.00     0.006 A 
ENDBRANCH  61  78
ENDBRANCH  35  36
ENDBRANCH  27  30
ENDBRANCH  25  26
ENDBRANCH  24  25
ENDBRANCH   1  24
TORSDOF 16
ENDMDL
MODEL 2
REMARK VINA RESULT:     -10.6      4.588      9.184
REMARK SMILES CCCC(O)(CCC)[C@@]1(C)CC[C@@H](C(=O)NCCCNC(=O)c2ccc(-c3c4nc(c(-c5c(F)cccc5F)c5ccc([nH]5)c(-c5c(F)cccc5F)c5nc(c(-c6c(F)cccc6F)c6ccc3[nH]6)C=C5)C=C4)cc2)C(C)(C)O1
REMARK SMILES IDX 17 1 16 2 14 3 15 4 13 6 9 7 10 8 11 9 80 10 12 11 77 12
REMARK SMILES IDX 78 13 79 14 4 15 3 16 2 17 1 18 5 19 6 21 7 22 8 23 18 24
REMARK SMILES IDX 19 25 20 26 21 27 22 29 23 30 24 31 76 32 25 33 75 34 26 35
REMARK SMILES IDX 27 36 28 37 69 38 29 39 74 40 68 41 70 42 30 43 73 44 67 45
REMARK SMILES IDX 66 46 31 48 57 49 40 50 56 51 41 52 44 53 55 54 71 55 42 56
REMARK SMILES IDX 43 57 54 59 72 60 45 61 32 62 33 63 38 64 34 65 35 66 37 67
REMARK SMILES IDX 39 68 36 69 58 70 59 71 64 72 60 73 61 74 63 75 65 76 62 77
REMARK SMILES IDX 46 78 47 79 52 80 48 81 49 82 51 83 53 84 50 85
REMARK H PARENT 16 5 5 20 20 28 70 47 44 58
REMARK Flexibility Score: inf
ROOT
ATOM      1  C   UNL A   1      36.287  20.255  24.988  1.00  0.00     0.117 C 
ENDROOT
BRANCH   1   2
ATOM      2  N   UNL A   1      36.460  21.560  25.614  1.00  0.00    -0.356 N 
ATOM      3  C   UNL A   1      35.726  22.703  25.621  1.00  0.00     0.226 C 
ATOM      4  O   UNL A   1      36.196  23.637  26.285  1.00  0.00    -0.275 OA
ATOM      5  H   UNL A   1      37.285  21.627  26.146  1.00  0.00     0.163 HD
BRANCH   3   6
ATOM      6  C   UNL A   1      34.418  22.916  24.850  1.00  0.00     0.110 C 
ATOM      7  C   UNL A   1      31.807  24.293  24.352  1.00  0.00     0.095 C 
ATOM      8  C   UNL A   1      30.584  24.025  23.441  1.00  0.00     0.045 C 
ATOM      9  C   UNL A   1      33.017  24.418  23.394  1.00  0.00     0.039 C 
ATOM     10  O   UNL A   1      31.914  23.064  25.089  1.00  0.00    -0.366 OA
ATOM     11  C   UNL A   1      34.380  24.190  24.022  1.00  0.00     0.019 C 
ATOM     12  C   UNL A   1      33.139  22.575  25.654  1.00  0.00     0.075 C 
ATOM     13  C   UNL A   1      33.188  22.952  27.129  1.00  0.00     0.043 C 
ATOM     14  C   UNL A   1      32.946  21.037  25.639  1.00  0.00     0.043 C 
BRANCH   7  15
ATOM     15  C   UNL A   1      31.530  25.569  25.284  1.00  0.00     0.093 C 
BRANCH  15  16
ATOM     16  C   UNL A   1      32.803  26.362  25.759  1.00  0.00     0.038 C 
BRANCH  16  17
ATOM     17  C   UNL A   1      32.699  27.441  26.852  1.00  0.00    -0.000 C 
ATOM     18  C   UNL A   1      33.679  28.594  26.706  1.00  0.00     0.004 C 
ENDBRANCH  16  17
ENDBRANCH  15  16
BRANCH  15  19
ATOM     19  O   UNL A   1      30.827  25.149  26.476  1.00  0.00    -0.387 OA
ATOM     20  H   UNL A   1      31.210  25.591  27.250  1.00  0.00     0.211 HD
ENDBRANCH  15  19
BRANCH  15  21
ATOM     21  C   UNL A   1      30.538  26.631  24.686  1.00  0.00     0.038 C 
BRANCH  21  22
ATOM     22  C   UNL A   1      31.002  27.652  23.647  1.00  0.00    -0.000 C 
ATOM     23  C   UNL A   1      30.802  29.101  24.070  1.00  0.00     0.004 C 
ENDBRANCH  21  22
ENDBRANCH  15  21
ENDBRANCH   7  15
ENDBRANCH   3   6
ENDBRANCH   1   2
BRANCH   1  24
ATOM     24  C   UNL A   1      37.565  19.426  24.927  1.00  0.00     0.042 C 
BRANCH  24  25
ATOM     25  C   UNL A   1      38.803  20.143  25.430  1.00  0.00     0.118 C 
BRANCH  25  26
ATOM     26  N   UNL A   1      39.897  19.225  25.696  1.00  0.00    -0.352 N 
ATOM     27  C   UNL A   1      41.179  19.479  26.117  1.00  0.00     0.251 C 
ATOM     28  H   UNL A   1      39.688  18.274  25.551  1.00  0.00     0.163 HD
ATOM     29  O   UNL A   1      42.020  18.581  26.056  1.00  0.00    -0.269 OA
BRANCH  27  30
ATOM     30  C   UNL A   1      41.574  20.813  26.631  1.00  0.00     0.039 A 
ATOM     31  C   UNL A   1      41.878  21.827  25.715  1.00  0.00     0.014 A 
ATOM     32  C   UNL A   1      41.714  21.060  27.999  1.00  0.00     0.014 A 
ATOM     33  C   UNL A   1      42.277  23.087  26.171  1.00  0.00     0.010 A 
ATOM     34  C   UNL A   1      42.014  22.342  28.455  1.00  0.00     0.010 A 
ATOM     35  C   UNL A   1      42.328  23.363  27.546  1.00  0.00    -0.014 A 
BRANCH  35  36
ATOM     36  C   UNL A   1      42.773  24.685  28.060  1.00  0.00     0.031 A 
ATOM     37  C   UNL A   1      41.753  25.751  28.365  1.00  0.00     0.074 A 
ATOM     38  C   UNL A   1      44.085  24.951  28.204  1.00  0.00     0.049 A 
ATOM     39  N   UNL A   1      41.937  26.994  28.736  1.00  0.00    -0.248 NA
ATOM     40  C   UNL A   1      40.338  25.380  28.200  1.00  0.00     0.031 C 
ATOM     41  C   UNL A   1      45.177  24.023  27.907  1.00  0.00     0.029 A 
ATOM     42  N   UNL A   1      44.723  26.089  28.632  1.00  0.00    -0.354 N 
ATOM     43  C   UNL A   1      40.668  27.556  28.817  1.00  0.00     0.074 A 
ATOM     44  C   UNL A   1      39.727  26.535  28.411  1.00  0.00     0.031 C 
ATOM     45  C   UNL A   1      46.348  24.619  28.187  1.00  0.00     0.029 A 
ATOM     46  C   UNL A   1      46.091  25.980  28.651  1.00  0.00     0.049 A 
ATOM     47  H   UNL A   1      44.243  26.906  28.900  1.00  0.00     0.167 HD
ATOM     48  C   UNL A   1      40.315  28.799  29.218  1.00  0.00     0.037 A 
ATOM     49  C   UNL A   1      47.032  26.876  29.002  1.00  0.00     0.037 A 
ATOM     50  C   UNL A   1      41.244  29.800  29.671  1.00  0.00     0.049 A 
ATOM     51  C   UNL A   1      46.615  28.243  29.466  1.00  0.00     0.074 A 
ATOM     52  C   UNL A   1      40.978  31.067  30.157  1.00  0.00     0.029 A 
ATOM     53  N   UNL A   1      42.620  29.638  29.700  1.00  0.00    -0.354 N 
ATOM     54  N   UNL A   1      45.409  28.743  29.582  1.00  0.00    -0.248 NA
ATOM     55  C   UNL A   1      47.690  29.168  29.850  1.00  0.00     0.031 C 
ATOM     56  C   UNL A   1      42.198  31.684  30.459  1.00  0.00     0.029 A 
ATOM     57  C   UNL A   1      43.219  30.786  30.189  1.00  0.00     0.049 A 
ATOM     58  H   UNL A   1      43.100  28.827  29.417  1.00  0.00     0.167 HD
ATOM     59  C   UNL A   1      45.577  30.031  30.076  1.00  0.00     0.074 A 
ATOM     60  C   UNL A   1      47.002  30.231  30.247  1.00  0.00     0.031 C 
ATOM     61  C   UNL A   1      44.638  30.962  30.362  1.00  0.00     0.037 A 
BRANCH  48  62
ATOM     62  C   UNL A   1      38.853  29.139  29.195  1.00  0.00     0.057 A 
ATOM     63  C   UNL A   1      38.055  29.039  30.342  1.00  0.00     0.134 A 
ATOM     64  C   UNL A   1      38.240  29.587  28.019  1.00  0.00     0.134 A 
ATOM     65  F   UNL A   1      38.578  28.602  31.498  1.00  0.00    -0.206 F 
ATOM     66  C   UNL A   1      36.693  29.344  30.313  1.00  0.00     0.040 A 
ATOM     67  C   UNL A   1      36.885  29.919  27.983  1.00  0.00     0.040 A 
ATOM     68  F   UNL A   1      38.948  29.710  26.885  1.00  0.00    -0.206 F 
ATOM     69  C   UNL A   1      36.106  29.791  29.131  1.00  0.00     0.006 A 
ENDBRANCH  48  62
BRANCH  49  70
ATOM     70  C   UNL A   1      48.466  26.497  28.963  1.00  0.00     0.057 A 
ATOM     71  C   UNL A   1      49.252  26.782  27.840  1.00  0.00     0.134 A 
ATOM     72  C   UNL A   1      49.083  25.845  30.037  1.00  0.00     0.134 A 
ATOM     73  F   UNL A   1      48.711  27.388  26.775  1.00  0.00    -0.206 F 
ATOM     74  C   UNL A   1      50.599  26.420  27.781  1.00  0.00     0.040 A 
ATOM     75  C   UNL A   1      50.434  25.495  29.999  1.00  0.00     0.040 A 
ATOM     76  F   UNL A   1      48.383  25.549  31.142  1.00  0.00    -0.206 F 
ATOM     77  C   UNL A   1      51.194  25.778  28.865  1.00  0.00     0.006 A 
ENDBRANCH  49  70
BRANCH  61  78
ATOM     78  C   UNL A   1      45.116  32.269  30.920  1.00  0.00     0.057 A 
ATOM     79  C   UNL A   1      45.415  33.357  30.092  1.00  0.00     0.134 A 
ATOM     80  C   UNL A   1      45.240  32.450  32.303  1.00  0.00     0.134 A 
ATOM     81  F   UNL A   1      45.328  33.241  28.759  1.00  0.00    -0.206 F 
ATOM     82  C   UNL A   1      45.840  34.577  30.620  1.00  0.00     0.040 A 
ATOM     83  C   UNL A   1      45.643  33.671  32.843  1.00  0.00     0.040 A 
ATOM     84  F   UNL A   1      44.961  31.448  33.149  1.00  0.00    -0.206 F 
ATOM     85  C   UNL A   1      45.949  34.738  32.000  1.00  0.00     0.006 A 
ENDBRANCH  61  78
ENDBRANCH  35  36
ENDBRANCH  27  30
ENDBRANCH  25  26
ENDBRANCH  24  25
ENDBRANCH   1  24
TORSDOF 16
ENDMDL
MODEL 3
REMARK VINA RESULT:     -10.6      0.387      6.277
REMARK SMILES CCCC(O)(CCC)[C@@]1(C)CC[C@@H](C(=O)NCCCNC(=O)c2ccc(-c3c4nc(c(-c5c(F)cccc5F)c5ccc([nH]5)c(-c5c(F)cccc5F)c5nc(c(-c6c(F)cccc6F)c6ccc3[nH]6)C=C5)C=C4)cc2)C(C)(C)O1
REMARK SMILES IDX 17 1 16 2 14 3 15 4 13 6 9 7 10 8 11 9 80 10 12 11 77 12
REMARK SMILES IDX 78 13 79 14 4 15 3 16 2 17 1 18 5 19 6 21 7 22 8 23 18 24
REMARK SMILES IDX 19 25 20 26 21 27 22 29 23 30 24 31 76 32 25 33 75 34 26 35
REMARK SMILES IDX 27 36 28 37 69 38 29 39 74 40 68 41 70 42 30 43 73 44 67 45
REMARK SMILES IDX 66 46 31 48 57 49 40 50 56 51 41 52 44 53 55 54 71 55 42 56
REMARK SMILES IDX 43 57 54 59 72 60 45 61 32 62 33 63 38 64 34 65 35 66 37 67
REMARK SMILES IDX 39 68 36 69 58 70 59 71 64 72 60 73 61 74 63 75 65 76 62 77
REMARK SMILES IDX 46 78 47 79 52 80 48 81 49 82 51 83 53 84 50 85
REMARK H PARENT 16 5 5 20 20 28 70 47 44 58
REMARK Flexibility Score: inf
ROOT
ATOM      1  C   UNL A   1      31.646  30.472  26.694  1.00  0.00     0.117 C 
ENDROOT
BRANCH   1   2
ATOM      2  N   UNL A   1      32.881  29.994  27.303  1.00  0.00    -0.356 N 
ATOM      3  C   UNL A   1      33.883  29.178  26.881  1.00  0.00     0.226 C 
ATOM      4  O   UNL A   1      34.800  28.994  27.692  1.00  0.00    -0.275 OA
ATOM      5  H   UNL A   1      33.018  30.334  28.217  1.00  0.00     0.163 HD
BRANCH   3   6
ATOM      6  C   UNL A   1      33.925  28.464  25.525  1.00  0.00     0.110 C 
ATOM      7  C   UNL A   1      32.645  27.252  23.107  1.00  0.00     0.095 C 
ATOM      8  C   UNL A   1      33.142  26.389  21.920  1.00  0.00     0.045 C 
ATOM      9  C   UNL A   1      33.479  28.554  23.050  1.00  0.00     0.039 C 
ATOM     10  O   UNL A   1      33.059  26.475  24.243  1.00  0.00    -0.366 OA
ATOM     11  C   UNL A   1      33.556  29.345  24.343  1.00  0.00     0.019 C 
ATOM     12  C   UNL A   1      33.329  27.035  25.536  1.00  0.00     0.075 C 
ATOM     13  C   UNL A   1      32.099  26.859  26.418  1.00  0.00     0.043 C 
ATOM     14  C   UNL A   1      34.387  26.067  26.126  1.00  0.00     0.043 C 
BRANCH   7  15
ATOM     15  C   UNL A   1      31.054  27.446  23.017  1.00  0.00     0.093 C 
BRANCH  15  16
ATOM     16  C   UNL A   1      30.186  26.327  23.702  1.00  0.00     0.038 C 
BRANCH  16  17
ATOM     17  C   UNL A   1      30.165  24.892  23.146  1.00  0.00    -0.000 C 
ATOM     18  C   UNL A   1      30.944  23.877  23.967  1.00  0.00     0.004 C 
ENDBRANCH  16  17
ENDBRANCH  15  16
BRANCH  15  19
ATOM     19  O   UNL A   1      30.655  27.497  21.629  1.00  0.00    -0.387 OA
ATOM     20  H   UNL A   1      29.716  27.263  21.553  1.00  0.00     0.211 HD
ENDBRANCH  15  19
BRANCH  15  21
ATOM     21  C   UNL A   1      30.518  28.821  23.555  1.00  0.00     0.038 C 
BRANCH  21  22
ATOM     22  C   UNL A   1      29.266  29.470  22.962  1.00  0.00    -0.000 C 
ATOM     23  C   UNL A   1      28.976  30.863  23.502  1.00  0.00     0.004 C 
ENDBRANCH  21  22
ENDBRANCH  15  21
ENDBRANCH   7  15
ENDBRANCH   3   6
ENDBRANCH   1   2
BRANCH   1  24
ATOM     24  C   UNL A   1      31.419  31.971  26.856  1.00  0.00     0.042 C 
BRANCH  24  25
ATOM     25  C   UNL A   1      32.687  32.803  26.846  1.00  0.00     0.118 C 
BRANCH  25  26
ATOM     26  N   UNL A   1      32.526  34.056  27.563  1.00  0.00    -0.352 N 
ATOM     27  C   UNL A   1      33.124  34.495  28.718  1.00  0.00     0.251 C 
ATOM     28  H   UNL A   1      31.887  34.687  27.160  1.00  0.00     0.163 HD
ATOM     29  O   UNL A   1      32.675  35.491  29.286  1.00  0.00    -0.269 OA
BRANCH  27  30
ATOM     30  C   UNL A   1      34.292  33.789  29.301  1.00  0.00     0.039 A 
ATOM     31  C   UNL A   1      35.580  34.202  28.942  1.00  0.00     0.014 A 
ATOM     32  C   UNL A   1      34.135  32.685  30.142  1.00  0.00     0.014 A 
ATOM     33  C   UNL A   1      36.698  33.539  29.457  1.00  0.00     0.010 A 
ATOM     34  C   UNL A   1      35.246  32.088  30.733  1.00  0.00     0.010 A 
ATOM     35  C   UNL A   1      36.541  32.489  30.375  1.00  0.00    -0.014 A 
BRANCH  35  36
ATOM     36  C   UNL A   1      37.710  31.749  30.920  1.00  0.00     0.031 A 
ATOM     37  C   UNL A   1      38.225  32.074  32.298  1.00  0.00     0.074 A 
ATOM     38  C   UNL A   1      38.342  30.830  30.167  1.00  0.00     0.049 A 
ATOM     39  N   UNL A   1      39.280  31.610  32.920  1.00  0.00    -0.248 NA
ATOM     40  C   UNL A   1      37.472  33.078  33.067  1.00  0.00     0.031 C 
ATOM     41  C   UNL A   1      37.972  30.449  28.803  1.00  0.00     0.029 A 
ATOM     42  N   UNL A   1      39.438  30.050  30.444  1.00  0.00    -0.354 N 
ATOM     43  C   UNL A   1      39.331  32.286  34.134  1.00  0.00     0.074 A 
ATOM     44  C   UNL A   1      38.232  33.226  34.141  1.00  0.00     0.031 C 
ATOM     45  C   UNL A   1      38.810  29.490  28.373  1.00  0.00     0.029 A 
ATOM     46  C   UNL A   1      39.793  29.213  29.415  1.00  0.00     0.049 A 
ATOM     47  H   UNL A   1      39.924  30.089  31.299  1.00  0.00     0.167 HD
ATOM     48  C   UNL A   1      40.197  32.122  35.161  1.00  0.00     0.037 A 
ATOM     49  C   UNL A   1      40.799  28.323  29.323  1.00  0.00     0.037 A 
ATOM     50  C   UNL A   1      41.261  31.154  35.178  1.00  0.00     0.049 A 
ATOM     51  C   UNL A   1      41.735  28.142  30.485  1.00  0.00     0.074 A 
ATOM     52  C   UNL A   1      42.152  30.868  36.197  1.00  0.00     0.029 A 
ATOM     53  N   UNL A   1      41.568  30.306  34.126  1.00  0.00    -0.354 N 
ATOM     54  N   UNL A   1      41.741  28.756  31.644  1.00  0.00    -0.248 NA
ATOM     55  C   UNL A   1      42.801  27.144  30.327  1.00  0.00     0.031 C 
ATOM     56  C   UNL A   1      43.017  29.862  35.752  1.00  0.00     0.029 A 
ATOM     57  C   UNL A   1      42.642  29.501  34.467  1.00  0.00     0.049 A 
ATOM     58  H   UNL A   1      41.094  30.280  33.264  1.00  0.00     0.167 HD
ATOM     59  C   UNL A   1      42.793  28.201  32.362  1.00  0.00     0.074 A 
ATOM     60  C   UNL A   1      43.395  27.194  31.512  1.00  0.00     0.031 C 
ATOM     61  C   UNL A   1      43.220  28.498  33.612  1.00  0.00     0.037 A 
BRANCH  48  62
ATOM     62  C   UNL A   1      40.018  33.008  36.359  1.00  0.00     0.057 A 
ATOM     63  C   UNL A   1      40.766  34.182  36.526  1.00  0.00     0.134 A 
ATOM     64  C   UNL A   1      39.077  32.695  37.347  1.00  0.00     0.134 A 
ATOM     65  F   UNL A   1      41.693  34.531  35.622  1.00  0.00    -0.206 F 
ATOM     66  C   UNL A   1      40.605  34.996  37.648  1.00  0.00     0.040 A 
ATOM     67  C   UNL A   1      38.890  33.515  38.461  1.00  0.00     0.040 A 
ATOM     68  F   UNL A   1      38.325  31.589  37.246  1.00  0.00    -0.206 F 
ATOM     69  C   UNL A   1      39.660  34.665  38.618  1.00  0.00     0.006 A 
ENDBRANCH  48  62
BRANCH  49  70
ATOM     70  C   UNL A   1      40.953  27.504  28.095  1.00  0.00     0.057 A 
ATOM     71  C   UNL A   1      41.762  27.942  27.040  1.00  0.00     0.134 A 
ATOM     72  C   UNL A   1      40.301  26.276  27.945  1.00  0.00     0.134 A 
ATOM     73  F   UNL A   1      42.396  29.121  27.120  1.00  0.00    -0.206 F 
ATOM     74  C   UNL A   1      41.907  27.193  25.872  1.00  0.00     0.040 A 
ATOM     75  C   UNL A   1      40.454  25.506  26.790  1.00  0.00     0.040 A 
ATOM     76  F   UNL A   1      39.516  25.801  28.923  1.00  0.00    -0.206 F 
ATOM     77  C   UNL A   1      41.255  25.967  25.747  1.00  0.00     0.006 A 
ENDBRANCH  49  70
BRANCH  61  78
ATOM     78  C   UNL A   1      44.374  27.704  34.148  1.00  0.00     0.057 A 
ATOM     79  C   UNL A   1      45.695  28.146  34.018  1.00  0.00     0.134 A 
ATOM     80  C   UNL A   1      44.153  26.504  34.836  1.00  0.00     0.134 A 
ATOM     81  F   UNL A   1      45.971  29.280  33.358  1.00  0.00    -0.206 F 
ATOM     82  C   UNL A   1      46.762  27.412  34.538  1.00  0.00     0.040 A 
ATOM     83  C   UNL A   1      45.209  25.772  35.379  1.00  0.00     0.040 A 
ATOM     84  F   UNL A   1      42.909  26.032  35.001  1.00  0.00    -0.206 F 
ATOM     85  C   UNL A   1      46.519  26.224  35.226  1.00  0.00     0.006 A 
ENDBRANCH  61  78
ENDBRANCH  35  36
ENDBRANCH  27  30
ENDBRANCH  25  26
ENDBRANCH  24  25
ENDBRANCH   1  24
TORSDOF 16
ENDMDL
