MODEL 1
REMARK VINA RESULT:     -12.6      0.000      0.000
REMARK SMILES CCc1ccnc(C(=O)c2[nH]c3ccc(OC(F)(F)F)cc3c2CC(=O)NCCCNC(=O)c2ccc(-c3c4nc(c(-c5c(F)cccc5F)c5ccc([nH]5)c(-c5c(F)cccc5F)c5nc(c(-c6c(F)cccc6F)c6ccc3[nH]6)C=C5)C=C4)cc2)c1
REMARK SMILES IDX 28 1 27 2 25 3 26 4 24 6 23 7 10 8 11 9 12 10 22 12 13 13
REMARK SMILES IDX 21 14 14 15 15 16 8 17 9 18 7 19 3 20 4 21 88 22 5 23 6 24
REMARK SMILES IDX 2 25 1 26 16 27 17 28 18 29 19 30 20 31 29 32 30 33 31 34
REMARK SMILES IDX 32 35 33 37 34 38 35 39 87 40 36 41 86 42 37 43 38 44 39 45
REMARK SMILES IDX 80 46 40 47 85 48 79 49 81 50 41 51 84 52 78 53 77 54 42 56
REMARK SMILES IDX 68 57 51 58 67 59 52 60 55 61 66 62 82 63 53 64 54 65 65 67
REMARK SMILES IDX 83 68 56 69 43 70 44 71 49 72 45 73 46 74 48 75 50 76 47 77
REMARK SMILES IDX 69 78 70 79 75 80 71 81 72 82 74 83 76 84 73 85 57 86 58 87
REMARK SMILES IDX 63 88 59 89 60 90 62 91 64 92 61 93
REMARK H PARENT 27 5 11 11 31 36 81 55 55 66
REMARK Flexibility Score: inf
ROOT
ATOM      1  C   UNL A   1      33.946  26.849  24.986  1.00  0.00     0.117 C 
ENDROOT
BRANCH   1   2
ATOM      2  N   UNL A   1      33.401  25.868  25.905  1.00  0.00    -0.356 N 
ATOM      3  C   UNL A   1      33.546  24.510  25.918  1.00  0.00     0.224 C 
ATOM      4  O   UNL A   1      33.083  23.883  26.873  1.00  0.00    -0.275 OA
ATOM      5  H   UNL A   1      32.842  26.236  26.627  1.00  0.00     0.163 HD
BRANCH   3   6
ATOM      6  C   UNL A   1      34.332  23.801  24.830  1.00  0.00     0.138 C 
BRANCH   6   7
ATOM      7  C   UNL A   1      33.486  23.133  23.785  1.00  0.00    -0.002 A 
ATOM      8  C   UNL A   1      32.810  23.734  22.726  1.00  0.00     0.093 A 
ATOM      9  N   UNL A   1      32.221  22.734  21.989  1.00  0.00    -0.352 N 
ATOM     10  C   UNL A   1      32.422  21.512  22.579  1.00  0.00     0.046 A 
ATOM     11  H   UNL A   1      31.724  22.875  21.151  1.00  0.00     0.167 HD
ATOM     12  C   UNL A   1      33.206  21.727  23.709  1.00  0.00     0.008 A 
ATOM     13  C   UNL A   1      31.988  20.243  22.188  1.00  0.00     0.030 A 
ATOM     14  C   UNL A   1      33.571  20.607  24.486  1.00  0.00     0.057 A 
ATOM     15  C   UNL A   1      32.372  19.149  22.975  1.00  0.00     0.049 A 
ATOM     16  C   UNL A   1      33.159  19.319  24.112  1.00  0.00     0.130 A 
BRANCH   8  17
ATOM     17  C   UNL A   1      32.758  25.127  22.319  1.00  0.00     0.227 C 
ATOM     18  O   UNL A   1      33.636  25.597  21.604  1.00  0.00    -0.285 OA
BRANCH  17  19
ATOM     19  C   UNL A   1      31.548  25.944  22.714  1.00  0.00     0.113 A 
ATOM     20  C   UNL A   1      30.221  27.959  22.672  1.00  0.00    -0.044 A 
ATOM     21  C   UNL A   1      29.368  27.360  23.600  1.00  0.00     0.024 A 
ATOM     22  C   UNL A   1      31.323  27.227  22.211  1.00  0.00     0.036 A 
ATOM     23  C   UNL A   1      29.657  26.080  24.040  1.00  0.00     0.112 A 
ATOM     24  N   UNL A   1      30.728  25.370  23.633  1.00  0.00    -0.253 NA
BRANCH  20  25
ATOM     25  C   UNL A   1      29.971  29.367  22.193  1.00  0.00     0.032 C 
ATOM     26  C   UNL A   1      29.317  30.231  23.263  1.00  0.00     0.009 C 
ENDBRANCH  20  25
ENDBRANCH  17  19
ENDBRANCH   8  17
BRANCH  16  27
ATOM     27  O   UNL A   1      33.603  18.331  24.946  1.00  0.00    -0.406 OA
BRANCH  27  28
ATOM     28  C   UNL A   1      34.670  17.515  24.496  1.00  0.00     0.573 C 
ATOM     29  F   UNL A   1      34.814  16.425  25.280  1.00  0.00    -0.132 F 
ATOM     30  F   UNL A   1      34.484  17.128  23.216  1.00  0.00    -0.132 F 
ATOM     31  F   UNL A   1      35.817  18.228  24.557  1.00  0.00    -0.132 F 
ENDBRANCH  27  28
ENDBRANCH  16  27
ENDBRANCH   6   7
ENDBRANCH   3   6
ENDBRANCH   1   2
BRANCH   1  32
ATOM     32  C   UNL A   1      33.989  28.265  25.557  1.00  0.00     0.042 C 
BRANCH  32  33
ATOM     33  C   UNL A   1      33.700  28.370  27.053  1.00  0.00     0.118 C 
BRANCH  33  34
ATOM     34  N   UNL A   1      33.632  29.747  27.516  1.00  0.00    -0.352 N 
ATOM     35  C   UNL A   1      34.572  30.522  28.146  1.00  0.00     0.251 C 
ATOM     36  H   UNL A   1      32.772  30.195  27.349  1.00  0.00     0.163 HD
ATOM     37  O   UNL A   1      34.242  31.619  28.592  1.00  0.00    -0.269 OA
BRANCH  35  38
ATOM     38  C   UNL A   1      35.973  30.066  28.313  1.00  0.00     0.039 A 
ATOM     39  C   UNL A   1      36.352  29.539  29.554  1.00  0.00     0.014 A 
ATOM     40  C   UNL A   1      36.932  30.232  27.310  1.00  0.00     0.014 A 
ATOM     41  C   UNL A   1      37.672  29.138  29.775  1.00  0.00     0.010 A 
ATOM     42  C   UNL A   1      38.246  29.805  27.520  1.00  0.00     0.010 A 
ATOM     43  C   UNL A   1      38.626  29.256  28.754  1.00  0.00    -0.014 A 
BRANCH  43  44
ATOM     44  C   UNL A   1      40.028  28.829  28.974  1.00  0.00     0.031 A 
ATOM     45  C   UNL A   1      41.010  29.759  29.625  1.00  0.00     0.074 A 
ATOM     46  C   UNL A   1      40.431  27.611  28.569  1.00  0.00     0.049 A 
ATOM     47  N   UNL A   1      42.301  29.615  29.784  1.00  0.00    -0.248 NA
ATOM     48  C   UNL A   1      40.472  31.018  30.159  1.00  0.00     0.031 C 
ATOM     49  C   UNL A   1      39.583  26.606  27.927  1.00  0.00     0.029 A 
ATOM     50  N   UNL A   1      41.664  27.013  28.640  1.00  0.00    -0.354 N 
ATOM     51  C   UNL A   1      42.738  30.779  30.399  1.00  0.00     0.074 A 
ATOM     52  C   UNL A   1      41.571  31.611  30.606  1.00  0.00     0.031 C 
ATOM     53  C   UNL A   1      40.320  25.511  27.675  1.00  0.00     0.029 A 
ATOM     54  C   UNL A   1      41.691  25.746  28.116  1.00  0.00     0.049 A 
ATOM     55  H   UNL A   1      42.454  27.454  29.029  1.00  0.00     0.167 HD
ATOM     56  C   UNL A   1      43.999  31.129  30.746  1.00  0.00     0.037 A 
ATOM     57  C   UNL A   1      42.709  24.875  28.000  1.00  0.00     0.037 A 
ATOM     58  C   UNL A   1      45.162  30.302  30.567  1.00  0.00     0.049 A 
ATOM     59  C   UNL A   1      44.080  25.253  28.472  1.00  0.00     0.074 A 
ATOM     60  C   UNL A   1      46.488  30.604  30.827  1.00  0.00     0.029 A 
ATOM     61  N   UNL A   1      45.131  28.997  30.107  1.00  0.00    -0.354 N 
ATOM     62  N   UNL A   1      44.491  26.388  28.979  1.00  0.00    -0.248 NA
ATOM     63  C   UNL A   1      45.130  24.229  28.352  1.00  0.00     0.031 C 
ATOM     64  C   UNL A   1      47.261  29.471  30.538  1.00  0.00     0.029 A 
ATOM     65  C   UNL A   1      46.411  28.468  30.102  1.00  0.00     0.049 A 
ATOM     66  H   UNL A   1      44.319  28.516  29.824  1.00  0.00     0.167 HD
ATOM     67  C   UNL A   1      45.847  26.223  29.227  1.00  0.00     0.074 A 
ATOM     68  C   UNL A   1      46.187  24.870  28.835  1.00  0.00     0.031 C 
ATOM     69  C   UNL A   1      46.731  27.119  29.722  1.00  0.00     0.037 A 
BRANCH  56  70
ATOM     70  C   UNL A   1      44.184  32.489  31.337  1.00  0.00     0.057 A 
ATOM     71  C   UNL A   1      44.168  32.690  32.721  1.00  0.00     0.134 A 
ATOM     72  C   UNL A   1      44.397  33.601  30.515  1.00  0.00     0.134 A 
ATOM     73  F   UNL A   1      43.954  31.661  33.555  1.00  0.00    -0.206 F 
ATOM     74  C   UNL A   1      44.354  33.959  33.270  1.00  0.00     0.040 A 
ATOM     75  C   UNL A   1      44.589  34.874  31.052  1.00  0.00     0.040 A 
ATOM     76  F   UNL A   1      44.417  33.466  29.180  1.00  0.00    -0.206 F 
ATOM     77  C   UNL A   1      44.567  35.055  32.435  1.00  0.00     0.006 A 
ENDBRANCH  56  70
BRANCH  57  78
ATOM     78  C   UNL A   1      42.466  23.544  27.403  1.00  0.00     0.057 A 
ATOM     79  C   UNL A   1      42.111  22.454  28.204  1.00  0.00     0.134 A 
ATOM     80  C   UNL A   1      42.580  23.337  26.025  1.00  0.00     0.134 A 
ATOM     81  F   UNL A   1      42.003  22.599  29.532  1.00  0.00    -0.206 F 
ATOM     82  C   UNL A   1      41.879  21.195  27.652  1.00  0.00     0.040 A 
ATOM     83  C   UNL A   1      42.346  22.083  25.460  1.00  0.00     0.040 A 
ATOM     84  F   UNL A   1      42.921  24.348  25.215  1.00  0.00    -0.206 F 
ATOM     85  C   UNL A   1      41.995  21.007  26.275  1.00  0.00     0.006 A 
ENDBRANCH  57  78
BRANCH  69  86
ATOM     86  C   UNL A   1      48.147  26.664  29.868  1.00  0.00     0.057 A 
ATOM     87  C   UNL A   1      48.580  26.016  31.030  1.00  0.00     0.134 A 
ATOM     88  C   UNL A   1      49.074  26.853  28.838  1.00  0.00     0.134 A 
ATOM     89  F   UNL A   1      47.735  25.818  32.053  1.00  0.00    -0.206 F 
ATOM     90  C   UNL A   1      49.896  25.572  31.164  1.00  0.00     0.040 A 
ATOM     91  C   UNL A   1      50.392  26.412  28.960  1.00  0.00     0.040 A 
ATOM     92  F   UNL A   1      48.716  27.477  27.705  1.00  0.00    -0.206 F 
ATOM     93  C   UNL A   1      50.805  25.769  30.126  1.00  0.00     0.006 A 
ENDBRANCH  69  86
ENDBRANCH  43  44
ENDBRANCH  35  38
ENDBRANCH  33  34
ENDBRANCH  32  33
ENDBRANCH   1  32
TORSDOF 16
ENDMDL
MODEL 2
REMARK VINA RESULT:     -12.5      2.105      6.857
REMARK SMILES CCc1ccnc(C(=O)c2[nH]c3ccc(OC(F)(F)F)cc3c2CC(=O)NCCCNC(=O)c2ccc(-c3c4nc(c(-c5c(F)cccc5F)c5ccc([nH]5)c(-c5c(F)cccc5F)c5nc(c(-c6c(F)cccc6F)c6ccc3[nH]6)C=C5)C=C4)cc2)c1
REMARK SMILES IDX 28 1 27 2 25 3 26 4 24 6 23 7 10 8 11 9 12 10 22 12 13 13
REMARK SMILES IDX 21 14 14 15 15 16 8 17 9 18 7 19 3 20 4 21 88 22 5 23 6 24
REMARK SMILES IDX 2 25 1 26 16 27 17 28 18 29 19 30 20 31 29 32 30 33 31 34
REMARK SMILES IDX 32 35 33 37 34 38 35 39 87 40 36 41 86 42 37 43 38 44 39 45
REMARK SMILES IDX 80 46 40 47 85 48 79 49 81 50 41 51 84 52 78 53 77 54 42 56
REMARK SMILES IDX 68 57 51 58 67 59 52 60 55 61 66 62 82 63 53 64 54 65 65 67
REMARK SMILES IDX 83 68 56 69 43 70 44 71 49 72 45 73 46 74 48 75 50 76 47 77
REMARK SMILES IDX 69 78 70 79 75 80 71 81 72 82 74 83 76 84 73 85 57 86 58 87
REMARK SMILES IDX 63 88 59 89 60 90 62 91 64 92 61 93
REMARK H PARENT 27 5 11 11 31 36 81 55 55 66
REMARK Flexibility Score: inf
ROOT
ATOM      1  C   UNL A   1      37.137  20.487  25.153  1.00  0.00     0.117 C 
ENDROOT
BRANCH   1   2
ATOM      2  N   UNL A   1      37.235  21.934  25.126  1.00  0.00    -0.356 N 
ATOM      3  C   UNL A   1      36.302  22.878  25.447  1.00  0.00     0.224 C 
ATOM      4  O   UNL A   1      36.648  24.060  25.461  1.00  0.00    -0.275 OA
ATOM      5  H   UNL A   1      38.104  22.289  24.831  1.00  0.00     0.163 HD
BRANCH   3   6
ATOM      6  C   UNL A   1      34.897  22.474  25.860  1.00  0.00     0.138 C 
BRANCH   6   7
ATOM      7  C   UNL A   1      33.978  22.161  24.716  1.00  0.00    -0.002 A 
ATOM      8  C   UNL A   1      33.426  23.052  23.799  1.00  0.00     0.093 A 
ATOM      9  N   UNL A   1      32.702  22.318  22.890  1.00  0.00    -0.352 N 
ATOM     10  C   UNL A   1      32.697  20.990  23.232  1.00  0.00     0.046 A 
ATOM     11  H   UNL A   1      32.250  22.693  22.101  1.00  0.00     0.167 HD
ATOM     12  C   UNL A   1      33.482  20.857  24.374  1.00  0.00     0.008 A 
ATOM     13  C   UNL A   1      32.077  19.903  22.609  1.00  0.00     0.030 A 
ATOM     14  C   UNL A   1      33.651  19.566  24.917  1.00  0.00     0.057 A 
ATOM     15  C   UNL A   1      32.269  18.632  23.167  1.00  0.00     0.049 A 
ATOM     16  C   UNL A   1      33.050  18.455  24.308  1.00  0.00     0.130 A 
BRANCH   8  17
ATOM     17  C   UNL A   1      33.601  24.488  23.668  1.00  0.00     0.227 C 
ATOM     18  O   UNL A   1      34.247  24.951  22.734  1.00  0.00    -0.285 OA
BRANCH  17  19
ATOM     19  C   UNL A   1      32.884  25.390  24.648  1.00  0.00     0.113 A 
ATOM     20  C   UNL A   1      32.819  27.230  26.207  1.00  0.00    -0.044 A 
ATOM     21  C   UNL A   1      31.498  26.881  26.492  1.00  0.00     0.024 A 
ATOM     22  C   UNL A   1      33.517  26.477  25.255  1.00  0.00     0.036 A 
ATOM     23  C   UNL A   1      30.942  25.794  25.838  1.00  0.00     0.112 A 
ATOM     24  N   UNL A   1      31.605  25.038  24.941  1.00  0.00    -0.253 NA
BRANCH  20  25
ATOM     25  C   UNL A   1      33.482  28.380  26.923  1.00  0.00     0.032 C 
ATOM     26  C   UNL A   1      33.138  29.725  26.295  1.00  0.00     0.009 C 
ENDBRANCH  20  25
ENDBRANCH  17  19
ENDBRANCH   8  17
BRANCH  16  27
ATOM     27  O   UNL A   1      33.317  17.268  24.931  1.00  0.00    -0.406 OA
BRANCH  27  28
ATOM     28  C   UNL A   1      34.451  16.535  24.502  1.00  0.00     0.573 C 
ATOM     29  F   UNL A   1      34.669  15.467  25.299  1.00  0.00    -0.132 F 
ATOM     30  F   UNL A   1      34.312  16.123  23.224  1.00  0.00    -0.132 F 
ATOM     31  F   UNL A   1      35.536  17.337  24.569  1.00  0.00    -0.132 F 
ENDBRANCH  27  28
ENDBRANCH  16  27
ENDBRANCH   6   7
ENDBRANCH   3   6
ENDBRANCH   1   2
BRANCH   1  32
ATOM     32  C   UNL A   1      38.470  19.778  24.923  1.00  0.00     0.042 C 
BRANCH  32  33
ATOM     33  C   UNL A   1      39.393  19.724  26.139  1.00  0.00     0.118 C 
BRANCH  33  34
ATOM     34  N   UNL A   1      40.665  19.080  25.849  1.00  0.00    -0.352 N 
ATOM     35  C   UNL A   1      41.941  19.580  25.873  1.00  0.00     0.251 C 
ATOM     36  H   UNL A   1      40.597  18.132  25.594  1.00  0.00     0.163 HD
ATOM     37  O   UNL A   1      42.862  18.894  25.434  1.00  0.00    -0.269 OA
BRANCH  35  38
ATOM     38  C   UNL A   1      42.239  20.932  26.405  1.00  0.00     0.039 A 
ATOM     39  C   UNL A   1      42.153  21.130  27.789  1.00  0.00     0.014 A 
ATOM     40  C   UNL A   1      42.508  22.017  25.566  1.00  0.00     0.014 A 
ATOM     41  C   UNL A   1      42.380  22.397  28.334  1.00  0.00     0.010 A 
ATOM     42  C   UNL A   1      42.762  23.279  26.113  1.00  0.00     0.010 A 
ATOM     43  C   UNL A   1      42.699  23.478  27.500  1.00  0.00    -0.014 A 
BRANCH  43  44
ATOM     44  C   UNL A   1      42.947  24.825  28.066  1.00  0.00     0.031 A 
ATOM     45  C   UNL A   1      44.332  25.231  28.475  1.00  0.00     0.074 A 
ATOM     46  C   UNL A   1      41.924  25.682  28.234  1.00  0.00     0.049 A 
ATOM     47  N   UNL A   1      44.723  26.311  29.105  1.00  0.00    -0.248 NA
ATOM     48  C   UNL A   1      45.419  24.299  28.143  1.00  0.00     0.031 C 
ATOM     49  C   UNL A   1      40.529  25.420  27.877  1.00  0.00     0.029 A 
ATOM     50  N   UNL A   1      41.904  26.952  28.753  1.00  0.00    -0.354 N 
ATOM     51  C   UNL A   1      46.092  26.171  29.280  1.00  0.00     0.074 A 
ATOM     52  C   UNL A   1      46.470  24.913  28.671  1.00  0.00     0.031 C 
ATOM     53  C   UNL A   1      39.792  26.503  28.175  1.00  0.00     0.029 A 
ATOM     54  C   UNL A   1      40.656  27.521  28.763  1.00  0.00     0.049 A 
ATOM     55  H   UNL A   1      42.709  27.410  29.087  1.00  0.00     0.167 HD
ATOM     56  C   UNL A   1      46.953  27.008  29.904  1.00  0.00     0.037 A 
ATOM     57  C   UNL A   1      40.254  28.727  29.204  1.00  0.00     0.037 A 
ATOM     58  C   UNL A   1      46.594  28.270  30.493  1.00  0.00     0.049 A 
ATOM     59  C   UNL A   1      41.244  29.673  29.813  1.00  0.00     0.074 A 
ATOM     60  C   UNL A   1      47.389  29.151  31.206  1.00  0.00     0.029 A 
ATOM     61  N   UNL A   1      45.337  28.843  30.410  1.00  0.00    -0.354 N 
ATOM     62  N   UNL A   1      42.521  29.493  30.043  1.00  0.00    -0.248 NA
ATOM     63  C   UNL A   1      40.735  30.990  30.228  1.00  0.00     0.031 C 
ATOM     64  C   UNL A   1      46.614  30.269  31.542  1.00  0.00     0.029 A 
ATOM     65  C   UNL A   1      45.339  30.080  31.033  1.00  0.00     0.049 A 
ATOM     66  H   UNL A   1      44.556  28.432  29.973  1.00  0.00     0.167 HD
ATOM     67  C   UNL A   1      42.967  30.664  30.639  1.00  0.00     0.074 A 
ATOM     68  C   UNL A   1      41.830  31.558  30.719  1.00  0.00     0.031 C 
ATOM     69  C   UNL A   1      44.206  30.962  31.094  1.00  0.00     0.037 A 
BRANCH  56  70
ATOM     70  C   UNL A   1      48.376  26.563  30.003  1.00  0.00     0.057 A 
ATOM     71  C   UNL A   1      49.324  26.936  29.046  1.00  0.00     0.134 A 
ATOM     72  C   UNL A   1      48.803  25.768  31.074  1.00  0.00     0.134 A 
ATOM     73  F   UNL A   1      48.967  27.686  27.992  1.00  0.00    -0.206 F 
ATOM     74  C   UNL A   1      50.655  26.529  29.148  1.00  0.00     0.040 A 
ATOM     75  C   UNL A   1      50.131  25.359  31.190  1.00  0.00     0.040 A 
ATOM     76  F   UNL A   1      47.934  25.377  32.018  1.00  0.00    -0.206 F 
ATOM     77  C   UNL A   1      51.062  25.740  30.223  1.00  0.00     0.006 A 
ENDBRANCH  56  70
BRANCH  57  78
ATOM     78  C   UNL A   1      38.832  29.111  29.082  1.00  0.00     0.057 A 
ATOM     79  C   UNL A   1      37.971  29.029  30.182  1.00  0.00     0.134 A 
ATOM     80  C   UNL A   1      38.306  29.569  27.870  1.00  0.00     0.134 A 
ATOM     81  F   UNL A   1      38.424  28.581  31.361  1.00  0.00    -0.206 F 
ATOM     82  C   UNL A   1      36.628  29.388  30.079  1.00  0.00     0.040 A 
ATOM     83  C   UNL A   1      36.965  29.937  27.755  1.00  0.00     0.040 A 
ATOM     84  F   UNL A   1      39.088  29.664  26.786  1.00  0.00    -0.206 F 
ATOM     85  C   UNL A   1      36.122  29.845  28.862  1.00  0.00     0.006 A 
ENDBRANCH  57  78
BRANCH  69  86
ATOM     86  C   UNL A   1      44.394  32.308  31.713  1.00  0.00     0.057 A 
ATOM     87  C   UNL A   1      44.781  33.410  30.941  1.00  0.00     0.134 A 
ATOM     88  C   UNL A   1      44.168  32.511  33.078  1.00  0.00     0.134 A 
ATOM     89  F   UNL A   1      45.019  33.270  29.629  1.00  0.00    -0.206 F 
ATOM     90  C   UNL A   1      44.939  34.673  31.510  1.00  0.00     0.040 A 
ATOM     91  C   UNL A   1      44.323  33.770  33.659  1.00  0.00     0.040 A 
ATOM     92  F   UNL A   1      43.806  31.489  33.867  1.00  0.00    -0.206 F 
ATOM     93  C   UNL A   1      44.709  34.856  32.873  1.00  0.00     0.006 A 
ENDBRANCH  69  86
ENDBRANCH  43  44
ENDBRANCH  35  38
ENDBRANCH  33  34
ENDBRANCH  32  33
ENDBRANCH   1  32
TORSDOF 16
ENDMDL
MODEL 3
REMARK VINA RESULT:     -12.5      2.029      6.605
REMARK SMILES CCc1ccnc(C(=O)c2[nH]c3ccc(OC(F)(F)F)cc3c2CC(=O)NCCCNC(=O)c2ccc(-c3c4nc(c(-c5c(F)cccc5F)c5ccc([nH]5)c(-c5c(F)cccc5F)c5nc(c(-c6c(F)cccc6F)c6ccc3[nH]6)C=C5)C=C4)cc2)c1
REMARK SMILES IDX 28 1 27 2 25 3 26 4 24 6 23 7 10 8 11 9 12 10 22 12 13 13
REMARK SMILES IDX 21 14 14 15 15 16 8 17 9 18 7 19 3 20 4 21 88 22 5 23 6 24
REMARK SMILES IDX 2 25 1 26 16 27 17 28 18 29 19 30 20 31 29 32 30 33 31 34
REMARK SMILES IDX 32 35 33 37 34 38 35 39 87 40 36 41 86 42 37 43 38 44 39 45
REMARK SMILES IDX 80 46 40 47 85 48 79 49 81 50 41 51 84 52 78 53 77 54 42 56
REMARK SMILES IDX 68 57 51 58 67 59 52 60 55 61 66 62 82 63 53 64 54 65 65 67
REMARK SMILES IDX 83 68 56 69 43 70 44 71 49 72 45 73 46 74 48 75 50 76 47 77
REMARK SMILES IDX 69 78 70 79 75 80 71 81 72 82 74 83 76 84 73 85 57 86 58 87
REMARK SMILES IDX 63 88 59 89 60 90 62 91 64 92 61 93
REMARK H PARENT 27 5 11 11 31 36 81 55 55 66
REMARK Flexibility Score: inf
ROOT
ATOM      1  C   UNL A   1      36.440  20.562  24.967  1.00  0.00     0.117 C 
ENDROOT
BRANCH   1   2
ATOM      2  N   UNL A   1      36.694  21.988  25.053  1.00  0.00    -0.356 N 
ATOM      3  C   UNL A   1      35.836  23.010  25.341  1.00  0.00     0.224 C 
ATOM      4  O   UNL A   1      36.302  24.143  25.475  1.00  0.00    -0.275 OA
ATOM      5  H   UNL A   1      37.624  22.258  24.878  1.00  0.00     0.163 HD
BRANCH   3   6
ATOM      6  C   UNL A   1      34.359  22.745  25.574  1.00  0.00     0.138 C 
BRANCH   6   7
ATOM      7  C   UNL A   1      33.570  22.476  24.326  1.00  0.00    -0.002 A 
ATOM      8  C   UNL A   1      33.134  23.399  23.379  1.00  0.00     0.093 A 
ATOM      9  N   UNL A   1      32.509  22.701  22.374  1.00  0.00    -0.352 N 
ATOM     10  C   UNL A   1      32.451  21.364  22.675  1.00  0.00     0.046 A 
ATOM     11  H   UNL A   1      32.152  23.104  21.550  1.00  0.00     0.167 HD
ATOM     12  C   UNL A   1      33.102  21.189  23.893  1.00  0.00     0.008 A 
ATOM     13  C   UNL A   1      31.894  20.303  21.956  1.00  0.00     0.030 A 
ATOM     14  C   UNL A   1      33.196  19.882  24.414  1.00  0.00     0.057 A 
ATOM     15  C   UNL A   1      32.008  19.015  22.495  1.00  0.00     0.049 A 
ATOM     16  C   UNL A   1      32.655  18.796  23.710  1.00  0.00     0.130 A 
BRANCH   8  17
ATOM     17  C   UNL A   1      33.338  24.836  23.310  1.00  0.00     0.227 C 
ATOM     18  O   UNL A   1      33.950  25.330  22.369  1.00  0.00    -0.285 OA
BRANCH  17  19
ATOM     19  C   UNL A   1      32.691  25.704  24.366  1.00  0.00     0.113 A 
ATOM     20  C   UNL A   1      32.764  27.405  26.075  1.00  0.00    -0.044 A 
ATOM     21  C   UNL A   1      31.420  27.134  26.336  1.00  0.00     0.024 A 
ATOM     22  C   UNL A   1      33.404  26.685  25.059  1.00  0.00     0.036 A 
ATOM     23  C   UNL A   1      30.783  26.153  25.595  1.00  0.00     0.112 A 
ATOM     24  N   UNL A   1      31.389  25.427  24.634  1.00  0.00    -0.253 NA
BRANCH  20  25
ATOM     25  C   UNL A   1      33.512  28.437  26.882  1.00  0.00     0.032 C 
ATOM     26  C   UNL A   1      32.639  29.635  27.236  1.00  0.00     0.009 C 
ENDBRANCH  20  25
ENDBRANCH  17  19
ENDBRANCH   8  17
BRANCH  16  27
ATOM     27  O   UNL A   1      32.837  17.589  24.325  1.00  0.00    -0.406 OA
BRANCH  27  28
ATOM     28  C   UNL A   1      33.988  16.837  23.981  1.00  0.00     0.573 C 
ATOM     29  F   UNL A   1      33.882  15.561  24.408  1.00  0.00    -0.132 F 
ATOM     30  F   UNL A   1      34.199  16.850  22.647  1.00  0.00    -0.132 F 
ATOM     31  F   UNL A   1      35.064  17.392  24.582  1.00  0.00    -0.132 F 
ENDBRANCH  27  28
ENDBRANCH  16  27
ENDBRANCH   6   7
ENDBRANCH   3   6
ENDBRANCH   1   2
BRANCH   1  32
ATOM     32  C   UNL A   1      37.710  19.714  24.947  1.00  0.00     0.042 C 
BRANCH  32  33
ATOM     33  C   UNL A   1      38.890  20.296  25.721  1.00  0.00     0.118 C 
BRANCH  33  34
ATOM     34  N   UNL A   1      40.056  19.425  25.705  1.00  0.00    -0.352 N 
ATOM     35  C   UNL A   1      41.373  19.696  25.975  1.00  0.00     0.251 C 
ATOM     36  H   UNL A   1      39.867  18.490  25.462  1.00  0.00     0.163 HD
ATOM     37  O   UNL A   1      42.220  18.835  25.744  1.00  0.00    -0.269 OA
BRANCH  35  38
ATOM     38  C   UNL A   1      41.803  21.003  26.526  1.00  0.00     0.039 A 
ATOM     39  C   UNL A   1      41.759  21.180  27.915  1.00  0.00     0.014 A 
ATOM     40  C   UNL A   1      42.157  22.076  25.703  1.00  0.00     0.014 A 
ATOM     41  C   UNL A   1      42.111  22.409  28.480  1.00  0.00     0.010 A 
ATOM     42  C   UNL A   1      42.536  23.297  26.268  1.00  0.00     0.010 A 
ATOM     43  C   UNL A   1      42.515  23.473  27.660  1.00  0.00    -0.014 A 
BRANCH  43  44
ATOM     44  C   UNL A   1      42.896  24.779  28.247  1.00  0.00     0.031 A 
ATOM     45  C   UNL A   1      41.849  25.815  28.533  1.00  0.00     0.074 A 
ATOM     46  C   UNL A   1      44.188  25.049  28.506  1.00  0.00     0.049 A 
ATOM     47  N   UNL A   1      42.001  27.057  28.922  1.00  0.00    -0.248 NA
ATOM     48  C   UNL A   1      40.448  25.407  28.350  1.00  0.00     0.031 C 
ATOM     49  C   UNL A   1      45.308  24.134  28.281  1.00  0.00     0.029 A 
ATOM     50  N   UNL A   1      44.776  26.178  29.016  1.00  0.00    -0.354 N 
ATOM     51  C   UNL A   1      40.722  27.590  28.991  1.00  0.00     0.074 A 
ATOM     52  C   UNL A   1      39.802  26.532  28.627  1.00  0.00     0.031 C 
ATOM     53  C   UNL A   1      46.446  24.735  28.665  1.00  0.00     0.029 A 
ATOM     54  C   UNL A   1      46.139  26.081  29.139  1.00  0.00     0.049 A 
ATOM     55  H   UNL A   1      44.267  26.983  29.268  1.00  0.00     0.167 HD
ATOM     56  C   UNL A   1      40.349  28.850  29.315  1.00  0.00     0.037 A 
ATOM     57  C   UNL A   1      47.038  26.978  29.580  1.00  0.00     0.037 A 
ATOM     58  C   UNL A   1      41.250  29.902  29.700  1.00  0.00     0.049 A 
ATOM     59  C   UNL A   1      46.590  28.340  30.016  1.00  0.00     0.074 A 
ATOM     60  C   UNL A   1      40.966  31.229  29.978  1.00  0.00     0.029 A 
ATOM     61  N   UNL A   1      42.612  29.737  29.888  1.00  0.00    -0.354 N 
ATOM     62  N   UNL A   1      45.386  28.854  30.000  1.00  0.00    -0.248 NA
ATOM     63  C   UNL A   1      47.629  29.248  30.527  1.00  0.00     0.031 C 
ATOM     64  C   UNL A   1      42.158  31.864  30.352  1.00  0.00     0.029 A 
ATOM     65  C   UNL A   1      43.179  30.929  30.308  1.00  0.00     0.049 A 
ATOM     66  H   UNL A   1      43.104  28.896  29.745  1.00  0.00     0.167 HD
ATOM     67  C   UNL A   1      45.520  30.147  30.485  1.00  0.00     0.074 A 
ATOM     68  C   UNL A   1      46.920  30.335  30.807  1.00  0.00     0.031 C 
ATOM     69  C   UNL A   1      44.568  31.097  30.635  1.00  0.00     0.037 A 
BRANCH  56  70
ATOM     70  C   UNL A   1      38.890  29.164  29.238  1.00  0.00     0.057 A 
ATOM     71  C   UNL A   1      38.074  29.112  30.372  1.00  0.00     0.134 A 
ATOM     72  C   UNL A   1      38.303  29.537  28.023  1.00  0.00     0.134 A 
ATOM     73  F   UNL A   1      38.581  28.747  31.559  1.00  0.00    -0.206 F 
ATOM     74  C   UNL A   1      36.714  29.417  30.299  1.00  0.00     0.040 A 
ATOM     75  C   UNL A   1      36.946  29.849  27.939  1.00  0.00     0.040 A 
ATOM     76  F   UNL A   1      39.039  29.598  26.903  1.00  0.00    -0.206 F 
ATOM     77  C   UNL A   1      36.148  29.790  29.081  1.00  0.00     0.006 A 
ENDBRANCH  56  70
BRANCH  57  78
ATOM     78  C   UNL A   1      48.470  26.612  29.629  1.00  0.00     0.057 A 
ATOM     79  C   UNL A   1      49.332  26.947  28.581  1.00  0.00     0.134 A 
ATOM     80  C   UNL A   1      49.003  25.924  30.724  1.00  0.00     0.134 A 
ATOM     81  F   UNL A   1      48.866  27.594  27.503  1.00  0.00    -0.206 F 
ATOM     82  C   UNL A   1      50.684  26.607  28.617  1.00  0.00     0.040 A 
ATOM     83  C   UNL A   1      50.355  25.582  30.775  1.00  0.00     0.040 A 
ATOM     84  F   UNL A   1      48.218  25.577  31.753  1.00  0.00    -0.206 F 
ATOM     85  C   UNL A   1      51.199  25.923  29.718  1.00  0.00     0.006 A 
ENDBRANCH  57  78
BRANCH  69  86
ATOM     86  C   UNL A   1      45.010  32.419  31.172  1.00  0.00     0.057 A 
ATOM     87  C   UNL A   1      45.448  33.436  30.316  1.00  0.00     0.134 A 
ATOM     88  C   UNL A   1      44.979  32.686  32.545  1.00  0.00     0.134 A 
ATOM     89  F   UNL A   1      45.507  33.231  28.992  1.00  0.00    -0.206 F 
ATOM     90  C   UNL A   1      45.844  34.679  30.810  1.00  0.00     0.040 A 
ATOM     91  C   UNL A   1      45.372  33.925  33.051  1.00  0.00     0.040 A 
ATOM     92  F   UNL A   1      44.578  31.745  33.412  1.00  0.00    -0.206 F 
ATOM     93  C   UNL A   1      45.805  34.926  32.182  1.00  0.00     0.006 A 
ENDBRANCH  69  86
ENDBRANCH  43  44
ENDBRANCH  35  38
ENDBRANCH  33  34
ENDBRANCH  32  33
ENDBRANCH   1  32
TORSDOF 16
ENDMDL
