MODEL 1
REMARK VINA RESULT:     -11.5      0.000      0.000
REMARK SMILES CC(C)c1nc(N2C[C@H](C)OC(C)(C)C2)sc1C(=O)NCCCNC(=O)c1ccc(-c2c3nc(c(-c4c(F)cccc4F)c4ccc([nH]4)c(-c4c(F)cccc4F)c4nc(c(-c5c(F)cccc5F)c5ccc2[nH]5)C=C4)C=C3)cc1
REMARK SMILES IDX 22 1 21 2 20 3 18 4 19 5 17 7 4 8 5 9 6 10 16 11 2 12 1 13
REMARK SMILES IDX 3 14 7 15 8 16 15 17 9 18 12 19 11 20 10 21 13 22 14 23
REMARK SMILES IDX 23 24 24 25 25 26 26 28 27 29 28 30 80 31 29 32 79 33 30 34
REMARK SMILES IDX 31 35 32 36 73 37 33 38 78 39 72 40 74 41 34 42 77 43 71 44
REMARK SMILES IDX 70 45 35 47 61 48 44 49 60 50 45 51 48 52 59 53 75 54 46 55
REMARK SMILES IDX 47 56 58 58 76 59 49 60 36 61 37 62 42 63 38 64 39 65 41 66
REMARK SMILES IDX 43 67 40 68 62 69 63 70 68 71 64 72 65 73 67 74 69 75 66 76
REMARK SMILES IDX 50 77 51 78 56 79 52 80 53 81 55 82 57 83 54 84
REMARK H PARENT 20 6 24 27 74 46 48 57
REMARK Flexibility Score: inf
ROOT
ATOM      1  C   UNL A   1      37.196  19.437  25.050  1.00  0.00     0.042 C 
ENDROOT
BRANCH   1   2
ATOM      2  C   UNL A   1      36.008  20.340  24.740  1.00  0.00     0.118 C 
BRANCH   2   3
ATOM      3  N   UNL A   1      35.110  20.439  25.860  1.00  0.00    -0.351 N 
ATOM      4  C   UNL A   1      34.375  21.433  26.448  1.00  0.00     0.263 C 
ATOM      5  O   UNL A   1      33.754  20.979  27.423  1.00  0.00    -0.268 OA
ATOM      6  H   UNL A   1      34.995  19.575  26.319  1.00  0.00     0.163 HD
BRANCH   4   7
ATOM      7  C   UNL A   1      34.255  22.839  26.041  1.00  0.00     0.117 A 
ATOM      8  C   UNL A   1      34.972  23.873  25.425  1.00  0.00     0.069 A 
ATOM      9  N   UNL A   1      34.256  25.064  25.264  1.00  0.00    -0.224 NA
ATOM     10  C   UNL A   1      33.116  25.055  25.896  1.00  0.00     0.186 A 
ATOM     11  S   UNL A   1      32.718  23.534  26.548  1.00  0.00    -0.091 S 
BRANCH   8  12
ATOM     12  C   UNL A   1      36.391  24.044  24.942  1.00  0.00     0.034 C 
ATOM     13  C   UNL A   1      37.420  23.804  26.043  1.00  0.00     0.014 C 
ATOM     14  C   UNL A   1      36.668  23.420  23.571  1.00  0.00     0.014 C 
ENDBRANCH   8  12
BRANCH  10  15
ATOM     15  N   UNL A   1      32.306  26.135  25.996  1.00  0.00    -0.343 N 
ATOM     16  C   UNL A   1      32.780  27.395  26.567  1.00  0.00     0.150 C 
ATOM     17  C   UNL A   1      31.124  26.245  25.142  1.00  0.00     0.153 C 
ATOM     18  C   UNL A   1      32.966  28.431  25.439  1.00  0.00     0.135 C 
ATOM     19  C   UNL A   1      31.253  27.389  24.098  1.00  0.00     0.081 C 
ATOM     20  O   UNL A   1      31.745  28.610  24.696  1.00  0.00    -0.369 OA
ATOM     21  C   UNL A   1      33.357  29.790  26.004  1.00  0.00     0.040 C 
ATOM     22  C   UNL A   1      32.128  26.990  22.901  1.00  0.00     0.044 C 
ATOM     23  C   UNL A   1      29.848  27.727  23.575  1.00  0.00     0.044 C 
ENDBRANCH  10  15
ENDBRANCH   4   7
ENDBRANCH   2   3
ENDBRANCH   1   2
BRANCH   1  24
ATOM     24  C   UNL A   1      38.441  20.206  25.458  1.00  0.00     0.118 C 
BRANCH  24  25
ATOM     25  N   UNL A   1      39.586  19.323  25.645  1.00  0.00    -0.352 N 
ATOM     26  C   UNL A   1      40.882  19.587  26.012  1.00  0.00     0.251 C 
ATOM     27  H   UNL A   1      39.397  18.371  25.478  1.00  0.00     0.163 HD
ATOM     28  O   UNL A   1      41.733  18.705  25.860  1.00  0.00    -0.269 OA
BRANCH  26  29
ATOM     29  C   UNL A   1      41.289  20.898  26.570  1.00  0.00     0.039 A 
ATOM     30  C   UNL A   1      41.285  21.076  27.959  1.00  0.00     0.014 A 
ATOM     31  C   UNL A   1      41.613  21.977  25.747  1.00  0.00     0.014 A 
ATOM     32  C   UNL A   1      41.656  22.306  28.512  1.00  0.00     0.010 A 
ATOM     33  C   UNL A   1      42.093  23.161  26.298  1.00  0.00     0.010 A 
ATOM     34  C   UNL A   1      42.099  23.351  27.688  1.00  0.00    -0.014 A 
BRANCH  34  35
ATOM     35  C   UNL A   1      42.529  24.664  28.237  1.00  0.00     0.031 A 
ATOM     36  C   UNL A   1      41.510  25.752  28.467  1.00  0.00     0.074 A 
ATOM     37  C   UNL A   1      43.835  24.912  28.455  1.00  0.00     0.049 A 
ATOM     38  N   UNL A   1      41.693  27.004  28.806  1.00  0.00    -0.248 NA
ATOM     39  C   UNL A   1      40.098  25.394  28.247  1.00  0.00     0.031 C 
ATOM     40  C   UNL A   1      44.928  23.965  28.230  1.00  0.00     0.029 A 
ATOM     41  N   UNL A   1      44.465  26.045  28.903  1.00  0.00    -0.354 N 
ATOM     42  C   UNL A   1      40.430  27.586  28.801  1.00  0.00     0.074 A 
ATOM     43  C   UNL A   1      39.496  26.567  28.374  1.00  0.00     0.031 C 
ATOM     44  C   UNL A   1      46.091  24.547  28.568  1.00  0.00     0.029 A 
ATOM     45  C   UNL A   1      45.831  25.918  28.992  1.00  0.00     0.049 A 
ATOM     46  H   UNL A   1      43.986  26.872  29.140  1.00  0.00     0.167 HD
ATOM     47  C   UNL A   1      40.074  28.846  29.145  1.00  0.00     0.037 A 
ATOM     48  C   UNL A   1      46.769  26.809  29.365  1.00  0.00     0.037 A 
ATOM     49  C   UNL A   1      40.995  29.841  29.625  1.00  0.00     0.049 A 
ATOM     50  C   UNL A   1      46.347  28.194  29.771  1.00  0.00     0.074 A 
ATOM     51  C   UNL A   1      40.726  31.124  30.068  1.00  0.00     0.029 A 
ATOM     52  N   UNL A   1      42.365  29.657  29.737  1.00  0.00    -0.354 N 
ATOM     53  N   UNL A   1      45.145  28.715  29.806  1.00  0.00    -0.248 NA
ATOM     54  C   UNL A   1      47.413  29.115  30.191  1.00  0.00     0.031 C 
ATOM     55  C   UNL A   1      41.938  31.729  30.419  1.00  0.00     0.029 A 
ATOM     56  C   UNL A   1      42.956  30.807  30.232  1.00  0.00     0.049 A 
ATOM     57  H   UNL A   1      42.846  28.831  29.500  1.00  0.00     0.167 HD
ATOM     58  C   UNL A   1      45.304  30.011  30.278  1.00  0.00     0.074 A 
ATOM     59  C   UNL A   1      46.719  30.193  30.527  1.00  0.00     0.031 C 
ATOM     60  C   UNL A   1      44.366  30.966  30.486  1.00  0.00     0.037 A 
BRANCH  47  61
ATOM     61  C   UNL A   1      38.623  29.214  29.027  1.00  0.00     0.057 A 
ATOM     62  C   UNL A   1      37.759  29.180  30.131  1.00  0.00     0.134 A 
ATOM     63  C   UNL A   1      38.087  29.631  27.803  1.00  0.00     0.134 A 
ATOM     64  F   UNL A   1      38.206  28.778  31.331  1.00  0.00    -0.206 F 
ATOM     65  C   UNL A   1      36.410  29.518  30.014  1.00  0.00     0.040 A 
ATOM     66  C   UNL A   1      36.746  29.998  27.680  1.00  0.00     0.040 A 
ATOM     67  F   UNL A   1      38.858  29.693  26.706  1.00  0.00    -0.206 F 
ATOM     68  C   UNL A   1      35.901  29.935  28.786  1.00  0.00     0.006 A 
ENDBRANCH  47  61
BRANCH  48  69
ATOM     69  C   UNL A   1      48.198  26.411  29.407  1.00  0.00     0.057 A 
ATOM     70  C   UNL A   1      49.037  26.634  28.307  1.00  0.00     0.134 A 
ATOM     71  C   UNL A   1      48.761  25.802  30.534  1.00  0.00     0.134 A 
ATOM     72  F   UNL A   1      48.550  27.198  27.192  1.00  0.00    -0.206 F 
ATOM     73  C   UNL A   1      50.377  26.248  28.320  1.00  0.00     0.040 A 
ATOM     74  C   UNL A   1      50.106  25.432  30.569  1.00  0.00     0.040 A 
ATOM     75  F   UNL A   1      48.013  25.569  31.622  1.00  0.00    -0.206 F 
ATOM     76  C   UNL A   1      50.917  25.649  29.456  1.00  0.00     0.006 A 
ENDBRANCH  48  69
BRANCH  60  77
ATOM     77  C   UNL A   1      44.832  32.276  31.044  1.00  0.00     0.057 A 
ATOM     78  C   UNL A   1      44.927  32.499  32.423  1.00  0.00     0.134 A 
ATOM     79  C   UNL A   1      45.230  33.312  30.189  1.00  0.00     0.134 A 
ATOM     80  F   UNL A   1      44.549  31.550  33.293  1.00  0.00    -0.206 F 
ATOM     81  C   UNL A   1      45.384  33.715  32.933  1.00  0.00     0.040 A 
ATOM     82  C   UNL A   1      45.711  34.523  30.688  1.00  0.00     0.040 A 
ATOM     83  F   UNL A   1      45.171  33.158  28.858  1.00  0.00    -0.206 F 
ATOM     84  C   UNL A   1      45.783  34.729  32.064  1.00  0.00     0.006 A 
ENDBRANCH  60  77
ENDBRANCH  34  35
ENDBRANCH  26  29
ENDBRANCH  24  25
ENDBRANCH   1  24
TORSDOF 12
ENDMDL
MODEL 2
REMARK VINA RESULT:     -11.4      4.020      9.312
REMARK SMILES CC(C)c1nc(N2C[C@H](C)OC(C)(C)C2)sc1C(=O)NCCCNC(=O)c1ccc(-c2c3nc(c(-c4c(F)cccc4F)c4ccc([nH]4)c(-c4c(F)cccc4F)c4nc(c(-c5c(F)cccc5F)c5ccc2[nH]5)C=C4)C=C3)cc1
REMARK SMILES IDX 22 1 21 2 20 3 18 4 19 5 17 7 4 8 5 9 6 10 16 11 2 12 1 13
REMARK SMILES IDX 3 14 7 15 8 16 15 17 9 18 12 19 11 20 10 21 13 22 14 23
REMARK SMILES IDX 23 24 24 25 25 26 26 28 27 29 28 30 80 31 29 32 79 33 30 34
REMARK SMILES IDX 31 35 32 36 73 37 33 38 78 39 72 40 74 41 34 42 77 43 71 44
REMARK SMILES IDX 70 45 35 47 61 48 44 49 60 50 45 51 48 52 59 53 75 54 46 55
REMARK SMILES IDX 47 56 58 58 76 59 49 60 36 61 37 62 42 63 38 64 39 65 41 66
REMARK SMILES IDX 43 67 40 68 62 69 63 70 68 71 64 72 65 73 67 74 69 75 66 76
REMARK SMILES IDX 50 77 51 78 56 79 52 80 53 81 55 82 57 83 54 84
REMARK H PARENT 20 6 24 27 74 46 48 57
REMARK Flexibility Score: inf
ROOT
ATOM      1  C   UNL A   1      33.807  33.792  28.581  1.00  0.00     0.042 C 
ENDROOT
BRANCH   1   2
ATOM      2  C   UNL A   1      34.473  35.040  29.147  1.00  0.00     0.118 C 
BRANCH   2   3
ATOM      3  N   UNL A   1      34.169  35.218  30.541  1.00  0.00    -0.351 N 
ATOM      4  C   UNL A   1      34.697  34.785  31.728  1.00  0.00     0.263 C 
ATOM      5  O   UNL A   1      34.034  35.237  32.676  1.00  0.00    -0.268 OA
ATOM      6  H   UNL A   1      33.383  35.797  30.678  1.00  0.00     0.163 HD
BRANCH   4   7
ATOM      7  C   UNL A   1      35.880  33.942  31.944  1.00  0.00     0.117 A 
ATOM      8  C   UNL A   1      37.156  33.682  31.428  1.00  0.00     0.069 A 
ATOM      9  N   UNL A   1      37.890  32.728  32.141  1.00  0.00    -0.224 NA
ATOM     10  C   UNL A   1      37.175  32.114  33.041  1.00  0.00     0.186 A 
ATOM     11  S   UNL A   1      35.627  32.788  33.250  1.00  0.00    -0.091 S 
BRANCH   8  12
ATOM     12  C   UNL A   1      37.928  34.138  30.215  1.00  0.00     0.034 C 
ATOM     13  C   UNL A   1      39.331  34.631  30.561  1.00  0.00     0.014 C 
ATOM     14  C   UNL A   1      37.785  33.222  28.997  1.00  0.00     0.014 C 
ENDBRANCH   8  12
BRANCH  10  15
ATOM     15  N   UNL A   1      37.627  31.065  33.770  1.00  0.00    -0.343 N 
ATOM     16  C   UNL A   1      37.700  29.718  33.205  1.00  0.00     0.150 C 
ATOM     17  C   UNL A   1      38.476  31.296  34.938  1.00  0.00     0.153 C 
ATOM     18  C   UNL A   1      39.175  29.353  32.940  1.00  0.00     0.135 C 
ATOM     19  C   UNL A   1      39.930  30.793  34.722  1.00  0.00     0.081 C 
ATOM     20  O   UNL A   1      39.960  29.468  34.142  1.00  0.00    -0.369 OA
ATOM     21  C   UNL A   1      39.303  27.916  32.450  1.00  0.00     0.040 C 
ATOM     22  C   UNL A   1      40.764  31.765  33.875  1.00  0.00     0.044 C 
ATOM     23  C   UNL A   1      40.603  30.653  36.096  1.00  0.00     0.044 C 
ENDBRANCH  10  15
ENDBRANCH   4   7
ENDBRANCH   2   3
ENDBRANCH   1   2
BRANCH   1  24
ATOM     24  C   UNL A   1      34.530  32.508  28.954  1.00  0.00     0.118 C 
BRANCH  24  25
ATOM     25  N   UNL A   1      33.943  31.346  28.297  1.00  0.00    -0.352 N 
ATOM     26  C   UNL A   1      34.519  30.215  27.776  1.00  0.00     0.251 C 
ATOM     27  H   UNL A   1      32.963  31.378  28.212  1.00  0.00     0.163 HD
ATOM     28  O   UNL A   1      33.840  29.485  27.046  1.00  0.00    -0.269 OA
BRANCH  26  29
ATOM     29  C   UNL A   1      35.930  29.852  28.051  1.00  0.00     0.039 A 
ATOM     30  C   UNL A   1      36.265  29.333  29.307  1.00  0.00     0.014 A 
ATOM     31  C   UNL A   1      36.940  30.075  27.116  1.00  0.00     0.014 A 
ATOM     32  C   UNL A   1      37.590  28.991  29.597  1.00  0.00     0.010 A 
ATOM     33  C   UNL A   1      38.235  29.628  27.361  1.00  0.00     0.010 A 
ATOM     34  C   UNL A   1      38.583  29.102  28.613  1.00  0.00    -0.014 A 
BRANCH  34  35
ATOM     35  C   UNL A   1      39.998  28.723  28.871  1.00  0.00     0.031 A 
ATOM     36  C   UNL A   1      40.943  29.723  29.489  1.00  0.00     0.074 A 
ATOM     37  C   UNL A   1      40.459  27.518  28.481  1.00  0.00     0.049 A 
ATOM     38  N   UNL A   1      42.237  29.642  29.669  1.00  0.00    -0.248 NA
ATOM     39  C   UNL A   1      40.359  31.002  29.928  1.00  0.00     0.031 C 
ATOM     40  C   UNL A   1      39.663  26.476  27.829  1.00  0.00     0.029 A 
ATOM     41  N   UNL A   1      41.714  26.972  28.566  1.00  0.00    -0.354 N 
ATOM     42  C   UNL A   1      42.623  30.867  30.202  1.00  0.00     0.074 A 
ATOM     43  C   UNL A   1      41.437  31.692  30.266  1.00  0.00     0.031 C 
ATOM     44  C   UNL A   1      40.444  25.407  27.600  1.00  0.00     0.029 A 
ATOM     45  C   UNL A   1      41.800  25.702  28.047  1.00  0.00     0.049 A 
ATOM     46  H   UNL A   1      42.482  27.445  28.961  1.00  0.00     0.167 HD
ATOM     47  C   UNL A   1      43.847  31.262  30.624  1.00  0.00     0.037 A 
ATOM     48  C   UNL A   1      42.855  24.873  27.937  1.00  0.00     0.037 A 
ATOM     49  C   UNL A   1      45.014  30.420  30.614  1.00  0.00     0.049 A 
ATOM     50  C   UNL A   1      44.199  25.323  28.439  1.00  0.00     0.074 A 
ATOM     51  C   UNL A   1      46.285  30.701  31.086  1.00  0.00     0.029 A 
ATOM     52  N   UNL A   1      45.047  29.127  30.116  1.00  0.00    -0.354 N 
ATOM     53  N   UNL A   1      44.538  26.467  28.983  1.00  0.00    -0.248 NA
ATOM     54  C   UNL A   1      45.308  24.366  28.314  1.00  0.00     0.031 C 
ATOM     55  C   UNL A   1      47.096  29.586  30.845  1.00  0.00     0.029 A 
ATOM     56  C   UNL A   1      46.319  28.599  30.259  1.00  0.00     0.049 A 
ATOM     57  H   UNL A   1      44.280  28.654  29.720  1.00  0.00     0.167 HD
ATOM     58  C   UNL A   1      45.887  26.357  29.291  1.00  0.00     0.074 A 
ATOM     59  C   UNL A   1      46.302  25.030  28.884  1.00  0.00     0.031 C 
ATOM     60  C   UNL A   1      46.710  27.271  29.859  1.00  0.00     0.037 A 
BRANCH  47  61
ATOM     61  C   UNL A   1      43.982  32.664  31.147  1.00  0.00     0.057 A 
ATOM     62  C   UNL A   1      44.029  32.939  32.520  1.00  0.00     0.134 A 
ATOM     63  C   UNL A   1      44.093  33.748  30.267  1.00  0.00     0.134 A 
ATOM     64  F   UNL A   1      43.917  31.947  33.416  1.00  0.00    -0.206 F 
ATOM     65  C   UNL A   1      44.149  34.245  32.999  1.00  0.00     0.040 A 
ATOM     66  C   UNL A   1      44.241  35.055  30.735  1.00  0.00     0.040 A 
ATOM     67  F   UNL A   1      44.062  33.556  28.939  1.00  0.00    -0.206 F 
ATOM     68  C   UNL A   1      44.262  35.307  32.105  1.00  0.00     0.006 A 
ENDBRANCH  47  61
BRANCH  48  69
ATOM     69  C   UNL A   1      42.679  23.519  27.357  1.00  0.00     0.057 A 
ATOM     70  C   UNL A   1      42.346  22.428  28.170  1.00  0.00     0.134 A 
ATOM     71  C   UNL A   1      42.838  23.278  25.988  1.00  0.00     0.134 A 
ATOM     72  F   UNL A   1      42.197  22.594  29.492  1.00  0.00    -0.206 F 
ATOM     73  C   UNL A   1      42.197  21.144  27.646  1.00  0.00     0.040 A 
ATOM     74  C   UNL A   1      42.668  22.002  25.446  1.00  0.00     0.040 A 
ATOM     75  F   UNL A   1      43.149  24.281  25.155  1.00  0.00    -0.206 F 
ATOM     76  C   UNL A   1      42.354  20.929  26.278  1.00  0.00     0.006 A 
ENDBRANCH  48  69
BRANCH  60  77
ATOM     77  C   UNL A   1      48.129  26.856  30.109  1.00  0.00     0.057 A 
ATOM     78  C   UNL A   1      48.499  26.148  31.259  1.00  0.00     0.134 A 
ATOM     79  C   UNL A   1      49.127  27.132  29.166  1.00  0.00     0.134 A 
ATOM     80  F   UNL A   1      47.591  25.865  32.205  1.00  0.00    -0.206 F 
ATOM     81  C   UNL A   1      49.818  25.746  31.472  1.00  0.00     0.040 A 
ATOM     82  C   UNL A   1      50.444  26.713  29.357  1.00  0.00     0.040 A 
ATOM     83  F   UNL A   1      48.835  27.798  28.040  1.00  0.00    -0.206 F 
ATOM     84  C   UNL A   1      50.794  26.023  30.516  1.00  0.00     0.006 A 
ENDBRANCH  60  77
ENDBRANCH  34  35
ENDBRANCH  26  29
ENDBRANCH  24  25
ENDBRANCH   1  24
TORSDOF 12
ENDMDL
MODEL 3
REMARK VINA RESULT:     -11.3      4.038      9.295
REMARK SMILES CC(C)c1nc(N2C[C@H](C)OC(C)(C)C2)sc1C(=O)NCCCNC(=O)c1ccc(-c2c3nc(c(-c4c(F)cccc4F)c4ccc([nH]4)c(-c4c(F)cccc4F)c4nc(c(-c5c(F)cccc5F)c5ccc2[nH]5)C=C4)C=C3)cc1
REMARK SMILES IDX 22 1 21 2 20 3 18 4 19 5 17 7 4 8 5 9 6 10 16 11 2 12 1 13
REMARK SMILES IDX 3 14 7 15 8 16 15 17 9 18 12 19 11 20 10 21 13 22 14 23
REMARK SMILES IDX 23 24 24 25 25 26 26 28 27 29 28 30 80 31 29 32 79 33 30 34
REMARK SMILES IDX 31 35 32 36 73 37 33 38 78 39 72 40 74 41 34 42 77 43 71 44
REMARK SMILES IDX 70 45 35 47 61 48 44 49 60 50 45 51 48 52 59 53 75 54 46 55
REMARK SMILES IDX 47 56 58 58 76 59 49 60 36 61 37 62 42 63 38 64 39 65 41 66
REMARK SMILES IDX 43 67 40 68 62 69 63 70 68 71 64 72 65 73 67 74 69 75 66 76
REMARK SMILES IDX 50 77 51 78 56 79 52 80 53 81 55 82 57 83 54 84
REMARK H PARENT 20 6 24 27 74 46 48 57
REMARK Flexibility Score: inf
ROOT
ATOM      1  C   UNL A   1      30.994  31.510  25.637  1.00  0.00     0.042 C 
ENDROOT
BRANCH   1   2
ATOM      2  C   UNL A   1      30.968  30.034  25.258  1.00  0.00     0.118 C 
BRANCH   2   3
ATOM      3  N   UNL A   1      31.731  29.779  24.066  1.00  0.00    -0.351 N 
ATOM      4  C   UNL A   1      32.662  28.855  23.670  1.00  0.00     0.263 C 
ATOM      5  O   UNL A   1      33.024  29.092  22.506  1.00  0.00    -0.268 OA
ATOM      6  H   UNL A   1      31.536  30.432  23.355  1.00  0.00     0.163 HD
BRANCH   4   7
ATOM      7  C   UNL A   1      33.186  27.711  24.426  1.00  0.00     0.117 A 
ATOM      8  C   UNL A   1      33.572  27.326  25.717  1.00  0.00     0.069 A 
ATOM      9  N   UNL A   1      33.975  25.992  25.832  1.00  0.00    -0.224 NA
ATOM     10  C   UNL A   1      34.104  25.404  24.676  1.00  0.00     0.186 A 
ATOM     11  S   UNL A   1      33.539  26.343  23.374  1.00  0.00    -0.091 S 
BRANCH   8  12
ATOM     12  C   UNL A   1      33.732  28.039  27.037  1.00  0.00     0.034 C 
ATOM     13  C   UNL A   1      34.736  29.186  26.969  1.00  0.00     0.014 C 
ATOM     14  C   UNL A   1      32.416  28.297  27.775  1.00  0.00     0.014 C 
ENDBRANCH   8  12
BRANCH  10  15
ATOM     15  N   UNL A   1      34.603  24.154  24.522  1.00  0.00    -0.343 N 
ATOM     16  C   UNL A   1      36.043  23.900  24.537  1.00  0.00     0.150 C 
ATOM     17  C   UNL A   1      33.764  22.991  24.801  1.00  0.00     0.153 C 
ATOM     18  C   UNL A   1      36.426  23.204  25.861  1.00  0.00     0.135 C 
ATOM     19  C   UNL A   1      34.240  22.204  26.054  1.00  0.00     0.081 C 
ATOM     20  O   UNL A   1      35.670  21.993  26.044  1.00  0.00    -0.369 OA
ATOM     21  C   UNL A   1      37.901  22.826  25.872  1.00  0.00     0.040 C 
ATOM     22  C   UNL A   1      33.809  22.879  27.364  1.00  0.00     0.044 C 
ATOM     23  C   UNL A   1      33.618  20.800  26.010  1.00  0.00     0.044 C 
ENDBRANCH  10  15
ENDBRANCH   4   7
ENDBRANCH   2   3
ENDBRANCH   1   2
BRANCH   1  24
ATOM     24  C   UNL A   1      32.109  31.858  26.609  1.00  0.00     0.118 C 
BRANCH  24  25
ATOM     25  N   UNL A   1      32.100  33.273  26.959  1.00  0.00    -0.352 N 
ATOM     26  C   UNL A   1      32.830  33.982  27.881  1.00  0.00     0.251 C 
ATOM     27  H   UNL A   1      31.460  33.816  26.444  1.00  0.00     0.163 HD
ATOM     28  O   UNL A   1      32.469  35.127  28.169  1.00  0.00    -0.269 OA
BRANCH  26  29
ATOM     29  C   UNL A   1      34.024  33.410  28.546  1.00  0.00     0.039 A 
ATOM     30  C   UNL A   1      35.229  34.121  28.507  1.00  0.00     0.014 A 
ATOM     31  C   UNL A   1      33.995  32.154  29.152  1.00  0.00     0.014 A 
ATOM     32  C   UNL A   1      36.375  33.600  29.118  1.00  0.00     0.010 A 
ATOM     33  C   UNL A   1      35.100  31.690  29.860  1.00  0.00     0.010 A 
ATOM     34  C   UNL A   1      36.311  32.394  29.833  1.00  0.00    -0.014 A 
BRANCH  34  35
ATOM     35  C   UNL A   1      37.498  31.820  30.521  1.00  0.00     0.031 A 
ATOM     36  C   UNL A   1      38.344  30.785  29.822  1.00  0.00     0.074 A 
ATOM     37  C   UNL A   1      37.774  32.162  31.795  1.00  0.00     0.049 A 
ATOM     38  N   UNL A   1      39.331  30.064  30.291  1.00  0.00    -0.248 NA
ATOM     39  C   UNL A   1      38.008  30.494  28.418  1.00  0.00     0.031 C 
ATOM     40  C   UNL A   1      37.010  33.114  32.602  1.00  0.00     0.029 A 
ATOM     41  N   UNL A   1      38.767  31.734  32.639  1.00  0.00    -0.354 N 
ATOM     42  C   UNL A   1      39.703  29.213  29.257  1.00  0.00     0.074 A 
ATOM     43  C   UNL A   1      38.803  29.468  28.154  1.00  0.00     0.031 C 
ATOM     44  C   UNL A   1      37.580  33.220  33.814  1.00  0.00     0.029 A 
ATOM     45  C   UNL A   1      38.721  32.313  33.884  1.00  0.00     0.049 A 
ATOM     46  H   UNL A   1      39.450  31.075  32.377  1.00  0.00     0.167 HD
ATOM     47  C   UNL A   1      40.718  28.317  29.217  1.00  0.00     0.037 A 
ATOM     48  C   UNL A   1      39.504  32.128  34.964  1.00  0.00     0.037 A 
ATOM     49  C   UNL A   1      41.649  28.106  30.293  1.00  0.00     0.049 A 
ATOM     50  C   UNL A   1      40.642  31.149  34.886  1.00  0.00     0.074 A 
ATOM     51  C   UNL A   1      42.756  27.275  30.327  1.00  0.00     0.029 A 
ATOM     52  N   UNL A   1      41.589  28.742  31.523  1.00  0.00    -0.354 N 
ATOM     53  N   UNL A   1      41.011  30.387  33.886  1.00  0.00    -0.248 NA
ATOM     54  C   UNL A   1      41.477  31.008  36.088  1.00  0.00     0.031 C 
ATOM     55  C   UNL A   1      43.347  27.385  31.590  1.00  0.00     0.029 A 
ATOM     56  C   UNL A   1      42.632  28.315  32.328  1.00  0.00     0.049 A 
ATOM     57  H   UNL A   1      40.906  29.401  31.786  1.00  0.00     0.167 HD
ATOM     58  C   UNL A   1      42.133  29.697  34.325  1.00  0.00     0.074 A 
ATOM     59  C   UNL A   1      42.393  30.142  35.679  1.00  0.00     0.031 C 
ATOM     60  C   UNL A   1      42.882  28.779  33.669  1.00  0.00     0.037 A 
BRANCH  47  61
ATOM     61  C   UNL A   1      40.883  27.510  27.962  1.00  0.00     0.057 A 
ATOM     62  C   UNL A   1      41.674  27.955  26.894  1.00  0.00     0.134 A 
ATOM     63  C   UNL A   1      40.263  26.261  27.828  1.00  0.00     0.134 A 
ATOM     64  F   UNL A   1      42.286  29.148  26.953  1.00  0.00    -0.206 F 
ATOM     65  C   UNL A   1      41.818  27.202  25.728  1.00  0.00     0.040 A 
ATOM     66  C   UNL A   1      40.423  25.487  26.677  1.00  0.00     0.040 A 
ATOM     67  F   UNL A   1      39.497  25.770  28.814  1.00  0.00    -0.206 F 
ATOM     68  C   UNL A   1      41.196  25.960  25.619  1.00  0.00     0.006 A 
ENDBRANCH  47  61
BRANCH  48  69
ATOM     69  C   UNL A   1      39.261  32.910  36.201  1.00  0.00     0.057 A 
ATOM     70  C   UNL A   1      38.407  32.424  37.201  1.00  0.00     0.134 A 
ATOM     71  C   UNL A   1      39.867  34.152  36.419  1.00  0.00     0.134 A 
ATOM     72  F   UNL A   1      37.784  31.248  37.041  1.00  0.00    -0.206 F 
ATOM     73  C   UNL A   1      38.150  33.154  38.361  1.00  0.00     0.040 A 
ATOM     74  C   UNL A   1      39.638  34.882  37.586  1.00  0.00     0.040 A 
ATOM     75  F   UNL A   1      40.701  34.668  35.504  1.00  0.00    -0.206 F 
ATOM     76  C   UNL A   1      38.770  34.386  38.559  1.00  0.00     0.006 A 
ENDBRANCH  48  69
BRANCH  60  77
ATOM     77  C   UNL A   1      44.073  28.223  34.389  1.00  0.00     0.057 A 
ATOM     78  C   UNL A   1      45.321  28.854  34.347  1.00  0.00     0.134 A 
ATOM     79  C   UNL A   1      43.956  27.064  35.168  1.00  0.00     0.134 A 
ATOM     80  F   UNL A   1      45.500  29.960  33.609  1.00  0.00    -0.206 F 
ATOM     81  C   UNL A   1      46.419  28.341  35.040  1.00  0.00     0.040 A 
ATOM     82  C   UNL A   1      45.040  26.557  35.884  1.00  0.00     0.040 A 
ATOM     83  F   UNL A   1      42.784  26.418  35.256  1.00  0.00    -0.206 F 
ATOM     84  C   UNL A   1      46.278  27.192  35.816  1.00  0.00     0.006 A 
ENDBRANCH  60  77
ENDBRANCH  34  35
ENDBRANCH  26  29
ENDBRANCH  24  25
ENDBRANCH   1  24
TORSDOF 12
ENDMDL
