MODEL 1
REMARK VINA RESULT:     -12.1      0.000      0.000
REMARK SMILES Cc1ccccc1OCc1nc2cc(C(=O)NCCCNC(=O)c3ccc(-c4c5nc(c(-c6c(F)cccc6F)c6ccc([nH]6)c(-c6c(F)cccc6F)c6nc(c(-c7c(F)cccc7F)c7ccc4[nH]7)C=C6)C=C5)cc3)ccc2n1C[C@H](C)O
REMARK SMILES IDX 18 1 17 2 15 3 16 4 14 6 10 7 11 8 81 9 12 10 80 11 13 12
REMARK SMILES IDX 79 13 78 14 9 15 8 16 7 17 1 18 2 19 3 20 4 21 6 22 5 23
REMARK SMILES IDX 82 24 83 25 84 26 85 27 19 29 20 30 21 31 22 32 23 34 24 35
REMARK SMILES IDX 25 36 77 37 26 38 76 39 27 40 28 41 29 42 70 43 30 44 75 45
REMARK SMILES IDX 69 46 71 47 31 48 74 49 68 50 67 51 32 53 58 54 41 55 57 56
REMARK SMILES IDX 42 57 45 58 56 59 72 60 43 61 44 62 55 64 73 65 46 66 33 67
REMARK SMILES IDX 34 68 39 69 35 70 36 71 38 72 40 73 37 74 59 75 60 76 65 77
REMARK SMILES IDX 61 78 62 79 64 80 66 81 63 82 47 83 48 84 53 85 49 86 50 87
REMARK SMILES IDX 52 88 54 89 51 90
REMARK H PARENT 17 5 85 28 21 33 71 52 45 63
REMARK Flexibility Score: inf
ROOT
ATOM      1  C   UNL A   1      31.838  30.691  26.832  1.00  0.00     0.118 C 
ENDROOT
BRANCH   1   2
ATOM      2  N   UNL A   1      31.422  30.452  25.445  1.00  0.00    -0.352 N 
ATOM      3  C   UNL A   1      31.568  29.293  24.695  1.00  0.00     0.251 C 
ATOM      4  O   UNL A   1      31.202  29.216  23.530  1.00  0.00    -0.269 OA
ATOM      5  H   UNL A   1      30.984  31.207  24.990  1.00  0.00     0.163 HD
BRANCH   3   6
ATOM      6  C   UNL A   1      32.137  28.127  25.395  1.00  0.00     0.042 A 
ATOM      7  C   UNL A   1      32.383  23.703  25.207  1.00  0.00     0.148 A 
ATOM      8  N   UNL A   1      31.377  24.484  25.584  1.00  0.00    -0.229 NA
ATOM      9  N   UNL A   1      33.271  24.467  24.494  1.00  0.00    -0.322 N 
ATOM     10  C   UNL A   1      31.887  25.766  25.492  1.00  0.00     0.090 A 
ATOM     11  C   UNL A   1      33.214  25.712  25.079  1.00  0.00     0.068 A 
ATOM     12  C   UNL A   1      31.299  27.024  25.651  1.00  0.00     0.044 A 
ATOM     13  C   UNL A   1      34.107  26.782  25.111  1.00  0.00     0.029 A 
ATOM     14  C   UNL A   1      33.531  28.027  25.307  1.00  0.00     0.016 A 
BRANCH   7  15
ATOM     15  C   UNL A   1      32.847  22.423  25.835  1.00  0.00     0.304 C 
BRANCH  15  16
ATOM     16  O   UNL A   1      34.167  22.744  26.330  1.00  0.00    -0.485 OA
BRANCH  16  17
ATOM     17  C   UNL A   1      35.206  22.058  25.768  1.00  0.00     0.122 A 
ATOM     18  C   UNL A   1      36.745  24.074  26.124  1.00  0.00     0.048 C 
ATOM     19  C   UNL A   1      36.471  22.670  25.677  1.00  0.00    -0.009 A 
ATOM     20  C   UNL A   1      37.560  21.916  25.220  1.00  0.00     0.007 A 
ATOM     21  C   UNL A   1      37.400  20.575  24.886  1.00  0.00     0.001 A 
ATOM     22  C   UNL A   1      35.049  20.713  25.437  1.00  0.00     0.047 A 
ATOM     23  C   UNL A   1      36.148  19.973  25.001  1.00  0.00     0.004 A 
ENDBRANCH  16  17
ENDBRANCH  15  16
ENDBRANCH   7  15
BRANCH   9  24
ATOM     24  C   UNL A   1      33.754  24.260  23.136  1.00  0.00     0.155 C 
BRANCH  24  25
ATOM     25  C   UNL A   1      32.805  24.576  21.981  1.00  0.00     0.131 C 
ATOM     26  C   UNL A   1      32.870  26.060  21.640  1.00  0.00     0.040 C 
BRANCH  25  27
ATOM     27  O   UNL A   1      31.472  24.251  22.376  1.00  0.00    -0.392 OA
ATOM     28  H   UNL A   1      31.366  23.286  22.392  1.00  0.00     0.211 HD
ENDBRANCH  25  27
ENDBRANCH  24  25
ENDBRANCH   9  24
ENDBRANCH   3   6
ENDBRANCH   1   2
BRANCH   1  29
ATOM     29  C   UNL A   1      33.275  31.207  26.935  1.00  0.00     0.042 C 
BRANCH  29  30
ATOM     30  C   UNL A   1      34.093  30.506  28.000  1.00  0.00     0.118 C 
BRANCH  30  31
ATOM     31  N   UNL A   1      34.875  31.388  28.865  1.00  0.00    -0.352 N 
ATOM     32  C   UNL A   1      36.104  31.124  29.453  1.00  0.00     0.251 C 
ATOM     33  H   UNL A   1      34.485  32.274  29.051  1.00  0.00     0.163 HD
ATOM     34  O   UNL A   1      36.666  31.963  30.146  1.00  0.00    -0.269 OA
BRANCH  32  35
ATOM     35  C   UNL A   1      36.790  29.859  29.098  1.00  0.00     0.039 A 
ATOM     36  C   UNL A   1      37.031  28.956  30.136  1.00  0.00     0.014 A 
ATOM     37  C   UNL A   1      37.471  29.751  27.888  1.00  0.00     0.014 A 
ATOM     38  C   UNL A   1      38.164  28.154  30.075  1.00  0.00     0.010 A 
ATOM     39  C   UNL A   1      38.655  29.040  27.872  1.00  0.00     0.010 A 
ATOM     40  C   UNL A   1      39.043  28.318  29.007  1.00  0.00    -0.014 A 
BRANCH  40  41
ATOM     41  C   UNL A   1      40.439  27.903  29.075  1.00  0.00     0.031 A 
ATOM     42  C   UNL A   1      40.846  26.561  28.622  1.00  0.00     0.074 A 
ATOM     43  C   UNL A   1      41.381  28.768  29.520  1.00  0.00     0.049 A 
ATOM     44  N   UNL A   1      41.960  26.007  28.961  1.00  0.00    -0.248 NA
ATOM     45  C   UNL A   1      39.996  25.690  27.811  1.00  0.00     0.031 C 
ATOM     46  C   UNL A   1      42.834  28.634  29.416  1.00  0.00     0.029 A 
ATOM     47  N   UNL A   1      41.200  29.848  30.400  1.00  0.00    -0.354 N 
ATOM     48  C   UNL A   1      42.122  24.906  28.164  1.00  0.00     0.074 A 
ATOM     49  C   UNL A   1      40.821  24.658  27.600  1.00  0.00     0.031 C 
ATOM     50  C   UNL A   1      43.404  29.343  30.402  1.00  0.00     0.029 A 
ATOM     51  C   UNL A   1      42.337  29.844  31.246  1.00  0.00     0.049 A 
ATOM     52  H   UNL A   1      40.442  30.476  30.423  1.00  0.00     0.167 HD
ATOM     53  C   UNL A   1      43.381  24.430  27.958  1.00  0.00     0.037 A 
ATOM     54  C   UNL A   1      42.218  29.621  32.587  1.00  0.00     0.037 A 
ATOM     55  C   UNL A   1      44.328  24.950  28.944  1.00  0.00     0.049 A 
ATOM     56  C   UNL A   1      42.953  28.398  33.101  1.00  0.00     0.074 A 
ATOM     57  C   UNL A   1      45.439  25.775  28.924  1.00  0.00     0.029 A 
ATOM     58  N   UNL A   1      44.039  24.743  30.283  1.00  0.00    -0.354 N 
ATOM     59  N   UNL A   1      43.663  27.594  32.358  1.00  0.00    -0.248 NA
ATOM     60  C   UNL A   1      42.854  27.928  34.485  1.00  0.00     0.031 C 
ATOM     61  C   UNL A   1      45.768  26.103  30.279  1.00  0.00     0.029 A 
ATOM     62  C   UNL A   1      44.881  25.448  31.114  1.00  0.00     0.049 A 
ATOM     63  H   UNL A   1      43.315  24.157  30.604  1.00  0.00     0.167 HD
ATOM     64  C   UNL A   1      44.011  26.489  33.092  1.00  0.00     0.074 A 
ATOM     65  C   UNL A   1      43.502  26.754  34.424  1.00  0.00     0.031 C 
ATOM     66  C   UNL A   1      44.630  25.404  32.546  1.00  0.00     0.037 A 
BRANCH  53  67
ATOM     67  C   UNL A   1      43.783  23.582  26.775  1.00  0.00     0.057 A 
ATOM     68  C   UNL A   1      44.448  24.162  25.679  1.00  0.00     0.134 A 
ATOM     69  C   UNL A   1      43.434  22.226  26.593  1.00  0.00     0.134 A 
ATOM     70  F   UNL A   1      44.819  25.450  25.691  1.00  0.00    -0.206 F 
ATOM     71  C   UNL A   1      44.742  23.451  24.505  1.00  0.00     0.040 A 
ATOM     72  C   UNL A   1      43.777  21.490  25.452  1.00  0.00     0.040 A 
ATOM     73  F   UNL A   1      42.686  21.552  27.473  1.00  0.00    -0.206 F 
ATOM     74  C   UNL A   1      44.421  22.106  24.393  1.00  0.00     0.006 A 
ENDBRANCH  53  67
BRANCH  54  75
ATOM     75  C   UNL A   1      40.950  30.153  33.148  1.00  0.00     0.057 A 
ATOM     76  C   UNL A   1      40.838  31.538  33.374  1.00  0.00     0.134 A 
ATOM     77  C   UNL A   1      39.764  29.415  33.121  1.00  0.00     0.134 A 
ATOM     78  F   UNL A   1      41.939  32.307  33.410  1.00  0.00    -0.206 F 
ATOM     79  C   UNL A   1      39.598  32.175  33.450  1.00  0.00     0.040 A 
ATOM     80  C   UNL A   1      38.516  30.041  33.213  1.00  0.00     0.040 A 
ATOM     81  F   UNL A   1      39.785  28.095  32.884  1.00  0.00    -0.206 F 
ATOM     82  C   UNL A   1      38.431  31.427  33.336  1.00  0.00     0.006 A 
ENDBRANCH  54  75
BRANCH  66  83
ATOM     83  C   UNL A   1      44.998  24.182  33.338  1.00  0.00     0.057 A 
ATOM     84  C   UNL A   1      44.095  23.134  33.565  1.00  0.00     0.134 A 
ATOM     85  C   UNL A   1      46.237  24.074  34.000  1.00  0.00     0.134 A 
ATOM     86  F   UNL A   1      42.871  23.150  33.016  1.00  0.00    -0.206 F 
ATOM     87  C   UNL A   1      44.412  22.039  34.379  1.00  0.00     0.040 A 
ATOM     88  C   UNL A   1      46.547  23.010  34.852  1.00  0.00     0.040 A 
ATOM     89  F   UNL A   1      47.207  24.984  33.825  1.00  0.00    -0.206 F 
ATOM     90  C   UNL A   1      45.635  21.983  35.040  1.00  0.00     0.006 A 
ENDBRANCH  66  83
ENDBRANCH  40  41
ENDBRANCH  32  35
ENDBRANCH  30  31
ENDBRANCH  29  30
ENDBRANCH   1  29
TORSDOF 16
ENDMDL
MODEL 2
REMARK VINA RESULT:     -11.8      3.767      9.465
REMARK SMILES Cc1ccccc1OCc1nc2cc(C(=O)NCCCNC(=O)c3ccc(-c4c5nc(c(-c6c(F)cccc6F)c6ccc([nH]6)c(-c6c(F)cccc6F)c6nc(c(-c7c(F)cccc7F)c7ccc4[nH]7)C=C6)C=C5)cc3)ccc2n1C[C@H](C)O
REMARK SMILES IDX 18 1 17 2 15 3 16 4 14 6 10 7 11 8 81 9 12 10 80 11 13 12
REMARK SMILES IDX 79 13 78 14 9 15 8 16 7 17 1 18 2 19 3 20 4 21 6 22 5 23
REMARK SMILES IDX 82 24 83 25 84 26 85 27 19 29 20 30 21 31 22 32 23 34 24 35
REMARK SMILES IDX 25 36 77 37 26 38 76 39 27 40 28 41 29 42 70 43 30 44 75 45
REMARK SMILES IDX 69 46 71 47 31 48 74 49 68 50 67 51 32 53 58 54 41 55 57 56
REMARK SMILES IDX 42 57 45 58 56 59 72 60 43 61 44 62 55 64 73 65 46 66 33 67
REMARK SMILES IDX 34 68 39 69 35 70 36 71 38 72 40 73 37 74 59 75 60 76 65 77
REMARK SMILES IDX 61 78 62 79 64 80 66 81 63 82 47 83 48 84 53 85 49 86 50 87
REMARK SMILES IDX 52 88 54 89 51 90
REMARK H PARENT 17 5 85 28 21 33 71 52 45 63
REMARK Flexibility Score: inf
ROOT
ATOM      1  C   UNL A   1      38.034  21.982  25.028  1.00  0.00     0.118 C 
ENDROOT
BRANCH   1   2
ATOM      2  N   UNL A   1      36.814  21.176  25.166  1.00  0.00    -0.352 N 
ATOM      3  C   UNL A   1      35.501  21.565  24.936  1.00  0.00     0.251 C 
ATOM      4  O   UNL A   1      34.555  20.810  25.108  1.00  0.00    -0.269 OA
ATOM      5  H   UNL A   1      36.942  20.245  25.457  1.00  0.00     0.163 HD
BRANCH   3   6
ATOM      6  C   UNL A   1      35.304  22.929  24.410  1.00  0.00     0.042 A 
ATOM      7  C   UNL A   1      32.169  25.697  22.934  1.00  0.00     0.148 A 
ATOM      8  N   UNL A   1      32.734  24.653  22.336  1.00  0.00    -0.229 NA
ATOM      9  N   UNL A   1      32.417  25.602  24.280  1.00  0.00    -0.322 N 
ATOM     10  C   UNL A   1      33.676  24.209  23.244  1.00  0.00     0.090 A 
ATOM     11  C   UNL A   1      33.666  25.028  24.368  1.00  0.00     0.068 A 
ATOM     12  C   UNL A   1      34.521  23.094  23.252  1.00  0.00     0.044 A 
ATOM     13  C   UNL A   1      34.637  25.027  25.369  1.00  0.00     0.029 A 
ATOM     14  C   UNL A   1      35.499  23.943  25.356  1.00  0.00     0.016 A 
BRANCH   7  15
ATOM     15  C   UNL A   1      31.819  27.028  22.340  1.00  0.00     0.304 C 
BRANCH  15  16
ATOM     16  O   UNL A   1      30.977  27.640  23.342  1.00  0.00    -0.485 OA
BRANCH  16  17
ATOM     17  C   UNL A   1      29.958  28.422  22.879  1.00  0.00     0.122 A 
ATOM     18  C   UNL A   1      28.245  26.779  23.841  1.00  0.00     0.048 C 
ATOM     19  C   UNL A   1      28.625  28.041  23.128  1.00  0.00    -0.009 A 
ATOM     20  C   UNL A   1      27.589  28.912  22.764  1.00  0.00     0.007 A 
ATOM     21  C   UNL A   1      27.874  30.147  22.191  1.00  0.00     0.001 A 
ATOM     22  C   UNL A   1      30.240  29.663  22.310  1.00  0.00     0.047 A 
ATOM     23  C   UNL A   1      29.197  30.525  21.970  1.00  0.00     0.004 A 
ENDBRANCH  16  17
ENDBRANCH  15  16
ENDBRANCH   7  15
BRANCH   9  24
ATOM     24  C   UNL A   1      31.460  25.567  25.375  1.00  0.00     0.155 C 
BRANCH  24  25
ATOM     25  C   UNL A   1      30.590  24.319  25.529  1.00  0.00     0.131 C 
ATOM     26  C   UNL A   1      31.296  23.293  26.408  1.00  0.00     0.040 C 
BRANCH  25  27
ATOM     27  O   UNL A   1      30.369  23.749  24.239  1.00  0.00    -0.392 OA
ATOM     28  H   UNL A   1      30.044  24.434  23.634  1.00  0.00     0.211 HD
ENDBRANCH  25  27
ENDBRANCH  24  25
ENDBRANCH   9  24
ENDBRANCH   3   6
ENDBRANCH   1   2
BRANCH   1  29
ATOM     29  C   UNL A   1      39.116  21.586  26.035  1.00  0.00     0.042 C 
BRANCH  29  30
ATOM     30  C   UNL A   1      39.620  22.748  26.866  1.00  0.00     0.118 C 
BRANCH  30  31
ATOM     31  N   UNL A   1      41.002  23.148  26.602  1.00  0.00    -0.352 N 
ATOM     32  C   UNL A   1      41.514  24.436  26.551  1.00  0.00     0.251 C 
ATOM     33  H   UNL A   1      41.644  22.417  26.443  1.00  0.00     0.163 HD
ATOM     34  O   UNL A   1      42.703  24.636  26.338  1.00  0.00    -0.269 OA
BRANCH  32  35
ATOM     35  C   UNL A   1      40.615  25.559  26.913  1.00  0.00     0.039 A 
ATOM     36  C   UNL A   1      40.767  26.748  26.194  1.00  0.00     0.014 A 
ATOM     37  C   UNL A   1      39.931  25.542  28.125  1.00  0.00     0.014 A 
ATOM     38  C   UNL A   1      40.512  27.953  26.837  1.00  0.00     0.010 A 
ATOM     39  C   UNL A   1      39.784  26.736  28.804  1.00  0.00     0.010 A 
ATOM     40  C   UNL A   1      40.167  27.933  28.186  1.00  0.00    -0.014 A 
BRANCH  40  41
ATOM     41  C   UNL A   1      40.341  29.093  29.053  1.00  0.00     0.031 A 
ATOM     42  C   UNL A   1      39.293  30.126  29.143  1.00  0.00     0.074 A 
ATOM     43  C   UNL A   1      41.454  29.206  29.816  1.00  0.00     0.049 A 
ATOM     44  N   UNL A   1      39.508  31.313  29.597  1.00  0.00    -0.248 NA
ATOM     45  C   UNL A   1      37.929  29.938  28.651  1.00  0.00     0.031 C 
ATOM     46  C   UNL A   1      41.686  30.137  30.920  1.00  0.00     0.029 A 
ATOM     47  N   UNL A   1      42.719  28.650  29.567  1.00  0.00    -0.354 N 
ATOM     48  C   UNL A   1      38.286  31.903  29.779  1.00  0.00     0.074 A 
ATOM     49  C   UNL A   1      37.364  31.091  29.028  1.00  0.00     0.031 C 
ATOM     50  C   UNL A   1      43.006  30.336  31.047  1.00  0.00     0.029 A 
ATOM     51  C   UNL A   1      43.653  29.645  29.948  1.00  0.00     0.049 A 
ATOM     52  H   UNL A   1      42.916  27.757  29.203  1.00  0.00     0.167 HD
ATOM     53  C   UNL A   1      38.181  32.922  30.675  1.00  0.00     0.037 A 
ATOM     54  C   UNL A   1      44.486  30.222  29.032  1.00  0.00     0.037 A 
ATOM     55  C   UNL A   1      39.489  33.482  31.018  1.00  0.00     0.049 A 
ATOM     56  C   UNL A   1      44.319  31.720  28.871  1.00  0.00     0.074 A 
ATOM     57  C   UNL A   1      40.276  33.556  32.154  1.00  0.00     0.029 A 
ATOM     58  N   UNL A   1      40.282  33.944  29.981  1.00  0.00    -0.354 N 
ATOM     59  N   UNL A   1      43.467  32.448  29.538  1.00  0.00    -0.248 NA
ATOM     60  C   UNL A   1      45.037  32.500  27.858  1.00  0.00     0.031 C 
ATOM     61  C   UNL A   1      41.574  34.016  31.760  1.00  0.00     0.029 A 
ATOM     62  C   UNL A   1      41.558  34.252  30.398  1.00  0.00     0.049 A 
ATOM     63  H   UNL A   1      39.969  34.042  29.053  1.00  0.00     0.167 HD
ATOM     64  C   UNL A   1      43.433  33.710  29.003  1.00  0.00     0.074 A 
ATOM     65  C   UNL A   1      44.450  33.702  27.970  1.00  0.00     0.031 C 
ATOM     66  C   UNL A   1      42.531  34.656  29.394  1.00  0.00     0.037 A 
BRANCH  53  67
ATOM     67  C   UNL A   1      36.890  33.336  31.341  1.00  0.00     0.057 A 
ATOM     68  C   UNL A   1      36.638  32.984  32.679  1.00  0.00     0.134 A 
ATOM     69  C   UNL A   1      35.806  33.963  30.689  1.00  0.00     0.134 A 
ATOM     70  F   UNL A   1      37.562  32.358  33.422  1.00  0.00    -0.206 F 
ATOM     71  C   UNL A   1      35.413  33.238  33.314  1.00  0.00     0.040 A 
ATOM     72  C   UNL A   1      34.602  34.277  31.330  1.00  0.00     0.040 A 
ATOM     73  F   UNL A   1      35.820  34.248  29.383  1.00  0.00    -0.206 F 
ATOM     74  C   UNL A   1      34.394  33.901  32.646  1.00  0.00     0.006 A 
ENDBRANCH  53  67
BRANCH  54  75
ATOM     75  C   UNL A   1      44.886  29.286  27.951  1.00  0.00     0.057 A 
ATOM     76  C   UNL A   1      45.912  28.357  28.207  1.00  0.00     0.134 A 
ATOM     77  C   UNL A   1      44.069  29.042  26.844  1.00  0.00     0.134 A 
ATOM     78  F   UNL A   1      46.733  28.529  29.256  1.00  0.00    -0.206 F 
ATOM     79  C   UNL A   1      46.043  27.180  27.466  1.00  0.00     0.040 A 
ATOM     80  C   UNL A   1      44.202  27.875  26.085  1.00  0.00     0.040 A 
ATOM     81  F   UNL A   1      43.053  29.867  26.551  1.00  0.00    -0.206 F 
ATOM     82  C   UNL A   1      45.163  26.922  26.421  1.00  0.00     0.006 A 
ENDBRANCH  54  75
BRANCH  66  83
ATOM     83  C   UNL A   1      42.475  36.034  28.801  1.00  0.00     0.057 A 
ATOM     84  C   UNL A   1      41.869  36.295  27.564  1.00  0.00     0.134 A 
ATOM     85  C   UNL A   1      43.133  37.126  29.401  1.00  0.00     0.134 A 
ATOM     86  F   UNL A   1      41.246  35.322  26.883  1.00  0.00    -0.206 F 
ATOM     87  C   UNL A   1      41.899  37.565  26.972  1.00  0.00     0.040 A 
ATOM     88  C   UNL A   1      43.209  38.384  28.799  1.00  0.00     0.040 A 
ATOM     89  F   UNL A   1      43.707  37.020  30.609  1.00  0.00    -0.206 F 
ATOM     90  C   UNL A   1      42.585  38.610  27.581  1.00  0.00     0.006 A 
ENDBRANCH  66  83
ENDBRANCH  40  41
ENDBRANCH  32  35
ENDBRANCH  30  31
ENDBRANCH  29  30
ENDBRANCH   1  29
TORSDOF 16
ENDMDL
MODEL 3
REMARK VINA RESULT:     -11.7      1.625      2.576
REMARK SMILES Cc1ccccc1OCc1nc2cc(C(=O)NCCCNC(=O)c3ccc(-c4c5nc(c(-c6c(F)cccc6F)c6ccc([nH]6)c(-c6c(F)cccc6F)c6nc(c(-c7c(F)cccc7F)c7ccc4[nH]7)C=C6)C=C5)cc3)ccc2n1C[C@H](C)O
REMARK SMILES IDX 18 1 17 2 15 3 16 4 14 6 10 7 11 8 81 9 12 10 80 11 13 12
REMARK SMILES IDX 79 13 78 14 9 15 8 16 7 17 1 18 2 19 3 20 4 21 6 22 5 23
REMARK SMILES IDX 82 24 83 25 84 26 85 27 19 29 20 30 21 31 22 32 23 34 24 35
REMARK SMILES IDX 25 36 77 37 26 38 76 39 27 40 28 41 29 42 70 43 30 44 75 45
REMARK SMILES IDX 69 46 71 47 31 48 74 49 68 50 67 51 32 53 58 54 41 55 57 56
REMARK SMILES IDX 42 57 45 58 56 59 72 60 43 61 44 62 55 64 73 65 46 66 33 67
REMARK SMILES IDX 34 68 39 69 35 70 36 71 38 72 40 73 37 74 59 75 60 76 65 77
REMARK SMILES IDX 61 78 62 79 64 80 66 81 63 82 47 83 48 84 53 85 49 86 50 87
REMARK SMILES IDX 52 88 54 89 51 90
REMARK H PARENT 17 5 85 28 21 33 71 52 45 63
REMARK Flexibility Score: inf
ROOT
ATOM      1  C   UNL A   1      31.731  29.757  25.817  1.00  0.00     0.118 C 
ENDROOT
BRANCH   1   2
ATOM      2  N   UNL A   1      32.488  29.602  24.569  1.00  0.00    -0.352 N 
ATOM      3  C   UNL A   1      33.043  28.444  24.042  1.00  0.00     0.251 C 
ATOM      4  O   UNL A   1      33.679  28.439  22.998  1.00  0.00    -0.269 OA
ATOM      5  H   UNL A   1      32.618  30.422  24.039  1.00  0.00     0.163 HD
BRANCH   3   6
ATOM      6  C   UNL A   1      32.775  27.195  24.779  1.00  0.00     0.042 A 
ATOM      7  C   UNL A   1      32.321  22.820  24.213  1.00  0.00     0.148 A 
ATOM      8  N   UNL A   1      31.480  23.807  23.925  1.00  0.00    -0.229 NA
ATOM      9  N   UNL A   1      33.570  23.361  24.382  1.00  0.00    -0.322 N 
ATOM     10  C   UNL A   1      32.126  24.946  24.368  1.00  0.00     0.090 A 
ATOM     11  C   UNL A   1      33.346  24.599  24.941  1.00  0.00     0.068 A 
ATOM     12  C   UNL A   1      31.814  26.305  24.263  1.00  0.00     0.044 A 
ATOM     13  C   UNL A   1      34.145  25.452  25.701  1.00  0.00     0.029 A 
ATOM     14  C   UNL A   1      33.813  26.795  25.629  1.00  0.00     0.016 A 
BRANCH   7  15
ATOM     15  C   UNL A   1      32.008  21.482  24.813  1.00  0.00     0.304 C 
BRANCH  15  16
ATOM     16  O   UNL A   1      32.279  20.553  23.738  1.00  0.00    -0.485 OA
BRANCH  16  17
ATOM     17  C   UNL A   1      32.498  19.256  24.102  1.00  0.00     0.122 A 
ATOM     18  C   UNL A   1      32.374  18.535  21.648  1.00  0.00     0.048 C 
ATOM     19  C   UNL A   1      32.573  18.261  23.108  1.00  0.00    -0.009 A 
ATOM     20  C   UNL A   1      32.926  16.956  23.477  1.00  0.00     0.007 A 
ATOM     21  C   UNL A   1      33.226  16.653  24.801  1.00  0.00     0.001 A 
ATOM     22  C   UNL A   1      32.804  18.951  25.427  1.00  0.00     0.047 A 
ATOM     23  C   UNL A   1      33.171  17.650  25.774  1.00  0.00     0.004 A 
ENDBRANCH  16  17
ENDBRANCH  15  16
ENDBRANCH   7  15
BRANCH   9  24
ATOM     24  C   UNL A   1      34.801  23.029  23.680  1.00  0.00     0.155 C 
BRANCH  24  25
ATOM     25  C   UNL A   1      35.741  22.010  24.323  1.00  0.00     0.131 C 
ATOM     26  C   UNL A   1      35.421  21.863  25.806  1.00  0.00     0.040 C 
BRANCH  25  27
ATOM     27  O   UNL A   1      37.086  22.469  24.183  1.00  0.00    -0.392 OA
ATOM     28  H   UNL A   1      37.695  21.720  24.284  1.00  0.00     0.211 HD
ENDBRANCH  25  27
ENDBRANCH  24  25
ENDBRANCH   9  24
ENDBRANCH   3   6
ENDBRANCH   1   2
BRANCH   1  29
ATOM     29  C   UNL A   1      32.313  30.841  26.727  1.00  0.00     0.042 C 
BRANCH  29  30
ATOM     30  C   UNL A   1      33.549  30.396  27.480  1.00  0.00     0.118 C 
BRANCH  30  31
ATOM     31  N   UNL A   1      34.263  31.459  28.188  1.00  0.00    -0.352 N 
ATOM     32  C   UNL A   1      35.469  31.361  28.866  1.00  0.00     0.251 C 
ATOM     33  H   UNL A   1      33.838  32.348  28.180  1.00  0.00     0.163 HD
ATOM     34  O   UNL A   1      35.972  32.339  29.405  1.00  0.00    -0.269 OA
BRANCH  32  35
ATOM     35  C   UNL A   1      36.208  30.077  28.795  1.00  0.00     0.039 A 
ATOM     36  C   UNL A   1      36.546  29.472  30.008  1.00  0.00     0.014 A 
ATOM     37  C   UNL A   1      36.838  29.701  27.612  1.00  0.00     0.014 A 
ATOM     38  C   UNL A   1      37.718  28.730  30.080  1.00  0.00     0.010 A 
ATOM     39  C   UNL A   1      38.059  29.060  27.702  1.00  0.00     0.010 A 
ATOM     40  C   UNL A   1      38.537  28.660  28.956  1.00  0.00    -0.014 A 
BRANCH  40  41
ATOM     41  C   UNL A   1      39.956  28.336  29.043  1.00  0.00     0.031 A 
ATOM     42  C   UNL A   1      40.441  26.991  28.686  1.00  0.00     0.074 A 
ATOM     43  C   UNL A   1      40.846  29.287  29.416  1.00  0.00     0.049 A 
ATOM     44  N   UNL A   1      41.588  26.531  29.056  1.00  0.00    -0.248 NA
ATOM     45  C   UNL A   1      39.643  26.013  27.948  1.00  0.00     0.031 C 
ATOM     46  C   UNL A   1      42.304  29.232  29.310  1.00  0.00     0.029 A 
ATOM     47  N   UNL A   1      40.603  30.416  30.215  1.00  0.00    -0.354 N 
ATOM     48  C   UNL A   1      41.814  25.386  28.341  1.00  0.00     0.074 A 
ATOM     49  C   UNL A   1      40.528  25.020  27.806  1.00  0.00     0.031 C 
ATOM     50  C   UNL A   1      42.834  30.045  30.237  1.00  0.00     0.029 A 
ATOM     51  C   UNL A   1      41.741  30.542  31.050  1.00  0.00     0.049 A 
ATOM     52  H   UNL A   1      39.809  30.997  30.199  1.00  0.00     0.167 HD
ATOM     53  C   UNL A   1      43.097  24.973  28.159  1.00  0.00     0.037 A 
ATOM     54  C   UNL A   1      41.641  30.412  32.405  1.00  0.00     0.037 A 
ATOM     55  C   UNL A   1      44.015  25.620  29.098  1.00  0.00     0.049 A 
ATOM     56  C   UNL A   1      42.450  29.276  33.001  1.00  0.00     0.074 A 
ATOM     57  C   UNL A   1      45.074  26.506  29.008  1.00  0.00     0.029 A 
ATOM     58  N   UNL A   1      43.744  25.494  30.450  1.00  0.00    -0.354 N 
ATOM     59  N   UNL A   1      43.205  28.463  32.314  1.00  0.00    -0.248 NA
ATOM     60  C   UNL A   1      42.384  28.904  34.417  1.00  0.00     0.031 C 
ATOM     61  C   UNL A   1      45.388  26.952  30.333  1.00  0.00     0.029 A 
ATOM     62  C   UNL A   1      44.545  26.308  31.220  1.00  0.00     0.049 A 
ATOM     63  H   UNL A   1      43.058  24.892  30.819  1.00  0.00     0.167 HD
ATOM     64  C   UNL A   1      43.621  27.439  33.124  1.00  0.00     0.074 A 
ATOM     65  C   UNL A   1      43.102  27.770  34.437  1.00  0.00     0.031 C 
ATOM     66  C   UNL A   1      44.303  26.355  32.654  1.00  0.00     0.037 A 
BRANCH  53  67
ATOM     67  C   UNL A   1      43.546  24.065  27.039  1.00  0.00     0.057 A 
ATOM     68  C   UNL A   1      44.102  24.607  25.866  1.00  0.00     0.134 A 
ATOM     69  C   UNL A   1      43.341  22.669  26.994  1.00  0.00     0.134 A 
ATOM     70  F   UNL A   1      44.331  25.923  25.746  1.00  0.00    -0.206 F 
ATOM     71  C   UNL A   1      44.428  23.826  24.747  1.00  0.00     0.040 A 
ATOM     72  C   UNL A   1      43.719  21.870  25.908  1.00  0.00     0.040 A 
ATOM     73  F   UNL A   1      42.704  22.005  27.965  1.00  0.00    -0.206 F 
ATOM     74  C   UNL A   1      44.253  22.450  24.770  1.00  0.00     0.006 A 
ENDBRANCH  53  67
BRANCH  54  75
ATOM     75  C   UNL A   1      40.345  30.907  32.936  1.00  0.00     0.057 A 
ATOM     76  C   UNL A   1      39.339  29.971  33.242  1.00  0.00     0.134 A 
ATOM     77  C   UNL A   1      40.208  32.187  33.476  1.00  0.00     0.134 A 
ATOM     78  F   UNL A   1      39.410  28.720  32.756  1.00  0.00    -0.206 F 
ATOM     79  C   UNL A   1      38.309  30.262  34.138  1.00  0.00     0.040 A 
ATOM     80  C   UNL A   1      39.170  32.495  34.363  1.00  0.00     0.040 A 
ATOM     81  F   UNL A   1      41.139  33.126  33.253  1.00  0.00    -0.206 F 
ATOM     82  C   UNL A   1      38.243  31.520  34.727  1.00  0.00     0.006 A 
ENDBRANCH  54  75
BRANCH  66  83
ATOM     83  C   UNL A   1      44.746  25.219  33.531  1.00  0.00     0.057 A 
ATOM     84  C   UNL A   1      46.089  24.830  33.635  1.00  0.00     0.134 A 
ATOM     85  C   UNL A   1      43.819  24.402  34.209  1.00  0.00     0.134 A 
ATOM     86  F   UNL A   1      47.054  25.512  33.000  1.00  0.00    -0.206 F 
ATOM     87  C   UNL A   1      46.487  23.714  34.383  1.00  0.00     0.040 A 
ATOM     88  C   UNL A   1      44.199  23.260  34.919  1.00  0.00     0.040 A 
ATOM     89  F   UNL A   1      42.511  24.695  34.230  1.00  0.00    -0.206 F 
ATOM     90  C   UNL A   1      45.539  22.915  35.013  1.00  0.00     0.006 A 
ENDBRANCH  66  83
ENDBRANCH  40  41
ENDBRANCH  32  35
ENDBRANCH  30  31
ENDBRANCH  29  30
ENDBRANCH   1  29
TORSDOF 16
ENDMDL
