MODEL 1
REMARK VINA RESULT:     -12.3      0.000      0.000
REMARK SMILES CCOc1cc2c(cc1OCC)[C@@H](C(=O)NCCCNC(=O)c1ccc(-c3c4nc(c(-c5c(F)cccc5F)c5ccc([nH]5)c(-c5c(F)cccc5F)c5nc(c(-c6c(F)cccc6F)c6ccc3[nH]6)C=C5)C=C4)cc1)[C@H](c1ccc(F)cc1Cl)N(C)C2=O
REMARK SMILES IDX 18 1 17 2 16 3 14 4 15 5 13 7 4 8 5 9 9 10 6 11 8 12 7 13
REMARK SMILES IDX 88 14 86 15 89 16 77 17 87 18 3 19 2 20 1 21 10 22 11 23
REMARK SMILES IDX 12 24 78 25 79 26 84 27 80 28 83 29 85 30 81 31 82 32 19 33
REMARK SMILES IDX 20 34 21 35 22 37 23 38 24 39 76 40 25 41 75 42 26 43 27 44
REMARK SMILES IDX 28 45 69 46 29 47 74 48 68 49 70 50 30 51 73 52 67 53 66 54
REMARK SMILES IDX 31 56 57 57 40 58 56 59 41 60 44 61 55 62 71 63 42 64 43 65
REMARK SMILES IDX 54 67 72 68 45 69 32 70 33 71 38 72 34 73 35 74 37 75 39 76
REMARK SMILES IDX 36 77 58 78 59 79 64 80 60 81 61 82 63 83 65 84 62 85 46 86
REMARK SMILES IDX 47 87 52 88 48 89 49 90 51 91 53 92 50 93
REMARK H PARENT 16 6 20 36 70 55 44 66
REMARK Flexibility Score: inf
ROOT
ATOM      1  C   UNL A   1      38.288  22.749  26.084  1.00  0.00     0.042 C 
ENDROOT
BRANCH   1   2
ATOM      2  C   UNL A   1      37.022  23.508  25.698  1.00  0.00     0.117 C 
BRANCH   2   3
ATOM      3  N   UNL A   1      35.888  23.085  26.509  1.00  0.00    -0.355 N 
ATOM      4  C   UNL A   1      34.575  23.421  26.538  1.00  0.00     0.230 C 
ATOM      5  O   UNL A   1      33.939  22.968  27.502  1.00  0.00    -0.274 OA
ATOM      6  H   UNL A   1      36.128  22.409  27.184  1.00  0.00     0.163 HD
BRANCH   4   7
ATOM      7  C   UNL A   1      33.824  24.304  25.539  1.00  0.00     0.136 C 
ATOM      8  C   UNL A   1      32.247  28.136  26.708  1.00  0.00     0.161 A 
ATOM      9  C   UNL A   1      31.415  27.011  26.628  1.00  0.00     0.064 A 
ATOM     10  C   UNL A   1      33.608  28.028  26.396  1.00  0.00     0.161 A 
ATOM     11  C   UNL A   1      31.937  25.764  26.295  1.00  0.00     0.048 A 
ATOM     12  C   UNL A   1      34.124  26.763  26.076  1.00  0.00     0.056 A 
ATOM     13  C   UNL A   1      33.299  25.632  26.016  1.00  0.00    -0.016 A 
ATOM     14  C   UNL A   1      31.050  24.565  26.294  1.00  0.00     0.254 C 
ATOM     15  N   UNL A   1      31.521  23.446  25.608  1.00  0.00    -0.333 N 
ATOM     16  O   UNL A   1      29.997  24.597  26.919  1.00  0.00    -0.269 OA
ATOM     17  C   UNL A   1      32.705  23.543  24.755  1.00  0.00     0.134 C 
ATOM     18  C   UNL A   1      30.778  22.193  25.631  1.00  0.00     0.147 C 
BRANCH   8  19
ATOM     19  O   UNL A   1      31.653  29.336  26.990  1.00  0.00    -0.490 OA
BRANCH  19  20
ATOM     20  C   UNL A   1      31.631  30.226  25.863  1.00  0.00     0.226 C 
ATOM     21  C   UNL A   1      31.316  31.654  26.277  1.00  0.00     0.049 C 
ENDBRANCH  19  20
ENDBRANCH   8  19
BRANCH  10  22
ATOM     22  O   UNL A   1      34.567  28.999  26.325  1.00  0.00    -0.490 OA
BRANCH  22  23
ATOM     23  C   UNL A   1      35.117  29.576  27.504  1.00  0.00     0.226 C 
ATOM     24  C   UNL A   1      34.807  31.059  27.615  1.00  0.00     0.049 C 
ENDBRANCH  22  23
ENDBRANCH  10  22
BRANCH  17  25
ATOM     25  C   UNL A   1      32.452  24.174  23.353  1.00  0.00    -0.005 A 
ATOM     26  C   UNL A   1      33.453  23.922  22.379  1.00  0.00     0.010 A 
ATOM     27  C   UNL A   1      31.370  24.993  22.941  1.00  0.00     0.049 A 
ATOM     28  C   UNL A   1      33.442  24.536  21.124  1.00  0.00     0.040 A 
ATOM     29  C   UNL A   1      31.369  25.605  21.678  1.00  0.00     0.060 A 
ATOM     30  Cl  UNL A   1      29.932  25.325  23.837  1.00  0.00    -0.084 Cl
ATOM     31  C   UNL A   1      32.407  25.390  20.793  1.00  0.00     0.124 A 
ATOM     32  F   UNL A   1      32.398  25.997  19.601  1.00  0.00    -0.207 F 
ENDBRANCH  17  25
ENDBRANCH   4   7
ENDBRANCH   2   3
ENDBRANCH   1   2
BRANCH   1  33
ATOM     33  C   UNL A   1      39.294  23.561  26.881  1.00  0.00     0.118 C 
BRANCH  33  34
ATOM     34  N   UNL A   1      40.363  24.087  26.045  1.00  0.00    -0.352 N 
ATOM     35  C   UNL A   1      41.022  25.293  26.084  1.00  0.00     0.251 C 
ATOM     36  H   UNL A   1      40.665  23.477  25.334  1.00  0.00     0.163 HD
ATOM     37  O   UNL A   1      41.762  25.593  25.150  1.00  0.00    -0.269 OA
BRANCH  35  38
ATOM     38  C   UNL A   1      40.857  26.238  27.217  1.00  0.00     0.039 A 
ATOM     39  C   UNL A   1      39.958  25.909  28.239  1.00  0.00     0.014 A 
ATOM     40  C   UNL A   1      41.521  27.465  27.263  1.00  0.00     0.014 A 
ATOM     41  C   UNL A   1      39.766  26.781  29.316  1.00  0.00     0.010 A 
ATOM     42  C   UNL A   1      41.408  28.285  28.384  1.00  0.00     0.010 A 
ATOM     43  C   UNL A   1      40.513  27.965  29.415  1.00  0.00    -0.014 A 
BRANCH  43  44
ATOM     44  C   UNL A   1      40.351  28.896  30.563  1.00  0.00     0.031 A 
ATOM     45  C   UNL A   1      39.291  29.965  30.528  1.00  0.00     0.074 A 
ATOM     46  C   UNL A   1      41.199  28.827  31.608  1.00  0.00     0.049 A 
ATOM     47  N   UNL A   1      39.048  30.922  31.388  1.00  0.00    -0.248 NA
ATOM     48  C   UNL A   1      38.409  29.983  29.350  1.00  0.00     0.031 C 
ATOM     49  C   UNL A   1      42.300  27.873  31.743  1.00  0.00     0.029 A 
ATOM     50  N   UNL A   1      41.272  29.583  32.752  1.00  0.00    -0.354 N 
ATOM     51  C   UNL A   1      38.007  31.666  30.845  1.00  0.00     0.074 A 
ATOM     52  C   UNL A   1      37.703  31.085  29.555  1.00  0.00     0.031 C 
ATOM     53  C   UNL A   1      42.924  28.084  32.913  1.00  0.00     0.029 A 
ATOM     54  C   UNL A   1      42.294  29.212  33.593  1.00  0.00     0.049 A 
ATOM     55  H   UNL A   1      40.652  30.321  32.950  1.00  0.00     0.167 HD
ATOM     56  C   UNL A   1      37.348  32.722  31.379  1.00  0.00     0.037 A 
ATOM     57  C   UNL A   1      42.683  29.725  34.775  1.00  0.00     0.037 A 
ATOM     58  C   UNL A   1      37.627  33.273  32.679  1.00  0.00     0.049 A 
ATOM     59  C   UNL A   1      41.927  30.887  35.357  1.00  0.00     0.074 A 
ATOM     60  C   UNL A   1      36.967  34.292  33.344  1.00  0.00     0.029 A 
ATOM     61  N   UNL A   1      38.652  32.851  33.511  1.00  0.00    -0.354 N 
ATOM     62  N   UNL A   1      40.901  31.537  34.863  1.00  0.00    -0.248 NA
ATOM     63  C   UNL A   1      42.379  31.382  36.665  1.00  0.00     0.031 C 
ATOM     64  C   UNL A   1      37.621  34.516  34.559  1.00  0.00     0.029 A 
ATOM     65  C   UNL A   1      38.658  33.604  34.674  1.00  0.00     0.049 A 
ATOM     66  H   UNL A   1      39.283  32.123  33.307  1.00  0.00     0.167 HD
ATOM     67  C   UNL A   1      40.570  32.500  35.806  1.00  0.00     0.074 A 
ATOM     68  C   UNL A   1      41.495  32.339  36.910  1.00  0.00     0.031 C 
ATOM     69  C   UNL A   1      39.587  33.432  35.763  1.00  0.00     0.037 A 
BRANCH  56  70
ATOM     70  C   UNL A   1      36.258  33.346  30.555  1.00  0.00     0.057 A 
ATOM     71  C   UNL A   1      36.538  34.171  29.456  1.00  0.00     0.134 A 
ATOM     72  C   UNL A   1      34.911  33.108  30.853  1.00  0.00     0.134 A 
ATOM     73  F   UNL A   1      37.807  34.450  29.121  1.00  0.00    -0.206 F 
ATOM     74  C   UNL A   1      35.519  34.764  28.708  1.00  0.00     0.040 A 
ATOM     75  C   UNL A   1      33.882  33.671  30.094  1.00  0.00     0.040 A 
ATOM     76  F   UNL A   1      34.569  32.322  31.886  1.00  0.00    -0.206 F 
ATOM     77  C   UNL A   1      34.185  34.510  29.024  1.00  0.00     0.006 A 
ENDBRANCH  56  70
BRANCH  57  78
ATOM     78  C   UNL A   1      43.829  29.122  35.498  1.00  0.00     0.057 A 
ATOM     79  C   UNL A   1      45.139  29.564  35.270  1.00  0.00     0.134 A 
ATOM     80  C   UNL A   1      43.647  28.105  36.443  1.00  0.00     0.134 A 
ATOM     81  F   UNL A   1      45.379  30.522  34.363  1.00  0.00    -0.206 F 
ATOM     82  C   UNL A   1      46.225  29.008  35.948  1.00  0.00     0.040 A 
ATOM     83  C   UNL A   1      44.722  27.558  37.145  1.00  0.00     0.040 A 
ATOM     84  F   UNL A   1      42.416  27.643  36.711  1.00  0.00    -0.206 F 
ATOM     85  C   UNL A   1      46.017  28.007  36.894  1.00  0.00     0.006 A 
ENDBRANCH  57  78
BRANCH  69  86
ATOM     86  C   UNL A   1      39.444  34.334  36.954  1.00  0.00     0.057 A 
ATOM     87  C   UNL A   1      38.793  33.920  38.123  1.00  0.00     0.134 A 
ATOM     88  C   UNL A   1      40.001  35.619  36.945  1.00  0.00     0.134 A 
ATOM     89  F   UNL A   1      38.227  32.705  38.191  1.00  0.00    -0.206 F 
ATOM     90  C   UNL A   1      38.682  34.759  39.232  1.00  0.00     0.040 A 
ATOM     91  C   UNL A   1      39.921  36.458  38.058  1.00  0.00     0.040 A 
ATOM     92  F   UNL A   1      40.647  36.075  35.860  1.00  0.00    -0.206 F 
ATOM     93  C   UNL A   1      39.254  36.029  39.204  1.00  0.00     0.006 A 
ENDBRANCH  69  86
ENDBRANCH  43  44
ENDBRANCH  35  38
ENDBRANCH  33  34
ENDBRANCH   1  33
TORSDOF 15
ENDMDL
MODEL 2
REMARK VINA RESULT:     -12.3      5.214     10.116
REMARK SMILES CCOc1cc2c(cc1OCC)[C@@H](C(=O)NCCCNC(=O)c1ccc(-c3c4nc(c(-c5c(F)cccc5F)c5ccc([nH]5)c(-c5c(F)cccc5F)c5nc(c(-c6c(F)cccc6F)c6ccc3[nH]6)C=C5)C=C4)cc1)[C@H](c1ccc(F)cc1Cl)N(C)C2=O
REMARK SMILES IDX 18 1 17 2 16 3 14 4 15 5 13 7 4 8 5 9 9 10 6 11 8 12 7 13
REMARK SMILES IDX 88 14 86 15 89 16 77 17 87 18 3 19 2 20 1 21 10 22 11 23
REMARK SMILES IDX 12 24 78 25 79 26 84 27 80 28 83 29 85 30 81 31 82 32 19 33
REMARK SMILES IDX 20 34 21 35 22 37 23 38 24 39 76 40 25 41 75 42 26 43 27 44
REMARK SMILES IDX 28 45 69 46 29 47 74 48 68 49 70 50 30 51 73 52 67 53 66 54
REMARK SMILES IDX 31 56 57 57 40 58 56 59 41 60 44 61 55 62 71 63 42 64 43 65
REMARK SMILES IDX 54 67 72 68 45 69 32 70 33 71 38 72 34 73 35 74 37 75 39 76
REMARK SMILES IDX 36 77 58 78 59 79 64 80 60 81 61 82 63 83 65 84 62 85 46 86
REMARK SMILES IDX 47 87 52 88 48 89 49 90 51 91 53 92 50 93
REMARK H PARENT 16 6 20 36 70 55 44 66
REMARK Flexibility Score: inf
ROOT
ATOM      1  C   UNL A   1      34.113  30.380  27.223  1.00  0.00     0.042 C 
ENDROOT
BRANCH   1   2
ATOM      2  C   UNL A   1      34.008  28.934  26.748  1.00  0.00     0.117 C 
BRANCH   2   3
ATOM      3  N   UNL A   1      34.015  28.859  25.293  1.00  0.00    -0.355 N 
ATOM      4  C   UNL A   1      33.822  27.855  24.402  1.00  0.00     0.230 C 
ATOM      5  O   UNL A   1      34.081  28.143  23.223  1.00  0.00    -0.274 OA
ATOM      6  H   UNL A   1      34.200  29.726  24.863  1.00  0.00     0.163 HD
BRANCH   4   7
ATOM      7  C   UNL A   1      33.354  26.429  24.703  1.00  0.00     0.136 C 
ATOM      8  C   UNL A   1      35.993  23.069  24.179  1.00  0.00     0.161 A 
ATOM      9  C   UNL A   1      35.030  23.383  23.211  1.00  0.00     0.064 A 
ATOM     10  C   UNL A   1      36.102  23.842  25.342  1.00  0.00     0.161 A 
ATOM     11  C   UNL A   1      34.210  24.497  23.361  1.00  0.00     0.048 A 
ATOM     12  C   UNL A   1      35.278  24.971  25.474  1.00  0.00     0.056 A 
ATOM     13  C   UNL A   1      34.329  25.301  24.496  1.00  0.00    -0.016 A 
ATOM     14  C   UNL A   1      33.248  24.860  22.281  1.00  0.00     0.254 C 
ATOM     15  N   UNL A   1      32.219  25.733  22.635  1.00  0.00    -0.333 N 
ATOM     16  O   UNL A   1      33.425  24.428  21.149  1.00  0.00    -0.269 OA
ATOM     17  C   UNL A   1      31.984  26.072  24.038  1.00  0.00     0.134 C 
ATOM     18  C   UNL A   1      31.287  26.229  21.632  1.00  0.00     0.147 C 
BRANCH   8  19
ATOM     19  O   UNL A   1      36.726  21.928  23.987  1.00  0.00    -0.490 OA
BRANCH  19  20
ATOM     20  C   UNL A   1      36.295  20.841  24.819  1.00  0.00     0.226 C 
ATOM     21  C   UNL A   1      37.360  19.764  24.939  1.00  0.00     0.049 C 
ENDBRANCH  19  20
ENDBRANCH   8  19
BRANCH  10  22
ATOM     22  O   UNL A   1      36.899  23.665  26.438  1.00  0.00    -0.490 OA
BRANCH  22  23
ATOM     23  C   UNL A   1      38.287  23.973  26.392  1.00  0.00     0.226 C 
ATOM     24  C   UNL A   1      39.152  22.725  26.435  1.00  0.00     0.049 C 
ENDBRANCH  22  23
ENDBRANCH  10  22
BRANCH  17  25
ATOM     25  C   UNL A   1      31.213  24.990  24.852  1.00  0.00    -0.005 A 
ATOM     26  C   UNL A   1      30.600  25.445  26.049  1.00  0.00     0.010 A 
ATOM     27  C   UNL A   1      31.078  23.607  24.568  1.00  0.00     0.049 A 
ATOM     28  C   UNL A   1      29.999  24.570  26.958  1.00  0.00     0.040 A 
ATOM     29  C   UNL A   1      30.472  22.737  25.487  1.00  0.00     0.060 A 
ATOM     30  Cl  UNL A   1      31.558  22.805  23.116  1.00  0.00    -0.084 Cl
ATOM     31  C   UNL A   1      29.959  23.218  26.676  1.00  0.00     0.124 A 
ATOM     32  F   UNL A   1      29.402  22.371  27.548  1.00  0.00    -0.207 F 
ENDBRANCH  17  25
ENDBRANCH   4   7
ENDBRANCH   2   3
ENDBRANCH   1   2
BRANCH   1  33
ATOM     33  C   UNL A   1      35.437  30.737  27.876  1.00  0.00     0.118 C 
BRANCH  33  34
ATOM     34  N   UNL A   1      35.384  30.631  29.326  1.00  0.00    -0.352 N 
ATOM     35  C   UNL A   1      36.283  30.100  30.221  1.00  0.00     0.251 C 
ATOM     36  H   UNL A   1      34.568  31.001  29.734  1.00  0.00     0.163 HD
ATOM     37  O   UNL A   1      35.934  29.947  31.389  1.00  0.00    -0.269 OA
BRANCH  35  38
ATOM     38  C   UNL A   1      37.653  29.703  29.811  1.00  0.00     0.039 A 
ATOM     39  C   UNL A   1      37.996  29.779  28.455  1.00  0.00     0.014 A 
ATOM     40  C   UNL A   1      38.585  29.203  30.721  1.00  0.00     0.014 A 
ATOM     41  C   UNL A   1      39.274  29.401  28.028  1.00  0.00     0.010 A 
ATOM     42  C   UNL A   1      39.889  28.924  30.313  1.00  0.00     0.010 A 
ATOM     43  C   UNL A   1      40.244  29.000  28.959  1.00  0.00    -0.014 A 
BRANCH  43  44
ATOM     44  C   UNL A   1      41.619  28.621  28.538  1.00  0.00     0.031 A 
ATOM     45  C   UNL A   1      41.921  27.205  28.122  1.00  0.00     0.074 A 
ATOM     46  C   UNL A   1      42.612  29.528  28.593  1.00  0.00     0.049 A 
ATOM     47  N   UNL A   1      43.068  26.660  27.804  1.00  0.00    -0.248 NA
ATOM     48  C   UNL A   1      40.786  26.268  28.094  1.00  0.00     0.031 C 
ATOM     49  C   UNL A   1      42.465  30.919  29.028  1.00  0.00     0.029 A 
ATOM     50  N   UNL A   1      43.947  29.414  28.293  1.00  0.00    -0.354 N 
ATOM     51  C   UNL A   1      42.797  25.317  27.565  1.00  0.00     0.074 A 
ATOM     52  C   UNL A   1      41.389  25.118  27.829  1.00  0.00     0.031 C 
ATOM     53  C   UNL A   1      43.655  31.534  28.942  1.00  0.00     0.029 A 
ATOM     54  C   UNL A   1      44.657  30.574  28.487  1.00  0.00     0.049 A 
ATOM     55  H   UNL A   1      44.356  28.579  27.971  1.00  0.00     0.167 HD
ATOM     56  C   UNL A   1      43.638  24.344  27.141  1.00  0.00     0.037 A 
ATOM     57  C   UNL A   1      45.967  30.835  28.322  1.00  0.00     0.037 A 
ATOM     58  C   UNL A   1      45.030  24.553  26.841  1.00  0.00     0.049 A 
ATOM     59  C   UNL A   1      46.879  29.744  27.835  1.00  0.00     0.074 A 
ATOM     60  C   UNL A   1      45.949  23.651  26.333  1.00  0.00     0.029 A 
ATOM     61  N   UNL A   1      45.704  25.751  27.024  1.00  0.00    -0.354 N 
ATOM     62  N   UNL A   1      46.596  28.497  27.548  1.00  0.00    -0.248 NA
ATOM     63  C   UNL A   1      48.292  30.099  27.644  1.00  0.00     0.031 C 
ATOM     64  C   UNL A   1      47.190  24.291  26.251  1.00  0.00     0.029 A 
ATOM     65  C   UNL A   1      47.033  25.605  26.661  1.00  0.00     0.049 A 
ATOM     66  H   UNL A   1      45.299  26.582  27.362  1.00  0.00     0.167 HD
ATOM     67  C   UNL A   1      47.785  27.925  27.120  1.00  0.00     0.074 A 
ATOM     68  C   UNL A   1      48.792  28.965  27.171  1.00  0.00     0.031 C 
ATOM     69  C   UNL A   1      48.023  26.652  26.718  1.00  0.00     0.037 A 
BRANCH  56  70
ATOM     70  C   UNL A   1      43.069  22.963  26.975  1.00  0.00     0.057 A 
ATOM     71  C   UNL A   1      42.829  22.405  25.711  1.00  0.00     0.134 A 
ATOM     72  C   UNL A   1      42.771  22.174  28.093  1.00  0.00     0.134 A 
ATOM     73  F   UNL A   1      43.081  23.110  24.598  1.00  0.00    -0.206 F 
ATOM     74  C   UNL A   1      42.281  21.129  25.567  1.00  0.00     0.040 A 
ATOM     75  C   UNL A   1      42.251  20.884  27.961  1.00  0.00     0.040 A 
ATOM     76  F   UNL A   1      42.982  22.640  29.333  1.00  0.00    -0.206 F 
ATOM     77  C   UNL A   1      41.995  20.362  26.695  1.00  0.00     0.006 A 
ENDBRANCH  56  70
BRANCH  57  78
ATOM     78  C   UNL A   1      46.486  32.199  28.594  1.00  0.00     0.057 A 
ATOM     79  C   UNL A   1      46.506  33.176  27.591  1.00  0.00     0.134 A 
ATOM     80  C   UNL A   1      46.957  32.565  29.860  1.00  0.00     0.134 A 
ATOM     81  F   UNL A   1      46.085  32.881  26.352  1.00  0.00    -0.206 F 
ATOM     82  C   UNL A   1      46.986  34.464  27.835  1.00  0.00     0.040 A 
ATOM     83  C   UNL A   1      47.418  33.856  30.124  1.00  0.00     0.040 A 
ATOM     84  F   UNL A   1      46.958  31.676  30.865  1.00  0.00    -0.206 F 
ATOM     85  C   UNL A   1      47.437  34.808  29.107  1.00  0.00     0.006 A 
ENDBRANCH  57  78
BRANCH  69  86
ATOM     86  C   UNL A   1      49.420  26.320  26.279  1.00  0.00     0.057 A 
ATOM     87  C   UNL A   1      49.900  26.676  25.013  1.00  0.00     0.134 A 
ATOM     88  C   UNL A   1      50.306  25.673  27.149  1.00  0.00     0.134 A 
ATOM     89  F   UNL A   1      49.098  27.287  24.128  1.00  0.00    -0.206 F 
ATOM     90  C   UNL A   1      51.206  26.380  24.620  1.00  0.00     0.040 A 
ATOM     91  C   UNL A   1      51.622  25.396  26.778  1.00  0.00     0.040 A 
ATOM     92  F   UNL A   1      49.911  25.313  28.381  1.00  0.00    -0.206 F 
ATOM     93  C   UNL A   1      52.073  25.745  25.507  1.00  0.00     0.006 A 
ENDBRANCH  69  86
ENDBRANCH  43  44
ENDBRANCH  35  38
ENDBRANCH  33  34
ENDBRANCH   1  33
TORSDOF 15
ENDMDL
MODEL 3
REMARK VINA RESULT:     -12.3      4.188      8.529
REMARK SMILES CCOc1cc2c(cc1OCC)[C@@H](C(=O)NCCCNC(=O)c1ccc(-c3c4nc(c(-c5c(F)cccc5F)c5ccc([nH]5)c(-c5c(F)cccc5F)c5nc(c(-c6c(F)cccc6F)c6ccc3[nH]6)C=C5)C=C4)cc1)[C@H](c1ccc(F)cc1Cl)N(C)C2=O
REMARK SMILES IDX 18 1 17 2 16 3 14 4 15 5 13 7 4 8 5 9 9 10 6 11 8 12 7 13
REMARK SMILES IDX 88 14 86 15 89 16 77 17 87 18 3 19 2 20 1 21 10 22 11 23
REMARK SMILES IDX 12 24 78 25 79 26 84 27 80 28 83 29 85 30 81 31 82 32 19 33
REMARK SMILES IDX 20 34 21 35 22 37 23 38 24 39 76 40 25 41 75 42 26 43 27 44
REMARK SMILES IDX 28 45 69 46 29 47 74 48 68 49 70 50 30 51 73 52 67 53 66 54
REMARK SMILES IDX 31 56 57 57 40 58 56 59 41 60 44 61 55 62 71 63 42 64 43 65
REMARK SMILES IDX 54 67 72 68 45 69 32 70 33 71 38 72 34 73 35 74 37 75 39 76
REMARK SMILES IDX 36 77 58 78 59 79 64 80 60 81 61 82 63 83 65 84 62 85 46 86
REMARK SMILES IDX 47 87 52 88 48 89 49 90 51 91 53 92 50 93
REMARK H PARENT 16 6 20 36 70 55 44 66
REMARK Flexibility Score: inf
ROOT
ATOM      1  C   UNL A   1      32.343  27.429  27.512  1.00  0.00     0.042 C 
ENDROOT
BRANCH   1   2
ATOM      2  C   UNL A   1      31.624  26.670  26.401  1.00  0.00     0.117 C 
BRANCH   2   3
ATOM      3  N   UNL A   1      31.305  25.311  26.815  1.00  0.00    -0.355 N 
ATOM      4  C   UNL A   1      31.802  24.089  26.498  1.00  0.00     0.230 C 
ATOM      5  O   UNL A   1      31.147  23.129  26.933  1.00  0.00    -0.274 OA
ATOM      6  H   UNL A   1      30.568  25.270  27.468  1.00  0.00     0.163 HD
BRANCH   4   7
ATOM      7  C   UNL A   1      33.043  23.786  25.658  1.00  0.00     0.136 C 
ATOM      8  C   UNL A   1      33.152  24.692  21.451  1.00  0.00     0.161 A 
ATOM      9  C   UNL A   1      32.904  23.387  21.898  1.00  0.00     0.064 A 
ATOM     10  C   UNL A   1      33.380  25.721  22.372  1.00  0.00     0.161 A 
ATOM     11  C   UNL A   1      32.823  23.107  23.258  1.00  0.00     0.048 A 
ATOM     12  C   UNL A   1      33.282  25.428  23.742  1.00  0.00     0.056 A 
ATOM     13  C   UNL A   1      33.012  24.128  24.192  1.00  0.00    -0.016 A 
ATOM     14  C   UNL A   1      32.478  21.728  23.712  1.00  0.00     0.254 C 
ATOM     15  N   UNL A   1      32.774  21.421  25.040  1.00  0.00    -0.333 N 
ATOM     16  O   UNL A   1      31.921  20.962  22.936  1.00  0.00    -0.269 OA
ATOM     17  C   UNL A   1      33.584  22.331  25.850  1.00  0.00     0.134 C 
ATOM     18  C   UNL A   1      32.386  20.138  25.610  1.00  0.00     0.147 C 
BRANCH   8  19
ATOM     19  O   UNL A   1      33.269  24.880  20.099  1.00  0.00    -0.490 OA
BRANCH  19  20
ATOM     20  C   UNL A   1      32.213  25.683  19.553  1.00  0.00     0.226 C 
ATOM     21  C   UNL A   1      31.797  25.208  18.171  1.00  0.00     0.049 C 
ENDBRANCH  19  20
ENDBRANCH   8  19
BRANCH  10  22
ATOM     22  O   UNL A   1      33.721  27.027  22.158  1.00  0.00    -0.490 OA
BRANCH  22  23
ATOM     23  C   UNL A   1      33.921  27.922  23.246  1.00  0.00     0.226 C 
ATOM     24  C   UNL A   1      32.791  28.930  23.373  1.00  0.00     0.049 C 
ENDBRANCH  22  23
ENDBRANCH  10  22
BRANCH  17  25
ATOM     25  C   UNL A   1      35.118  22.247  25.592  1.00  0.00    -0.005 A 
ATOM     26  C   UNL A   1      35.597  20.987  25.145  1.00  0.00     0.010 A 
ATOM     27  C   UNL A   1      36.096  23.256  25.779  1.00  0.00     0.049 A 
ATOM     28  C   UNL A   1      36.960  20.714  25.010  1.00  0.00     0.040 A 
ATOM     29  C   UNL A   1      37.463  22.972  25.641  1.00  0.00     0.060 A 
ATOM     30  Cl  UNL A   1      35.801  24.919  26.141  1.00  0.00    -0.084 Cl
ATOM     31  C   UNL A   1      37.883  21.706  25.279  1.00  0.00     0.124 A 
ATOM     32  F   UNL A   1      39.191  21.449  25.171  1.00  0.00    -0.207 F 
ENDBRANCH  17  25
ENDBRANCH   4   7
ENDBRANCH   2   3
ENDBRANCH   1   2
BRANCH   1  33
ATOM     33  C   UNL A   1      33.573  28.197  27.060  1.00  0.00     0.118 C 
BRANCH  33  34
ATOM     34  N   UNL A   1      33.497  29.609  27.398  1.00  0.00    -0.352 N 
ATOM     35  C   UNL A   1      34.404  30.433  28.023  1.00  0.00     0.251 C 
ATOM     36  H   UNL A   1      32.656  30.049  27.137  1.00  0.00     0.163 HD
ATOM     37  O   UNL A   1      34.041  31.552  28.377  1.00  0.00    -0.269 OA
BRANCH  35  38
ATOM     38  C   UNL A   1      35.801  30.003  28.284  1.00  0.00     0.039 A 
ATOM     39  C   UNL A   1      36.739  30.108  27.249  1.00  0.00     0.014 A 
ATOM     40  C   UNL A   1      36.191  29.445  29.502  1.00  0.00     0.014 A 
ATOM     41  C   UNL A   1      38.061  29.700  27.452  1.00  0.00     0.010 A 
ATOM     42  C   UNL A   1      37.529  29.135  29.738  1.00  0.00     0.010 A 
ATOM     43  C   UNL A   1      38.477  29.239  28.710  1.00  0.00    -0.014 A 
BRANCH  43  44
ATOM     44  C   UNL A   1      39.883  28.826  28.964  1.00  0.00     0.031 A 
ATOM     45  C   UNL A   1      40.850  29.787  29.606  1.00  0.00     0.074 A 
ATOM     46  C   UNL A   1      40.313  27.616  28.558  1.00  0.00     0.049 A 
ATOM     47  N   UNL A   1      42.132  29.646  29.834  1.00  0.00    -0.248 NA
ATOM     48  C   UNL A   1      40.311  31.093  30.016  1.00  0.00     0.031 C 
ATOM     49  C   UNL A   1      39.492  26.612  27.877  1.00  0.00     0.029 A 
ATOM     50  N   UNL A   1      41.550  27.029  28.647  1.00  0.00    -0.354 N 
ATOM     51  C   UNL A   1      42.553  30.851  30.386  1.00  0.00     0.074 A 
ATOM     52  C   UNL A   1      41.405  31.729  30.407  1.00  0.00     0.031 C 
ATOM     53  C   UNL A   1      40.242  25.525  27.634  1.00  0.00     0.029 A 
ATOM     54  C   UNL A   1      41.603  25.768  28.103  1.00  0.00     0.049 A 
ATOM     55  H   UNL A   1      42.326  27.469  29.062  1.00  0.00     0.167 HD
ATOM     56  C   UNL A   1      43.779  31.187  30.854  1.00  0.00     0.037 A 
ATOM     57  C   UNL A   1      42.631  24.907  27.989  1.00  0.00     0.037 A 
ATOM     58  C   UNL A   1      44.911  30.298  30.867  1.00  0.00     0.049 A 
ATOM     59  C   UNL A   1      43.979  25.295  28.531  1.00  0.00     0.074 A 
ATOM     60  C   UNL A   1      46.174  30.516  31.389  1.00  0.00     0.029 A 
ATOM     61  N   UNL A   1      44.915  29.019  30.331  1.00  0.00    -0.354 N 
ATOM     62  N   UNL A   1      44.346  26.411  29.112  1.00  0.00    -0.248 NA
ATOM     63  C   UNL A   1      45.053  24.301  28.406  1.00  0.00     0.031 C 
ATOM     64  C   UNL A   1      46.955  29.386  31.129  1.00  0.00     0.029 A 
ATOM     65  C   UNL A   1      46.165  28.444  30.489  1.00  0.00     0.049 A 
ATOM     66  H   UNL A   1      44.143  28.583  29.902  1.00  0.00     0.167 HD
ATOM     67  C   UNL A   1      45.683  26.246  29.444  1.00  0.00     0.074 A 
ATOM     68  C   UNL A   1      46.060  24.916  29.012  1.00  0.00     0.031 C 
ATOM     69  C   UNL A   1      46.524  27.118  30.053  1.00  0.00     0.037 A 
BRANCH  56  70
ATOM     70  C   UNL A   1      43.955  32.579  31.394  1.00  0.00     0.057 A 
ATOM     71  C   UNL A   1      43.724  32.888  32.742  1.00  0.00     0.134 A 
ATOM     72  C   UNL A   1      44.375  33.621  30.558  1.00  0.00     0.134 A 
ATOM     73  F   UNL A   1      43.308  31.939  33.595  1.00  0.00    -0.206 F 
ATOM     74  C   UNL A   1      43.869  34.188  33.229  1.00  0.00     0.040 A 
ATOM     75  C   UNL A   1      44.554  34.919  31.041  1.00  0.00     0.040 A 
ATOM     76  F   UNL A   1      44.623  33.396  29.258  1.00  0.00    -0.206 F 
ATOM     77  C   UNL A   1      44.291  35.208  32.379  1.00  0.00     0.006 A 
ENDBRANCH  56  70
BRANCH  57  78
ATOM     78  C   UNL A   1      42.415  23.581  27.360  1.00  0.00     0.057 A 
ATOM     79  C   UNL A   1      42.574  23.403  25.980  1.00  0.00     0.134 A 
ATOM     80  C   UNL A   1      42.064  22.458  28.119  1.00  0.00     0.134 A 
ATOM     81  F   UNL A   1      42.891  24.445  25.198  1.00  0.00    -0.206 F 
ATOM     82  C   UNL A   1      42.379  22.160  25.376  1.00  0.00     0.040 A 
ATOM     83  C   UNL A   1      41.890  21.204  27.531  1.00  0.00     0.040 A 
ATOM     84  F   UNL A   1      41.904  22.561  29.447  1.00  0.00    -0.206 F 
ATOM     85  C   UNL A   1      42.043  21.054  26.154  1.00  0.00     0.006 A 
ENDBRANCH  57  78
BRANCH  69  86
ATOM     86  C   UNL A   1      47.927  26.651  30.312  1.00  0.00     0.057 A 
ATOM     87  C   UNL A   1      48.967  26.897  29.407  1.00  0.00     0.134 A 
ATOM     88  C   UNL A   1      48.248  25.985  31.501  1.00  0.00     0.134 A 
ATOM     89  F   UNL A   1      48.724  27.520  28.244  1.00  0.00    -0.206 F 
ATOM     90  C   UNL A   1      50.272  26.476  29.665  1.00  0.00     0.040 A 
ATOM     91  C   UNL A   1      49.554  25.583  31.784  1.00  0.00     0.040 A 
ATOM     92  F   UNL A   1      47.300  25.727  32.416  1.00  0.00    -0.206 F 
ATOM     93  C   UNL A   1      50.570  25.824  30.860  1.00  0.00     0.006 A 
ENDBRANCH  69  86
ENDBRANCH  43  44
ENDBRANCH  35  38
ENDBRANCH  33  34
ENDBRANCH   1  33
TORSDOF 15
ENDMDL
