MODEL 1
REMARK VINA RESULT:     -12.4      0.000      0.000
REMARK SMILES COc1ccc(CCC(=O)Nc2ccc(N3CCCC3)cc2C(=O)NCCCNC(=O)c2ccc(-c3c4nc(c(-c5c(F)cccc5F)c5ccc([nH]5)c(-c5c(F)cccc5F)c5nc(c(-c6c(F)cccc6F)c6ccc3[nH]6)C=C5)C=C4)cc2)cc1
REMARK SMILES IDX 23 1 24 2 25 3 22 5 12 6 13 7 14 8 21 9 15 10 11 11 9 12
REMARK SMILES IDX 10 13 8 15 7 16 6 17 3 18 4 19 87 20 5 21 86 22 2 23 1 24
REMARK SMILES IDX 16 25 17 26 20 27 18 28 19 29 26 30 27 31 28 32 29 33 30 34
REMARK SMILES IDX 31 36 32 37 33 38 85 39 34 40 84 41 35 42 36 43 37 44 78 45
REMARK SMILES IDX 38 46 83 47 77 48 79 49 39 50 82 51 76 52 75 53 40 55 66 56
REMARK SMILES IDX 49 57 65 58 50 59 53 60 64 61 80 62 51 63 52 64 63 66 81 67
REMARK SMILES IDX 54 68 41 69 42 70 47 71 43 72 44 73 46 74 48 75 45 76 67 77
REMARK SMILES IDX 68 78 73 79 69 80 70 81 72 82 74 83 71 84 55 85 56 86 61 87
REMARK SMILES IDX 57 88 58 89 60 90 62 91 59 92
REMARK H PARENT 25 4 11 14 29 35 79 54 53 65
REMARK Flexibility Score: inf
ROOT
ATOM      1  C   UNL A   1      32.147  29.344  24.751  1.00  0.00     0.253 C 
ATOM      2  O   UNL A   1      33.271  29.643  24.380  1.00  0.00    -0.269 OA
ATOM      3  N   UNL A   1      31.391  30.319  25.403  1.00  0.00    -0.352 N 
ATOM      4  H   UNL A   1      30.577  30.657  24.965  1.00  0.00     0.163 HD
ENDROOT
BRANCH   1   5
ATOM      5  C   UNL A   1      31.543  27.941  24.662  1.00  0.00     0.065 A 
ATOM      6  C   UNL A   1      31.043  27.604  23.439  1.00  0.00     0.054 A 
ATOM      7  C   UNL A   1      29.898  26.829  23.374  1.00  0.00     0.029 A 
ATOM      8  C   UNL A   1      29.782  25.840  24.338  1.00  0.00     0.028 A 
ATOM      9  C   UNL A   1      31.523  26.866  25.561  1.00  0.00     0.042 A 
ATOM     10  C   UNL A   1      30.783  25.694  25.294  1.00  0.00     0.038 A 
BRANCH   6  11
ATOM     11  N   UNL A   1      31.925  27.638  22.345  1.00  0.00    -0.325 N 
ATOM     12  C   UNL A   1      32.938  26.725  22.061  1.00  0.00     0.224 C 
ATOM     13  O   UNL A   1      33.884  27.165  21.394  1.00  0.00    -0.275 OA
ATOM     14  H   UNL A   1      31.816  28.387  21.714  1.00  0.00     0.169 HD
BRANCH  12  15
ATOM     15  C   UNL A   1      32.851  25.150  22.371  1.00  0.00     0.105 C 
BRANCH  15  16
ATOM     16  C   UNL A   1      33.643  24.246  23.430  1.00  0.00     0.045 C 
BRANCH  16  17
ATOM     17  C   UNL A   1      33.570  22.697  23.459  1.00  0.00    -0.047 A 
ATOM     18  C   UNL A   1      32.966  20.064  24.293  1.00  0.00     0.118 A 
ATOM     19  C   UNL A   1      34.116  20.693  24.745  1.00  0.00     0.046 A 
ATOM     20  C   UNL A   1      32.333  20.596  23.166  1.00  0.00     0.046 A 
ATOM     21  C   UNL A   1      34.470  21.959  24.243  1.00  0.00     0.007 A 
ATOM     22  C   UNL A   1      32.605  21.937  22.780  1.00  0.00     0.007 A 
BRANCH  18  23
ATOM     23  O   UNL A   1      32.244  19.441  25.294  1.00  0.00    -0.497 OA
ATOM     24  C   UNL A   1      32.583  18.122  25.673  1.00  0.00     0.278 C 
ENDBRANCH  18  23
ENDBRANCH  16  17
ENDBRANCH  15  16
ENDBRANCH  12  15
ENDBRANCH   6  11
BRANCH  10  25
ATOM     25  N   UNL A   1      31.047  24.442  25.797  1.00  0.00    -0.372 N 
ATOM     26  C   UNL A   1      30.423  23.187  25.436  1.00  0.00     0.116 C 
ATOM     27  C   UNL A   1      32.104  24.222  26.794  1.00  0.00     0.116 C 
ATOM     28  C   UNL A   1      30.692  22.281  26.637  1.00  0.00     0.023 C 
ATOM     29  C   UNL A   1      32.074  22.717  27.086  1.00  0.00     0.023 C 
ENDBRANCH  10  25
ENDBRANCH   1   5
BRANCH   3  30
ATOM     30  C   UNL A   1      31.756  30.854  26.698  1.00  0.00     0.118 C 
BRANCH  30  31
ATOM     31  C   UNL A   1      31.531  32.355  26.810  1.00  0.00     0.042 C 
BRANCH  31  32
ATOM     32  C   UNL A   1      32.758  33.144  27.261  1.00  0.00     0.118 C 
BRANCH  32  33
ATOM     33  N   UNL A   1      32.461  34.489  27.753  1.00  0.00    -0.352 N 
ATOM     34  C   UNL A   1      33.024  35.213  28.776  1.00  0.00     0.251 C 
ATOM     35  H   UNL A   1      31.739  34.953  27.272  1.00  0.00     0.163 HD
ATOM     36  O   UNL A   1      32.532  36.286  29.127  1.00  0.00    -0.269 OA
BRANCH  34  37
ATOM     37  C   UNL A   1      34.198  34.683  29.487  1.00  0.00     0.039 A 
ATOM     38  C   UNL A   1      34.023  34.003  30.695  1.00  0.00     0.014 A 
ATOM     39  C   UNL A   1      35.471  34.831  28.940  1.00  0.00     0.014 A 
ATOM     40  C   UNL A   1      35.119  33.382  31.298  1.00  0.00     0.010 A 
ATOM     41  C   UNL A   1      36.531  34.115  29.472  1.00  0.00     0.010 A 
ATOM     42  C   UNL A   1      36.370  33.387  30.661  1.00  0.00    -0.014 A 
BRANCH  42  43
ATOM     43  C   UNL A   1      37.534  32.654  31.218  1.00  0.00     0.031 A 
ATOM     44  C   UNL A   1      38.142  33.096  32.520  1.00  0.00     0.074 A 
ATOM     45  C   UNL A   1      38.093  31.652  30.511  1.00  0.00     0.049 A 
ATOM     46  N   UNL A   1      39.209  32.649  33.132  1.00  0.00    -0.248 NA
ATOM     47  C   UNL A   1      37.490  34.226  33.202  1.00  0.00     0.031 C 
ATOM     48  C   UNL A   1      37.631  31.171  29.208  1.00  0.00     0.029 A 
ATOM     49  N   UNL A   1      39.175  30.858  30.792  1.00  0.00    -0.354 N 
ATOM     50  C   UNL A   1      39.368  33.462  34.248  1.00  0.00     0.074 A 
ATOM     51  C   UNL A   1      38.341  34.476  34.183  1.00  0.00     0.031 C 
ATOM     52  C   UNL A   1      38.391  30.131  28.827  1.00  0.00     0.029 A 
ATOM     53  C   UNL A   1      39.420  29.902  29.836  1.00  0.00     0.049 A 
ATOM     54  H   UNL A   1      39.726  30.963  31.602  1.00  0.00     0.167 HD
ATOM     55  C   UNL A   1      40.264  33.352  35.257  1.00  0.00     0.037 A 
ATOM     56  C   UNL A   1      40.364  28.944  29.787  1.00  0.00     0.037 A 
ATOM     57  C   UNL A   1      41.262  32.319  35.327  1.00  0.00     0.049 A 
ATOM     58  C   UNL A   1      41.355  28.842  30.913  1.00  0.00     0.074 A 
ATOM     59  C   UNL A   1      42.178  32.068  36.332  1.00  0.00     0.029 A 
ATOM     60  N   UNL A   1      41.475  31.365  34.342  1.00  0.00    -0.354 N 
ATOM     61  N   UNL A   1      41.448  29.566  32.002  1.00  0.00    -0.248 NA
ATOM     62  C   UNL A   1      42.371  27.787  30.802  1.00  0.00     0.031 C 
ATOM     63  C   UNL A   1      42.978  30.991  35.933  1.00  0.00     0.029 A 
ATOM     64  C   UNL A   1      42.525  30.537  34.703  1.00  0.00     0.049 A 
ATOM     65  H   UNL A   1      40.955  31.286  33.509  1.00  0.00     0.167 HD
ATOM     66  C   UNL A   1      42.510  29.035  32.724  1.00  0.00     0.074 A 
ATOM     67  C   UNL A   1      43.022  27.921  31.949  1.00  0.00     0.031 C 
ATOM     68  C   UNL A   1      43.014  29.430  33.918  1.00  0.00     0.037 A 
BRANCH  55  69
ATOM     69  C   UNL A   1      40.191  34.381  36.351  1.00  0.00     0.057 A 
ATOM     70  C   UNL A   1      40.952  35.559  36.315  1.00  0.00     0.134 A 
ATOM     71  C   UNL A   1      39.375  34.179  37.472  1.00  0.00     0.134 A 
ATOM     72  F   UNL A   1      41.766  35.812  35.278  1.00  0.00    -0.206 F 
ATOM     73  C   UNL A   1      40.950  36.466  37.377  1.00  0.00     0.040 A 
ATOM     74  C   UNL A   1      39.337  35.098  38.523  1.00  0.00     0.040 A 
ATOM     75  F   UNL A   1      38.612  33.081  37.571  1.00  0.00    -0.206 F 
ATOM     76  C   UNL A   1      40.138  36.237  38.485  1.00  0.00     0.006 A 
ENDBRANCH  55  69
BRANCH  56  77
ATOM     77  C   UNL A   1      40.375  27.968  28.667  1.00  0.00     0.057 A 
ATOM     78  C   UNL A   1      41.082  28.242  27.490  1.00  0.00     0.134 A 
ATOM     79  C   UNL A   1      39.704  26.742  28.744  1.00  0.00     0.134 A 
ATOM     80  F   UNL A   1      41.733  29.407  27.350  1.00  0.00    -0.206 F 
ATOM     81  C   UNL A   1      41.111  27.340  26.425  1.00  0.00     0.040 A 
ATOM     82  C   UNL A   1      39.744  25.820  27.697  1.00  0.00     0.040 A 
ATOM     83  F   UNL A   1      39.016  26.414  29.848  1.00  0.00    -0.206 F 
ATOM     84  C   UNL A   1      40.446  26.121  26.529  1.00  0.00     0.006 A 
ENDBRANCH  56  77
BRANCH  68  85
ATOM     85  C   UNL A   1      44.155  28.631  34.478  1.00  0.00     0.057 A 
ATOM     86  C   UNL A   1      43.947  27.477  35.243  1.00  0.00     0.134 A 
ATOM     87  C   UNL A   1      45.479  29.001  34.210  1.00  0.00     0.134 A 
ATOM     88  F   UNL A   1      42.703  27.077  35.546  1.00  0.00    -0.206 F 
ATOM     89  C   UNL A   1      45.016  26.732  35.742  1.00  0.00     0.040 A 
ATOM     90  C   UNL A   1      46.556  28.247  34.678  1.00  0.00     0.040 A 
ATOM     91  F   UNL A   1      45.748  30.091  33.476  1.00  0.00    -0.206 F 
ATOM     92  C   UNL A   1      46.325  27.112  35.453  1.00  0.00     0.006 A 
ENDBRANCH  68  85
ENDBRANCH  42  43
ENDBRANCH  34  37
ENDBRANCH  32  33
ENDBRANCH  31  32
ENDBRANCH  30  31
ENDBRANCH   3  30
TORSDOF 16
ENDMDL
MODEL 2
REMARK VINA RESULT:     -12.4      5.015      9.819
REMARK SMILES COc1ccc(CCC(=O)Nc2ccc(N3CCCC3)cc2C(=O)NCCCNC(=O)c2ccc(-c3c4nc(c(-c5c(F)cccc5F)c5ccc([nH]5)c(-c5c(F)cccc5F)c5nc(c(-c6c(F)cccc6F)c6ccc3[nH]6)C=C5)C=C4)cc2)cc1
REMARK SMILES IDX 23 1 24 2 25 3 22 5 12 6 13 7 14 8 21 9 15 10 11 11 9 12
REMARK SMILES IDX 10 13 8 15 7 16 6 17 3 18 4 19 87 20 5 21 86 22 2 23 1 24
REMARK SMILES IDX 16 25 17 26 20 27 18 28 19 29 26 30 27 31 28 32 29 33 30 34
REMARK SMILES IDX 31 36 32 37 33 38 85 39 34 40 84 41 35 42 36 43 37 44 78 45
REMARK SMILES IDX 38 46 83 47 77 48 79 49 39 50 82 51 76 52 75 53 40 55 66 56
REMARK SMILES IDX 49 57 65 58 50 59 53 60 64 61 80 62 51 63 52 64 63 66 81 67
REMARK SMILES IDX 54 68 41 69 42 70 47 71 43 72 44 73 46 74 48 75 45 76 67 77
REMARK SMILES IDX 68 78 73 79 69 80 70 81 72 82 74 83 71 84 55 85 56 86 61 87
REMARK SMILES IDX 57 88 58 89 60 90 62 91 59 92
REMARK H PARENT 25 4 11 14 29 35 79 54 53 65
REMARK Flexibility Score: inf
ROOT
ATOM      1  C   UNL A   1      35.055  22.651  25.425  1.00  0.00     0.253 C 
ATOM      2  O   UNL A   1      35.354  22.904  26.581  1.00  0.00    -0.269 OA
ATOM      3  N   UNL A   1      35.687  21.572  24.806  1.00  0.00    -0.352 N 
ATOM      4  H   UNL A   1      35.146  20.789  24.554  1.00  0.00     0.163 HD
ENDROOT
BRANCH   1   5
ATOM      5  C   UNL A   1      34.125  23.501  24.557  1.00  0.00     0.065 A 
ATOM      6  C   UNL A   1      32.863  23.006  24.407  1.00  0.00     0.054 A 
ATOM      7  C   UNL A   1      32.223  23.163  23.190  1.00  0.00     0.029 A 
ATOM      8  C   UNL A   1      32.455  24.363  22.535  1.00  0.00     0.028 A 
ATOM      9  C   UNL A   1      34.270  24.775  23.991  1.00  0.00     0.042 A 
ATOM     10  C   UNL A   1      33.301  25.306  23.111  1.00  0.00     0.038 A 
BRANCH   6  11
ATOM     11  N   UNL A   1      32.105  22.796  25.572  1.00  0.00    -0.325 N 
ATOM     12  C   UNL A   1      31.599  23.774  26.426  1.00  0.00     0.224 C 
ATOM     13  O   UNL A   1      31.415  23.419  27.598  1.00  0.00    -0.275 OA
ATOM     14  H   UNL A   1      31.913  21.860  25.810  1.00  0.00     0.169 HD
BRANCH  12  15
ATOM     15  C   UNL A   1      31.078  25.217  25.945  1.00  0.00     0.105 C 
BRANCH  15  16
ATOM     16  C   UNL A   1      31.045  26.625  26.707  1.00  0.00     0.045 C 
BRANCH  16  17
ATOM     17  C   UNL A   1      32.075  27.757  26.460  1.00  0.00    -0.047 A 
ATOM     18  C   UNL A   1      33.834  29.921  26.926  1.00  0.00     0.118 A 
ATOM     19  C   UNL A   1      32.496  30.156  26.652  1.00  0.00     0.046 A 
ATOM     20  C   UNL A   1      34.354  28.664  26.606  1.00  0.00     0.046 A 
ATOM     21  C   UNL A   1      31.648  29.086  26.312  1.00  0.00     0.007 A 
ATOM     22  C   UNL A   1      33.466  27.569  26.420  1.00  0.00     0.007 A 
BRANCH  18  23
ATOM     23  O   UNL A   1      34.316  30.644  28.003  1.00  0.00    -0.497 OA
ATOM     24  C   UNL A   1      34.418  32.049  27.903  1.00  0.00     0.278 C 
ENDBRANCH  18  23
ENDBRANCH  16  17
ENDBRANCH  15  16
ENDBRANCH  12  15
ENDBRANCH   6  11
BRANCH  10  25
ATOM     25  N   UNL A   1      33.062  26.641  22.888  1.00  0.00    -0.372 N 
ATOM     26  C   UNL A   1      34.023  27.678  22.578  1.00  0.00     0.116 C 
ATOM     27  C   UNL A   1      31.698  27.190  22.894  1.00  0.00     0.116 C 
ATOM     28  C   UNL A   1      33.312  28.972  22.973  1.00  0.00     0.023 C 
ATOM     29  C   UNL A   1      31.866  28.687  22.610  1.00  0.00     0.023 C 
ENDBRANCH  10  25
ENDBRANCH   1   5
BRANCH   3  30
ATOM     30  C   UNL A   1      37.106  21.555  24.521  1.00  0.00     0.118 C 
BRANCH  30  31
ATOM     31  C   UNL A   1      37.799  20.288  25.001  1.00  0.00     0.042 C 
BRANCH  31  32
ATOM     32  C   UNL A   1      39.023  20.533  25.879  1.00  0.00     0.118 C 
BRANCH  32  33
ATOM     33  N   UNL A   1      39.947  19.402  25.955  1.00  0.00    -0.352 N 
ATOM     34  C   UNL A   1      41.309  19.367  26.125  1.00  0.00     0.251 C 
ATOM     35  H   UNL A   1      39.521  18.518  25.870  1.00  0.00     0.163 HD
ATOM     36  O   UNL A   1      41.926  18.306  26.019  1.00  0.00    -0.269 OA
BRANCH  34  37
ATOM     37  C   UNL A   1      42.044  20.613  26.394  1.00  0.00     0.039 A 
ATOM     38  C   UNL A   1      42.498  21.389  25.325  1.00  0.00     0.014 A 
ATOM     39  C   UNL A   1      42.256  21.029  27.707  1.00  0.00     0.014 A 
ATOM     40  C   UNL A   1      43.073  22.636  25.578  1.00  0.00     0.010 A 
ATOM     41  C   UNL A   1      42.712  22.314  27.951  1.00  0.00     0.010 A 
ATOM     42  C   UNL A   1      43.132  23.131  26.891  1.00  0.00    -0.014 A 
BRANCH  42  43
ATOM     43  C   UNL A   1      43.642  24.493  27.190  1.00  0.00     0.031 A 
ATOM     44  C   UNL A   1      42.689  25.564  27.644  1.00  0.00     0.074 A 
ATOM     45  C   UNL A   1      44.938  24.785  26.968  1.00  0.00     0.049 A 
ATOM     46  N   UNL A   1      42.914  26.833  27.872  1.00  0.00    -0.248 NA
ATOM     47  C   UNL A   1      41.283  25.164  27.820  1.00  0.00     0.031 C 
ATOM     48  C   UNL A   1      45.947  23.848  26.470  1.00  0.00     0.029 A 
ATOM     49  N   UNL A   1      45.629  25.958  27.133  1.00  0.00    -0.354 N 
ATOM     50  C   UNL A   1      41.676  27.381  28.186  1.00  0.00     0.074 A 
ATOM     51  C   UNL A   1      40.697  26.329  28.039  1.00  0.00     0.031 C 
ATOM     52  C   UNL A   1      47.137  24.468  26.421  1.00  0.00     0.029 A 
ATOM     53  C   UNL A   1      46.968  25.855  26.839  1.00  0.00     0.049 A 
ATOM     54  H   UNL A   1      45.206  26.796  27.432  1.00  0.00     0.167 HD
ATOM     55  C   UNL A   1      41.384  28.638  28.598  1.00  0.00     0.037 A 
ATOM     56  C   UNL A   1      47.946  26.777  26.909  1.00  0.00     0.037 A 
ATOM     57  C   UNL A   1      42.372  29.669  28.771  1.00  0.00     0.049 A 
ATOM     58  C   UNL A   1      47.602  28.169  27.361  1.00  0.00     0.074 A 
ATOM     59  C   UNL A   1      42.204  30.956  29.247  1.00  0.00     0.029 A 
ATOM     60  N   UNL A   1      43.719  29.524  28.469  1.00  0.00    -0.354 N 
ATOM     61  N   UNL A   1      46.442  28.656  27.731  1.00  0.00    -0.248 NA
ATOM     62  C   UNL A   1      48.705  29.138  27.407  1.00  0.00     0.031 C 
ATOM     63  C   UNL A   1      43.442  31.607  29.186  1.00  0.00     0.029 A 
ATOM     64  C   UNL A   1      44.392  30.708  28.724  1.00  0.00     0.049 A 
ATOM     65  H   UNL A   1      44.136  28.701  28.126  1.00  0.00     0.167 HD
ATOM     66  C   UNL A   1      46.680  29.979  28.086  1.00  0.00     0.074 A 
ATOM     67  C   UNL A   1      48.098  30.211  27.895  1.00  0.00     0.031 C 
ATOM     68  C   UNL A   1      45.806  30.914  28.531  1.00  0.00     0.037 A 
BRANCH  55  69
ATOM     69  C   UNL A   1      39.940  28.947  28.880  1.00  0.00     0.057 A 
ATOM     70  C   UNL A   1      39.402  28.866  30.173  1.00  0.00     0.134 A 
ATOM     71  C   UNL A   1      39.066  29.297  27.843  1.00  0.00     0.134 A 
ATOM     72  F   UNL A   1      40.178  28.524  31.213  1.00  0.00    -0.206 F 
ATOM     73  C   UNL A   1      38.041  29.063  30.415  1.00  0.00     0.040 A 
ATOM     74  C   UNL A   1      37.710  29.533  28.079  1.00  0.00     0.040 A 
ATOM     75  F   UNL A   1      39.511  29.402  26.582  1.00  0.00    -0.206 F 
ATOM     76  C   UNL A   1      37.191  29.400  29.365  1.00  0.00     0.006 A 
ENDBRANCH  55  69
BRANCH  56  77
ATOM     77  C   UNL A   1      49.349  26.396  26.607  1.00  0.00     0.057 A 
ATOM     78  C   UNL A   1      49.861  26.531  25.310  1.00  0.00     0.134 A 
ATOM     79  C   UNL A   1      50.215  25.908  27.593  1.00  0.00     0.134 A 
ATOM     80  F   UNL A   1      49.076  26.979  24.319  1.00  0.00    -0.206 F 
ATOM     81  C   UNL A   1      51.177  26.183  25.001  1.00  0.00     0.040 A 
ATOM     82  C   UNL A   1      51.540  25.579  27.303  1.00  0.00     0.040 A 
ATOM     83  F   UNL A   1      49.790  25.763  28.857  1.00  0.00    -0.206 F 
ATOM     84  C   UNL A   1      52.023  25.711  26.002  1.00  0.00     0.006 A 
ENDBRANCH  56  77
BRANCH  68  85
ATOM     85  C   UNL A   1      46.365  32.264  28.878  1.00  0.00     0.057 A 
ATOM     86  C   UNL A   1      46.420  33.306  27.946  1.00  0.00     0.134 A 
ATOM     87  C   UNL A   1      46.816  32.532  30.177  1.00  0.00     0.134 A 
ATOM     88  F   UNL A   1      46.016  33.110  26.681  1.00  0.00    -0.206 F 
ATOM     89  C   UNL A   1      46.925  34.562  28.286  1.00  0.00     0.040 A 
ATOM     90  C   UNL A   1      47.294  33.792  30.537  1.00  0.00     0.040 A 
ATOM     91  F   UNL A   1      46.783  31.579  31.121  1.00  0.00    -0.206 F 
ATOM     92  C   UNL A   1      47.356  34.810  29.588  1.00  0.00     0.006 A 
ENDBRANCH  68  85
ENDBRANCH  42  43
ENDBRANCH  34  37
ENDBRANCH  32  33
ENDBRANCH  31  32
ENDBRANCH  30  31
ENDBRANCH   3  30
TORSDOF 16
ENDMDL
MODEL 3
REMARK VINA RESULT:     -12.4      2.044      3.402
REMARK SMILES COc1ccc(CCC(=O)Nc2ccc(N3CCCC3)cc2C(=O)NCCCNC(=O)c2ccc(-c3c4nc(c(-c5c(F)cccc5F)c5ccc([nH]5)c(-c5c(F)cccc5F)c5nc(c(-c6c(F)cccc6F)c6ccc3[nH]6)C=C5)C=C4)cc2)cc1
REMARK SMILES IDX 23 1 24 2 25 3 22 5 12 6 13 7 14 8 21 9 15 10 11 11 9 12
REMARK SMILES IDX 10 13 8 15 7 16 6 17 3 18 4 19 87 20 5 21 86 22 2 23 1 24
REMARK SMILES IDX 16 25 17 26 20 27 18 28 19 29 26 30 27 31 28 32 29 33 30 34
REMARK SMILES IDX 31 36 32 37 33 38 85 39 34 40 84 41 35 42 36 43 37 44 78 45
REMARK SMILES IDX 38 46 83 47 77 48 79 49 39 50 82 51 76 52 75 53 40 55 66 56
REMARK SMILES IDX 49 57 65 58 50 59 53 60 64 61 80 62 51 63 52 64 63 66 81 67
REMARK SMILES IDX 54 68 41 69 42 70 47 71 43 72 44 73 46 74 48 75 45 76 67 77
REMARK SMILES IDX 68 78 73 79 69 80 70 81 72 82 74 83 71 84 55 85 56 86 61 87
REMARK SMILES IDX 57 88 58 89 60 90 62 91 59 92
REMARK H PARENT 25 4 11 14 29 35 79 54 53 65
REMARK Flexibility Score: inf
ROOT
ATOM      1  C   UNL A   1      31.810  26.485  26.157  1.00  0.00     0.253 C 
ATOM      2  O   UNL A   1      30.623  26.653  25.930  1.00  0.00    -0.269 OA
ATOM      3  N   UNL A   1      32.619  27.615  26.289  1.00  0.00    -0.352 N 
ATOM      4  H   UNL A   1      33.027  27.803  27.165  1.00  0.00     0.163 HD
ENDROOT
BRANCH   1   5
ATOM      5  C   UNL A   1      32.509  25.124  26.190  1.00  0.00     0.065 A 
ATOM      6  C   UNL A   1      31.675  24.048  26.275  1.00  0.00     0.054 A 
ATOM      7  C   UNL A   1      32.066  22.956  27.029  1.00  0.00     0.029 A 
ATOM      8  C   UNL A   1      33.415  22.639  26.980  1.00  0.00     0.028 A 
ATOM      9  C   UNL A   1      33.847  24.749  26.009  1.00  0.00     0.042 A 
ATOM     10  C   UNL A   1      34.275  23.418  26.211  1.00  0.00     0.038 A 
BRANCH   6  11
ATOM     11  N   UNL A   1      30.717  23.887  25.259  1.00  0.00    -0.325 N 
ATOM     12  C   UNL A   1      30.964  23.612  23.916  1.00  0.00     0.224 C 
ATOM     13  O   UNL A   1      30.093  23.994  23.122  1.00  0.00    -0.275 OA
ATOM     14  H   UNL A   1      29.773  23.980  25.524  1.00  0.00     0.169 HD
BRANCH  12  15
ATOM     15  C   UNL A   1      32.170  22.692  23.385  1.00  0.00     0.105 C 
BRANCH  15  16
ATOM     16  C   UNL A   1      32.155  21.300  22.593  1.00  0.00     0.045 C 
BRANCH  16  17
ATOM     17  C   UNL A   1      32.293  19.919  23.285  1.00  0.00    -0.047 A 
ATOM     18  C   UNL A   1      33.420  17.512  24.250  1.00  0.00     0.118 A 
ATOM     19  C   UNL A   1      32.899  17.574  22.967  1.00  0.00     0.046 A 
ATOM     20  C   UNL A   1      33.050  18.514  25.152  1.00  0.00     0.046 A 
ATOM     21  C   UNL A   1      32.241  18.738  22.529  1.00  0.00     0.007 A 
ATOM     22  C   UNL A   1      32.529  19.740  24.657  1.00  0.00     0.007 A 
BRANCH  18  23
ATOM     23  O   UNL A   1      34.664  16.911  24.316  1.00  0.00    -0.497 OA
ATOM     24  C   UNL A   1      34.943  16.013  25.371  1.00  0.00     0.278 C 
ENDBRANCH  18  23
ENDBRANCH  16  17
ENDBRANCH  15  16
ENDBRANCH  12  15
ENDBRANCH   6  11
BRANCH  10  25
ATOM     25  N   UNL A   1      35.369  22.826  25.627  1.00  0.00    -0.372 N 
ATOM     26  C   UNL A   1      36.409  23.456  24.842  1.00  0.00     0.116 C 
ATOM     27  C   UNL A   1      35.645  21.391  25.789  1.00  0.00     0.116 C 
ATOM     28  C   UNL A   1      37.008  22.307  24.031  1.00  0.00     0.023 C 
ATOM     29  C   UNL A   1      36.932  21.138  24.995  1.00  0.00     0.023 C 
ENDBRANCH  10  25
ENDBRANCH   1   5
BRANCH   3  30
ATOM     30  C   UNL A   1      32.881  28.521  25.191  1.00  0.00     0.118 C 
BRANCH  30  31
ATOM     31  C   UNL A   1      32.217  29.879  25.365  1.00  0.00     0.042 C 
BRANCH  31  32
ATOM     32  C   UNL A   1      32.143  30.365  26.810  1.00  0.00     0.118 C 
BRANCH  32  33
ATOM     33  N   UNL A   1      32.198  31.818  26.961  1.00  0.00    -0.352 N 
ATOM     34  C   UNL A   1      33.150  32.624  27.536  1.00  0.00     0.251 C 
ATOM     35  H   UNL A   1      31.424  32.299  26.589  1.00  0.00     0.163 HD
ATOM     36  O   UNL A   1      32.942  33.828  27.689  1.00  0.00    -0.269 OA
BRANCH  34  37
ATOM     37  C   UNL A   1      34.414  32.037  28.011  1.00  0.00     0.039 A 
ATOM     38  C   UNL A   1      35.528  32.859  28.195  1.00  0.00     0.014 A 
ATOM     39  C   UNL A   1      34.484  30.677  28.306  1.00  0.00     0.014 A 
ATOM     40  C   UNL A   1      36.683  32.330  28.775  1.00  0.00     0.010 A 
ATOM     41  C   UNL A   1      35.583  30.183  28.991  1.00  0.00     0.010 A 
ATOM     42  C   UNL A   1      36.698  31.001  29.228  1.00  0.00    -0.014 A 
BRANCH  42  43
ATOM     43  C   UNL A   1      37.868  30.432  29.941  1.00  0.00     0.031 A 
ATOM     44  C   UNL A   1      38.127  30.809  31.374  1.00  0.00     0.074 A 
ATOM     45  C   UNL A   1      38.743  29.652  29.275  1.00  0.00     0.049 A 
ATOM     46  N   UNL A   1      39.135  30.494  32.146  1.00  0.00    -0.248 NA
ATOM     47  C   UNL A   1      37.141  31.699  32.009  1.00  0.00     0.031 C 
ATOM     48  C   UNL A   1      38.634  29.266  27.867  1.00  0.00     0.029 A 
ATOM     49  N   UNL A   1      39.898  29.044  29.696  1.00  0.00    -0.354 N 
ATOM     50  C   UNL A   1      38.917  31.171  33.340  1.00  0.00     0.074 A 
ATOM     51  C   UNL A   1      37.730  31.974  33.161  1.00  0.00     0.031 C 
ATOM     52  C   UNL A   1      39.649  28.444  27.556  1.00  0.00     0.029 A 
ATOM     53  C   UNL A   1      40.504  28.282  28.726  1.00  0.00     0.049 A 
ATOM     54  H   UNL A   1      40.259  29.145  30.607  1.00  0.00     0.167 HD
ATOM     55  C   UNL A   1      39.619  31.101  34.496  1.00  0.00     0.037 A 
ATOM     56  C   UNL A   1      41.620  27.533  28.784  1.00  0.00     0.037 A 
ATOM     57  C   UNL A   1      40.782  30.272  34.673  1.00  0.00     0.049 A 
ATOM     58  C   UNL A   1      42.391  27.473  30.073  1.00  0.00     0.074 A 
ATOM     59  C   UNL A   1      41.533  30.069  35.816  1.00  0.00     0.029 A 
ATOM     60  N   UNL A   1      41.363  29.510  33.669  1.00  0.00    -0.354 N 
ATOM     61  N   UNL A   1      42.133  28.054  31.219  1.00  0.00    -0.248 NA
ATOM     62  C   UNL A   1      43.607  26.649  30.076  1.00  0.00     0.031 C 
ATOM     63  C   UNL A   1      42.598  29.221  35.491  1.00  0.00     0.029 A 
ATOM     64  C   UNL A   1      42.479  28.853  34.159  1.00  0.00     0.049 A 
ATOM     65  H   UNL A   1      41.029  29.444  32.745  1.00  0.00     0.167 HD
ATOM     66  C   UNL A   1      43.134  27.643  32.090  1.00  0.00     0.074 A 
ATOM     67  C   UNL A   1      43.998  26.754  31.338  1.00  0.00     0.031 C 
ATOM     68  C   UNL A   1      43.321  27.968  33.393  1.00  0.00     0.037 A 
BRANCH  55  69
ATOM     69  C   UNL A   1      39.137  31.948  35.641  1.00  0.00     0.057 A 
ATOM     70  C   UNL A   1      38.231  31.461  36.595  1.00  0.00     0.134 A 
ATOM     71  C   UNL A   1      39.555  33.278  35.775  1.00  0.00     0.134 A 
ATOM     72  F   UNL A   1      37.778  30.200  36.522  1.00  0.00    -0.206 F 
ATOM     73  C   UNL A   1      37.716  32.280  37.602  1.00  0.00     0.040 A 
ATOM     74  C   UNL A   1      39.075  34.096  36.800  1.00  0.00     0.040 A 
ATOM     75  F   UNL A   1      40.427  33.810  34.905  1.00  0.00    -0.206 F 
ATOM     76  C   UNL A   1      38.140  33.602  37.707  1.00  0.00     0.006 A 
ENDBRANCH  55  69
BRANCH  56  77
ATOM     77  C   UNL A   1      42.036  26.729  27.606  1.00  0.00     0.057 A 
ATOM     78  C   UNL A   1      42.847  27.289  26.611  1.00  0.00     0.134 A 
ATOM     79  C   UNL A   1      41.656  25.391  27.448  1.00  0.00     0.134 A 
ATOM     80  F   UNL A   1      43.232  28.570  26.698  1.00  0.00    -0.206 F 
ATOM     81  C   UNL A   1      43.255  26.553  25.497  1.00  0.00     0.040 A 
ATOM     82  C   UNL A   1      42.076  24.636  26.351  1.00  0.00     0.040 A 
ATOM     83  F   UNL A   1      40.887  24.791  28.370  1.00  0.00    -0.206 F 
ATOM     84  C   UNL A   1      42.874  25.220  25.368  1.00  0.00     0.006 A 
ENDBRANCH  56  77
BRANCH  68  85
ATOM     85  C   UNL A   1      44.483  27.330  34.098  1.00  0.00     0.057 A 
ATOM     86  C   UNL A   1      45.732  27.956  34.186  1.00  0.00     0.134 A 
ATOM     87  C   UNL A   1      44.333  26.091  34.733  1.00  0.00     0.134 A 
ATOM     88  F   UNL A   1      45.945  29.138  33.588  1.00  0.00    -0.206 F 
ATOM     89  C   UNL A   1      46.799  27.360  34.861  1.00  0.00     0.040 A 
ATOM     90  C   UNL A   1      45.383  25.499  35.436  1.00  0.00     0.040 A 
ATOM     91  F   UNL A   1      43.159  25.441  34.694  1.00  0.00    -0.206 F 
ATOM     92  C   UNL A   1      46.623  26.132  35.496  1.00  0.00     0.006 A 
ENDBRANCH  68  85
ENDBRANCH  42  43
ENDBRANCH  34  37
ENDBRANCH  32  33
ENDBRANCH  31  32
ENDBRANCH  30  31
ENDBRANCH   3  30
TORSDOF 16
ENDMDL
