MODEL 1
REMARK VINA RESULT:     -12.2      0.000      0.000
REMARK SMILES CCOc1ccccc1[C@@H](C(=O)NCCCNC(=O)c1ccc(-c2c3nc(c(-c4c(F)cccc4F)c4ccc([nH]4)c(-c4c(F)cccc4F)c4nc(c(-c5c(F)cccc5F)c5ccc2[nH]5)C=C4)C=C3)cc1)[NH+]1CCC(C(=O)N2CCCC2)CC1
REMARK SMILES IDX 14 1 13 2 11 3 12 4 10 6 9 7 4 8 5 9 6 10 8 11 7 12 3 13
REMARK SMILES IDX 2 14 1 15 74 16 75 17 86 18 76 20 85 21 77 22 78 23 79 24
REMARK SMILES IDX 80 25 81 26 84 27 82 28 83 29 15 30 16 31 17 32 18 33 19 35
REMARK SMILES IDX 20 36 21 37 73 38 22 39 72 40 23 41 24 42 25 43 66 44 26 45
REMARK SMILES IDX 71 46 65 47 67 48 27 49 70 50 64 51 63 52 28 54 54 55 37 56
REMARK SMILES IDX 53 57 38 58 41 59 52 60 68 61 39 62 40 63 51 65 69 66 42 67
REMARK SMILES IDX 29 68 30 69 35 70 31 71 32 72 34 73 36 74 33 75 55 76 56 77
REMARK SMILES IDX 61 78 57 79 58 80 60 81 62 82 59 83 43 84 44 85 49 86 45 87
REMARK SMILES IDX 46 88 48 89 50 90 47 91
REMARK H PARENT 13 5 74 19 17 34 67 53 41 64
REMARK Flexibility Score: inf
ROOT
ATOM      1  C   UNL A   1      33.508  30.007  26.979  1.00  0.00     0.118 C 
ENDROOT
BRANCH   1   2
ATOM      2  N   UNL A   1      32.569  29.020  27.470  1.00  0.00    -0.351 N 
ATOM      3  C   UNL A   1      31.831  28.089  26.785  1.00  0.00     0.283 C 
ATOM      4  O   UNL A   1      31.067  27.415  27.481  1.00  0.00    -0.268 OA
ATOM      5  H   UNL A   1      32.439  29.018  28.446  1.00  0.00     0.163 HD
BRANCH   3   6
ATOM      6  C   UNL A   1      32.046  27.883  25.250  1.00  0.00     0.309 C 
BRANCH   6   7
ATOM      7  C   UNL A   1      30.818  28.145  24.388  1.00  0.00     0.061 A 
ATOM      8  C   UNL A   1      29.817  27.167  24.202  1.00  0.00     0.128 A 
ATOM      9  C   UNL A   1      28.647  27.474  23.505  1.00  0.00     0.047 A 
ATOM     10  C   UNL A   1      28.462  28.751  22.975  1.00  0.00     0.004 A 
ATOM     11  C   UNL A   1      30.634  29.406  23.794  1.00  0.00     0.014 A 
ATOM     12  C   UNL A   1      29.463  29.709  23.101  1.00  0.00     0.001 A 
BRANCH   8  13
ATOM     13  O   UNL A   1      30.086  25.840  24.411  1.00  0.00    -0.493 OA
BRANCH  13  14
ATOM     14  C   UNL A   1      29.527  25.228  25.575  1.00  0.00     0.226 C 
ATOM     15  C   UNL A   1      30.546  24.232  26.128  1.00  0.00     0.049 C 
ENDBRANCH  13  14
ENDBRANCH   8  13
ENDBRANCH   6   7
BRANCH   6  16
ATOM     16  N   UNL A   1      32.768  26.606  24.921  1.00  0.00    -0.321 N 
ATOM     17  C   UNL A   1      33.390  26.524  23.591  1.00  0.00     0.263 C 
ATOM     18  C   UNL A   1      33.762  26.250  25.945  1.00  0.00     0.263 C 
ATOM     19  H   UNL A   1      32.008  25.927  24.907  1.00  0.00     0.349 HD
ATOM     20  C   UNL A   1      33.761  25.062  23.320  1.00  0.00     0.075 C 
ATOM     21  C   UNL A   1      34.270  24.827  25.764  1.00  0.00     0.075 C 
ATOM     22  C   UNL A   1      34.779  24.572  24.341  1.00  0.00     0.090 C 
BRANCH  22  23
ATOM     23  C   UNL A   1      35.284  23.129  24.294  1.00  0.00     0.226 C 
ATOM     24  O   UNL A   1      36.499  22.927  24.399  1.00  0.00    -0.275 OA
ATOM     25  N   UNL A   1      34.397  22.097  24.470  1.00  0.00    -0.342 N 
ATOM     26  C   UNL A   1      33.124  21.827  23.836  1.00  0.00     0.119 C 
ATOM     27  C   UNL A   1      34.676  21.079  25.466  1.00  0.00     0.119 C 
ATOM     28  C   UNL A   1      32.312  21.237  24.970  1.00  0.00     0.023 C 
ATOM     29  C   UNL A   1      33.343  20.359  25.680  1.00  0.00     0.023 C 
ENDBRANCH  22  23
ENDBRANCH   6  16
ENDBRANCH   3   6
ENDBRANCH   1   2
BRANCH   1  30
ATOM     30  C   UNL A   1      34.942  29.668  27.369  1.00  0.00     0.042 C 
BRANCH  30  31
ATOM     31  C   UNL A   1      35.610  30.775  28.174  1.00  0.00     0.118 C 
BRANCH  31  32
ATOM     32  N   UNL A   1      35.546  30.529  29.610  1.00  0.00    -0.352 N 
ATOM     33  C   UNL A   1      36.496  30.021  30.458  1.00  0.00     0.251 C 
ATOM     34  H   UNL A   1      34.690  30.764  30.036  1.00  0.00     0.163 HD
ATOM     35  O   UNL A   1      36.188  29.702  31.604  1.00  0.00    -0.269 OA
BRANCH  33  36
ATOM     36  C   UNL A   1      37.883  29.837  29.988  1.00  0.00     0.039 A 
ATOM     37  C   UNL A   1      38.868  29.491  30.915  1.00  0.00     0.014 A 
ATOM     38  C   UNL A   1      38.207  29.997  28.639  1.00  0.00     0.014 A 
ATOM     39  C   UNL A   1      40.165  29.225  30.476  1.00  0.00     0.010 A 
ATOM     40  C   UNL A   1      39.479  29.657  28.192  1.00  0.00     0.010 A 
ATOM     41  C   UNL A   1      40.467  29.259  29.104  1.00  0.00    -0.014 A 
BRANCH  41  42
ATOM     42  C   UNL A   1      41.796  28.840  28.598  1.00  0.00     0.031 A 
ATOM     43  C   UNL A   1      42.042  27.417  28.189  1.00  0.00     0.074 A 
ATOM     44  C   UNL A   1      42.807  29.732  28.590  1.00  0.00     0.049 A 
ATOM     45  N   UNL A   1      43.154  26.849  27.798  1.00  0.00    -0.248 NA
ATOM     46  C   UNL A   1      40.890  26.504  28.255  1.00  0.00     0.031 C 
ATOM     47  C   UNL A   1      42.701  31.133  28.999  1.00  0.00     0.029 A 
ATOM     48  N   UNL A   1      44.124  29.587  28.235  1.00  0.00    -0.354 N 
ATOM     49  C   UNL A   1      42.841  25.513  27.588  1.00  0.00     0.074 A 
ATOM     50  C   UNL A   1      41.448  25.344  27.943  1.00  0.00     0.031 C 
ATOM     51  C   UNL A   1      43.894  31.728  28.841  1.00  0.00     0.029 A 
ATOM     52  C   UNL A   1      44.858  30.740  28.368  1.00  0.00     0.049 A 
ATOM     53  H   UNL A   1      44.506  28.738  27.915  1.00  0.00     0.167 HD
ATOM     54  C   UNL A   1      43.640  24.521  27.127  1.00  0.00     0.037 A 
ATOM     55  C   UNL A   1      46.164  30.973  28.145  1.00  0.00     0.037 A 
ATOM     56  C   UNL A   1      45.023  24.700  26.767  1.00  0.00     0.049 A 
ATOM     57  C   UNL A   1      47.040  29.845  27.677  1.00  0.00     0.074 A 
ATOM     58  C   UNL A   1      45.898  23.779  26.219  1.00  0.00     0.029 A 
ATOM     59  N   UNL A   1      45.738  25.878  26.936  1.00  0.00    -0.354 N 
ATOM     60  N   UNL A   1      46.716  28.605  27.403  1.00  0.00    -0.248 NA
ATOM     61  C   UNL A   1      48.465  30.149  27.492  1.00  0.00     0.031 C 
ATOM     62  C   UNL A   1      47.157  24.379  26.117  1.00  0.00     0.029 A 
ATOM     63  C   UNL A   1      47.054  25.692  26.545  1.00  0.00     0.049 A 
ATOM     64  H   UNL A   1      45.364  26.720  27.283  1.00  0.00     0.167 HD
ATOM     65  C   UNL A   1      47.887  27.987  26.988  1.00  0.00     0.074 A 
ATOM     66  C   UNL A   1      48.928  28.994  27.036  1.00  0.00     0.031 C 
ATOM     67  C   UNL A   1      48.083  26.703  26.601  1.00  0.00     0.037 A 
BRANCH  54  68
ATOM     68  C   UNL A   1      43.039  23.149  27.009  1.00  0.00     0.057 A 
ATOM     69  C   UNL A   1      42.793  22.342  28.128  1.00  0.00     0.134 A 
ATOM     70  C   UNL A   1      42.687  22.631  25.755  1.00  0.00     0.134 A 
ATOM     71  F   UNL A   1      43.114  22.772  29.359  1.00  0.00    -0.206 F 
ATOM     72  C   UNL A   1      42.260  21.058  28.003  1.00  0.00     0.040 A 
ATOM     73  C   UNL A   1      42.124  21.361  25.619  1.00  0.00     0.040 A 
ATOM     74  F   UNL A   1      42.885  23.351  24.640  1.00  0.00    -0.206 F 
ATOM     75  C   UNL A   1      41.919  20.567  26.745  1.00  0.00     0.006 A 
ENDBRANCH  54  68
BRANCH  55  76
ATOM     76  C   UNL A   1      46.717  32.338  28.333  1.00  0.00     0.057 A 
ATOM     77  C   UNL A   1      47.305  32.710  29.547  1.00  0.00     0.134 A 
ATOM     78  C   UNL A   1      46.686  33.295  27.311  1.00  0.00     0.134 A 
ATOM     79  F   UNL A   1      47.348  31.841  30.569  1.00  0.00    -0.206 F 
ATOM     80  C   UNL A   1      47.831  33.987  29.745  1.00  0.00     0.040 A 
ATOM     81  C   UNL A   1      47.230  34.568  27.487  1.00  0.00     0.040 A 
ATOM     82  F   UNL A   1      46.143  33.000  26.121  1.00  0.00    -0.206 F 
ATOM     83  C   UNL A   1      47.801  34.918  28.709  1.00  0.00     0.006 A 
ENDBRANCH  55  76
BRANCH  67  84
ATOM     84  C   UNL A   1      49.469  26.316  26.173  1.00  0.00     0.057 A 
ATOM     85  C   UNL A   1      49.975  26.654  24.910  1.00  0.00     0.134 A 
ATOM     86  C   UNL A   1      50.323  25.636  27.051  1.00  0.00     0.134 A 
ATOM     87  F   UNL A   1      49.204  27.291  24.017  1.00  0.00    -0.206 F 
ATOM     88  C   UNL A   1      51.275  26.313  24.532  1.00  0.00     0.040 A 
ATOM     89  C   UNL A   1      51.634  25.316  26.695  1.00  0.00     0.040 A 
ATOM     90  F   UNL A   1      49.903  25.289  28.277  1.00  0.00    -0.206 F 
ATOM     91  C   UNL A   1      52.110  25.650  25.429  1.00  0.00     0.006 A 
ENDBRANCH  67  84
ENDBRANCH  41  42
ENDBRANCH  33  36
ENDBRANCH  31  32
ENDBRANCH  30  31
ENDBRANCH   1  30
TORSDOF 15
ENDMDL
MODEL 2
REMARK VINA RESULT:     -12.2      2.219      6.516
REMARK SMILES CCOc1ccccc1[C@@H](C(=O)NCCCNC(=O)c1ccc(-c2c3nc(c(-c4c(F)cccc4F)c4ccc([nH]4)c(-c4c(F)cccc4F)c4nc(c(-c5c(F)cccc5F)c5ccc2[nH]5)C=C4)C=C3)cc1)[NH+]1CCC(C(=O)N2CCCC2)CC1
REMARK SMILES IDX 14 1 13 2 11 3 12 4 10 6 9 7 4 8 5 9 6 10 8 11 7 12 3 13
REMARK SMILES IDX 2 14 1 15 74 16 75 17 86 18 76 20 85 21 77 22 78 23 79 24
REMARK SMILES IDX 80 25 81 26 84 27 82 28 83 29 15 30 16 31 17 32 18 33 19 35
REMARK SMILES IDX 20 36 21 37 73 38 22 39 72 40 23 41 24 42 25 43 66 44 26 45
REMARK SMILES IDX 71 46 65 47 67 48 27 49 70 50 64 51 63 52 28 54 54 55 37 56
REMARK SMILES IDX 53 57 38 58 41 59 52 60 68 61 39 62 40 63 51 65 69 66 42 67
REMARK SMILES IDX 29 68 30 69 35 70 31 71 32 72 34 73 36 74 33 75 55 76 56 77
REMARK SMILES IDX 61 78 57 79 58 80 60 81 62 82 59 83 43 84 44 85 49 86 45 87
REMARK SMILES IDX 46 88 48 89 50 90 47 91
REMARK H PARENT 13 5 74 19 17 34 67 53 41 64
REMARK Flexibility Score: inf
ROOT
ATOM      1  C   UNL A   1      31.723  28.638  25.774  1.00  0.00     0.118 C 
ENDROOT
BRANCH   1   2
ATOM      2  N   UNL A   1      32.716  29.114  24.834  1.00  0.00    -0.351 N 
ATOM      3  C   UNL A   1      33.100  28.599  23.622  1.00  0.00     0.283 C 
ATOM      4  O   UNL A   1      34.022  29.203  23.068  1.00  0.00    -0.268 OA
ATOM      5  H   UNL A   1      33.189  29.933  25.107  1.00  0.00     0.163 HD
BRANCH   3   6
ATOM      6  C   UNL A   1      32.333  27.388  22.998  1.00  0.00     0.309 C 
BRANCH   6   7
ATOM      7  C   UNL A   1      30.814  27.472  23.091  1.00  0.00     0.061 A 
ATOM      8  C   UNL A   1      30.055  26.497  23.774  1.00  0.00     0.128 A 
ATOM      9  C   UNL A   1      28.679  26.662  23.943  1.00  0.00     0.047 A 
ATOM     10  C   UNL A   1      28.039  27.790  23.429  1.00  0.00     0.004 A 
ATOM     11  C   UNL A   1      30.138  28.570  22.531  1.00  0.00     0.014 A 
ATOM     12  C   UNL A   1      28.764  28.732  22.705  1.00  0.00     0.001 A 
BRANCH   8  13
ATOM     13  O   UNL A   1      30.565  25.247  24.005  1.00  0.00    -0.493 OA
BRANCH  13  14
ATOM     14  C   UNL A   1      30.560  24.770  25.351  1.00  0.00     0.226 C 
ATOM     15  C   UNL A   1      30.752  23.254  25.323  1.00  0.00     0.049 C 
ENDBRANCH  13  14
ENDBRANCH   8  13
ENDBRANCH   6   7
BRANCH   6  16
ATOM     16  N   UNL A   1      32.901  26.056  23.404  1.00  0.00    -0.321 N 
ATOM     17  C   UNL A   1      33.398  25.194  22.322  1.00  0.00     0.263 C 
ATOM     18  C   UNL A   1      33.940  26.188  24.437  1.00  0.00     0.263 C 
ATOM     19  H   UNL A   1      32.082  25.578  23.778  1.00  0.00     0.349 HD
ATOM     20  C   UNL A   1      33.606  23.783  22.884  1.00  0.00     0.075 C 
ATOM     21  C   UNL A   1      34.295  24.841  25.051  1.00  0.00     0.075 C 
ATOM     22  C   UNL A   1      34.656  23.799  23.988  1.00  0.00     0.090 C 
BRANCH  22  23
ATOM     23  C   UNL A   1      35.017  22.509  24.725  1.00  0.00     0.226 C 
ATOM     24  O   UNL A   1      34.353  21.492  24.492  1.00  0.00    -0.275 OA
ATOM     25  N   UNL A   1      36.231  22.408  25.355  1.00  0.00    -0.342 N 
ATOM     26  C   UNL A   1      36.888  23.297  26.289  1.00  0.00     0.119 C 
ATOM     27  C   UNL A   1      37.091  21.273  25.070  1.00  0.00     0.119 C 
ATOM     28  C   UNL A   1      38.344  23.175  25.890  1.00  0.00     0.023 C 
ATOM     29  C   UNL A   1      38.470  21.680  25.591  1.00  0.00     0.023 C 
ENDBRANCH  22  23
ENDBRANCH   6  16
ENDBRANCH   3   6
ENDBRANCH   1   2
BRANCH   1  30
ATOM     30  C   UNL A   1      32.326  28.363  27.146  1.00  0.00     0.042 C 
BRANCH  30  31
ATOM     31  C   UNL A   1      33.751  28.885  27.278  1.00  0.00     0.118 C 
BRANCH  31  32
ATOM     32  N   UNL A   1      33.800  30.218  27.867  1.00  0.00    -0.352 N 
ATOM     33  C   UNL A   1      34.795  30.826  28.586  1.00  0.00     0.251 C 
ATOM     34  H   UNL A   1      32.993  30.766  27.726  1.00  0.00     0.163 HD
ATOM     35  O   UNL A   1      34.573  31.884  29.170  1.00  0.00    -0.269 OA
BRANCH  33  36
ATOM     36  C   UNL A   1      36.128  30.200  28.678  1.00  0.00     0.039 A 
ATOM     37  C   UNL A   1      37.002  30.311  27.594  1.00  0.00     0.014 A 
ATOM     38  C   UNL A   1      36.517  29.512  29.831  1.00  0.00     0.014 A 
ATOM     39  C   UNL A   1      38.297  29.804  27.699  1.00  0.00     0.010 A 
ATOM     40  C   UNL A   1      37.830  29.076  29.962  1.00  0.00     0.010 A 
ATOM     41  C   UNL A   1      38.735  29.226  28.902  1.00  0.00    -0.014 A 
BRANCH  41  42
ATOM     42  C   UNL A   1      40.146  28.810  29.088  1.00  0.00     0.031 A 
ATOM     43  C   UNL A   1      41.156  29.772  29.644  1.00  0.00     0.074 A 
ATOM     44  C   UNL A   1      40.532  27.588  28.672  1.00  0.00     0.049 A 
ATOM     45  N   UNL A   1      42.445  29.616  29.805  1.00  0.00    -0.248 NA
ATOM     46  C   UNL A   1      40.654  31.095  30.047  1.00  0.00     0.031 C 
ATOM     47  C   UNL A   1      39.651  26.579  28.081  1.00  0.00     0.029 A 
ATOM     48  N   UNL A   1      41.767  26.992  28.673  1.00  0.00    -0.354 N 
ATOM     49  C   UNL A   1      42.911  30.823  30.310  1.00  0.00     0.074 A 
ATOM     50  C   UNL A   1      41.775  31.717  30.382  1.00  0.00     0.031 C 
ATOM     51  C   UNL A   1      40.367  25.477  27.807  1.00  0.00     0.029 A 
ATOM     52  C   UNL A   1      41.763  25.719  28.155  1.00  0.00     0.049 A 
ATOM     53  H   UNL A   1      42.579  27.433  29.012  1.00  0.00     0.167 HD
ATOM     54  C   UNL A   1      44.169  31.149  30.693  1.00  0.00     0.037 A 
ATOM     55  C   UNL A   1      42.773  24.849  27.972  1.00  0.00     0.037 A 
ATOM     56  C   UNL A   1      45.291  30.249  30.627  1.00  0.00     0.049 A 
ATOM     57  C   UNL A   1      44.166  25.251  28.363  1.00  0.00     0.074 A 
ATOM     58  C   UNL A   1      46.588  30.456  31.060  1.00  0.00     0.029 A 
ATOM     59  N   UNL A   1      45.252  28.975  30.077  1.00  0.00    -0.354 N 
ATOM     60  N   UNL A   1      44.582  26.365  28.915  1.00  0.00    -0.248 NA
ATOM     61  C   UNL A   1      45.234  24.277  28.098  1.00  0.00     0.031 C 
ATOM     62  C   UNL A   1      47.349  29.334  30.714  1.00  0.00     0.029 A 
ATOM     63  C   UNL A   1      46.514  28.403  30.119  1.00  0.00     0.049 A 
ATOM     64  H   UNL A   1      44.447  28.543  29.710  1.00  0.00     0.167 HD
ATOM     65  C   UNL A   1      45.951  26.216  29.092  1.00  0.00     0.074 A 
ATOM     66  C   UNL A   1      46.294  24.898  28.596  1.00  0.00     0.031 C 
ATOM     67  C   UNL A   1      46.843  27.091  29.618  1.00  0.00     0.037 A 
BRANCH  54  68
ATOM     68  C   UNL A   1      44.396  32.546  31.197  1.00  0.00     0.057 A 
ATOM     69  C   UNL A   1      44.261  32.883  32.550  1.00  0.00     0.134 A 
ATOM     70  C   UNL A   1      44.768  33.569  30.315  1.00  0.00     0.134 A 
ATOM     71  F   UNL A   1      43.898  31.954  33.449  1.00  0.00    -0.206 F 
ATOM     72  C   UNL A   1      44.447  34.190  33.002  1.00  0.00     0.040 A 
ATOM     73  C   UNL A   1      44.989  34.874  30.759  1.00  0.00     0.040 A 
ATOM     74  F   UNL A   1      44.926  33.318  29.006  1.00  0.00    -0.206 F 
ATOM     75  C   UNL A   1      44.817  35.190  32.105  1.00  0.00     0.006 A 
ENDBRANCH  54  68
BRANCH  55  76
ATOM     76  C   UNL A   1      42.497  23.500  27.417  1.00  0.00     0.057 A 
ATOM     77  C   UNL A   1      42.586  23.262  26.040  1.00  0.00     0.134 A 
ATOM     78  C   UNL A   1      42.154  22.419  28.237  1.00  0.00     0.134 A 
ATOM     79  F   UNL A   1      42.894  24.263  25.201  1.00  0.00    -0.206 F 
ATOM     80  C   UNL A   1      42.332  22.002  25.498  1.00  0.00     0.040 A 
ATOM     81  C   UNL A   1      41.922  21.147  27.711  1.00  0.00     0.040 A 
ATOM     82  F   UNL A   1      42.060  22.579  29.566  1.00  0.00    -0.206 F 
ATOM     83  C   UNL A   1      42.005  20.938  26.336  1.00  0.00     0.006 A 
ENDBRANCH  55  76
BRANCH  67  84
ATOM     84  C   UNL A   1      48.273  26.644  29.709  1.00  0.00     0.057 A 
ATOM     85  C   UNL A   1      49.204  26.931  28.702  1.00  0.00     0.134 A 
ATOM     86  C   UNL A   1      48.736  25.958  30.839  1.00  0.00     0.134 A 
ATOM     87  F   UNL A   1      48.823  27.572  27.587  1.00  0.00    -0.206 F 
ATOM     88  C   UNL A   1      50.538  26.535  28.808  1.00  0.00     0.040 A 
ATOM     89  C   UNL A   1      50.073  25.582  30.970  1.00  0.00     0.040 A 
ATOM     90  F   UNL A   1      47.898  25.657  31.844  1.00  0.00    -0.206 F 
ATOM     91  C   UNL A   1      50.977  25.867  29.949  1.00  0.00     0.006 A 
ENDBRANCH  67  84
ENDBRANCH  41  42
ENDBRANCH  33  36
ENDBRANCH  31  32
ENDBRANCH  30  31
ENDBRANCH   1  30
TORSDOF 15
ENDMDL
MODEL 3
REMARK VINA RESULT:     -12.0      5.090      7.423
REMARK SMILES CCOc1ccccc1[C@@H](C(=O)NCCCNC(=O)c1ccc(-c2c3nc(c(-c4c(F)cccc4F)c4ccc([nH]4)c(-c4c(F)cccc4F)c4nc(c(-c5c(F)cccc5F)c5ccc2[nH]5)C=C4)C=C3)cc1)[NH+]1CCC(C(=O)N2CCCC2)CC1
REMARK SMILES IDX 14 1 13 2 11 3 12 4 10 6 9 7 4 8 5 9 6 10 8 11 7 12 3 13
REMARK SMILES IDX 2 14 1 15 74 16 75 17 86 18 76 20 85 21 77 22 78 23 79 24
REMARK SMILES IDX 80 25 81 26 84 27 82 28 83 29 15 30 16 31 17 32 18 33 19 35
REMARK SMILES IDX 20 36 21 37 73 38 22 39 72 40 23 41 24 42 25 43 66 44 26 45
REMARK SMILES IDX 71 46 65 47 67 48 27 49 70 50 64 51 63 52 28 54 54 55 37 56
REMARK SMILES IDX 53 57 38 58 41 59 52 60 68 61 39 62 40 63 51 65 69 66 42 67
REMARK SMILES IDX 29 68 30 69 35 70 31 71 32 72 34 73 36 74 33 75 55 76 56 77
REMARK SMILES IDX 61 78 57 79 58 80 60 81 62 82 59 83 43 84 44 85 49 86 45 87
REMARK SMILES IDX 46 88 48 89 50 90 47 91
REMARK H PARENT 13 5 74 19 17 34 67 53 41 64
REMARK Flexibility Score: inf
ROOT
ATOM      1  C   UNL A   1      31.834  30.742  26.006  1.00  0.00     0.118 C 
ENDROOT
BRANCH   1   2
ATOM      2  N   UNL A   1      31.864  29.464  26.687  1.00  0.00    -0.351 N 
ATOM      3  C   UNL A   1      31.950  28.195  26.175  1.00  0.00     0.283 C 
ATOM      4  O   UNL A   1      31.899  27.291  27.013  1.00  0.00    -0.268 OA
ATOM      5  H   UNL A   1      31.816  29.515  27.669  1.00  0.00     0.163 HD
BRANCH   3   6
ATOM      6  C   UNL A   1      32.179  27.973  24.644  1.00  0.00     0.309 C 
BRANCH   6   7
ATOM      7  C   UNL A   1      30.977  28.288  23.763  1.00  0.00     0.061 A 
ATOM      8  C   UNL A   1      29.740  27.628  23.926  1.00  0.00     0.128 A 
ATOM      9  C   UNL A   1      28.624  28.018  23.184  1.00  0.00     0.047 A 
ATOM     10  C   UNL A   1      28.725  29.061  22.263  1.00  0.00     0.004 A 
ATOM     11  C   UNL A   1      31.068  29.297  22.786  1.00  0.00     0.014 A 
ATOM     12  C   UNL A   1      29.951  29.685  22.049  1.00  0.00     0.001 A 
BRANCH   8  13
ATOM     13  O   UNL A   1      29.672  26.415  24.560  1.00  0.00    -0.493 OA
BRANCH  13  14
ATOM     14  C   UNL A   1      29.857  25.243  23.764  1.00  0.00     0.226 C 
ATOM     15  C   UNL A   1      30.503  24.168  24.638  1.00  0.00     0.049 C 
ENDBRANCH  13  14
ENDBRANCH   8  13
ENDBRANCH   6   7
BRANCH   6  16
ATOM     16  N   UNL A   1      32.847  26.663  24.330  1.00  0.00    -0.321 N 
ATOM     17  C   UNL A   1      33.244  26.445  22.932  1.00  0.00     0.263 C 
ATOM     18  C   UNL A   1      33.996  26.401  25.209  1.00  0.00     0.263 C 
ATOM     19  H   UNL A   1      32.099  25.993  24.508  1.00  0.00     0.349 HD
ATOM     20  C   UNL A   1      33.576  24.960  22.750  1.00  0.00     0.075 C 
ATOM     21  C   UNL A   1      34.478  24.963  25.090  1.00  0.00     0.075 C 
ATOM     22  C   UNL A   1      34.750  24.564  23.636  1.00  0.00     0.090 C 
BRANCH  22  23
ATOM     23  C   UNL A   1      35.251  23.119  23.650  1.00  0.00     0.226 C 
ATOM     24  O   UNL A   1      36.462  22.913  23.513  1.00  0.00    -0.275 OA
ATOM     25  N   UNL A   1      34.435  22.127  24.133  1.00  0.00    -0.342 N 
ATOM     26  C   UNL A   1      33.059  21.801  23.825  1.00  0.00     0.119 C 
ATOM     27  C   UNL A   1      34.936  21.228  25.158  1.00  0.00     0.119 C 
ATOM     28  C   UNL A   1      32.519  21.359  25.169  1.00  0.00     0.023 C 
ATOM     29  C   UNL A   1      33.690  20.556  25.738  1.00  0.00     0.023 C 
ENDBRANCH  22  23
ENDBRANCH   6  16
ENDBRANCH   3   6
ENDBRANCH   1   2
BRANCH   1  30
ATOM     30  C   UNL A   1      31.532  31.888  26.963  1.00  0.00     0.042 C 
BRANCH  30  31
ATOM     31  C   UNL A   1      32.779  32.670  27.356  1.00  0.00     0.118 C 
BRANCH  31  32
ATOM     32  N   UNL A   1      32.487  34.070  27.642  1.00  0.00    -0.352 N 
ATOM     33  C   UNL A   1      33.028  34.907  28.582  1.00  0.00     0.251 C 
ATOM     34  H   UNL A   1      31.794  34.476  27.071  1.00  0.00     0.163 HD
ATOM     35  O   UNL A   1      32.511  36.000  28.802  1.00  0.00    -0.269 OA
BRANCH  33  36
ATOM     36  C   UNL A   1      34.218  34.488  29.347  1.00  0.00     0.039 A 
ATOM     37  C   UNL A   1      34.046  33.971  30.633  1.00  0.00     0.014 A 
ATOM     38  C   UNL A   1      35.497  34.597  28.795  1.00  0.00     0.014 A 
ATOM     39  C   UNL A   1      35.150  33.486  31.335  1.00  0.00     0.010 A 
ATOM     40  C   UNL A   1      36.584  34.044  29.463  1.00  0.00     0.010 A 
ATOM     41  C   UNL A   1      36.420  33.475  30.734  1.00  0.00    -0.014 A 
BRANCH  41  42
ATOM     42  C   UNL A   1      37.580  32.836  31.398  1.00  0.00     0.031 A 
ATOM     43  C   UNL A   1      38.237  31.631  30.790  1.00  0.00     0.074 A 
ATOM     44  C   UNL A   1      37.985  33.295  32.599  1.00  0.00     0.049 A 
ATOM     45  N   UNL A   1      39.209  30.892  31.262  1.00  0.00    -0.248 NA
ATOM     46  C   UNL A   1      37.713  31.180  29.491  1.00  0.00     0.031 C 
ATOM     47  C   UNL A   1      37.403  34.434  33.309  1.00  0.00     0.029 A 
ATOM     48  N   UNL A   1      38.976  32.851  33.438  1.00  0.00    -0.354 N 
ATOM     49  C   UNL A   1      39.401  29.882  30.328  1.00  0.00     0.074 A 
ATOM     50  C   UNL A   1      38.413  30.073  29.289  1.00  0.00     0.031 C 
ATOM     51  C   UNL A   1      38.066  34.621  34.460  1.00  0.00     0.029 A 
ATOM     52  C   UNL A   1      39.087  33.586  34.593  1.00  0.00     0.049 A 
ATOM     53  H   UNL A   1      39.552  32.080  33.232  1.00  0.00     0.167 HD
ATOM     54  C   UNL A   1      40.328  28.894  30.333  1.00  0.00     0.037 A 
ATOM     55  C   UNL A   1      39.911  33.436  35.646  1.00  0.00     0.037 A 
ATOM     56  C   UNL A   1      41.315  28.717  31.367  1.00  0.00     0.049 A 
ATOM     57  C   UNL A   1      40.900  32.306  35.647  1.00  0.00     0.074 A 
ATOM     58  C   UNL A   1      42.345  27.796  31.427  1.00  0.00     0.029 A 
ATOM     59  N   UNL A   1      41.382  29.468  32.532  1.00  0.00    -0.354 N 
ATOM     60  N   UNL A   1      41.128  31.405  34.723  1.00  0.00    -0.248 NA
ATOM     61  C   UNL A   1      41.743  32.166  36.843  1.00  0.00     0.031 C 
ATOM     62  C   UNL A   1      42.995  27.947  32.657  1.00  0.00     0.029 A 
ATOM     63  C   UNL A   1      42.408  29.001  33.338  1.00  0.00     0.049 A 
ATOM     64  H   UNL A   1      40.788  30.222  32.754  1.00  0.00     0.167 HD
ATOM     65  C   UNL A   1      42.158  30.611  35.209  1.00  0.00     0.074 A 
ATOM     66  C   UNL A   1      42.516  31.143  36.508  1.00  0.00     0.031 C 
ATOM     67  C   UNL A   1      42.753  29.538  34.632  1.00  0.00     0.037 A 
BRANCH  54  68
ATOM     68  C   UNL A   1      40.301  27.917  29.191  1.00  0.00     0.057 A 
ATOM     69  C   UNL A   1      41.073  28.098  28.036  1.00  0.00     0.134 A 
ATOM     70  C   UNL A   1      39.498  26.771  29.254  1.00  0.00     0.134 A 
ATOM     71  F   UNL A   1      41.858  29.179  27.905  1.00  0.00    -0.206 F 
ATOM     72  C   UNL A   1      41.017  27.199  26.970  1.00  0.00     0.040 A 
ATOM     73  C   UNL A   1      39.458  25.847  28.208  1.00  0.00     0.040 A 
ATOM     74  F   UNL A   1      38.739  26.528  30.333  1.00  0.00    -0.206 F 
ATOM     75  C   UNL A   1      40.211  26.066  27.057  1.00  0.00     0.006 A 
ENDBRANCH  54  68
BRANCH  55  76
ATOM     76  C   UNL A   1      39.855  34.400  36.774  1.00  0.00     0.057 A 
ATOM     77  C   UNL A   1      39.086  34.126  37.911  1.00  0.00     0.134 A 
ATOM     78  C   UNL A   1      40.571  35.603  36.754  1.00  0.00     0.134 A 
ATOM     79  F   UNL A   1      38.365  32.997  37.981  1.00  0.00    -0.206 F 
ATOM     80  C   UNL A   1      39.021  35.017  38.982  1.00  0.00     0.040 A 
ATOM     81  C   UNL A   1      40.534  36.493  37.829  1.00  0.00     0.040 A 
ATOM     82  F   UNL A   1      41.332  35.922  35.697  1.00  0.00    -0.206 F 
ATOM     83  C   UNL A   1      39.753  36.202  38.946  1.00  0.00     0.006 A 
ENDBRANCH  55  76
BRANCH  67  84
ATOM     84  C   UNL A   1      43.872  28.882  35.388  1.00  0.00     0.057 A 
ATOM     85  C   UNL A   1      43.638  27.857  36.314  1.00  0.00     0.134 A 
ATOM     86  C   UNL A   1      45.203  29.249  35.153  1.00  0.00     0.134 A 
ATOM     87  F   UNL A   1      42.386  27.468  36.596  1.00  0.00    -0.206 F 
ATOM     88  C   UNL A   1      44.687  27.234  36.991  1.00  0.00     0.040 A 
ATOM     89  C   UNL A   1      46.262  28.615  35.802  1.00  0.00     0.040 A 
ATOM     90  F   UNL A   1      45.497  30.219  34.273  1.00  0.00    -0.206 F 
ATOM     91  C   UNL A   1      46.005  27.607  36.729  1.00  0.00     0.006 A 
ENDBRANCH  67  84
ENDBRANCH  41  42
ENDBRANCH  33  36
ENDBRANCH  31  32
ENDBRANCH  30  31
ENDBRANCH   1  30
TORSDOF 15
ENDMDL
