MODEL 1
REMARK VINA RESULT:     -12.4      0.000      0.000
REMARK SMILES O=C(NCCCNC(=O)c1ccc(-n2cnc3ccccc32)nc1)c1ccc(-c2c3nc(c(-c4c(F)cccc4F)c4ccc([nH]4)c(-c4c(F)cccc4F)c4nc(c(-c5c(F)cccc5F)c5ccc2[nH]5)C=C4)C=C3)cc1
REMARK SMILES IDX 4 1 3 2 1 3 2 4 25 6 26 7 78 8 27 9 77 10 28 11 29 12 30 13
REMARK SMILES IDX 71 14 31 15 76 16 70 17 72 18 32 19 75 20 69 21 68 22 33 24
REMARK SMILES IDX 59 25 42 26 58 27 43 28 46 29 57 30 73 31 44 32 45 33 56 35
REMARK SMILES IDX 74 36 47 37 34 38 35 39 40 40 36 41 37 42 39 43 41 44 38 45
REMARK SMILES IDX 60 46 61 47 66 48 62 49 63 50 65 51 67 52 64 53 48 54 49 55
REMARK SMILES IDX 54 56 50 57 51 58 53 59 55 60 52 61 5 62 6 63 7 64 8 65 9 67
REMARK SMILES IDX 10 68 11 69 24 70 12 71 23 72 13 73 14 74 15 75 22 76 16 77
REMARK SMILES IDX 17 78 21 79 18 80 20 81 19 82
REMARK H PARENT 3 5 72 23 46 34 7 66
REMARK Flexibility Score: inf
ROOT
ATOM      1  C   UNL A   1      38.941  20.096  25.771  1.00  0.00     0.118 C 
ENDROOT
BRANCH   1   2
ATOM      2  N   UNL A   1      40.080  19.162  25.760  1.00  0.00    -0.352 N 
ATOM      3  O   UNL A   1      42.290  18.641  25.575  1.00  0.00    -0.269 OA
ATOM      4  C   UNL A   1      41.434  19.449  25.896  1.00  0.00     0.251 C 
ATOM      5  H   UNL A   1      39.853  18.211  25.639  1.00  0.00     0.163 HD
BRANCH   4   6
ATOM      6  C   UNL A   1      41.806  20.764  26.448  1.00  0.00     0.039 A 
ATOM      7  C   UNL A   1      42.301  21.823  25.692  1.00  0.00     0.014 A 
ATOM      8  C   UNL A   1      41.557  20.936  27.796  1.00  0.00     0.014 A 
ATOM      9  C   UNL A   1      42.515  23.033  26.349  1.00  0.00     0.010 A 
ATOM     10  C   UNL A   1      41.300  22.183  28.252  1.00  0.00     0.010 A 
ATOM     11  C   UNL A   1      42.013  23.188  27.654  1.00  0.00    -0.014 A 
BRANCH  11  12
ATOM     12  C   UNL A   1      42.188  24.382  28.458  1.00  0.00     0.031 A 
ATOM     13  C   UNL A   1      41.091  25.347  28.287  1.00  0.00     0.074 A 
ATOM     14  C   UNL A   1      43.166  24.533  29.384  1.00  0.00     0.049 A 
ATOM     15  N   UNL A   1      41.115  26.413  27.567  1.00  0.00    -0.248 NA
ATOM     16  C   UNL A   1      39.757  24.974  28.777  1.00  0.00     0.031 C 
ATOM     17  C   UNL A   1      44.142  23.555  29.894  1.00  0.00     0.029 A 
ATOM     18  N   UNL A   1      43.458  25.637  30.122  1.00  0.00    -0.354 N 
ATOM     19  C   UNL A   1      39.860  26.984  27.707  1.00  0.00     0.074 A 
ATOM     20  C   UNL A   1      39.017  25.958  28.263  1.00  0.00     0.031 C 
ATOM     21  C   UNL A   1      44.761  24.047  30.993  1.00  0.00     0.029 A 
ATOM     22  C   UNL A   1      44.368  25.431  31.156  1.00  0.00     0.049 A 
ATOM     23  H   UNL A   1      43.056  26.517  29.938  1.00  0.00     0.167 HD
ATOM     24  C   UNL A   1      39.715  28.332  27.610  1.00  0.00     0.037 A 
ATOM     25  C   UNL A   1      44.759  26.350  32.075  1.00  0.00     0.037 A 
ATOM     26  C   UNL A   1      40.887  28.927  27.003  1.00  0.00     0.049 A 
ATOM     27  C   UNL A   1      44.449  27.688  31.508  1.00  0.00     0.074 A 
ATOM     28  C   UNL A   1      41.522  28.795  25.781  1.00  0.00     0.029 A 
ATOM     29  N   UNL A   1      41.815  29.492  27.845  1.00  0.00    -0.354 N 
ATOM     30  N   UNL A   1      45.063  28.189  30.472  1.00  0.00    -0.248 NA
ATOM     31  C   UNL A   1      43.131  28.240  31.778  1.00  0.00     0.031 C 
ATOM     32  C   UNL A   1      42.918  28.843  26.081  1.00  0.00     0.029 A 
ATOM     33  C   UNL A   1      43.061  29.079  27.450  1.00  0.00     0.049 A 
ATOM     34  H   UNL A   1      41.618  30.090  28.603  1.00  0.00     0.167 HD
ATOM     35  C   UNL A   1      44.060  28.781  29.716  1.00  0.00     0.074 A 
ATOM     36  C   UNL A   1      42.903  28.847  30.609  1.00  0.00     0.031 C 
ATOM     37  C   UNL A   1      44.171  28.887  28.358  1.00  0.00     0.037 A 
BRANCH  24  38
ATOM     38  C   UNL A   1      38.749  29.139  28.441  1.00  0.00     0.057 A 
ATOM     39  C   UNL A   1      37.587  29.771  27.948  1.00  0.00     0.134 A 
ATOM     40  C   UNL A   1      38.808  29.015  29.841  1.00  0.00     0.134 A 
ATOM     41  F   UNL A   1      37.350  29.944  26.644  1.00  0.00    -0.206 F 
ATOM     42  C   UNL A   1      36.539  30.180  28.774  1.00  0.00     0.040 A 
ATOM     43  C   UNL A   1      37.743  29.377  30.672  1.00  0.00     0.040 A 
ATOM     44  F   UNL A   1      39.869  28.450  30.437  1.00  0.00    -0.206 F 
ATOM     45  C   UNL A   1      36.595  29.945  30.137  1.00  0.00     0.006 A 
ENDBRANCH  24  38
BRANCH  25  46
ATOM     46  C   UNL A   1      45.081  26.153  33.508  1.00  0.00     0.057 A 
ATOM     47  C   UNL A   1      46.404  25.940  33.931  1.00  0.00     0.134 A 
ATOM     48  C   UNL A   1      44.082  25.878  34.453  1.00  0.00     0.134 A 
ATOM     49  F   UNL A   1      47.434  26.102  33.086  1.00  0.00    -0.206 F 
ATOM     50  C   UNL A   1      46.717  25.458  35.208  1.00  0.00     0.040 A 
ATOM     51  C   UNL A   1      44.380  25.393  35.735  1.00  0.00     0.040 A 
ATOM     52  F   UNL A   1      42.787  26.010  34.131  1.00  0.00    -0.206 F 
ATOM     53  C   UNL A   1      45.701  25.169  36.111  1.00  0.00     0.006 A 
ENDBRANCH  25  46
BRANCH  37  54
ATOM     54  C   UNL A   1      45.511  28.574  27.743  1.00  0.00     0.057 A 
ATOM     55  C   UNL A   1      46.389  29.630  27.476  1.00  0.00     0.134 A 
ATOM     56  C   UNL A   1      45.903  27.302  27.295  1.00  0.00     0.134 A 
ATOM     57  F   UNL A   1      46.060  30.884  27.822  1.00  0.00    -0.206 F 
ATOM     58  C   UNL A   1      47.602  29.434  26.811  1.00  0.00     0.040 A 
ATOM     59  C   UNL A   1      47.129  27.086  26.657  1.00  0.00     0.040 A 
ATOM     60  F   UNL A   1      45.092  26.244  27.416  1.00  0.00    -0.206 F 
ATOM     61  C   UNL A   1      47.982  28.156  26.409  1.00  0.00     0.006 A 
ENDBRANCH  37  54
ENDBRANCH  11  12
ENDBRANCH   4   6
ENDBRANCH   1   2
BRANCH   1  62
ATOM     62  C   UNL A   1      37.958  19.888  24.646  1.00  0.00     0.042 C 
BRANCH  62  63
ATOM     63  C   UNL A   1      36.561  20.377  25.021  1.00  0.00     0.118 C 
BRANCH  63  64
ATOM     64  N   UNL A   1      35.515  19.370  24.826  1.00  0.00    -0.352 N 
ATOM     65  C   UNL A   1      34.155  19.481  25.010  1.00  0.00     0.252 C 
ATOM     66  H   UNL A   1      35.829  18.489  24.518  1.00  0.00     0.163 HD
ATOM     67  O   UNL A   1      33.419  18.509  24.953  1.00  0.00    -0.269 OA
BRANCH  65  68
ATOM     68  C   UNL A   1      33.599  20.809  25.283  1.00  0.00     0.058 A 
ATOM     69  C   UNL A   1      33.515  21.281  26.588  1.00  0.00     0.019 A 
ATOM     70  C   UNL A   1      33.085  21.575  24.250  1.00  0.00     0.127 A 
ATOM     71  C   UNL A   1      32.843  22.466  26.824  1.00  0.00     0.048 A 
ATOM     72  N   UNL A   1      32.422  22.742  24.454  1.00  0.00    -0.238 NA
ATOM     73  C   UNL A   1      32.343  23.181  25.738  1.00  0.00     0.138 A 
BRANCH  73  74
ATOM     74  N   UNL A   1      31.750  24.439  25.985  1.00  0.00    -0.283 N 
ATOM     75  C   UNL A   1      30.410  24.676  26.160  1.00  0.00     0.206 A 
ATOM     76  C   UNL A   1      32.395  25.662  26.064  1.00  0.00     0.074 A 
ATOM     77  N   UNL A   1      30.167  25.931  26.476  1.00  0.00    -0.236 NA
ATOM     78  C   UNL A   1      31.385  26.560  26.394  1.00  0.00     0.089 A 
ATOM     79  C   UNL A   1      33.715  26.075  25.812  1.00  0.00     0.029 A 
ATOM     80  C   UNL A   1      31.705  27.917  26.554  1.00  0.00     0.030 A 
ATOM     81  C   UNL A   1      34.011  27.428  25.959  1.00  0.00     0.002 A 
ATOM     82  C   UNL A   1      33.026  28.337  26.334  1.00  0.00     0.002 A 
ENDBRANCH  73  74
ENDBRANCH  65  68
ENDBRANCH  63  64
ENDBRANCH  62  63
ENDBRANCH   1  62
TORSDOF 11
ENDMDL
MODEL 2
REMARK VINA RESULT:     -12.2      1.148      1.516
REMARK SMILES O=C(NCCCNC(=O)c1ccc(-n2cnc3ccccc32)nc1)c1ccc(-c2c3nc(c(-c4c(F)cccc4F)c4ccc([nH]4)c(-c4c(F)cccc4F)c4nc(c(-c5c(F)cccc5F)c5ccc2[nH]5)C=C4)C=C3)cc1
REMARK SMILES IDX 4 1 3 2 1 3 2 4 25 6 26 7 78 8 27 9 77 10 28 11 29 12 30 13
REMARK SMILES IDX 71 14 31 15 76 16 70 17 72 18 32 19 75 20 69 21 68 22 33 24
REMARK SMILES IDX 59 25 42 26 58 27 43 28 46 29 57 30 73 31 44 32 45 33 56 35
REMARK SMILES IDX 74 36 47 37 34 38 35 39 40 40 36 41 37 42 39 43 41 44 38 45
REMARK SMILES IDX 60 46 61 47 66 48 62 49 63 50 65 51 67 52 64 53 48 54 49 55
REMARK SMILES IDX 54 56 50 57 51 58 53 59 55 60 52 61 5 62 6 63 7 64 8 65 9 67
REMARK SMILES IDX 10 68 11 69 24 70 12 71 23 72 13 73 14 74 15 75 22 76 16 77
REMARK SMILES IDX 17 78 21 79 18 80 20 81 19 82
REMARK H PARENT 3 5 72 23 46 34 7 66
REMARK Flexibility Score: inf
ROOT
ATOM      1  C   UNL A   1      38.731  20.243  25.655  1.00  0.00     0.118 C 
ENDROOT
BRANCH   1   2
ATOM      2  N   UNL A   1      39.795  19.228  25.736  1.00  0.00    -0.352 N 
ATOM      3  O   UNL A   1      41.967  18.541  25.695  1.00  0.00    -0.269 OA
ATOM      4  C   UNL A   1      41.157  19.419  25.943  1.00  0.00     0.251 C 
ATOM      5  H   UNL A   1      39.505  18.294  25.628  1.00  0.00     0.163 HD
BRANCH   4   6
ATOM      6  C   UNL A   1      41.595  20.720  26.480  1.00  0.00     0.039 A 
ATOM      7  C   UNL A   1      42.162  21.737  25.716  1.00  0.00     0.014 A 
ATOM      8  C   UNL A   1      41.334  20.929  27.821  1.00  0.00     0.014 A 
ATOM      9  C   UNL A   1      42.434  22.944  26.358  1.00  0.00     0.010 A 
ATOM     10  C   UNL A   1      41.142  22.196  28.252  1.00  0.00     0.010 A 
ATOM     11  C   UNL A   1      41.921  23.148  27.651  1.00  0.00    -0.014 A 
BRANCH  11  12
ATOM     12  C   UNL A   1      42.152  24.344  28.439  1.00  0.00     0.031 A 
ATOM     13  C   UNL A   1      41.100  25.356  28.255  1.00  0.00     0.074 A 
ATOM     14  C   UNL A   1      43.137  24.462  29.362  1.00  0.00     0.049 A 
ATOM     15  N   UNL A   1      41.173  26.410  27.520  1.00  0.00    -0.248 NA
ATOM     16  C   UNL A   1      39.751  25.051  28.750  1.00  0.00     0.031 C 
ATOM     17  C   UNL A   1      44.067  23.447  29.886  1.00  0.00     0.029 A 
ATOM     18  N   UNL A   1      43.479  25.561  30.085  1.00  0.00    -0.354 N 
ATOM     19  C   UNL A   1      39.945  27.040  27.653  1.00  0.00     0.074 A 
ATOM     20  C   UNL A   1      39.057  26.061  28.223  1.00  0.00     0.031 C 
ATOM     21  C   UNL A   1      44.708  23.925  30.977  1.00  0.00     0.029 A 
ATOM     22  C   UNL A   1      44.380  25.328  31.122  1.00  0.00     0.049 A 
ATOM     23  H   UNL A   1      43.118  26.457  29.890  1.00  0.00     0.167 HD
ATOM     24  C   UNL A   1      39.862  28.392  27.538  1.00  0.00     0.037 A 
ATOM     25  C   UNL A   1      44.813  26.240  32.029  1.00  0.00     0.037 A 
ATOM     26  C   UNL A   1      41.060  28.924  26.923  1.00  0.00     0.049 A 
ATOM     27  C   UNL A   1      44.564  27.583  31.444  1.00  0.00     0.074 A 
ATOM     28  C   UNL A   1      41.687  28.747  25.703  1.00  0.00     0.029 A 
ATOM     29  N   UNL A   1      42.013  29.457  27.758  1.00  0.00    -0.354 N 
ATOM     30  N   UNL A   1      45.200  28.042  30.400  1.00  0.00    -0.248 NA
ATOM     31  C   UNL A   1      43.273  28.199  31.707  1.00  0.00     0.031 C 
ATOM     32  C   UNL A   1      43.084  28.734  26.002  1.00  0.00     0.029 A 
ATOM     33  C   UNL A   1      43.239  28.981  27.367  1.00  0.00     0.049 A 
ATOM     34  H   UNL A   1      41.844  30.074  28.507  1.00  0.00     0.167 HD
ATOM     35  C   UNL A   1      44.225  28.669  29.637  1.00  0.00     0.074 A 
ATOM     36  C   UNL A   1      43.073  28.800  30.529  1.00  0.00     0.031 C 
ATOM     37  C   UNL A   1      44.339  28.751  28.278  1.00  0.00     0.037 A 
BRANCH  24  38
ATOM     38  C   UNL A   1      38.935  29.254  28.359  1.00  0.00     0.057 A 
ATOM     39  C   UNL A   1      37.768  29.881  27.871  1.00  0.00     0.134 A 
ATOM     40  C   UNL A   1      39.035  29.194  29.760  1.00  0.00     0.134 A 
ATOM     41  F   UNL A   1      37.494  29.997  26.568  1.00  0.00    -0.206 F 
ATOM     42  C   UNL A   1      36.752  30.346  28.707  1.00  0.00     0.040 A 
ATOM     43  C   UNL A   1      38.001  29.614  30.605  1.00  0.00     0.040 A 
ATOM     44  F   UNL A   1      40.104  28.640  30.351  1.00  0.00    -0.206 F 
ATOM     45  C   UNL A   1      36.847  30.175  30.078  1.00  0.00     0.006 A 
ENDBRANCH  24  38
BRANCH  25  46
ATOM     46  C   UNL A   1      45.127  26.048  33.464  1.00  0.00     0.057 A 
ATOM     47  C   UNL A   1      46.440  25.781  33.890  1.00  0.00     0.134 A 
ATOM     48  C   UNL A   1      44.118  25.830  34.412  1.00  0.00     0.134 A 
ATOM     49  F   UNL A   1      47.475  25.886  33.043  1.00  0.00    -0.206 F 
ATOM     50  C   UNL A   1      46.731  25.303  35.173  1.00  0.00     0.040 A 
ATOM     51  C   UNL A   1      44.394  25.349  35.701  1.00  0.00     0.040 A 
ATOM     52  F   UNL A   1      42.829  26.015  34.089  1.00  0.00    -0.206 F 
ATOM     53  C   UNL A   1      45.704  25.071  36.080  1.00  0.00     0.006 A 
ENDBRANCH  25  46
BRANCH  37  54
ATOM     54  C   UNL A   1      45.663  28.368  27.666  1.00  0.00     0.057 A 
ATOM     55  C   UNL A   1      46.591  29.379  27.390  1.00  0.00     0.134 A 
ATOM     56  C   UNL A   1      45.994  27.075  27.232  1.00  0.00     0.134 A 
ATOM     57  F   UNL A   1      46.322  30.651  27.722  1.00  0.00    -0.206 F 
ATOM     58  C   UNL A   1      47.793  29.119  26.727  1.00  0.00     0.040 A 
ATOM     59  C   UNL A   1      47.209  26.795  26.597  1.00  0.00     0.040 A 
ATOM     60  F   UNL A   1      45.134  26.058  27.363  1.00  0.00    -0.206 F 
ATOM     61  C   UNL A   1      48.112  27.820  26.339  1.00  0.00     0.006 A 
ENDBRANCH  37  54
ENDBRANCH  11  12
ENDBRANCH   4   6
ENDBRANCH   1   2
BRANCH   1  62
ATOM     62  C   UNL A   1      37.592  19.876  24.736  1.00  0.00     0.042 C 
BRANCH  62  63
ATOM     63  C   UNL A   1      36.318  20.641  25.084  1.00  0.00     0.118 C 
BRANCH  63  64
ATOM     64  N   UNL A   1      35.137  19.785  25.214  1.00  0.00    -0.352 N 
ATOM     65  C   UNL A   1      33.804  20.132  25.203  1.00  0.00     0.252 C 
ATOM     66  H   UNL A   1      35.321  18.824  25.324  1.00  0.00     0.163 HD
ATOM     67  O   UNL A   1      32.930  19.325  25.474  1.00  0.00    -0.269 OA
BRANCH  65  68
ATOM     68  C   UNL A   1      33.450  21.511  24.855  1.00  0.00     0.058 A 
ATOM     69  C   UNL A   1      33.450  21.923  23.527  1.00  0.00     0.019 A 
ATOM     70  C   UNL A   1      33.185  22.435  25.852  1.00  0.00     0.127 A 
ATOM     71  C   UNL A   1      33.267  23.264  23.247  1.00  0.00     0.048 A 
ATOM     72  N   UNL A   1      33.001  23.756  25.605  1.00  0.00    -0.238 NA
ATOM     73  C   UNL A   1      33.013  24.140  24.301  1.00  0.00     0.138 A 
BRANCH  73  74
ATOM     74  N   UNL A   1      32.727  25.488  23.992  1.00  0.00    -0.283 N 
ATOM     75  C   UNL A   1      33.652  26.485  23.808  1.00  0.00     0.206 A 
ATOM     76  C   UNL A   1      31.474  26.062  23.849  1.00  0.00     0.074 A 
ATOM     77  N   UNL A   1      33.092  27.615  23.430  1.00  0.00    -0.236 NA
ATOM     78  C   UNL A   1      31.741  27.376  23.477  1.00  0.00     0.089 A 
ATOM     79  C   UNL A   1      30.168  25.595  24.078  1.00  0.00     0.029 A 
ATOM     80  C   UNL A   1      30.667  28.249  23.248  1.00  0.00     0.030 A 
ATOM     81  C   UNL A   1      29.116  26.481  23.862  1.00  0.00     0.002 A 
ATOM     82  C   UNL A   1      29.357  27.787  23.444  1.00  0.00     0.002 A 
ENDBRANCH  73  74
ENDBRANCH  65  68
ENDBRANCH  63  64
ENDBRANCH  62  63
ENDBRANCH   1  62
TORSDOF 11
ENDMDL
MODEL 3
REMARK VINA RESULT:     -12.1      3.010      7.526
REMARK SMILES O=C(NCCCNC(=O)c1ccc(-n2cnc3ccccc32)nc1)c1ccc(-c2c3nc(c(-c4c(F)cccc4F)c4ccc([nH]4)c(-c4c(F)cccc4F)c4nc(c(-c5c(F)cccc5F)c5ccc2[nH]5)C=C4)C=C3)cc1
REMARK SMILES IDX 4 1 3 2 1 3 2 4 25 6 26 7 78 8 27 9 77 10 28 11 29 12 30 13
REMARK SMILES IDX 71 14 31 15 76 16 70 17 72 18 32 19 75 20 69 21 68 22 33 24
REMARK SMILES IDX 59 25 42 26 58 27 43 28 46 29 57 30 73 31 44 32 45 33 56 35
REMARK SMILES IDX 74 36 47 37 34 38 35 39 40 40 36 41 37 42 39 43 41 44 38 45
REMARK SMILES IDX 60 46 61 47 66 48 62 49 63 50 65 51 67 52 64 53 48 54 49 55
REMARK SMILES IDX 54 56 50 57 51 58 53 59 55 60 52 61 5 62 6 63 7 64 8 65 9 67
REMARK SMILES IDX 10 68 11 69 24 70 12 71 23 72 13 73 14 74 15 75 22 76 16 77
REMARK SMILES IDX 17 78 21 79 18 80 20 81 19 82
REMARK H PARENT 3 5 72 23 46 34 7 66
REMARK Flexibility Score: inf
ROOT
ATOM      1  C   UNL A   1      34.575  30.808  27.420  1.00  0.00     0.118 C 
ENDROOT
BRANCH   1   2
ATOM      2  N   UNL A   1      34.381  31.621  28.633  1.00  0.00    -0.352 N 
ATOM      3  O   UNL A   1      34.730  32.129  30.826  1.00  0.00    -0.269 OA
ATOM      4  C   UNL A   1      35.153  31.645  29.789  1.00  0.00     0.251 C 
ATOM      5  H   UNL A   1      33.604  32.226  28.623  1.00  0.00     0.163 HD
BRANCH   4   6
ATOM      6  C   UNL A   1      36.508  31.068  29.723  1.00  0.00     0.039 A 
ATOM      7  C   UNL A   1      37.680  31.818  29.672  1.00  0.00     0.014 A 
ATOM      8  C   UNL A   1      36.572  29.689  29.798  1.00  0.00     0.014 A 
ATOM      9  C   UNL A   1      38.887  31.121  29.710  1.00  0.00     0.010 A 
ATOM     10  C   UNL A   1      37.682  29.123  30.323  1.00  0.00     0.010 A 
ATOM     11  C   UNL A   1      38.862  29.750  30.025  1.00  0.00    -0.014 A 
BRANCH  11  12
ATOM     12  C   UNL A   1      40.040  28.904  30.072  1.00  0.00     0.031 A 
ATOM     13  C   UNL A   1      40.603  28.789  31.426  1.00  0.00     0.074 A 
ATOM     14  C   UNL A   1      40.486  28.172  29.022  1.00  0.00     0.049 A 
ATOM     15  N   UNL A   1      41.629  29.417  31.883  1.00  0.00    -0.248 NA
ATOM     16  C   UNL A   1      39.814  28.086  32.447  1.00  0.00     0.031 C 
ATOM     17  C   UNL A   1      39.867  27.932  27.707  1.00  0.00     0.029 A 
ATOM     18  N   UNL A   1      41.615  27.419  28.947  1.00  0.00    -0.354 N 
ATOM     19  C   UNL A   1      41.763  28.998  33.197  1.00  0.00     0.074 A 
ATOM     20  C   UNL A   1      40.514  28.373  33.546  1.00  0.00     0.031 C 
ATOM     21  C   UNL A   1      40.518  26.936  27.063  1.00  0.00     0.029 A 
ATOM     22  C   UNL A   1      41.701  26.595  27.827  1.00  0.00     0.049 A 
ATOM     23  H   UNL A   1      42.322  27.455  29.632  1.00  0.00     0.167 HD
ATOM     24  C   UNL A   1      42.995  28.961  33.774  1.00  0.00     0.037 A 
ATOM     25  C   UNL A   1      42.684  25.698  27.564  1.00  0.00     0.037 A 
ATOM     26  C   UNL A   1      43.942  29.732  32.996  1.00  0.00     0.049 A 
ATOM     27  C   UNL A   1      43.859  26.091  28.385  1.00  0.00     0.074 A 
ATOM     28  C   UNL A   1      44.037  31.058  32.615  1.00  0.00     0.029 A 
ATOM     29  N   UNL A   1      44.765  29.039  32.140  1.00  0.00    -0.354 N 
ATOM     30  N   UNL A   1      44.544  27.183  28.183  1.00  0.00    -0.248 NA
ATOM     31  C   UNL A   1      43.954  25.535  29.725  1.00  0.00     0.031 C 
ATOM     32  C   UNL A   1      44.527  31.024  31.274  1.00  0.00     0.029 A 
ATOM     33  C   UNL A   1      44.780  29.694  30.935  1.00  0.00     0.049 A 
ATOM     34  H   UNL A   1      45.259  28.214  32.355  1.00  0.00     0.167 HD
ATOM     35  C   UNL A   1      44.791  27.687  29.453  1.00  0.00     0.074 A 
ATOM     36  C   UNL A   1      44.470  26.589  30.365  1.00  0.00     0.031 C 
ATOM     37  C   UNL A   1      44.944  29.029  29.661  1.00  0.00     0.037 A 
BRANCH  24  38
ATOM     38  C   UNL A   1      43.438  27.902  34.753  1.00  0.00     0.057 A 
ATOM     39  C   UNL A   1      43.574  28.092  36.144  1.00  0.00     0.134 A 
ATOM     40  C   UNL A   1      43.420  26.560  34.336  1.00  0.00     0.134 A 
ATOM     41  F   UNL A   1      43.578  29.299  36.718  1.00  0.00    -0.206 F 
ATOM     42  C   UNL A   1      43.616  27.033  37.053  1.00  0.00     0.040 A 
ATOM     43  C   UNL A   1      43.413  25.493  35.241  1.00  0.00     0.040 A 
ATOM     44  F   UNL A   1      43.314  26.244  33.036  1.00  0.00    -0.206 F 
ATOM     45  C   UNL A   1      43.493  25.728  36.606  1.00  0.00     0.006 A 
ENDBRANCH  24  38
BRANCH  25  46
ATOM     46  C   UNL A   1      42.584  24.372  26.911  1.00  0.00     0.057 A 
ATOM     47  C   UNL A   1      42.323  23.212  27.662  1.00  0.00     0.134 A 
ATOM     48  C   UNL A   1      43.027  24.166  25.597  1.00  0.00     0.134 A 
ATOM     49  F   UNL A   1      41.964  23.291  28.952  1.00  0.00    -0.206 F 
ATOM     50  C   UNL A   1      42.515  21.925  27.147  1.00  0.00     0.040 A 
ATOM     51  C   UNL A   1      43.225  22.882  25.068  1.00  0.00     0.040 A 
ATOM     52  F   UNL A   1      43.343  25.208  24.815  1.00  0.00    -0.206 F 
ATOM     53  C   UNL A   1      42.982  21.755  25.848  1.00  0.00     0.006 A 
ENDBRANCH  25  46
BRANCH  37  54
ATOM     54  C   UNL A   1      45.086  29.910  28.445  1.00  0.00     0.057 A 
ATOM     55  C   UNL A   1      46.371  30.215  27.985  1.00  0.00     0.134 A 
ATOM     56  C   UNL A   1      44.018  30.557  27.803  1.00  0.00     0.134 A 
ATOM     57  F   UNL A   1      47.447  29.681  28.585  1.00  0.00    -0.206 F 
ATOM     58  C   UNL A   1      46.589  31.108  26.933  1.00  0.00     0.040 A 
ATOM     59  C   UNL A   1      44.220  31.429  26.726  1.00  0.00     0.040 A 
ATOM     60  F   UNL A   1      42.759  30.407  28.229  1.00  0.00    -0.206 F 
ATOM     61  C   UNL A   1      45.510  31.710  26.291  1.00  0.00     0.006 A 
ENDBRANCH  37  54
ENDBRANCH  11  12
ENDBRANCH   4   6
ENDBRANCH   1   2
BRANCH   1  62
ATOM     62  C   UNL A   1      33.714  29.571  27.359  1.00  0.00     0.042 C 
BRANCH  62  63
ATOM     63  C   UNL A   1      33.646  28.999  25.945  1.00  0.00     0.118 C 
BRANCH  63  64
ATOM     64  N   UNL A   1      32.283  28.714  25.493  1.00  0.00    -0.352 N 
ATOM     65  C   UNL A   1      31.766  27.550  24.968  1.00  0.00     0.252 C 
ATOM     66  H   UNL A   1      31.645  29.459  25.576  1.00  0.00     0.163 HD
ATOM     67  O   UNL A   1      30.643  27.505  24.493  1.00  0.00    -0.269 OA
BRANCH  65  68
ATOM     68  C   UNL A   1      32.603  26.348  24.990  1.00  0.00     0.058 A 
ATOM     69  C   UNL A   1      32.656  25.548  26.126  1.00  0.00     0.019 A 
ATOM     70  C   UNL A   1      33.407  26.038  23.905  1.00  0.00     0.127 A 
ATOM     71  C   UNL A   1      33.573  24.515  26.170  1.00  0.00     0.048 A 
ATOM     72  N   UNL A   1      34.314  25.030  23.921  1.00  0.00    -0.238 NA
ATOM     73  C   UNL A   1      34.356  24.265  25.045  1.00  0.00     0.138 A 
BRANCH  73  74
ATOM     74  N   UNL A   1      35.215  23.144  25.066  1.00  0.00    -0.283 N 
ATOM     75  C   UNL A   1      34.878  21.866  24.698  1.00  0.00     0.206 A 
ATOM     76  C   UNL A   1      36.534  23.114  25.488  1.00  0.00     0.074 A 
ATOM     77  N   UNL A   1      35.914  21.054  24.726  1.00  0.00    -0.236 NA
ATOM     78  C   UNL A   1      36.941  21.807  25.240  1.00  0.00     0.089 A 
ATOM     79  C   UNL A   1      37.366  24.055  26.118  1.00  0.00     0.029 A 
ATOM     80  C   UNL A   1      38.255  21.431  25.559  1.00  0.00     0.030 A 
ATOM     81  C   UNL A   1      38.662  23.659  26.443  1.00  0.00     0.002 A 
ATOM     82  C   UNL A   1      39.106  22.370  26.161  1.00  0.00     0.002 A 
ENDBRANCH  73  74
ENDBRANCH  65  68
ENDBRANCH  63  64
ENDBRANCH  62  63
ENDBRANCH   1  62
TORSDOF 11
ENDMDL
