MODEL 1
REMARK VINA RESULT:     -12.4      0.000      0.000
REMARK SMILES C[C@@H](C(=O)NCCCNC(=O)c1ccc(-c2c3nc(c(-c4c(F)cccc4F)c4ccc([nH]4)c(-c4c(F)cccc4F)c4nc(c(-c5c(F)cccc5F)c5ccc2[nH]5)C=C4)C=C3)cc1)c1ccccc1-c1ccn(C(F)F)c(=O)c1
REMARK SMILES IDX 6 1 5 2 3 3 4 4 2 6 1 7 66 8 67 9 71 10 68 11 70 12 69 13
REMARK SMILES IDX 72 14 73 15 81 16 74 17 79 18 75 19 80 20 76 21 77 22 78 23
REMARK SMILES IDX 7 24 8 25 9 26 10 27 11 29 12 30 13 31 65 32 14 33 64 34
REMARK SMILES IDX 15 35 16 36 17 37 58 38 18 39 63 40 57 41 59 42 19 43 62 44
REMARK SMILES IDX 56 45 55 46 20 48 46 49 29 50 45 51 30 52 33 53 44 54 60 55
REMARK SMILES IDX 31 56 32 57 43 59 61 60 34 61 21 62 22 63 27 64 23 65 24 66
REMARK SMILES IDX 26 67 28 68 25 69 47 70 48 71 53 72 49 73 50 74 52 75 54 76
REMARK SMILES IDX 51 77 35 78 36 79 41 80 37 81 38 82 40 83 42 84 39 85
REMARK H PARENT 5 5 9 28 59 47 33 58
REMARK Flexibility Score: inf
ROOT
ATOM      1  C   UNL A   1      31.029  30.978  25.412  1.00  0.00     0.117 C 
ENDROOT
BRANCH   1   2
ATOM      2  N   UNL A   1      32.197  30.143  25.203  1.00  0.00    -0.356 N 
ATOM      3  C   UNL A   1      32.447  28.871  25.632  1.00  0.00     0.227 C 
ATOM      4  O   UNL A   1      33.619  28.488  25.591  1.00  0.00    -0.274 OA
ATOM      5  H   UNL A   1      32.916  30.554  24.671  1.00  0.00     0.163 HD
BRANCH   3   6
ATOM      6  C   UNL A   1      31.290  27.986  26.112  1.00  0.00     0.106 C 
ATOM      7  C   UNL A   1      31.404  27.845  27.637  1.00  0.00     0.023 C 
BRANCH   6   8
ATOM      8  C   UNL A   1      31.232  26.660  25.335  1.00  0.00    -0.028 A 
ATOM      9  C   UNL A   1      31.785  25.483  25.881  1.00  0.00     0.005 A 
ATOM     10  C   UNL A   1      30.631  26.578  24.051  1.00  0.00    -0.014 A 
ATOM     11  C   UNL A   1      31.749  24.271  25.190  1.00  0.00     0.000 A 
ATOM     12  C   UNL A   1      30.627  25.351  23.361  1.00  0.00     0.009 A 
ATOM     13  C   UNL A   1      31.178  24.205  23.927  1.00  0.00     0.001 A 
BRANCH  10  14
ATOM     14  C   UNL A   1      29.974  27.723  23.380  1.00  0.00    -0.011 A 
ATOM     15  C   UNL A   1      30.671  28.640  22.500  1.00  0.00     0.027 A 
ATOM     16  C   UNL A   1      28.653  27.886  23.574  1.00  0.00     0.080 A 
ATOM     17  C   UNL A   1      30.040  29.702  21.985  1.00  0.00     0.095 A 
ATOM     18  C   UNL A   1      27.921  29.022  22.948  1.00  0.00     0.255 A 
ATOM     19  N   UNL A   1      28.696  29.917  22.227  1.00  0.00    -0.258 N 
ATOM     20  O   UNL A   1      26.710  29.104  23.122  1.00  0.00    -0.269 OA
BRANCH  19  21
ATOM     21  C   UNL A   1      28.025  31.060  21.666  1.00  0.00     0.451 C 
ATOM     22  F   UNL A   1      28.826  32.152  21.685  1.00  0.00    -0.185 F 
ATOM     23  F   UNL A   1      27.654  30.832  20.382  1.00  0.00    -0.185 F 
ENDBRANCH  19  21
ENDBRANCH  10  14
ENDBRANCH   6   8
ENDBRANCH   3   6
ENDBRANCH   1   2
BRANCH   1  24
ATOM     24  C   UNL A   1      31.164  31.766  26.715  1.00  0.00     0.042 C 
BRANCH  24  25
ATOM     25  C   UNL A   1      32.510  32.465  26.874  1.00  0.00     0.118 C 
BRANCH  25  26
ATOM     26  N   UNL A   1      32.375  33.826  27.363  1.00  0.00    -0.352 N 
ATOM     27  C   UNL A   1      33.048  34.455  28.380  1.00  0.00     0.251 C 
ATOM     28  H   UNL A   1      31.705  34.376  26.898  1.00  0.00     0.163 HD
ATOM     29  O   UNL A   1      32.678  35.564  28.752  1.00  0.00    -0.269 OA
BRANCH  27  30
ATOM     30  C   UNL A   1      34.202  33.805  29.042  1.00  0.00     0.039 A 
ATOM     31  C   UNL A   1      35.490  34.211  28.680  1.00  0.00     0.014 A 
ATOM     32  C   UNL A   1      34.031  32.767  29.963  1.00  0.00     0.014 A 
ATOM     33  C   UNL A   1      36.602  33.591  29.251  1.00  0.00     0.010 A 
ATOM     34  C   UNL A   1      35.141  32.192  30.580  1.00  0.00     0.010 A 
ATOM     35  C   UNL A   1      36.437  32.581  30.212  1.00  0.00    -0.014 A 
BRANCH  35  36
ATOM     36  C   UNL A   1      37.614  31.886  30.790  1.00  0.00     0.031 A 
ATOM     37  C   UNL A   1      38.087  32.231  32.176  1.00  0.00     0.074 A 
ATOM     38  C   UNL A   1      38.274  30.964  30.064  1.00  0.00     0.049 A 
ATOM     39  N   UNL A   1      39.101  31.748  32.849  1.00  0.00    -0.248 NA
ATOM     40  C   UNL A   1      37.334  33.274  32.891  1.00  0.00     0.031 C 
ATOM     41  C   UNL A   1      37.947  30.576  28.692  1.00  0.00     0.029 A 
ATOM     42  N   UNL A   1      39.361  30.189  30.381  1.00  0.00    -0.354 N 
ATOM     43  C   UNL A   1      39.115  32.437  34.056  1.00  0.00     0.074 A 
ATOM     44  C   UNL A   1      38.044  33.409  34.001  1.00  0.00     0.031 C 
ATOM     45  C   UNL A   1      38.804  29.622  28.291  1.00  0.00     0.029 A 
ATOM     46  C   UNL A   1      39.750  29.347  29.369  1.00  0.00     0.049 A 
ATOM     47  H   UNL A   1      39.818  30.234  31.252  1.00  0.00     0.167 HD
ATOM     48  C   UNL A   1      39.927  32.260  35.126  1.00  0.00     0.037 A 
ATOM     49  C   UNL A   1      40.752  28.450  29.320  1.00  0.00     0.037 A 
ATOM     50  C   UNL A   1      40.976  31.278  35.192  1.00  0.00     0.049 A 
ATOM     51  C   UNL A   1      41.618  28.244  30.531  1.00  0.00     0.074 A 
ATOM     52  C   UNL A   1      41.831  30.995  36.244  1.00  0.00     0.029 A 
ATOM     53  N   UNL A   1      41.307  30.410  34.163  1.00  0.00    -0.354 N 
ATOM     54  N   UNL A   1      41.585  28.864  31.686  1.00  0.00    -0.248 NA
ATOM     55  C   UNL A   1      42.648  27.200  30.439  1.00  0.00     0.031 C 
ATOM     56  C   UNL A   1      42.697  29.972  35.839  1.00  0.00     0.029 A 
ATOM     57  C   UNL A   1      42.355  29.593  34.552  1.00  0.00     0.049 A 
ATOM     58  H   UNL A   1      40.864  30.380  33.284  1.00  0.00     0.167 HD
ATOM     59  C   UNL A   1      42.568  28.269  32.465  1.00  0.00     0.074 A 
ATOM     60  C   UNL A   1      43.171  27.230  31.656  1.00  0.00     0.031 C 
ATOM     61  C   UNL A   1      42.936  28.557  33.737  1.00  0.00     0.037 A 
BRANCH  48  62
ATOM     62  C   UNL A   1      39.698  33.149  36.314  1.00  0.00     0.057 A 
ATOM     63  C   UNL A   1      40.376  34.367  36.463  1.00  0.00     0.134 A 
ATOM     64  C   UNL A   1      38.789  32.789  37.316  1.00  0.00     0.134 A 
ATOM     65  F   UNL A   1      41.272  34.762  35.546  1.00  0.00    -0.206 F 
ATOM     66  C   UNL A   1      40.182  35.179  37.581  1.00  0.00     0.040 A 
ATOM     67  C   UNL A   1      38.566  33.607  38.426  1.00  0.00     0.040 A 
ATOM     68  F   UNL A   1      38.103  31.640  37.234  1.00  0.00    -0.206 F 
ATOM     69  C   UNL A   1      39.270  34.801  38.565  1.00  0.00     0.006 A 
ENDBRANCH  48  62
BRANCH  49  70
ATOM     70  C   UNL A   1      40.962  27.647  28.091  1.00  0.00     0.057 A 
ATOM     71  C   UNL A   1      41.781  28.112  27.055  1.00  0.00     0.134 A 
ATOM     72  C   UNL A   1      40.357  26.396  27.925  1.00  0.00     0.134 A 
ATOM     73  F   UNL A   1      42.374  29.311  27.150  1.00  0.00    -0.206 F 
ATOM     74  C   UNL A   1      41.979  27.368  25.890  1.00  0.00     0.040 A 
ATOM     75  C   UNL A   1      40.563  25.633  26.776  1.00  0.00     0.040 A 
ATOM     76  F   UNL A   1      39.569  25.892  28.887  1.00  0.00    -0.206 F 
ATOM     77  C   UNL A   1      41.371  26.122  25.751  1.00  0.00     0.006 A 
ENDBRANCH  49  70
BRANCH  61  78
ATOM     78  C   UNL A   1      44.016  27.711  34.344  1.00  0.00     0.057 A 
ATOM     79  C   UNL A   1      45.362  28.099  34.321  1.00  0.00     0.134 A 
ATOM     80  C   UNL A   1      43.699  26.506  34.983  1.00  0.00     0.134 A 
ATOM     81  F   UNL A   1      45.731  29.237  33.713  1.00  0.00    -0.206 F 
ATOM     82  C   UNL A   1      46.358  27.306  34.892  1.00  0.00     0.040 A 
ATOM     83  C   UNL A   1      44.684  25.715  35.578  1.00  0.00     0.040 A 
ATOM     84  F   UNL A   1      42.429  26.081  35.047  1.00  0.00    -0.206 F 
ATOM     85  C   UNL A   1      46.019  26.113  35.528  1.00  0.00     0.006 A 
ENDBRANCH  61  78
ENDBRANCH  35  36
ENDBRANCH  27  30
ENDBRANCH  25  26
ENDBRANCH  24  25
ENDBRANCH   1  24
TORSDOF 13
ENDMDL
MODEL 2
REMARK VINA RESULT:     -12.4      5.510     10.072
REMARK SMILES C[C@@H](C(=O)NCCCNC(=O)c1ccc(-c2c3nc(c(-c4c(F)cccc4F)c4ccc([nH]4)c(-c4c(F)cccc4F)c4nc(c(-c5c(F)cccc5F)c5ccc2[nH]5)C=C4)C=C3)cc1)c1ccccc1-c1ccn(C(F)F)c(=O)c1
REMARK SMILES IDX 6 1 5 2 3 3 4 4 2 6 1 7 66 8 67 9 71 10 68 11 70 12 69 13
REMARK SMILES IDX 72 14 73 15 81 16 74 17 79 18 75 19 80 20 76 21 77 22 78 23
REMARK SMILES IDX 7 24 8 25 9 26 10 27 11 29 12 30 13 31 65 32 14 33 64 34
REMARK SMILES IDX 15 35 16 36 17 37 58 38 18 39 63 40 57 41 59 42 19 43 62 44
REMARK SMILES IDX 56 45 55 46 20 48 46 49 29 50 45 51 30 52 33 53 44 54 60 55
REMARK SMILES IDX 31 56 32 57 43 59 61 60 34 61 21 62 22 63 27 64 23 65 24 66
REMARK SMILES IDX 26 67 28 68 25 69 47 70 48 71 53 72 49 73 50 74 52 75 54 76
REMARK SMILES IDX 51 77 35 78 36 79 41 80 37 81 38 82 40 83 42 84 39 85
REMARK H PARENT 5 5 9 28 59 47 33 58
REMARK Flexibility Score: inf
ROOT
ATOM      1  C   UNL A   1      36.482  19.699  24.996  1.00  0.00     0.117 C 
ENDROOT
BRANCH   1   2
ATOM      2  N   UNL A   1      36.076  20.873  25.747  1.00  0.00    -0.356 N 
ATOM      3  C   UNL A   1      35.685  22.101  25.299  1.00  0.00     0.227 C 
ATOM      4  O   UNL A   1      35.683  23.021  26.121  1.00  0.00    -0.274 OA
ATOM      5  H   UNL A   1      36.083  20.766  26.726  1.00  0.00     0.163 HD
BRANCH   3   6
ATOM      6  C   UNL A   1      35.252  22.279  23.838  1.00  0.00     0.106 C 
ATOM      7  C   UNL A   1      36.379  23.013  23.097  1.00  0.00     0.023 C 
BRANCH   6   8
ATOM      8  C   UNL A   1      33.865  22.935  23.735  1.00  0.00    -0.028 A 
ATOM      9  C   UNL A   1      33.742  24.320  23.501  1.00  0.00     0.005 A 
ATOM     10  C   UNL A   1      32.672  22.177  23.877  1.00  0.00    -0.014 A 
ATOM     11  C   UNL A   1      32.493  24.938  23.411  1.00  0.00     0.000 A 
ATOM     12  C   UNL A   1      31.423  22.822  23.806  1.00  0.00     0.009 A 
ATOM     13  C   UNL A   1      31.333  24.192  23.571  1.00  0.00     0.001 A 
BRANCH  10  14
ATOM     14  C   UNL A   1      32.654  20.710  24.080  1.00  0.00    -0.011 A 
ATOM     15  C   UNL A   1      32.750  20.082  25.383  1.00  0.00     0.027 A 
ATOM     16  C   UNL A   1      32.501  19.931  22.994  1.00  0.00     0.080 A 
ATOM     17  C   UNL A   1      32.807  18.750  25.495  1.00  0.00     0.095 A 
ATOM     18  C   UNL A   1      32.489  18.446  23.111  1.00  0.00     0.255 A 
ATOM     19  N   UNL A   1      32.713  17.938  24.381  1.00  0.00    -0.258 N 
ATOM     20  O   UNL A   1      32.305  17.782  22.097  1.00  0.00    -0.269 OA
BRANCH  19  21
ATOM     21  C   UNL A   1      32.773  16.506  24.512  1.00  0.00     0.451 C 
ATOM     22  F   UNL A   1      33.968  16.028  24.093  1.00  0.00    -0.185 F 
ATOM     23  F   UNL A   1      32.593  16.122  25.800  1.00  0.00    -0.185 F 
ENDBRANCH  19  21
ENDBRANCH  10  14
ENDBRANCH   6   8
ENDBRANCH   3   6
ENDBRANCH   1   2
BRANCH   1  24
ATOM     24  C   UNL A   1      37.952  19.808  24.591  1.00  0.00     0.042 C 
BRANCH  24  25
ATOM     25  C   UNL A   1      38.890  20.110  25.756  1.00  0.00     0.118 C 
BRANCH  25  26
ATOM     26  N   UNL A   1      40.054  19.241  25.772  1.00  0.00    -0.352 N 
ATOM     27  C   UNL A   1      41.362  19.545  26.053  1.00  0.00     0.251 C 
ATOM     28  H   UNL A   1      39.879  18.298  25.550  1.00  0.00     0.163 HD
ATOM     29  O   UNL A   1      42.232  18.703  25.856  1.00  0.00    -0.269 OA
BRANCH  27  30
ATOM     30  C   UNL A   1      41.736  20.880  26.574  1.00  0.00     0.039 A 
ATOM     31  C   UNL A   1      41.616  21.114  27.947  1.00  0.00     0.014 A 
ATOM     32  C   UNL A   1      42.140  21.913  25.723  1.00  0.00     0.014 A 
ATOM     33  C   UNL A   1      41.918  22.373  28.468  1.00  0.00     0.010 A 
ATOM     34  C   UNL A   1      42.503  23.151  26.252  1.00  0.00     0.010 A 
ATOM     35  C   UNL A   1      42.371  23.400  27.627  1.00  0.00    -0.014 A 
BRANCH  35  36
ATOM     36  C   UNL A   1      42.650  24.754  28.166  1.00  0.00     0.031 A 
ATOM     37  C   UNL A   1      44.052  25.133  28.561  1.00  0.00     0.074 A 
ATOM     38  C   UNL A   1      41.644  25.634  28.326  1.00  0.00     0.049 A 
ATOM     39  N   UNL A   1      44.495  26.258  29.065  1.00  0.00    -0.248 NA
ATOM     40  C   UNL A   1      45.088  24.103  28.389  1.00  0.00     0.031 C 
ATOM     41  C   UNL A   1      40.236  25.373  28.029  1.00  0.00     0.029 A 
ATOM     42  N   UNL A   1      41.655  26.928  28.783  1.00  0.00    -0.354 N 
ATOM     43  C   UNL A   1      45.854  26.065  29.281  1.00  0.00     0.074 A 
ATOM     44  C   UNL A   1      46.152  24.699  28.908  1.00  0.00     0.031 C 
ATOM     45  C   UNL A   1      39.520  26.479  28.294  1.00  0.00     0.029 A 
ATOM     46  C   UNL A   1      40.416  27.517  28.796  1.00  0.00     0.049 A 
ATOM     47  H   UNL A   1      42.475  27.389  29.074  1.00  0.00     0.167 HD
ATOM     48  C   UNL A   1      46.777  26.950  29.725  1.00  0.00     0.037 A 
ATOM     49  C   UNL A   1      40.044  28.756  29.166  1.00  0.00     0.037 A 
ATOM     50  C   UNL A   1      46.487  28.316  30.074  1.00  0.00     0.049 A 
ATOM     51  C   UNL A   1      41.090  29.735  29.621  1.00  0.00     0.074 A 
ATOM     52  C   UNL A   1      47.359  29.304  30.500  1.00  0.00     0.029 A 
ATOM     53  N   UNL A   1      45.225  28.888  30.028  1.00  0.00    -0.354 N 
ATOM     54  N   UNL A   1      42.381  29.555  29.769  1.00  0.00    -0.248 NA
ATOM     55  C   UNL A   1      40.632  31.094  29.942  1.00  0.00     0.031 C 
ATOM     56  C   UNL A   1      46.617  30.468  30.736  1.00  0.00     0.029 A 
ATOM     57  C   UNL A   1      45.293  30.215  30.420  1.00  0.00     0.049 A 
ATOM     58  H   UNL A   1      44.402  28.421  29.757  1.00  0.00     0.167 HD
ATOM     59  C   UNL A   1      42.891  30.782  30.173  1.00  0.00     0.074 A 
ATOM     60  C   UNL A   1      41.773  31.701  30.234  1.00  0.00     0.031 C 
ATOM     61  C   UNL A   1      44.172  31.118  30.465  1.00  0.00     0.037 A 
BRANCH  48  62
ATOM     62  C   UNL A   1      48.191  26.462  29.847  1.00  0.00     0.057 A 
ATOM     63  C   UNL A   1      49.112  26.604  28.799  1.00  0.00     0.134 A 
ATOM     64  C   UNL A   1      48.642  25.851  31.024  1.00  0.00     0.134 A 
ATOM     65  F   UNL A   1      48.738  27.167  27.640  1.00  0.00    -0.206 F 
ATOM     66  C   UNL A   1      50.418  26.126  28.904  1.00  0.00     0.040 A 
ATOM     67  C   UNL A   1      49.955  25.393  31.151  1.00  0.00     0.040 A 
ATOM     68  F   UNL A   1      47.816  25.688  32.067  1.00  0.00    -0.206 F 
ATOM     69  C   UNL A   1      50.845  25.522  30.086  1.00  0.00     0.006 A 
ENDBRANCH  48  62
BRANCH  49  70
ATOM     70  C   UNL A   1      38.618  29.155  29.079  1.00  0.00     0.057 A 
ATOM     71  C   UNL A   1      37.776  29.076  30.194  1.00  0.00     0.134 A 
ATOM     72  C   UNL A   1      38.066  29.632  27.885  1.00  0.00     0.134 A 
ATOM     73  F   UNL A   1      38.246  28.613  31.362  1.00  0.00    -0.206 F 
ATOM     74  C   UNL A   1      36.431  29.441  30.121  1.00  0.00     0.040 A 
ATOM     75  C   UNL A   1      36.729  30.019  27.803  1.00  0.00     0.040 A 
ATOM     76  F   UNL A   1      38.825  29.739  26.783  1.00  0.00    -0.206 F 
ATOM     77  C   UNL A   1      35.905  29.919  28.923  1.00  0.00     0.006 A 
ENDBRANCH  49  70
BRANCH  61  78
ATOM     78  C   UNL A   1      44.436  32.546  30.840  1.00  0.00     0.057 A 
ATOM     79  C   UNL A   1      44.708  33.526  29.878  1.00  0.00     0.134 A 
ATOM     80  C   UNL A   1      44.387  32.948  32.181  1.00  0.00     0.134 A 
ATOM     81  F   UNL A   1      44.780  33.201  28.578  1.00  0.00    -0.206 F 
ATOM     82  C   UNL A   1      44.948  34.853  30.238  1.00  0.00     0.040 A 
ATOM     83  C   UNL A   1      44.603  34.277  32.551  1.00  0.00     0.040 A 
ATOM     84  F   UNL A   1      44.123  32.060  33.150  1.00  0.00    -0.206 F 
ATOM     85  C   UNL A   1      44.890  35.232  31.577  1.00  0.00     0.006 A 
ENDBRANCH  61  78
ENDBRANCH  35  36
ENDBRANCH  27  30
ENDBRANCH  25  26
ENDBRANCH  24  25
ENDBRANCH   1  24
TORSDOF 13
ENDMDL
MODEL 3
REMARK VINA RESULT:     -12.3      0.488      1.486
REMARK SMILES C[C@@H](C(=O)NCCCNC(=O)c1ccc(-c2c3nc(c(-c4c(F)cccc4F)c4ccc([nH]4)c(-c4c(F)cccc4F)c4nc(c(-c5c(F)cccc5F)c5ccc2[nH]5)C=C4)C=C3)cc1)c1ccccc1-c1ccn(C(F)F)c(=O)c1
REMARK SMILES IDX 6 1 5 2 3 3 4 4 2 6 1 7 66 8 67 9 71 10 68 11 70 12 69 13
REMARK SMILES IDX 72 14 73 15 81 16 74 17 79 18 75 19 80 20 76 21 77 22 78 23
REMARK SMILES IDX 7 24 8 25 9 26 10 27 11 29 12 30 13 31 65 32 14 33 64 34
REMARK SMILES IDX 15 35 16 36 17 37 58 38 18 39 63 40 57 41 59 42 19 43 62 44
REMARK SMILES IDX 56 45 55 46 20 48 46 49 29 50 45 51 30 52 33 53 44 54 60 55
REMARK SMILES IDX 31 56 32 57 43 59 61 60 34 61 21 62 22 63 27 64 23 65 24 66
REMARK SMILES IDX 26 67 28 68 25 69 47 70 48 71 53 72 49 73 50 74 52 75 54 76
REMARK SMILES IDX 51 77 35 78 36 79 41 80 37 81 38 82 40 83 42 84 39 85
REMARK H PARENT 5 5 9 28 59 47 33 58
REMARK Flexibility Score: inf
ROOT
ATOM      1  C   UNL A   1      31.019  30.992  25.372  1.00  0.00     0.117 C 
ENDROOT
BRANCH   1   2
ATOM      2  N   UNL A   1      32.257  30.239  25.296  1.00  0.00    -0.356 N 
ATOM      3  C   UNL A   1      32.543  28.985  25.756  1.00  0.00     0.227 C 
ATOM      4  O   UNL A   1      33.735  28.683  25.847  1.00  0.00    -0.274 OA
ATOM      5  H   UNL A   1      33.000  30.700  24.846  1.00  0.00     0.163 HD
BRANCH   3   6
ATOM      6  C   UNL A   1      31.403  28.022  26.109  1.00  0.00     0.106 C 
ATOM      7  C   UNL A   1      31.403  27.828  27.632  1.00  0.00     0.023 C 
BRANCH   6   8
ATOM      8  C   UNL A   1      31.480  26.728  25.284  1.00  0.00    -0.028 A 
ATOM      9  C   UNL A   1      32.110  25.579  25.807  1.00  0.00     0.005 A 
ATOM     10  C   UNL A   1      30.930  26.646  23.977  1.00  0.00    -0.014 A 
ATOM     11  C   UNL A   1      32.198  24.395  25.072  1.00  0.00     0.000 A 
ATOM     12  C   UNL A   1      31.050  25.450  23.243  1.00  0.00     0.009 A 
ATOM     13  C   UNL A   1      31.676  24.332  23.787  1.00  0.00     0.001 A 
BRANCH  10  14
ATOM     14  C   UNL A   1      30.203  27.758  23.323  1.00  0.00    -0.011 A 
ATOM     15  C   UNL A   1      30.838  28.724  22.448  1.00  0.00     0.027 A 
ATOM     16  C   UNL A   1      28.876  27.844  23.530  1.00  0.00     0.080 A 
ATOM     17  C   UNL A   1      30.143  29.753  21.950  1.00  0.00     0.095 A 
ATOM     18  C   UNL A   1      28.075  28.943  22.923  1.00  0.00     0.255 A 
ATOM     19  N   UNL A   1      28.792  29.888  22.205  1.00  0.00    -0.258 N 
ATOM     20  O   UNL A   1      26.864  28.954  23.108  1.00  0.00    -0.269 OA
BRANCH  19  21
ATOM     21  C   UNL A   1      28.052  30.998  21.663  1.00  0.00     0.451 C 
ATOM     22  F   UNL A   1      28.802  32.125  21.654  1.00  0.00    -0.185 F 
ATOM     23  F   UNL A   1      27.652  30.747  20.391  1.00  0.00    -0.185 F 
ENDBRANCH  19  21
ENDBRANCH  10  14
ENDBRANCH   6   8
ENDBRANCH   3   6
ENDBRANCH   1   2
BRANCH   1  24
ATOM     24  C   UNL A   1      31.061  31.971  26.545  1.00  0.00     0.042 C 
BRANCH  24  25
ATOM     25  C   UNL A   1      32.464  32.473  26.876  1.00  0.00     0.118 C 
BRANCH  25  26
ATOM     26  N   UNL A   1      32.458  33.823  27.413  1.00  0.00    -0.352 N 
ATOM     27  C   UNL A   1      33.271  34.383  28.366  1.00  0.00     0.251 C 
ATOM     28  H   UNL A   1      31.773  34.422  27.039  1.00  0.00     0.163 HD
ATOM     29  O   UNL A   1      33.006  35.497  28.805  1.00  0.00    -0.269 OA
BRANCH  27  30
ATOM     30  C   UNL A   1      34.452  33.653  28.880  1.00  0.00     0.039 A 
ATOM     31  C   UNL A   1      34.244  32.450  29.562  1.00  0.00     0.014 A 
ATOM     32  C   UNL A   1      35.746  34.166  28.751  1.00  0.00     0.014 A 
ATOM     33  C   UNL A   1      35.330  31.756  30.098  1.00  0.00     0.010 A 
ATOM     34  C   UNL A   1      36.836  33.441  29.231  1.00  0.00     0.010 A 
ATOM     35  C   UNL A   1      36.636  32.242  29.931  1.00  0.00    -0.014 A 
BRANCH  35  36
ATOM     36  C   UNL A   1      37.791  31.534  30.537  1.00  0.00     0.031 A 
ATOM     37  C   UNL A   1      38.165  31.792  31.971  1.00  0.00     0.074 A 
ATOM     38  C   UNL A   1      38.520  30.679  29.795  1.00  0.00     0.049 A 
ATOM     39  N   UNL A   1      39.146  31.286  32.675  1.00  0.00    -0.248 NA
ATOM     40  C   UNL A   1      37.341  32.767  32.704  1.00  0.00     0.031 C 
ATOM     41  C   UNL A   1      38.292  30.380  28.381  1.00  0.00     0.029 A 
ATOM     42  N   UNL A   1      39.604  29.908  30.129  1.00  0.00    -0.354 N 
ATOM     43  C   UNL A   1      39.064  31.890  33.924  1.00  0.00     0.074 A 
ATOM     44  C   UNL A   1      37.975  32.840  33.865  1.00  0.00     0.031 C 
ATOM     45  C   UNL A   1      39.198  29.475  27.973  1.00  0.00     0.029 A 
ATOM     46  C   UNL A   1      40.079  29.147  29.091  1.00  0.00     0.049 A 
ATOM     47  H   UNL A   1      40.004  29.903  31.030  1.00  0.00     0.167 HD
ATOM     48  C   UNL A   1      39.811  31.657  35.030  1.00  0.00     0.037 A 
ATOM     49  C   UNL A   1      41.106  28.278  29.046  1.00  0.00     0.037 A 
ATOM     50  C   UNL A   1      40.879  30.696  35.099  1.00  0.00     0.049 A 
ATOM     51  C   UNL A   1      41.898  28.007  30.295  1.00  0.00     0.074 A 
ATOM     52  C   UNL A   1      41.672  30.360  36.182  1.00  0.00     0.029 A 
ATOM     53  N   UNL A   1      41.298  29.909  34.037  1.00  0.00    -0.354 N 
ATOM     54  N   UNL A   1      41.774  28.545  31.484  1.00  0.00    -0.248 NA
ATOM     55  C   UNL A   1      42.959  26.995  30.200  1.00  0.00     0.031 C 
ATOM     56  C   UNL A   1      42.589  29.386  35.767  1.00  0.00     0.029 A 
ATOM     57  C   UNL A   1      42.340  29.090  34.437  1.00  0.00     0.049 A 
ATOM     58  H   UNL A   1      40.913  29.930  33.131  1.00  0.00     0.167 HD
ATOM     59  C   UNL A   1      42.721  27.919  32.284  1.00  0.00     0.074 A 
ATOM     60  C   UNL A   1      43.402  26.952  31.448  1.00  0.00     0.031 C 
ATOM     61  C   UNL A   1      42.999  28.126  33.595  1.00  0.00     0.037 A 
BRANCH  48  62
ATOM     62  C   UNL A   1      39.483  32.456  36.258  1.00  0.00     0.057 A 
ATOM     63  C   UNL A   1      38.486  32.049  37.156  1.00  0.00     0.134 A 
ATOM     64  C   UNL A   1      40.172  33.639  36.552  1.00  0.00     0.134 A 
ATOM     65  F   UNL A   1      37.778  30.933  36.924  1.00  0.00    -0.206 F 
ATOM     66  C   UNL A   1      38.165  32.806  38.283  1.00  0.00     0.040 A 
ATOM     67  C   UNL A   1      39.878  34.391  37.691  1.00  0.00     0.040 A 
ATOM     68  F   UNL A   1      41.142  34.083  35.738  1.00  0.00    -0.206 F 
ATOM     69  C   UNL A   1      38.866  33.980  38.556  1.00  0.00     0.006 A 
ENDBRANCH  48  62
BRANCH  49  70
ATOM     70  C   UNL A   1      41.415  27.567  27.782  1.00  0.00     0.057 A 
ATOM     71  C   UNL A   1      42.253  28.139  26.817  1.00  0.00     0.134 A 
ATOM     72  C   UNL A   1      40.889  26.299  27.512  1.00  0.00     0.134 A 
ATOM     73  F   UNL A   1      42.774  29.359  27.014  1.00  0.00    -0.206 F 
ATOM     74  C   UNL A   1      42.544  27.482  25.620  1.00  0.00     0.040 A 
ATOM     75  C   UNL A   1      41.188  25.622  26.329  1.00  0.00     0.040 A 
ATOM     76  F   UNL A   1      40.087  25.694  28.401  1.00  0.00    -0.206 F 
ATOM     77  C   UNL A   1      42.013  26.217  25.376  1.00  0.00     0.006 A 
ENDBRANCH  49  70
BRANCH  61  78
ATOM     78  C   UNL A   1      44.060  27.264  34.212  1.00  0.00     0.057 A 
ATOM     79  C   UNL A   1      43.766  26.016  34.776  1.00  0.00     0.134 A 
ATOM     80  C   UNL A   1      45.399  27.677  34.215  1.00  0.00     0.134 A 
ATOM     81  F   UNL A   1      42.501  25.569  34.816  1.00  0.00    -0.206 F 
ATOM     82  C   UNL A   1      44.761  25.220  35.344  1.00  0.00     0.040 A 
ATOM     83  C   UNL A   1      46.407  26.880  34.759  1.00  0.00     0.040 A 
ATOM     84  F   UNL A   1      45.749  28.858  33.683  1.00  0.00    -0.206 F 
ATOM     85  C   UNL A   1      46.087  25.650  35.332  1.00  0.00     0.006 A 
ENDBRANCH  61  78
ENDBRANCH  35  36
ENDBRANCH  27  30
ENDBRANCH  25  26
ENDBRANCH  24  25
ENDBRANCH   1  24
TORSDOF 13
ENDMDL
