MODEL 1
REMARK VINA RESULT:     -13.6      0.000      0.000
REMARK SMILES Cc1ccc(-c2cc(C(=O)NCCCNC(=O)c3ccc(-c4c5nc(c(-c6c(F)cccc6F)c6ccc([nH]6)c(-c6c(F)cccc6F)c6nc(c(-c7c(F)cccc7F)c7ccc4[nH]7)C=C6)C=C5)cc3)c3cc(C)ccc3n2)c(C)c1
REMARK SMILES IDX 13 1 12 2 11 3 9 4 10 5 8 7 6 8 7 9 79 10 78 11 72 12 77 13
REMARK SMILES IDX 73 14 76 15 74 16 75 17 5 18 1 19 2 20 3 21 82 22 4 23 80 24
REMARK SMILES IDX 81 25 14 26 15 27 16 28 17 30 18 31 19 32 71 33 20 34 70 35
REMARK SMILES IDX 21 36 22 37 23 38 64 39 24 40 69 41 63 42 65 43 25 44 68 45
REMARK SMILES IDX 62 46 61 47 26 49 52 50 35 51 51 52 36 53 39 54 50 55 66 56
REMARK SMILES IDX 37 57 38 58 49 60 67 61 40 62 27 63 28 64 33 65 29 66 30 67
REMARK SMILES IDX 32 68 34 69 31 70 53 71 54 72 59 73 55 74 56 75 58 76 60 77
REMARK SMILES IDX 57 78 41 79 42 80 47 81 43 82 44 83 46 84 48 85 45 86
REMARK H PARENT 11 6 15 29 65 48 39 59
REMARK Flexibility Score: inf
ROOT
ATOM      1  C   UNL A   1      32.301  29.925  25.231  1.00  0.00     0.042 C 
ENDROOT
BRANCH   1   2
ATOM      2  C   UNL A   1      33.476  28.968  25.176  1.00  0.00     0.118 C 
BRANCH   2   3
ATOM      3  N   UNL A   1      33.981  28.642  23.851  1.00  0.00    -0.352 N 
ATOM      4  C   UNL A   1      33.482  27.801  22.877  1.00  0.00     0.252 C 
ATOM      5  O   UNL A   1      34.066  27.769  21.793  1.00  0.00    -0.269 OA
ATOM      6  H   UNL A   1      34.818  29.099  23.608  1.00  0.00     0.163 HD
BRANCH   4   7
ATOM      7  C   UNL A   1      32.350  26.860  23.111  1.00  0.00     0.051 A 
ATOM      8  C   UNL A   1      31.721  24.680  23.869  1.00  0.00     0.072 A 
ATOM      9  C   UNL A   1      32.717  25.568  23.505  1.00  0.00     0.043 A 
ATOM     10  N   UNL A   1      30.428  25.061  23.987  1.00  0.00    -0.248 NA
ATOM     11  C   UNL A   1      30.072  26.290  23.586  1.00  0.00     0.072 A 
ATOM     12  C   UNL A   1      30.981  27.190  23.010  1.00  0.00     0.013 A 
ATOM     13  C   UNL A   1      28.756  26.695  23.759  1.00  0.00     0.029 A 
ATOM     14  C   UNL A   1      30.470  28.358  22.403  1.00  0.00     0.014 A 
ATOM     15  C   UNL A   1      28.313  27.956  23.353  1.00  0.00     0.005 A 
ATOM     16  C   UNL A   1      29.166  28.794  22.645  1.00  0.00    -0.050 A 
ATOM     17  C   UNL A   1      28.770  30.196  22.289  1.00  0.00     0.044 C 
BRANCH   8  18
ATOM     18  C   UNL A   1      31.982  23.248  24.066  1.00  0.00     0.003 A 
ATOM     19  C   UNL A   1      32.760  19.015  24.604  1.00  0.00     0.044 C 
ATOM     20  C   UNL A   1      32.483  20.475  24.402  1.00  0.00    -0.051 A 
ATOM     21  C   UNL A   1      32.234  21.002  23.132  1.00  0.00     0.004 A 
ATOM     22  C   UNL A   1      32.477  21.337  25.503  1.00  0.00     0.007 A 
ATOM     23  C   UNL A   1      31.988  22.369  22.968  1.00  0.00     0.011 A 
ATOM     24  C   UNL A   1      32.217  22.711  25.355  1.00  0.00    -0.041 A 
ATOM     25  C   UNL A   1      32.244  23.562  26.600  1.00  0.00     0.045 C 
ENDBRANCH   8  18
ENDBRANCH   4   7
ENDBRANCH   2   3
ENDBRANCH   1   2
BRANCH   1  26
ATOM     26  C   UNL A   1      31.888  30.349  26.632  1.00  0.00     0.118 C 
BRANCH  26  27
ATOM     27  N   UNL A   1      31.887  31.792  26.861  1.00  0.00    -0.352 N 
ATOM     28  C   UNL A   1      32.790  32.659  27.431  1.00  0.00     0.251 C 
ATOM     29  H   UNL A   1      31.070  32.237  26.541  1.00  0.00     0.163 HD
ATOM     30  O   UNL A   1      32.471  33.841  27.563  1.00  0.00    -0.269 OA
BRANCH  28  31
ATOM     31  C   UNL A   1      34.105  32.208  27.943  1.00  0.00     0.039 A 
ATOM     32  C   UNL A   1      35.141  33.143  28.072  1.00  0.00     0.014 A 
ATOM     33  C   UNL A   1      34.351  30.882  28.283  1.00  0.00     0.014 A 
ATOM     34  C   UNL A   1      36.361  32.770  28.646  1.00  0.00     0.010 A 
ATOM     35  C   UNL A   1      35.505  30.541  28.978  1.00  0.00     0.010 A 
ATOM     36  C   UNL A   1      36.529  31.479  29.168  1.00  0.00    -0.014 A 
BRANCH  36  37
ATOM     37  C   UNL A   1      37.753  31.073  29.910  1.00  0.00     0.031 A 
ATOM     38  C   UNL A   1      38.752  30.143  29.269  1.00  0.00     0.074 A 
ATOM     39  C   UNL A   1      37.914  31.444  31.196  1.00  0.00     0.049 A 
ATOM     40  N   UNL A   1      39.787  29.542  29.803  1.00  0.00    -0.248 NA
ATOM     41  C   UNL A   1      38.529  29.806  27.855  1.00  0.00     0.031 C 
ATOM     42  C   UNL A   1      36.990  32.285  31.959  1.00  0.00     0.029 A 
ATOM     43  N   UNL A   1      38.905  31.142  32.096  1.00  0.00    -0.354 N 
ATOM     44  C   UNL A   1      40.310  28.734  28.801  1.00  0.00     0.074 A 
ATOM     45  C   UNL A   1      39.443  28.870  27.651  1.00  0.00     0.031 C 
ATOM     46  C   UNL A   1      37.469  32.452  33.202  1.00  0.00     0.029 A 
ATOM     47  C   UNL A   1      38.708  31.695  33.339  1.00  0.00     0.049 A 
ATOM     48  H   UNL A   1      39.684  30.582  31.873  1.00  0.00     0.167 HD
ATOM     49  C   UNL A   1      41.429  27.970  28.822  1.00  0.00     0.037 A 
ATOM     50  C   UNL A   1      39.434  31.592  34.468  1.00  0.00     0.037 A 
ATOM     51  C   UNL A   1      42.318  27.874  29.949  1.00  0.00     0.049 A 
ATOM     52  C   UNL A   1      40.688  30.765  34.462  1.00  0.00     0.074 A 
ATOM     53  C   UNL A   1      43.515  27.187  30.048  1.00  0.00     0.029 A 
ATOM     54  N   UNL A   1      42.108  28.492  31.172  1.00  0.00    -0.354 N 
ATOM     55  N   UNL A   1      41.203  30.053  33.488  1.00  0.00    -0.248 NA
ATOM     56  C   UNL A   1      41.465  30.730  35.708  1.00  0.00     0.031 C 
ATOM     57  C   UNL A   1      44.013  27.362  31.344  1.00  0.00     0.029 A 
ATOM     58  C   UNL A   1      43.147  28.192  32.038  1.00  0.00     0.049 A 
ATOM     59  H   UNL A   1      41.336  29.060  31.394  1.00  0.00     0.167 HD
ATOM     60  C   UNL A   1      42.372  29.502  33.996  1.00  0.00     0.074 A 
ATOM     61  C   UNL A   1      42.499  29.977  35.359  1.00  0.00     0.031 C 
ATOM     62  C   UNL A   1      43.259  28.676  33.390  1.00  0.00     0.037 A 
BRANCH  49  63
ATOM     63  C   UNL A   1      41.757  27.195  27.577  1.00  0.00     0.057 A 
ATOM     64  C   UNL A   1      42.491  27.761  26.526  1.00  0.00     0.134 A 
ATOM     65  C   UNL A   1      41.339  25.867  27.429  1.00  0.00     0.134 A 
ATOM     66  F   UNL A   1      42.910  29.033  26.598  1.00  0.00    -0.206 F 
ATOM     67  C   UNL A   1      42.765  27.048  25.358  1.00  0.00     0.040 A 
ATOM     68  C   UNL A   1      41.633  25.133  26.277  1.00  0.00     0.040 A 
ATOM     69  F   UNL A   1      40.638  25.259  28.398  1.00  0.00    -0.206 F 
ATOM     70  C   UNL A   1      42.339  25.728  25.233  1.00  0.00     0.006 A 
ENDBRANCH  49  63
BRANCH  50  71
ATOM     71  C   UNL A   1      39.005  32.314  35.691  1.00  0.00     0.057 A 
ATOM     72  C   UNL A   1      38.237  31.675  36.672  1.00  0.00     0.134 A 
ATOM     73  C   UNL A   1      39.358  33.650  35.917  1.00  0.00     0.134 A 
ATOM     74  F   UNL A   1      37.853  30.401  36.504  1.00  0.00    -0.206 F 
ATOM     75  C   UNL A   1      37.821  32.342  37.825  1.00  0.00     0.040 A 
ATOM     76  C   UNL A   1      38.970  34.322  37.078  1.00  0.00     0.040 A 
ATOM     77  F   UNL A   1      40.102  34.313  35.021  1.00  0.00    -0.206 F 
ATOM     78  C   UNL A   1      38.194  33.668  38.033  1.00  0.00     0.006 A 
ENDBRANCH  50  71
BRANCH  62  79
ATOM     79  C   UNL A   1      44.457  28.254  34.188  1.00  0.00     0.057 A 
ATOM     80  C   UNL A   1      44.462  27.076  34.945  1.00  0.00     0.134 A 
ATOM     81  C   UNL A   1      45.632  29.017  34.165  1.00  0.00     0.134 A 
ATOM     82  F   UNL A   1      43.363  26.310  35.016  1.00  0.00    -0.206 F 
ATOM     83  C   UNL A   1      45.588  26.682  35.668  1.00  0.00     0.040 A 
ATOM     84  C   UNL A   1      46.772  28.619  34.866  1.00  0.00     0.040 A 
ATOM     85  F   UNL A   1      45.695  30.152  33.454  1.00  0.00    -0.206 F 
ATOM     86  C   UNL A   1      46.749  27.451  35.623  1.00  0.00     0.006 A 
ENDBRANCH  62  79
ENDBRANCH  36  37
ENDBRANCH  28  31
ENDBRANCH  26  27
ENDBRANCH   1  26
TORSDOF 11
ENDMDL
MODEL 2
REMARK VINA RESULT:     -13.5      3.394      6.857
REMARK SMILES Cc1ccc(-c2cc(C(=O)NCCCNC(=O)c3ccc(-c4c5nc(c(-c6c(F)cccc6F)c6ccc([nH]6)c(-c6c(F)cccc6F)c6nc(c(-c7c(F)cccc7F)c7ccc4[nH]7)C=C6)C=C5)cc3)c3cc(C)ccc3n2)c(C)c1
REMARK SMILES IDX 13 1 12 2 11 3 9 4 10 5 8 7 6 8 7 9 79 10 78 11 72 12 77 13
REMARK SMILES IDX 73 14 76 15 74 16 75 17 5 18 1 19 2 20 3 21 82 22 4 23 80 24
REMARK SMILES IDX 81 25 14 26 15 27 16 28 17 30 18 31 19 32 71 33 20 34 70 35
REMARK SMILES IDX 21 36 22 37 23 38 64 39 24 40 69 41 63 42 65 43 25 44 68 45
REMARK SMILES IDX 62 46 61 47 26 49 52 50 35 51 51 52 36 53 39 54 50 55 66 56
REMARK SMILES IDX 37 57 38 58 49 60 67 61 40 62 27 63 28 64 33 65 29 66 30 67
REMARK SMILES IDX 32 68 34 69 31 70 53 71 54 72 59 73 55 74 56 75 58 76 60 77
REMARK SMILES IDX 57 78 41 79 42 80 47 81 43 82 44 83 46 84 48 85 45 86
REMARK H PARENT 11 6 15 29 65 48 39 59
REMARK Flexibility Score: inf
ROOT
ATOM      1  C   UNL A   1      33.976  28.443  26.122  1.00  0.00     0.042 C 
ENDROOT
BRANCH   1   2
ATOM      2  C   UNL A   1      33.436  29.296  24.991  1.00  0.00     0.118 C 
BRANCH   2   3
ATOM      3  N   UNL A   1      33.924  28.981  23.656  1.00  0.00    -0.352 N 
ATOM      4  C   UNL A   1      33.489  28.053  22.732  1.00  0.00     0.252 C 
ATOM      5  O   UNL A   1      34.031  28.047  21.626  1.00  0.00    -0.269 OA
ATOM      6  H   UNL A   1      34.693  29.521  23.364  1.00  0.00     0.163 HD
BRANCH   4   7
ATOM      7  C   UNL A   1      32.483  26.997  23.044  1.00  0.00     0.051 A 
ATOM      8  C   UNL A   1      32.144  24.777  23.868  1.00  0.00     0.072 A 
ATOM      9  C   UNL A   1      33.014  25.762  23.435  1.00  0.00     0.043 A 
ATOM     10  N   UNL A   1      30.826  25.015  24.054  1.00  0.00    -0.248 NA
ATOM     11  C   UNL A   1      30.313  26.188  23.656  1.00  0.00     0.072 A 
ATOM     12  C   UNL A   1      31.083  27.172  23.017  1.00  0.00     0.013 A 
ATOM     13  C   UNL A   1      28.972  26.449  23.899  1.00  0.00     0.029 A 
ATOM     14  C   UNL A   1      30.412  28.263  22.423  1.00  0.00     0.014 A 
ATOM     15  C   UNL A   1      28.369  27.645  23.501  1.00  0.00     0.005 A 
ATOM     16  C   UNL A   1      29.083  28.558  22.733  1.00  0.00    -0.050 A 
ATOM     17  C   UNL A   1      28.514  29.900  22.380  1.00  0.00     0.044 C 
BRANCH   8  18
ATOM     18  C   UNL A   1      32.574  23.387  24.071  1.00  0.00     0.003 A 
ATOM     19  C   UNL A   1      33.828  19.273  24.627  1.00  0.00     0.044 C 
ATOM     20  C   UNL A   1      33.380  20.689  24.424  1.00  0.00    -0.051 A 
ATOM     21  C   UNL A   1      32.526  21.042  23.377  1.00  0.00     0.004 A 
ATOM     22  C   UNL A   1      33.826  21.687  25.296  1.00  0.00     0.007 A 
ATOM     23  C   UNL A   1      32.130  22.373  23.203  1.00  0.00     0.011 A 
ATOM     24  C   UNL A   1      33.425  23.026  25.143  1.00  0.00    -0.041 A 
ATOM     25  C   UNL A   1      33.968  24.032  26.126  1.00  0.00     0.045 C 
ENDBRANCH   8  18
ENDBRANCH   4   7
ENDBRANCH   2   3
ENDBRANCH   1   2
BRANCH   1  26
ATOM     26  C   UNL A   1      33.420  28.779  27.497  1.00  0.00     0.118 C 
BRANCH  26  27
ATOM     27  N   UNL A   1      33.651  30.155  27.933  1.00  0.00    -0.352 N 
ATOM     28  C   UNL A   1      34.757  30.823  28.404  1.00  0.00     0.251 C 
ATOM     29  H   UNL A   1      32.849  30.721  27.877  1.00  0.00     0.163 HD
ATOM     30  O   UNL A   1      34.626  31.988  28.780  1.00  0.00    -0.269 OA
BRANCH  28  31
ATOM     31  C   UNL A   1      36.082  30.171  28.529  1.00  0.00     0.039 A 
ATOM     32  C   UNL A   1      36.960  30.206  27.438  1.00  0.00     0.014 A 
ATOM     33  C   UNL A   1      36.475  29.511  29.688  1.00  0.00     0.014 A 
ATOM     34  C   UNL A   1      38.255  29.689  27.558  1.00  0.00     0.010 A 
ATOM     35  C   UNL A   1      37.799  29.123  29.857  1.00  0.00     0.010 A 
ATOM     36  C   UNL A   1      38.708  29.204  28.794  1.00  0.00    -0.014 A 
BRANCH  36  37
ATOM     37  C   UNL A   1      40.115  28.771  29.012  1.00  0.00     0.031 A 
ATOM     38  C   UNL A   1      41.128  29.741  29.565  1.00  0.00     0.074 A 
ATOM     39  C   UNL A   1      40.511  27.547  28.610  1.00  0.00     0.049 A 
ATOM     40  N   UNL A   1      42.428  29.613  29.670  1.00  0.00    -0.248 NA
ATOM     41  C   UNL A   1      40.618  31.047  30.012  1.00  0.00     0.031 C 
ATOM     42  C   UNL A   1      39.651  26.534  27.997  1.00  0.00     0.029 A 
ATOM     43  N   UNL A   1      41.749  26.954  28.637  1.00  0.00    -0.354 N 
ATOM     44  C   UNL A   1      42.887  30.830  30.159  1.00  0.00     0.074 A 
ATOM     45  C   UNL A   1      41.739  31.703  30.267  1.00  0.00     0.031 C 
ATOM     46  C   UNL A   1      40.379  25.438  27.730  1.00  0.00     0.029 A 
ATOM     47  C   UNL A   1      41.765  25.686  28.109  1.00  0.00     0.049 A 
ATOM     48  H   UNL A   1      42.551  27.396  29.001  1.00  0.00     0.167 HD
ATOM     49  C   UNL A   1      44.145  31.182  30.518  1.00  0.00     0.037 A 
ATOM     50  C   UNL A   1      42.784  24.823  27.934  1.00  0.00     0.037 A 
ATOM     51  C   UNL A   1      45.278  30.298  30.457  1.00  0.00     0.049 A 
ATOM     52  C   UNL A   1      44.166  25.222  28.366  1.00  0.00     0.074 A 
ATOM     53  C   UNL A   1      46.580  30.533  30.864  1.00  0.00     0.029 A 
ATOM     54  N   UNL A   1      45.240  29.003  29.963  1.00  0.00    -0.354 N 
ATOM     55  N   UNL A   1      44.575  26.355  28.882  1.00  0.00    -0.248 NA
ATOM     56  C   UNL A   1      45.228  24.220  28.196  1.00  0.00     0.031 C 
ATOM     57  C   UNL A   1      47.337  29.390  30.584  1.00  0.00     0.029 A 
ATOM     58  C   UNL A   1      46.498  28.430  30.042  1.00  0.00     0.049 A 
ATOM     59  H   UNL A   1      44.438  28.556  29.608  1.00  0.00     0.167 HD
ATOM     60  C   UNL A   1      45.935  26.199  29.118  1.00  0.00     0.074 A 
ATOM     61  C   UNL A   1      46.277  24.853  28.703  1.00  0.00     0.031 C 
ATOM     62  C   UNL A   1      46.820  27.088  29.628  1.00  0.00     0.037 A 
BRANCH  49  63
ATOM     63  C   UNL A   1      44.350  32.583  31.023  1.00  0.00     0.057 A 
ATOM     64  C   UNL A   1      44.674  33.639  30.161  1.00  0.00     0.134 A 
ATOM     65  C   UNL A   1      44.218  32.880  32.385  1.00  0.00     0.134 A 
ATOM     66  F   UNL A   1      44.829  33.421  28.846  1.00  0.00    -0.206 F 
ATOM     67  C   UNL A   1      44.896  34.932  30.639  1.00  0.00     0.040 A 
ATOM     68  C   UNL A   1      44.408  34.176  32.872  1.00  0.00     0.040 A 
ATOM     69  F   UNL A   1      43.904  31.919  33.266  1.00  0.00    -0.206 F 
ATOM     70  C   UNL A   1      44.759  35.204  31.998  1.00  0.00     0.006 A 
ENDBRANCH  49  63
BRANCH  50  71
ATOM     71  C   UNL A   1      42.527  23.485  27.345  1.00  0.00     0.057 A 
ATOM     72  C   UNL A   1      42.175  22.399  28.155  1.00  0.00     0.134 A 
ATOM     73  C   UNL A   1      42.614  23.261  25.966  1.00  0.00     0.134 A 
ATOM     74  F   UNL A   1      42.093  22.547  29.485  1.00  0.00    -0.206 F 
ATOM     75  C   UNL A   1      41.936  21.133  27.617  1.00  0.00     0.040 A 
ATOM     76  C   UNL A   1      42.352  22.006  25.412  1.00  0.00     0.040 A 
ATOM     77  F   UNL A   1      42.935  24.264  25.137  1.00  0.00    -0.206 F 
ATOM     78  C   UNL A   1      42.017  20.937  26.241  1.00  0.00     0.006 A 
ENDBRANCH  50  71
BRANCH  62  79
ATOM     79  C   UNL A   1      48.238  26.626  29.790  1.00  0.00     0.057 A 
ATOM     80  C   UNL A   1      49.207  26.860  28.807  1.00  0.00     0.134 A 
ATOM     81  C   UNL A   1      48.645  25.975  30.962  1.00  0.00     0.134 A 
ATOM     82  F   UNL A   1      48.876  27.468  27.657  1.00  0.00    -0.206 F 
ATOM     83  C   UNL A   1      50.529  26.444  28.975  1.00  0.00     0.040 A 
ATOM     84  C   UNL A   1      49.970  25.577  31.151  1.00  0.00     0.040 A 
ATOM     85  F   UNL A   1      47.767  25.728  31.945  1.00  0.00    -0.206 F 
ATOM     86  C   UNL A   1      50.913  25.808  30.152  1.00  0.00     0.006 A 
ENDBRANCH  62  79
ENDBRANCH  36  37
ENDBRANCH  28  31
ENDBRANCH  26  27
ENDBRANCH   1  26
TORSDOF 11
ENDMDL
MODEL 3
REMARK VINA RESULT:     -13.4      4.118      9.256
REMARK SMILES Cc1ccc(-c2cc(C(=O)NCCCNC(=O)c3ccc(-c4c5nc(c(-c6c(F)cccc6F)c6ccc([nH]6)c(-c6c(F)cccc6F)c6nc(c(-c7c(F)cccc7F)c7ccc4[nH]7)C=C6)C=C5)cc3)c3cc(C)ccc3n2)c(C)c1
REMARK SMILES IDX 13 1 12 2 11 3 9 4 10 5 8 7 6 8 7 9 79 10 78 11 72 12 77 13
REMARK SMILES IDX 73 14 76 15 74 16 75 17 5 18 1 19 2 20 3 21 82 22 4 23 80 24
REMARK SMILES IDX 81 25 14 26 15 27 16 28 17 30 18 31 19 32 71 33 20 34 70 35
REMARK SMILES IDX 21 36 22 37 23 38 64 39 24 40 69 41 63 42 65 43 25 44 68 45
REMARK SMILES IDX 62 46 61 47 26 49 52 50 35 51 51 52 36 53 39 54 50 55 66 56
REMARK SMILES IDX 37 57 38 58 49 60 67 61 40 62 27 63 28 64 33 65 29 66 30 67
REMARK SMILES IDX 32 68 34 69 31 70 53 71 54 72 59 73 55 74 56 75 58 76 60 77
REMARK SMILES IDX 57 78 41 79 42 80 47 81 43 82 44 83 46 84 48 85 45 86
REMARK H PARENT 11 6 15 29 65 48 39 59
REMARK Flexibility Score: inf
ROOT
ATOM      1  C   UNL A   1      35.959  21.168  25.705  1.00  0.00     0.042 C 
ENDROOT
BRANCH   1   2
ATOM      2  C   UNL A   1      35.667  22.544  26.272  1.00  0.00     0.118 C 
BRANCH   2   3
ATOM      3  N   UNL A   1      34.579  22.626  27.236  1.00  0.00    -0.352 N 
ATOM      4  C   UNL A   1      33.211  22.627  27.054  1.00  0.00     0.252 C 
ATOM      5  O   UNL A   1      32.499  22.621  28.059  1.00  0.00    -0.269 OA
ATOM      6  H   UNL A   1      34.868  22.691  28.174  1.00  0.00     0.163 HD
BRANCH   4   7
ATOM      7  C   UNL A   1      32.563  22.747  25.716  1.00  0.00     0.051 A 
ATOM      8  C   UNL A   1      31.727  24.253  24.057  1.00  0.00     0.072 A 
ATOM      9  C   UNL A   1      32.209  24.047  25.337  1.00  0.00     0.043 A 
ATOM     10  N   UNL A   1      31.719  23.272  23.126  1.00  0.00    -0.248 NA
ATOM     11  C   UNL A   1      32.034  22.022  23.496  1.00  0.00     0.072 A 
ATOM     12  C   UNL A   1      32.338  21.679  24.821  1.00  0.00     0.013 A 
ATOM     13  C   UNL A   1      32.077  21.029  22.527  1.00  0.00     0.029 A 
ATOM     14  C   UNL A   1      32.419  20.309  25.155  1.00  0.00     0.014 A 
ATOM     15  C   UNL A   1      32.386  19.703  22.842  1.00  0.00     0.005 A 
ATOM     16  C   UNL A   1      32.537  19.326  24.171  1.00  0.00    -0.050 A 
ATOM     17  C   UNL A   1      32.978  17.942  24.547  1.00  0.00     0.044 C 
BRANCH   8  18
ATOM     18  C   UNL A   1      31.111  25.523  23.647  1.00  0.00     0.003 A 
ATOM     19  C   UNL A   1      29.262  29.264  22.468  1.00  0.00     0.044 C 
ATOM     20  C   UNL A   1      29.885  27.963  22.879  1.00  0.00    -0.051 A 
ATOM     21  C   UNL A   1      29.193  27.040  23.665  1.00  0.00     0.004 A 
ATOM     22  C   UNL A   1      31.189  27.663  22.475  1.00  0.00     0.007 A 
ATOM     23  C   UNL A   1      29.799  25.837  24.044  1.00  0.00     0.011 A 
ATOM     24  C   UNL A   1      31.807  26.452  22.836  1.00  0.00    -0.041 A 
ATOM     25  C   UNL A   1      33.220  26.224  22.363  1.00  0.00     0.045 C 
ENDBRANCH   8  18
ENDBRANCH   4   7
ENDBRANCH   2   3
ENDBRANCH   1   2
BRANCH   1  26
ATOM     26  C   UNL A   1      37.173  21.099  24.790  1.00  0.00     0.118 C 
BRANCH  26  27
ATOM     27  N   UNL A   1      38.191  20.132  25.194  1.00  0.00    -0.352 N 
ATOM     28  C   UNL A   1      39.384  20.243  25.870  1.00  0.00     0.251 C 
ATOM     29  H   UNL A   1      37.980  19.209  24.927  1.00  0.00     0.163 HD
ATOM     30  O   UNL A   1      40.086  19.239  25.994  1.00  0.00    -0.269 OA
BRANCH  28  31
ATOM     31  C   UNL A   1      39.876  21.536  26.401  1.00  0.00     0.039 A 
ATOM     32  C   UNL A   1      40.896  21.531  27.361  1.00  0.00     0.014 A 
ATOM     33  C   UNL A   1      39.346  22.754  25.989  1.00  0.00     0.014 A 
ATOM     34  C   UNL A   1      41.451  22.735  27.806  1.00  0.00     0.010 A 
ATOM     35  C   UNL A   1      39.984  23.942  26.321  1.00  0.00     0.010 A 
ATOM     36  C   UNL A   1      41.045  23.952  27.237  1.00  0.00    -0.014 A 
BRANCH  36  37
ATOM     37  C   UNL A   1      41.698  25.246  27.573  1.00  0.00     0.031 A 
ATOM     38  C   UNL A   1      40.933  26.306  28.324  1.00  0.00     0.074 A 
ATOM     39  C   UNL A   1      42.935  25.515  27.110  1.00  0.00     0.049 A 
ATOM     40  N   UNL A   1      41.261  27.552  28.564  1.00  0.00    -0.248 NA
ATOM     41  C   UNL A   1      39.602  25.930  28.826  1.00  0.00     0.031 C 
ATOM     42  C   UNL A   1      43.761  24.606  26.314  1.00  0.00     0.029 A 
ATOM     43  N   UNL A   1      43.706  26.645  27.224  1.00  0.00    -0.354 N 
ATOM     44  C   UNL A   1      40.165  28.111  29.211  1.00  0.00     0.074 A 
ATOM     45  C   UNL A   1      39.141  27.091  29.266  1.00  0.00     0.031 C 
ATOM     46  C   UNL A   1      44.930  25.202  26.033  1.00  0.00     0.029 A 
ATOM     47  C   UNL A   1      44.920  26.550  26.588  1.00  0.00     0.049 A 
ATOM     48  H   UNL A   1      43.417  27.448  27.715  1.00  0.00     0.167 HD
ATOM     49  C   UNL A   1      40.031  29.350  29.740  1.00  0.00     0.037 A 
ATOM     50  C   UNL A   1      45.911  27.453  26.453  1.00  0.00     0.037 A 
ATOM     51  C   UNL A   1      41.068  30.348  29.729  1.00  0.00     0.049 A 
ATOM     52  C   UNL A   1      45.756  28.812  27.074  1.00  0.00     0.074 A 
ATOM     53  C   UNL A   1      41.060  31.607  30.302  1.00  0.00     0.029 A 
ATOM     54  N   UNL A   1      42.303  30.192  29.119  1.00  0.00    -0.354 N 
ATOM     55  N   UNL A   1      44.736  29.306  27.734  1.00  0.00    -0.248 NA
ATOM     56  C   UNL A   1      46.889  29.737  26.936  1.00  0.00     0.031 C 
ATOM     57  C   UNL A   1      42.280  32.227  30.008  1.00  0.00     0.029 A 
ATOM     58  C   UNL A   1      43.062  31.338  29.289  1.00  0.00     0.049 A 
ATOM     59  H   UNL A   1      42.598  29.387  28.636  1.00  0.00     0.167 HD
ATOM     60  C   UNL A   1      45.111  30.590  28.108  1.00  0.00     0.074 A 
ATOM     61  C   UNL A   1      46.458  30.791  27.614  1.00  0.00     0.031 C 
ATOM     62  C   UNL A   1      44.403  31.520  28.794  1.00  0.00     0.037 A 
BRANCH  49  63
ATOM     63  C   UNL A   1      38.718  29.683  30.391  1.00  0.00     0.057 A 
ATOM     64  C   UNL A   1      37.673  30.287  29.678  1.00  0.00     0.134 A 
ATOM     65  C   UNL A   1      38.493  29.393  31.742  1.00  0.00     0.134 A 
ATOM     66  F   UNL A   1      37.828  30.604  28.384  1.00  0.00    -0.206 F 
ATOM     67  C   UNL A   1      36.467  30.625  30.294  1.00  0.00     0.040 A 
ATOM     68  C   UNL A   1      37.279  29.698  32.362  1.00  0.00     0.040 A 
ATOM     69  F   UNL A   1      39.447  28.810  32.483  1.00  0.00    -0.206 F 
ATOM     70  C   UNL A   1      36.266  30.326  31.640  1.00  0.00     0.006 A 
ENDBRANCH  49  63
BRANCH  50  71
ATOM     71  C   UNL A   1      47.149  27.088  25.720  1.00  0.00     0.057 A 
ATOM     72  C   UNL A   1      47.317  27.438  24.375  1.00  0.00     0.134 A 
ATOM     73  C   UNL A   1      48.193  26.394  26.343  1.00  0.00     0.134 A 
ATOM     74  F   UNL A   1      46.344  28.088  23.720  1.00  0.00    -0.206 F 
ATOM     75  C   UNL A   1      48.473  27.097  23.670  1.00  0.00     0.040 A 
ATOM     76  C   UNL A   1      49.365  26.069  25.657  1.00  0.00     0.040 A 
ATOM     77  F   UNL A   1      48.096  26.041  27.632  1.00  0.00    -0.206 F 
ATOM     78  C   UNL A   1      49.504  26.416  24.314  1.00  0.00     0.006 A 
ENDBRANCH  50  71
BRANCH  62  79
ATOM     79  C   UNL A   1      45.082  32.828  29.074  1.00  0.00     0.057 A 
ATOM     80  C   UNL A   1      45.882  33.015  30.209  1.00  0.00     0.134 A 
ATOM     81  C   UNL A   1      44.965  33.897  28.177  1.00  0.00     0.134 A 
ATOM     82  F   UNL A   1      46.022  32.033  31.111  1.00  0.00    -0.206 F 
ATOM     83  C   UNL A   1      46.526  34.229  30.451  1.00  0.00     0.040 A 
ATOM     84  C   UNL A   1      45.625  35.107  28.398  1.00  0.00     0.040 A 
ATOM     85  F   UNL A   1      44.220  33.779  27.069  1.00  0.00    -0.206 F 
ATOM     86  C   UNL A   1      46.404  35.276  29.540  1.00  0.00     0.006 A 
ENDBRANCH  62  79
ENDBRANCH  36  37
ENDBRANCH  28  31
ENDBRANCH  26  27
ENDBRANCH   1  26
TORSDOF 11
ENDMDL
