MODEL 1
REMARK VINA RESULT:     -11.5      0.000      0.000
REMARK SMILES CCC(CC)(CC(=O)Nc1cccc(C#N)c1)C(=O)NCCCNC(=O)c1ccc(-c2c3nc(c(-c4c(F)cccc4F)c4ccc([nH]4)c(-c4c(F)cccc4F)c4nc(c(-c5c(F)cccc5F)c5ccc2[nH]5)C=C4)C=C3)cc1
REMARK SMILES IDX 21 1 20 2 18 3 19 4 3 6 2 7 1 8 4 9 5 10 6 11 7 12 8 13 9 14
REMARK SMILES IDX 10 16 11 17 17 18 12 19 14 20 13 21 15 22 16 23 22 24 23 25
REMARK SMILES IDX 24 26 25 27 26 29 27 30 28 31 80 32 29 33 79 34 30 35 31 36
REMARK SMILES IDX 32 37 73 38 33 39 78 40 72 41 74 42 34 43 77 44 71 45 70 46
REMARK SMILES IDX 35 48 61 49 44 50 60 51 45 52 48 53 59 54 75 55 46 56 47 57
REMARK SMILES IDX 58 59 76 60 49 61 36 62 37 63 42 64 38 65 39 66 41 67 43 68
REMARK SMILES IDX 40 69 62 70 63 71 68 72 64 73 65 74 67 75 69 76 66 77 50 78
REMARK SMILES IDX 51 79 56 80 52 81 53 82 55 83 57 84 54 85
REMARK H PARENT 20 5 9 15 24 28 74 47 48 58
REMARK Flexibility Score: inf
ROOT
ATOM      1  C   UNL A   1      36.853  20.548  24.954  1.00  0.00     0.117 C 
ENDROOT
BRANCH   1   2
ATOM      2  N   UNL A   1      37.034  21.642  24.026  1.00  0.00    -0.356 N 
ATOM      3  C   UNL A   1      36.273  22.710  23.705  1.00  0.00     0.226 C 
ATOM      4  O   UNL A   1      36.619  23.306  22.680  1.00  0.00    -0.274 OA
ATOM      5  H   UNL A   1      37.881  21.599  23.526  1.00  0.00     0.163 HD
BRANCH   3   6
ATOM      6  C   UNL A   1      35.063  23.168  24.545  1.00  0.00     0.057 C 
BRANCH   6   7
ATOM      7  C   UNL A   1      34.727  24.599  24.079  1.00  0.00     0.014 C 
ATOM      8  C   UNL A   1      33.471  24.868  23.267  1.00  0.00     0.005 C 
ENDBRANCH   6   7
BRANCH   6   9
ATOM      9  C   UNL A   1      35.390  23.242  26.070  1.00  0.00     0.014 C 
ATOM     10  C   UNL A   1      36.673  23.979  26.437  1.00  0.00     0.005 C 
ENDBRANCH   6   9
BRANCH   6  11
ATOM     11  C   UNL A   1      33.813  22.282  24.228  1.00  0.00     0.117 C 
BRANCH  11  12
ATOM     12  C   UNL A   1      32.924  21.769  25.380  1.00  0.00     0.225 C 
ATOM     13  O   UNL A   1      32.568  22.550  26.269  1.00  0.00    -0.275 OA
ATOM     14  N   UNL A   1      32.333  20.519  25.335  1.00  0.00    -0.326 N 
ATOM     15  H   UNL A   1      31.529  20.417  25.896  1.00  0.00     0.169 HD
BRANCH  14  16
ATOM     16  C   UNL A   1      32.702  19.373  24.613  1.00  0.00     0.042 A 
ATOM     17  C   UNL A   1      32.369  19.247  23.268  1.00  0.00     0.026 A 
ATOM     18  C   UNL A   1      33.541  18.411  25.166  1.00  0.00     0.045 A 
ATOM     19  C   UNL A   1      32.522  18.037  22.592  1.00  0.00     0.004 A 
ATOM     20  C   UNL A   1      33.810  17.231  24.449  1.00  0.00     0.054 A 
ATOM     21  C   UNL A   1      33.211  17.005  23.205  1.00  0.00     0.019 A 
BRANCH  20  22
ATOM     22  C   UNL A   1      34.742  16.262  24.949  1.00  0.00     0.099 C 
ATOM     23  N   UNL A   1      35.474  15.444  25.310  1.00  0.00    -0.192 NA
ENDBRANCH  20  22
ENDBRANCH  14  16
ENDBRANCH  11  12
ENDBRANCH   6  11
ENDBRANCH   3   6
ENDBRANCH   1   2
BRANCH   1  24
ATOM     24  C   UNL A   1      38.032  19.595  24.923  1.00  0.00     0.042 C 
BRANCH  24  25
ATOM     25  C   UNL A   1      39.216  20.056  25.756  1.00  0.00     0.118 C 
BRANCH  25  26
ATOM     26  N   UNL A   1      40.202  19.002  25.964  1.00  0.00    -0.352 N 
ATOM     27  C   UNL A   1      41.554  19.095  26.182  1.00  0.00     0.251 C 
ATOM     28  H   UNL A   1      39.843  18.084  25.943  1.00  0.00     0.163 HD
ATOM     29  O   UNL A   1      42.265  18.098  26.098  1.00  0.00    -0.269 OA
BRANCH  27  30
ATOM     30  C   UNL A   1      42.150  20.408  26.490  1.00  0.00     0.039 A 
ATOM     31  C   UNL A   1      42.589  21.219  25.442  1.00  0.00     0.014 A 
ATOM     32  C   UNL A   1      42.244  20.850  27.811  1.00  0.00     0.014 A 
ATOM     33  C   UNL A   1      43.037  22.511  25.718  1.00  0.00     0.010 A 
ATOM     34  C   UNL A   1      42.582  22.169  28.072  1.00  0.00     0.010 A 
ATOM     35  C   UNL A   1      42.983  23.014  27.028  1.00  0.00    -0.014 A 
BRANCH  35  36
ATOM     36  C   UNL A   1      43.324  24.425  27.329  1.00  0.00     0.031 A 
ATOM     37  C   UNL A   1      44.756  24.877  27.304  1.00  0.00     0.074 A 
ATOM     38  C   UNL A   1      42.348  25.278  27.695  1.00  0.00     0.049 A 
ATOM     39  N   UNL A   1      45.259  26.046  27.610  1.00  0.00    -0.248 NA
ATOM     40  C   UNL A   1      45.762  23.877  26.907  1.00  0.00     0.031 C 
ATOM     41  C   UNL A   1      40.926  24.942  27.802  1.00  0.00     0.029 A 
ATOM     42  N   UNL A   1      42.404  26.600  28.058  1.00  0.00    -0.354 N 
ATOM     43  C   UNL A   1      46.633  25.918  27.451  1.00  0.00     0.074 A 
ATOM     44  C   UNL A   1      46.891  24.544  27.082  1.00  0.00     0.031 C 
ATOM     45  C   UNL A   1      40.243  26.036  28.174  1.00  0.00     0.029 A 
ATOM     46  C   UNL A   1      41.181  27.133  28.387  1.00  0.00     0.049 A 
ATOM     47  H   UNL A   1      43.242  27.117  28.081  1.00  0.00     0.167 HD
ATOM     48  C   UNL A   1      47.590  26.867  27.580  1.00  0.00     0.037 A 
ATOM     49  C   UNL A   1      40.855  28.362  28.828  1.00  0.00     0.037 A 
ATOM     50  C   UNL A   1      47.322  28.234  27.945  1.00  0.00     0.049 A 
ATOM     51  C   UNL A   1      41.942  29.385  29.006  1.00  0.00     0.074 A 
ATOM     52  C   UNL A   1      48.215  29.287  28.050  1.00  0.00     0.029 A 
ATOM     53  N   UNL A   1      46.072  28.735  28.275  1.00  0.00    -0.354 N 
ATOM     54  N   UNL A   1      43.230  29.273  28.778  1.00  0.00    -0.248 NA
ATOM     55  C   UNL A   1      41.533  30.706  29.501  1.00  0.00     0.031 C 
ATOM     56  C   UNL A   1      47.517  30.406  28.513  1.00  0.00     0.029 A 
ATOM     57  C   UNL A   1      46.176  30.072  28.625  1.00  0.00     0.049 A 
ATOM     58  H   UNL A   1      45.235  28.217  28.264  1.00  0.00     0.167 HD
ATOM     59  C   UNL A   1      43.778  30.514  29.077  1.00  0.00     0.074 A 
ATOM     60  C   UNL A   1      42.680  31.369  29.479  1.00  0.00     0.031 C 
ATOM     61  C   UNL A   1      45.074  30.911  29.026  1.00  0.00     0.037 A 
BRANCH  48  62
ATOM     62  C   UNL A   1      49.014  26.458  27.333  1.00  0.00     0.057 A 
ATOM     63  C   UNL A   1      49.600  26.535  26.062  1.00  0.00     0.134 A 
ATOM     64  C   UNL A   1      49.822  26.013  28.387  1.00  0.00     0.134 A 
ATOM     65  F   UNL A   1      48.882  26.942  25.005  1.00  0.00    -0.206 F 
ATOM     66  C   UNL A   1      50.927  26.159  25.845  1.00  0.00     0.040 A 
ATOM     67  C   UNL A   1      51.159  25.665  28.189  1.00  0.00     0.040 A 
ATOM     68  F   UNL A   1      49.328  25.918  29.632  1.00  0.00    -0.206 F 
ATOM     69  C   UNL A   1      51.713  25.730  26.912  1.00  0.00     0.006 A 
ENDBRANCH  48  62
BRANCH  49  70
ATOM     70  C   UNL A   1      39.439  28.695  29.133  1.00  0.00     0.057 A 
ATOM     71  C   UNL A   1      38.599  29.247  28.160  1.00  0.00     0.134 A 
ATOM     72  C   UNL A   1      38.895  28.485  30.407  1.00  0.00     0.134 A 
ATOM     73  F   UNL A   1      39.065  29.489  26.925  1.00  0.00    -0.206 F 
ATOM     74  C   UNL A   1      37.280  29.604  28.446  1.00  0.00     0.040 A 
ATOM     75  C   UNL A   1      37.569  28.806  30.700  1.00  0.00     0.040 A 
ATOM     76  F   UNL A   1      39.643  27.950  31.384  1.00  0.00    -0.206 F 
ATOM     77  C   UNL A   1      36.760  29.378  29.719  1.00  0.00     0.006 A 
ENDBRANCH  49  70
BRANCH  61  78
ATOM     78  C   UNL A   1      45.372  32.338  29.388  1.00  0.00     0.057 A 
ATOM     79  C   UNL A   1      45.692  32.721  30.696  1.00  0.00     0.134 A 
ATOM     80  C   UNL A   1      45.373  33.337  28.405  1.00  0.00     0.134 A 
ATOM     81  F   UNL A   1      45.698  31.817  31.688  1.00  0.00    -0.206 F 
ATOM     82  C   UNL A   1      45.974  34.049  31.019  1.00  0.00     0.040 A 
ATOM     83  C   UNL A   1      45.687  34.662  28.709  1.00  0.00     0.040 A 
ATOM     84  F   UNL A   1      45.085  33.039  27.128  1.00  0.00    -0.206 F 
ATOM     85  C   UNL A   1      45.979  35.022  30.022  1.00  0.00     0.006 A 
ENDBRANCH  61  78
ENDBRANCH  35  36
ENDBRANCH  27  30
ENDBRANCH  25  26
ENDBRANCH  24  25
ENDBRANCH   1  24
TORSDOF 16
ENDMDL
MODEL 2
REMARK VINA RESULT:     -11.5      1.747      6.966
REMARK SMILES CCC(CC)(CC(=O)Nc1cccc(C#N)c1)C(=O)NCCCNC(=O)c1ccc(-c2c3nc(c(-c4c(F)cccc4F)c4ccc([nH]4)c(-c4c(F)cccc4F)c4nc(c(-c5c(F)cccc5F)c5ccc2[nH]5)C=C4)C=C3)cc1
REMARK SMILES IDX 21 1 20 2 18 3 19 4 3 6 2 7 1 8 4 9 5 10 6 11 7 12 8 13 9 14
REMARK SMILES IDX 10 16 11 17 17 18 12 19 14 20 13 21 15 22 16 23 22 24 23 25
REMARK SMILES IDX 24 26 25 27 26 29 27 30 28 31 80 32 29 33 79 34 30 35 31 36
REMARK SMILES IDX 32 37 73 38 33 39 78 40 72 41 74 42 34 43 77 44 71 45 70 46
REMARK SMILES IDX 35 48 61 49 44 50 60 51 45 52 48 53 59 54 75 55 46 56 47 57
REMARK SMILES IDX 58 59 76 60 49 61 36 62 37 63 42 64 38 65 39 66 41 67 43 68
REMARK SMILES IDX 40 69 62 70 63 71 68 72 64 73 65 74 67 75 69 76 66 77 50 78
REMARK SMILES IDX 51 79 56 80 52 81 53 82 55 83 57 84 54 85
REMARK H PARENT 20 5 9 15 24 28 74 47 48 58
REMARK Flexibility Score: inf
ROOT
ATOM      1  C   UNL A   1      36.482  21.340  25.058  1.00  0.00     0.117 C 
ENDROOT
BRANCH   1   2
ATOM      2  N   UNL A   1      35.500  21.116  26.097  1.00  0.00    -0.356 N 
ATOM      3  C   UNL A   1      34.374  21.768  26.452  1.00  0.00     0.226 C 
ATOM      4  O   UNL A   1      33.915  21.449  27.554  1.00  0.00    -0.274 OA
ATOM      5  H   UNL A   1      35.695  20.331  26.658  1.00  0.00     0.163 HD
BRANCH   3   6
ATOM      6  C   UNL A   1      33.694  22.828  25.562  1.00  0.00     0.057 C 
BRANCH   6   7
ATOM      7  C   UNL A   1      33.230  22.095  24.288  1.00  0.00     0.014 C 
ATOM      8  C   UNL A   1      33.693  22.563  22.919  1.00  0.00     0.005 C 
ENDBRANCH   6   7
BRANCH   6   9
ATOM      9  C   UNL A   1      34.681  23.953  25.116  1.00  0.00     0.014 C 
ATOM     10  C   UNL A   1      34.245  25.380  25.431  1.00  0.00     0.005 C 
ENDBRANCH   6   9
BRANCH   6  11
ATOM     11  C   UNL A   1      32.408  23.383  26.260  1.00  0.00     0.117 C 
BRANCH  11  12
ATOM     12  C   UNL A   1      31.015  23.006  25.713  1.00  0.00     0.225 C 
ATOM     13  O   UNL A   1      30.453  21.987  26.126  1.00  0.00    -0.275 OA
ATOM     14  N   UNL A   1      30.282  23.887  24.938  1.00  0.00    -0.326 N 
ATOM     15  H   UNL A   1      29.309  23.733  24.939  1.00  0.00     0.169 HD
BRANCH  14  16
ATOM     16  C   UNL A   1      30.711  24.967  24.151  1.00  0.00     0.042 A 
ATOM     17  C   UNL A   1      30.677  26.265  24.650  1.00  0.00     0.026 A 
ATOM     18  C   UNL A   1      31.327  24.763  22.920  1.00  0.00     0.045 A 
ATOM     19  C   UNL A   1      30.881  27.368  23.823  1.00  0.00     0.004 A 
ATOM     20  C   UNL A   1      31.655  25.870  22.117  1.00  0.00     0.054 A 
ATOM     21  C   UNL A   1      31.332  27.166  22.530  1.00  0.00     0.019 A 
BRANCH  20  22
ATOM     22  C   UNL A   1      32.373  25.700  20.886  1.00  0.00     0.099 C 
ATOM     23  N   UNL A   1      32.903  25.578  19.866  1.00  0.00    -0.192 NA
ENDBRANCH  20  22
ENDBRANCH  14  16
ENDBRANCH  11  12
ENDBRANCH   6  11
ENDBRANCH   3   6
ENDBRANCH   1   2
BRANCH   1  24
ATOM     24  C   UNL A   1      37.503  20.221  25.009  1.00  0.00     0.042 C 
BRANCH  24  25
ATOM     25  C   UNL A   1      38.839  20.582  25.637  1.00  0.00     0.118 C 
BRANCH  25  26
ATOM     26  N   UNL A   1      39.726  19.431  25.771  1.00  0.00    -0.352 N 
ATOM     27  C   UNL A   1      41.081  19.387  25.986  1.00  0.00     0.251 C 
ATOM     28  H   UNL A   1      39.285  18.553  25.696  1.00  0.00     0.163 HD
ATOM     29  O   UNL A   1      41.698  18.338  25.835  1.00  0.00    -0.269 OA
BRANCH  27  30
ATOM     30  C   UNL A   1      41.794  20.620  26.371  1.00  0.00     0.039 A 
ATOM     31  C   UNL A   1      42.277  21.467  25.374  1.00  0.00     0.014 A 
ATOM     32  C   UNL A   1      41.955  20.951  27.718  1.00  0.00     0.014 A 
ATOM     33  C   UNL A   1      42.840  22.693  25.729  1.00  0.00     0.010 A 
ATOM     34  C   UNL A   1      42.410  22.214  28.065  1.00  0.00     0.010 A 
ATOM     35  C   UNL A   1      42.859  23.098  27.074  1.00  0.00    -0.014 A 
BRANCH  35  36
ATOM     36  C   UNL A   1      43.326  24.450  27.467  1.00  0.00     0.031 A 
ATOM     37  C   UNL A   1      42.335  25.500  27.882  1.00  0.00     0.074 A 
ATOM     38  C   UNL A   1      44.636  24.749  27.377  1.00  0.00     0.049 A 
ATOM     39  N   UNL A   1      42.542  26.756  28.186  1.00  0.00    -0.248 NA
ATOM     40  C   UNL A   1      40.921  25.094  27.939  1.00  0.00     0.031 C 
ATOM     41  C   UNL A   1      45.687  23.826  26.940  1.00  0.00     0.029 A 
ATOM     42  N   UNL A   1      45.308  25.917  27.635  1.00  0.00    -0.354 N 
ATOM     43  C   UNL A   1      41.289  27.288  28.461  1.00  0.00     0.074 A 
ATOM     44  C   UNL A   1      40.322  26.238  28.229  1.00  0.00     0.031 C 
ATOM     45  C   UNL A   1      46.872  24.454  26.990  1.00  0.00     0.029 A 
ATOM     46  C   UNL A   1      46.661  25.836  27.406  1.00  0.00     0.049 A 
ATOM     47  H   UNL A   1      44.863  26.734  27.955  1.00  0.00     0.167 HD
ATOM     48  C   UNL A   1      40.976  28.533  28.891  1.00  0.00     0.037 A 
ATOM     49  C   UNL A   1      47.620  26.776  27.502  1.00  0.00     0.037 A 
ATOM     50  C   UNL A   1      41.946  29.571  29.123  1.00  0.00     0.049 A 
ATOM     51  C   UNL A   1      47.238  28.164  27.937  1.00  0.00     0.074 A 
ATOM     52  C   UNL A   1      41.738  30.850  29.609  1.00  0.00     0.029 A 
ATOM     53  N   UNL A   1      43.306  29.454  28.874  1.00  0.00    -0.354 N 
ATOM     54  N   UNL A   1      46.059  28.633  28.270  1.00  0.00    -0.248 NA
ATOM     55  C   UNL A   1      48.322  29.153  28.015  1.00  0.00     0.031 C 
ATOM     56  C   UNL A   1      42.959  31.529  29.587  1.00  0.00     0.029 A 
ATOM     57  C   UNL A   1      43.943  30.652  29.158  1.00  0.00     0.049 A 
ATOM     58  H   UNL A   1      43.751  28.641  28.544  1.00  0.00     0.167 HD
ATOM     59  C   UNL A   1      46.263  29.963  28.618  1.00  0.00     0.074 A 
ATOM     60  C   UNL A   1      47.682  30.216  28.480  1.00  0.00     0.031 C 
ATOM     61  C   UNL A   1      45.357  30.891  29.014  1.00  0.00     0.037 A 
BRANCH  48  62
ATOM     62  C   UNL A   1      39.525  28.843  29.128  1.00  0.00     0.057 A 
ATOM     63  C   UNL A   1      38.923  28.667  30.382  1.00  0.00     0.134 A 
ATOM     64  C   UNL A   1      38.727  29.357  28.099  1.00  0.00     0.134 A 
ATOM     65  F   UNL A   1      39.625  28.168  31.411  1.00  0.00    -0.206 F 
ATOM     66  C   UNL A   1      37.575  28.965  30.595  1.00  0.00     0.040 A 
ATOM     67  C   UNL A   1      37.387  29.689  28.308  1.00  0.00     0.040 A 
ATOM     68  F   UNL A   1      39.238  29.556  26.874  1.00  0.00    -0.206 F 
ATOM     69  C   UNL A   1      36.806  29.486  29.557  1.00  0.00     0.006 A 
ENDBRANCH  48  62
BRANCH  49  70
ATOM     70  C   UNL A   1      49.031  26.439  27.180  1.00  0.00     0.057 A 
ATOM     71  C   UNL A   1      49.511  26.513  25.868  1.00  0.00     0.134 A 
ATOM     72  C   UNL A   1      49.928  26.020  28.171  1.00  0.00     0.134 A 
ATOM     73  F   UNL A   1      48.696  26.890  24.871  1.00  0.00    -0.206 F 
ATOM     74  C   UNL A   1      50.822  26.159  25.546  1.00  0.00     0.040 A 
ATOM     75  C   UNL A   1      51.251  25.694  27.869  1.00  0.00     0.040 A 
ATOM     76  F   UNL A   1      49.535  25.936  29.450  1.00  0.00    -0.206 F 
ATOM     77  C   UNL A   1      51.698  25.752  26.550  1.00  0.00     0.006 A 
ENDBRANCH  49  70
BRANCH  61  78
ATOM     78  C   UNL A   1      45.877  32.259  29.353  1.00  0.00     0.057 A 
ATOM     79  C   UNL A   1      46.360  32.575  30.629  1.00  0.00     0.134 A 
ATOM     80  C   UNL A   1      45.928  33.263  28.377  1.00  0.00     0.134 A 
ATOM     81  F   UNL A   1      46.329  31.663  31.613  1.00  0.00    -0.206 F 
ATOM     82  C   UNL A   1      46.847  33.847  30.930  1.00  0.00     0.040 A 
ATOM     83  C   UNL A   1      46.445  34.528  28.656  1.00  0.00     0.040 A 
ATOM     84  F   UNL A   1      45.493  33.026  27.130  1.00  0.00    -0.206 F 
ATOM     85  C   UNL A   1      46.898  34.826  29.939  1.00  0.00     0.006 A 
ENDBRANCH  61  78
ENDBRANCH  35  36
ENDBRANCH  27  30
ENDBRANCH  25  26
ENDBRANCH  24  25
ENDBRANCH   1  24
TORSDOF 16
ENDMDL
MODEL 3
REMARK VINA RESULT:     -11.4      5.304     10.108
REMARK SMILES CCC(CC)(CC(=O)Nc1cccc(C#N)c1)C(=O)NCCCNC(=O)c1ccc(-c2c3nc(c(-c4c(F)cccc4F)c4ccc([nH]4)c(-c4c(F)cccc4F)c4nc(c(-c5c(F)cccc5F)c5ccc2[nH]5)C=C4)C=C3)cc1
REMARK SMILES IDX 21 1 20 2 18 3 19 4 3 6 2 7 1 8 4 9 5 10 6 11 7 12 8 13 9 14
REMARK SMILES IDX 10 16 11 17 17 18 12 19 14 20 13 21 15 22 16 23 22 24 23 25
REMARK SMILES IDX 24 26 25 27 26 29 27 30 28 31 80 32 29 33 79 34 30 35 31 36
REMARK SMILES IDX 32 37 73 38 33 39 78 40 72 41 74 42 34 43 77 44 71 45 70 46
REMARK SMILES IDX 35 48 61 49 44 50 60 51 45 52 48 53 59 54 75 55 46 56 47 57
REMARK SMILES IDX 58 59 76 60 49 61 36 62 37 63 42 64 38 65 39 66 41 67 43 68
REMARK SMILES IDX 40 69 62 70 63 71 68 72 64 73 65 74 67 75 69 76 66 77 50 78
REMARK SMILES IDX 51 79 56 80 52 81 53 82 55 83 57 84 54 85
REMARK H PARENT 20 5 9 15 24 28 74 47 48 58
REMARK Flexibility Score: inf
ROOT
ATOM      1  C   UNL A   1      31.770  30.433  26.011  1.00  0.00     0.117 C 
ENDROOT
BRANCH   1   2
ATOM      2  N   UNL A   1      31.174  30.196  24.715  1.00  0.00    -0.356 N 
ATOM      3  C   UNL A   1      31.165  29.128  23.890  1.00  0.00     0.226 C 
ATOM      4  O   UNL A   1      30.773  29.362  22.742  1.00  0.00    -0.274 OA
ATOM      5  H   UNL A   1      30.676  30.969  24.363  1.00  0.00     0.163 HD
BRANCH   3   6
ATOM      6  C   UNL A   1      31.603  27.716  24.330  1.00  0.00     0.057 C 
BRANCH   6   7
ATOM      7  C   UNL A   1      30.683  26.724  23.589  1.00  0.00     0.014 C 
ATOM      8  C   UNL A   1      29.343  26.328  24.185  1.00  0.00     0.005 C 
ENDBRANCH   6   7
BRANCH   6   9
ATOM      9  C   UNL A   1      31.402  27.480  25.861  1.00  0.00     0.014 C 
ATOM     10  C   UNL A   1      32.673  27.216  26.662  1.00  0.00     0.005 C 
ENDBRANCH   6   9
BRANCH   6  11
ATOM     11  C   UNL A   1      33.064  27.424  23.851  1.00  0.00     0.117 C 
BRANCH  11  12
ATOM     12  C   UNL A   1      33.329  26.279  22.851  1.00  0.00     0.225 C 
ATOM     13  O   UNL A   1      33.358  26.522  21.640  1.00  0.00    -0.275 OA
ATOM     14  N   UNL A   1      33.750  25.031  23.277  1.00  0.00    -0.326 N 
ATOM     15  H   UNL A   1      34.229  24.500  22.600  1.00  0.00     0.169 HD
BRANCH  14  16
ATOM     16  C   UNL A   1      33.600  24.408  24.526  1.00  0.00     0.042 A 
ATOM     17  C   UNL A   1      34.694  24.235  25.367  1.00  0.00     0.026 A 
ATOM     18  C   UNL A   1      32.342  24.090  25.026  1.00  0.00     0.045 A 
ATOM     19  C   UNL A   1      34.620  23.428  26.501  1.00  0.00     0.004 A 
ATOM     20  C   UNL A   1      32.236  23.378  26.235  1.00  0.00     0.054 A 
ATOM     21  C   UNL A   1      33.385  22.959  26.914  1.00  0.00     0.019 A 
BRANCH  20  22
ATOM     22  C   UNL A   1      30.955  23.116  26.826  1.00  0.00     0.099 C 
ATOM     23  N   UNL A   1      29.903  22.953  27.276  1.00  0.00    -0.192 NA
ENDBRANCH  20  22
ENDBRANCH  14  16
ENDBRANCH  11  12
ENDBRANCH   6  11
ENDBRANCH   3   6
ENDBRANCH   1   2
BRANCH   1  24
ATOM     24  C   UNL A   1      31.489  31.840  26.501  1.00  0.00     0.042 C 
BRANCH  24  25
ATOM     25  C   UNL A   1      32.649  32.473  27.251  1.00  0.00     0.118 C 
BRANCH  25  26
ATOM     26  N   UNL A   1      32.426  33.885  27.542  1.00  0.00    -0.352 N 
ATOM     27  C   UNL A   1      33.007  34.687  28.493  1.00  0.00     0.251 C 
ATOM     28  H   UNL A   1      31.757  34.329  26.972  1.00  0.00     0.163 HD
ATOM     29  O   UNL A   1      32.529  35.787  28.752  1.00  0.00    -0.269 OA
BRANCH  27  30
ATOM     30  C   UNL A   1      34.195  34.204  29.221  1.00  0.00     0.039 A 
ATOM     31  C   UNL A   1      34.023  33.501  30.414  1.00  0.00     0.014 A 
ATOM     32  C   UNL A   1      35.476  34.419  28.707  1.00  0.00     0.014 A 
ATOM     33  C   UNL A   1      35.133  32.934  31.041  1.00  0.00     0.010 A 
ATOM     34  C   UNL A   1      36.561  33.762  29.268  1.00  0.00     0.010 A 
ATOM     35  C   UNL A   1      36.401  33.013  30.442  1.00  0.00    -0.014 A 
BRANCH  35  36
ATOM     36  C   UNL A   1      37.571  32.306  31.015  1.00  0.00     0.031 A 
ATOM     37  C   UNL A   1      38.243  32.836  32.250  1.00  0.00     0.074 A 
ATOM     38  C   UNL A   1      38.072  31.230  30.378  1.00  0.00     0.049 A 
ATOM     39  N   UNL A   1      39.320  32.403  32.856  1.00  0.00    -0.248 NA
ATOM     40  C   UNL A   1      37.640  34.025  32.875  1.00  0.00     0.031 C 
ATOM     41  C   UNL A   1      37.535  30.652  29.144  1.00  0.00     0.029 A 
ATOM     42  N   UNL A   1      39.152  30.437  30.672  1.00  0.00    -0.354 N 
ATOM     43  C   UNL A   1      39.525  33.269  33.922  1.00  0.00     0.074 A 
ATOM     44  C   UNL A   1      38.501  34.286  33.847  1.00  0.00     0.031 C 
ATOM     45  C   UNL A   1      38.269  29.581  28.805  1.00  0.00     0.029 A 
ATOM     46  C   UNL A   1      39.360  29.429  29.761  1.00  0.00     0.049 A 
ATOM     47  H   UNL A   1      39.724  30.578  31.461  1.00  0.00     0.167 HD
ATOM     48  C   UNL A   1      40.470  33.206  34.890  1.00  0.00     0.037 A 
ATOM     49  C   UNL A   1      40.331  28.500  29.695  1.00  0.00     0.037 A 
ATOM     50  C   UNL A   1      41.484  32.187  34.959  1.00  0.00     0.049 A 
ATOM     51  C   UNL A   1      41.395  28.481  30.757  1.00  0.00     0.074 A 
ATOM     52  C   UNL A   1      42.455  32.003  35.927  1.00  0.00     0.029 A 
ATOM     53  N   UNL A   1      41.666  31.186  34.015  1.00  0.00    -0.354 N 
ATOM     54  N   UNL A   1      41.534  29.258  31.804  1.00  0.00    -0.248 NA
ATOM     55  C   UNL A   1      42.438  27.453  30.630  1.00  0.00     0.031 C 
ATOM     56  C   UNL A   1      43.268  30.936  35.534  1.00  0.00     0.029 A 
ATOM     57  C   UNL A   1      42.760  30.407  34.358  1.00  0.00     0.049 A 
ATOM     58  H   UNL A   1      41.103  31.051  33.220  1.00  0.00     0.167 HD
ATOM     59  C   UNL A   1      42.662  28.799  32.473  1.00  0.00     0.074 A 
ATOM     60  C   UNL A   1      43.154  27.660  31.725  1.00  0.00     0.031 C 
ATOM     61  C   UNL A   1      43.240  29.277  33.602  1.00  0.00     0.037 A 
BRANCH  48  62
ATOM     62  C   UNL A   1      40.456  34.275  35.945  1.00  0.00     0.057 A 
ATOM     63  C   UNL A   1      41.190  35.462  35.810  1.00  0.00     0.134 A 
ATOM     64  C   UNL A   1      39.671  34.132  37.097  1.00  0.00     0.134 A 
ATOM     65  F   UNL A   1      41.972  35.661  34.739  1.00  0.00    -0.206 F 
ATOM     66  C   UNL A   1      41.165  36.453  36.794  1.00  0.00     0.040 A 
ATOM     67  C   UNL A   1      39.612  35.129  38.071  1.00  0.00     0.040 A 
ATOM     68  F   UNL A   1      38.939  33.023  37.289  1.00  0.00    -0.206 F 
ATOM     69  C   UNL A   1      40.367  36.291  37.924  1.00  0.00     0.006 A 
ENDBRANCH  48  62
BRANCH  49  70
ATOM     70  C   UNL A   1      40.345  27.512  28.584  1.00  0.00     0.057 A 
ATOM     71  C   UNL A   1      39.627  26.315  28.673  1.00  0.00     0.134 A 
ATOM     72  C   UNL A   1      41.088  27.732  27.417  1.00  0.00     0.134 A 
ATOM     73  F   UNL A   1      38.911  26.036  29.772  1.00  0.00    -0.206 F 
ATOM     74  C   UNL A   1      39.666  25.360  27.654  1.00  0.00     0.040 A 
ATOM     75  C   UNL A   1      41.111  26.802  26.378  1.00  0.00     0.040 A 
ATOM     76  F   UNL A   1      41.791  28.864  27.265  1.00  0.00    -0.206 F 
ATOM     77  C   UNL A   1      40.406  25.606  26.500  1.00  0.00     0.006 A 
ENDBRANCH  49  70
BRANCH  61  78
ATOM     78  C   UNL A   1      44.453  28.554  34.114  1.00  0.00     0.057 A 
ATOM     79  C   UNL A   1      45.753  28.962  33.789  1.00  0.00     0.134 A 
ATOM     80  C   UNL A   1      44.318  27.454  34.972  1.00  0.00     0.134 A 
ATOM     81  F   UNL A   1      45.954  30.000  32.963  1.00  0.00    -0.206 F 
ATOM     82  C   UNL A   1      46.873  28.287  34.276  1.00  0.00     0.040 A 
ATOM     83  C   UNL A   1      45.431  26.792  35.493  1.00  0.00     0.040 A 
ATOM     84  F   UNL A   1      43.103  27.016  35.333  1.00  0.00    -0.206 F 
ATOM     85  C   UNL A   1      46.713  27.203  35.137  1.00  0.00     0.006 A 
ENDBRANCH  61  78
ENDBRANCH  35  36
ENDBRANCH  27  30
ENDBRANCH  25  26
ENDBRANCH  24  25
ENDBRANCH   1  24
TORSDOF 16
ENDMDL
