MODEL 1
REMARK VINA RESULT:     -13.7      0.000      0.000
REMARK SMILES Cc1cccc(CC(=O)N2CCC3(CCC(=O)N([C@H](C)C(=O)NCCCNC(=O)c4ccc(-c5c6nc(c(-c7c(F)cccc7F)c7ccc([nH]7)c(-c7c(F)cccc7F)c7nc(c(-c8c(F)cccc8F)c8ccc5[nH]8)C=C7)C=C6)cc4)C3)CC2)c1
REMARK SMILES IDX 24 1 23 2 21 3 22 4 19 6 20 7 18 8 8 9 9 10 10 11 11 12
REMARK SMILES IDX 86 13 12 14 85 15 13 16 14 17 84 18 15 19 16 20 17 21 7 22
REMARK SMILES IDX 6 23 1 24 2 25 3 26 87 27 4 28 5 29 25 30 26 31 27 32 28 33
REMARK SMILES IDX 29 35 30 36 31 37 83 38 32 39 82 40 33 41 34 42 35 43 76 44
REMARK SMILES IDX 36 45 81 46 75 47 77 48 37 49 80 50 74 51 73 52 38 54 64 55
REMARK SMILES IDX 47 56 63 57 48 58 51 59 62 60 78 61 49 62 50 63 61 65 79 66
REMARK SMILES IDX 52 67 39 68 40 69 45 70 41 71 42 72 44 73 46 74 43 75 65 76
REMARK SMILES IDX 66 77 71 78 67 79 68 80 70 81 72 82 69 83 53 84 54 85 59 86
REMARK SMILES IDX 55 87 56 88 58 89 60 90 57 91
REMARK H PARENT 23 5 27 34 77 53 51 64
REMARK Flexibility Score: inf
ROOT
ATOM      1  C   UNL A   1      33.851  29.549  27.219  1.00  0.00     0.117 C 
ENDROOT
BRANCH   1   2
ATOM      2  N   UNL A   1      32.718  28.717  27.584  1.00  0.00    -0.354 N 
ATOM      3  C   UNL A   1      31.832  28.063  26.770  1.00  0.00     0.242 C 
ATOM      4  O   UNL A   1      31.061  27.254  27.294  1.00  0.00    -0.273 OA
ATOM      5  H   UNL A   1      32.567  28.608  28.551  1.00  0.00     0.163 HD
BRANCH   3   6
ATOM      6  C   UNL A   1      31.713  28.397  25.259  1.00  0.00     0.171 C 
ATOM      7  C   UNL A   1      32.892  29.264  24.797  1.00  0.00     0.042 C 
BRANCH   6   8
ATOM      8  N   UNL A   1      31.413  27.315  24.298  1.00  0.00    -0.330 N 
ATOM      9  C   UNL A   1      33.585  21.284  25.613  1.00  0.00     0.226 C 
ATOM     10  O   UNL A   1      33.422  20.857  26.763  1.00  0.00    -0.275 OA
ATOM     11  N   UNL A   1      32.676  22.177  25.064  1.00  0.00    -0.342 N 
ATOM     12  C   UNL A   1      31.777  22.927  25.938  1.00  0.00     0.120 C 
ATOM     13  C   UNL A   1      32.477  22.457  23.653  1.00  0.00     0.120 C 
ATOM     14  C   UNL A   1      31.935  24.438  25.688  1.00  0.00     0.030 C 
ATOM     15  C   UNL A   1      32.825  23.909  23.382  1.00  0.00     0.030 C 
ATOM     16  C   UNL A   1      31.889  24.847  24.183  1.00  0.00    -0.008 C 
ATOM     17  C   UNL A   1      30.463  24.717  23.585  1.00  0.00     0.019 C 
ATOM     18  C   UNL A   1      32.410  26.296  24.014  1.00  0.00     0.127 C 
ATOM     19  C   UNL A   1      29.544  25.853  23.961  1.00  0.00     0.101 C 
ATOM     20  C   UNL A   1      30.192  27.182  23.671  1.00  0.00     0.223 C 
ATOM     21  O   UNL A   1      29.603  28.080  23.085  1.00  0.00    -0.275 OA
BRANCH   9  22
ATOM     22  C   UNL A   1      34.916  20.992  24.916  1.00  0.00     0.135 C 
BRANCH  22  23
ATOM     23  C   UNL A   1      36.111  21.857  25.218  1.00  0.00    -0.038 A 
ATOM     24  C   UNL A   1      39.783  21.362  26.143  1.00  0.00     0.044 C 
ATOM     25  C   UNL A   1      38.468  22.017  25.843  1.00  0.00    -0.051 A 
ATOM     26  C   UNL A   1      38.304  23.392  26.042  1.00  0.00     0.003 A 
ATOM     27  C   UNL A   1      37.374  21.261  25.406  1.00  0.00     0.007 A 
ATOM     28  C   UNL A   1      37.070  24.002  25.805  1.00  0.00     0.001 A 
ATOM     29  C   UNL A   1      35.976  23.240  25.392  1.00  0.00     0.004 A 
ENDBRANCH  22  23
ENDBRANCH   9  22
ENDBRANCH   6   8
ENDBRANCH   3   6
ENDBRANCH   1   2
BRANCH   1  30
ATOM     30  C   UNL A   1      33.767  30.965  27.744  1.00  0.00     0.042 C 
BRANCH  30  31
ATOM     31  C   UNL A   1      35.138  31.585  27.913  1.00  0.00     0.118 C 
BRANCH  31  32
ATOM     32  N   UNL A   1      35.477  31.941  29.295  1.00  0.00    -0.352 N 
ATOM     33  C   UNL A   1      36.312  31.261  30.171  1.00  0.00     0.251 C 
ATOM     34  H   UNL A   1      35.060  32.761  29.644  1.00  0.00     0.163 HD
ATOM     35  O   UNL A   1      36.570  31.707  31.278  1.00  0.00    -0.269 OA
BRANCH  33  36
ATOM     36  C   UNL A   1      36.994  30.045  29.669  1.00  0.00     0.039 A 
ATOM     37  C   UNL A   1      37.233  29.018  30.584  1.00  0.00     0.014 A 
ATOM     38  C   UNL A   1      37.680  30.099  28.460  1.00  0.00     0.014 A 
ATOM     39  C   UNL A   1      38.364  28.227  30.416  1.00  0.00     0.010 A 
ATOM     40  C   UNL A   1      38.872  29.408  28.363  1.00  0.00     0.010 A 
ATOM     41  C   UNL A   1      39.253  28.531  29.386  1.00  0.00    -0.014 A 
BRANCH  41  42
ATOM     42  C   UNL A   1      40.647  28.097  29.396  1.00  0.00     0.031 A 
ATOM     43  C   UNL A   1      41.019  26.764  28.874  1.00  0.00     0.074 A 
ATOM     44  C   UNL A   1      41.619  28.934  29.835  1.00  0.00     0.049 A 
ATOM     45  N   UNL A   1      42.150  26.196  29.121  1.00  0.00    -0.248 NA
ATOM     46  C   UNL A   1      40.117  25.922  28.091  1.00  0.00     0.031 C 
ATOM     47  C   UNL A   1      43.065  28.781  29.669  1.00  0.00     0.029 A 
ATOM     48  N   UNL A   1      41.492  29.982  30.762  1.00  0.00    -0.354 N 
ATOM     49  C   UNL A   1      42.250  25.108  28.297  1.00  0.00     0.074 A 
ATOM     50  C   UNL A   1      40.920  24.897  27.785  1.00  0.00     0.031 C 
ATOM     51  C   UNL A   1      43.685  29.435  30.660  1.00  0.00     0.029 A 
ATOM     52  C   UNL A   1      42.661  29.929  31.561  1.00  0.00     0.049 A 
ATOM     53  H   UNL A   1      40.746  30.621  30.839  1.00  0.00     0.167 HD
ATOM     54  C   UNL A   1      43.479  24.589  28.038  1.00  0.00     0.037 A 
ATOM     55  C   UNL A   1      42.591  29.667  32.898  1.00  0.00     0.037 A 
ATOM     56  C   UNL A   1      44.473  25.036  29.011  1.00  0.00     0.049 A 
ATOM     57  C   UNL A   1      43.295  28.399  33.336  1.00  0.00     0.074 A 
ATOM     58  C   UNL A   1      45.590  25.850  28.994  1.00  0.00     0.029 A 
ATOM     59  N   UNL A   1      44.225  24.758  30.346  1.00  0.00    -0.354 N 
ATOM     60  N   UNL A   1      43.956  27.603  32.539  1.00  0.00    -0.248 NA
ATOM     61  C   UNL A   1      43.215  27.872  34.702  1.00  0.00     0.031 C 
ATOM     62  C   UNL A   1      45.950  26.128  30.352  1.00  0.00     0.029 A 
ATOM     63  C   UNL A   1      45.074  25.450  31.182  1.00  0.00     0.049 A 
ATOM     64  H   UNL A   1      43.527  24.140  30.660  1.00  0.00     0.167 HD
ATOM     65  C   UNL A   1      44.282  26.459  33.216  1.00  0.00     0.074 A 
ATOM     66  C   UNL A   1      43.823  26.681  34.574  1.00  0.00     0.031 C 
ATOM     67  C   UNL A   1      44.843  25.373  32.615  1.00  0.00     0.037 A 
BRANCH  54  68
ATOM     68  C   UNL A   1      43.796  23.743  26.834  1.00  0.00     0.057 A 
ATOM     69  C   UNL A   1      43.447  22.383  26.806  1.00  0.00     0.134 A 
ATOM     70  C   UNL A   1      44.558  24.177  25.727  1.00  0.00     0.134 A 
ATOM     71  F   UNL A   1      42.758  21.822  27.811  1.00  0.00    -0.206 F 
ATOM     72  C   UNL A   1      43.806  21.529  25.753  1.00  0.00     0.040 A 
ATOM     73  C   UNL A   1      44.871  23.351  24.642  1.00  0.00     0.040 A 
ATOM     74  F   UNL A   1      45.094  25.402  25.664  1.00  0.00    -0.206 F 
ATOM     75  C   UNL A   1      44.504  22.016  24.656  1.00  0.00     0.006 A 
ENDBRANCH  54  68
BRANCH  55  76
ATOM     76  C   UNL A   1      41.377  30.238  33.533  1.00  0.00     0.057 A 
ATOM     77  C   UNL A   1      41.364  31.611  33.838  1.00  0.00     0.134 A 
ATOM     78  C   UNL A   1      40.147  29.580  33.507  1.00  0.00     0.134 A 
ATOM     79  F   UNL A   1      42.515  32.301  33.887  1.00  0.00    -0.206 F 
ATOM     80  C   UNL A   1      40.172  32.321  33.991  1.00  0.00     0.040 A 
ATOM     81  C   UNL A   1      38.946  30.277  33.676  1.00  0.00     0.040 A 
ATOM     82  F   UNL A   1      40.076  28.276  33.199  1.00  0.00    -0.206 F 
ATOM     83  C   UNL A   1      38.955  31.657  33.876  1.00  0.00     0.006 A 
ENDBRANCH  55  76
BRANCH  67  84
ATOM     84  C   UNL A   1      45.177  24.123  33.368  1.00  0.00     0.057 A 
ATOM     85  C   UNL A   1      44.241  23.096  33.547  1.00  0.00     0.134 A 
ATOM     86  C   UNL A   1      46.405  23.967  34.036  1.00  0.00     0.134 A 
ATOM     87  F   UNL A   1      43.035  23.157  32.962  1.00  0.00    -0.206 F 
ATOM     88  C   UNL A   1      44.511  21.979  34.345  1.00  0.00     0.040 A 
ATOM     89  C   UNL A   1      46.671  22.877  34.868  1.00  0.00     0.040 A 
ATOM     90  F   UNL A   1      47.396  24.860  33.888  1.00  0.00    -0.206 F 
ATOM     91  C   UNL A   1      45.721  21.876  35.023  1.00  0.00     0.006 A 
ENDBRANCH  67  84
ENDBRANCH  41  42
ENDBRANCH  33  36
ENDBRANCH  31  32
ENDBRANCH  30  31
ENDBRANCH   1  30
TORSDOF 13
ENDMDL
MODEL 2
REMARK VINA RESULT:     -13.4      2.003      3.329
REMARK SMILES Cc1cccc(CC(=O)N2CCC3(CCC(=O)N([C@H](C)C(=O)NCCCNC(=O)c4ccc(-c5c6nc(c(-c7c(F)cccc7F)c7ccc([nH]7)c(-c7c(F)cccc7F)c7nc(c(-c8c(F)cccc8F)c8ccc5[nH]8)C=C7)C=C6)cc4)C3)CC2)c1
REMARK SMILES IDX 24 1 23 2 21 3 22 4 19 6 20 7 18 8 8 9 9 10 10 11 11 12
REMARK SMILES IDX 86 13 12 14 85 15 13 16 14 17 84 18 15 19 16 20 17 21 7 22
REMARK SMILES IDX 6 23 1 24 2 25 3 26 87 27 4 28 5 29 25 30 26 31 27 32 28 33
REMARK SMILES IDX 29 35 30 36 31 37 83 38 32 39 82 40 33 41 34 42 35 43 76 44
REMARK SMILES IDX 36 45 81 46 75 47 77 48 37 49 80 50 74 51 73 52 38 54 64 55
REMARK SMILES IDX 47 56 63 57 48 58 51 59 62 60 78 61 49 62 50 63 61 65 79 66
REMARK SMILES IDX 52 67 39 68 40 69 45 70 41 71 42 72 44 73 46 74 43 75 65 76
REMARK SMILES IDX 66 77 71 78 67 79 68 80 70 81 72 82 69 83 53 84 54 85 59 86
REMARK SMILES IDX 55 87 56 88 58 89 60 90 57 91
REMARK H PARENT 23 5 27 34 77 53 51 64
REMARK Flexibility Score: inf
ROOT
ATOM      1  C   UNL A   1      34.403  29.289  26.741  1.00  0.00     0.117 C 
ENDROOT
BRANCH   1   2
ATOM      2  N   UNL A   1      33.385  28.651  27.558  1.00  0.00    -0.354 N 
ATOM      3  C   UNL A   1      32.115  28.274  27.211  1.00  0.00     0.242 C 
ATOM      4  O   UNL A   1      31.487  27.571  28.009  1.00  0.00    -0.273 OA
ATOM      5  H   UNL A   1      33.645  28.462  28.488  1.00  0.00     0.163 HD
BRANCH   3   6
ATOM      6  C   UNL A   1      31.434  28.795  25.917  1.00  0.00     0.171 C 
ATOM      7  C   UNL A   1      31.820  30.255  25.647  1.00  0.00     0.042 C 
BRANCH   6   8
ATOM      8  N   UNL A   1      31.485  27.972  24.690  1.00  0.00    -0.330 N 
ATOM      9  C   UNL A   1      34.876  22.378  24.819  1.00  0.00     0.226 C 
ATOM     10  O   UNL A   1      34.711  21.633  25.795  1.00  0.00    -0.275 OA
ATOM     11  N   UNL A   1      33.838  23.183  24.373  1.00  0.00    -0.342 N 
ATOM     12  C   UNL A   1      32.712  23.473  25.257  1.00  0.00     0.120 C 
ATOM     13  C   UNL A   1      33.711  23.786  23.058  1.00  0.00     0.120 C 
ATOM     14  C   UNL A   1      32.535  24.995  25.405  1.00  0.00     0.030 C 
ATOM     15  C   UNL A   1      33.733  25.296  23.200  1.00  0.00     0.030 C 
ATOM     16  C   UNL A   1      32.534  25.776  24.055  1.00  0.00    -0.008 C 
ATOM     17  C   UNL A   1      31.240  25.527  23.235  1.00  0.00     0.019 C 
ATOM     18  C   UNL A   1      32.715  27.291  24.321  1.00  0.00     0.127 C 
ATOM     19  C   UNL A   1      30.050  26.310  23.733  1.00  0.00     0.101 C 
ATOM     20  C   UNL A   1      30.393  27.770  23.873  1.00  0.00     0.223 C 
ATOM     21  O   UNL A   1      29.667  28.655  23.439  1.00  0.00    -0.275 OA
BRANCH   9  22
ATOM     22  C   UNL A   1      36.297  22.559  24.281  1.00  0.00     0.135 C 
BRANCH  22  23
ATOM     23  C   UNL A   1      37.450  22.614  25.248  1.00  0.00    -0.038 A 
ATOM     24  C   UNL A   1      39.169  25.232  27.434  1.00  0.00     0.044 C 
ATOM     25  C   UNL A   1      38.852  23.935  26.751  1.00  0.00    -0.051 A 
ATOM     26  C   UNL A   1      39.735  22.854  26.850  1.00  0.00     0.003 A 
ATOM     27  C   UNL A   1      37.700  23.798  25.969  1.00  0.00     0.007 A 
ATOM     28  C   UNL A   1      39.468  21.656  26.183  1.00  0.00     0.001 A 
ATOM     29  C   UNL A   1      38.329  21.533  25.386  1.00  0.00     0.004 A 
ENDBRANCH  22  23
ENDBRANCH   9  22
ENDBRANCH   6   8
ENDBRANCH   3   6
ENDBRANCH   1   2
BRANCH   1  30
ATOM     30  C   UNL A   1      35.707  29.533  27.467  1.00  0.00     0.042 C 
BRANCH  30  31
ATOM     31  C   UNL A   1      35.492  30.245  28.786  1.00  0.00     0.118 C 
BRANCH  31  32
ATOM     32  N   UNL A   1      34.539  31.357  28.729  1.00  0.00    -0.352 N 
ATOM     33  C   UNL A   1      34.699  32.645  29.224  1.00  0.00     0.251 C 
ATOM     34  H   UNL A   1      33.681  31.168  28.286  1.00  0.00     0.163 HD
ATOM     35  O   UNL A   1      33.851  33.505  29.044  1.00  0.00    -0.269 OA
BRANCH  33  36
ATOM     36  C   UNL A   1      35.995  32.983  29.857  1.00  0.00     0.039 A 
ATOM     37  C   UNL A   1      36.975  33.561  29.048  1.00  0.00     0.014 A 
ATOM     38  C   UNL A   1      36.327  32.407  31.079  1.00  0.00     0.014 A 
ATOM     39  C   UNL A   1      38.311  33.293  29.325  1.00  0.00     0.010 A 
ATOM     40  C   UNL A   1      37.640  32.029  31.280  1.00  0.00     0.010 A 
ATOM     41  C   UNL A   1      38.621  32.405  30.353  1.00  0.00    -0.014 A 
BRANCH  41  42
ATOM     42  C   UNL A   1      39.901  31.707  30.431  1.00  0.00     0.031 A 
ATOM     43  C   UNL A   1      40.051  30.354  29.855  1.00  0.00     0.074 A 
ATOM     44  C   UNL A   1      40.977  32.315  30.987  1.00  0.00     0.049 A 
ATOM     45  N   UNL A   1      41.029  29.564  30.143  1.00  0.00    -0.248 NA
ATOM     46  C   UNL A   1      39.069  29.742  28.960  1.00  0.00     0.031 C 
ATOM     47  C   UNL A   1      42.375  31.890  30.912  1.00  0.00     0.029 A 
ATOM     48  N   UNL A   1      40.980  33.323  31.967  1.00  0.00    -0.354 N 
ATOM     49  C   UNL A   1      40.984  28.518  29.261  1.00  0.00     0.074 A 
ATOM     50  C   UNL A   1      39.683  28.596  28.647  1.00  0.00     0.031 C 
ATOM     51  C   UNL A   1      43.029  32.362  31.982  1.00  0.00     0.029 A 
ATOM     52  C   UNL A   1      42.050  33.003  32.840  1.00  0.00     0.049 A 
ATOM     53  H   UNL A   1      40.367  34.090  32.033  1.00  0.00     0.167 HD
ATOM     54  C   UNL A   1      42.107  27.782  29.055  1.00  0.00     0.037 A 
ATOM     55  C   UNL A   1      41.826  32.697  34.149  1.00  0.00     0.037 A 
ATOM     56  C   UNL A   1      43.088  27.978  30.120  1.00  0.00     0.049 A 
ATOM     57  C   UNL A   1      42.237  31.296  34.555  1.00  0.00     0.074 A 
ATOM     58  C   UNL A   1      44.338  28.558  30.230  1.00  0.00     0.029 A 
ATOM     59  N   UNL A   1      42.687  27.691  31.415  1.00  0.00    -0.354 N 
ATOM     60  N   UNL A   1      42.794  30.425  33.757  1.00  0.00    -0.248 NA
ATOM     61  C   UNL A   1      41.948  30.730  35.877  1.00  0.00     0.031 C 
ATOM     62  C   UNL A   1      44.635  28.695  31.624  1.00  0.00     0.029 A 
ATOM     63  C   UNL A   1      43.583  28.162  32.349  1.00  0.00     0.049 A 
ATOM     64  H   UNL A   1      41.860  27.207  31.641  1.00  0.00     0.167 HD
ATOM     65  C   UNL A   1      42.840  29.208  34.383  1.00  0.00     0.074 A 
ATOM     66  C   UNL A   1      42.326  29.451  35.717  1.00  0.00     0.031 C 
ATOM     67  C   UNL A   1      43.228  28.064  33.755  1.00  0.00     0.037 A 
BRANCH  54  68
ATOM     68  C   UNL A   1      42.351  26.949  27.825  1.00  0.00     0.057 A 
ATOM     69  C   UNL A   1      42.647  25.579  27.938  1.00  0.00     0.134 A 
ATOM     70  C   UNL A   1      42.437  27.462  26.513  1.00  0.00     0.134 A 
ATOM     71  F   UNL A   1      42.643  24.964  29.130  1.00  0.00    -0.206 F 
ATOM     72  C   UNL A   1      42.978  24.782  26.833  1.00  0.00     0.040 A 
ATOM     73  C   UNL A   1      42.708  26.665  25.395  1.00  0.00     0.040 A 
ATOM     74  F   UNL A   1      42.329  28.770  26.248  1.00  0.00    -0.206 F 
ATOM     75  C   UNL A   1      42.991  25.319  25.553  1.00  0.00     0.006 A 
ENDBRANCH  54  68
BRANCH  55  76
ATOM     76  C   UNL A   1      40.697  33.463  34.735  1.00  0.00     0.057 A 
ATOM     77  C   UNL A   1      39.443  32.835  34.836  1.00  0.00     0.134 A 
ATOM     78  C   UNL A   1      40.898  34.611  35.503  1.00  0.00     0.134 A 
ATOM     79  F   UNL A   1      39.182  31.731  34.117  1.00  0.00    -0.206 F 
ATOM     80  C   UNL A   1      38.478  33.258  35.751  1.00  0.00     0.040 A 
ATOM     81  C   UNL A   1      39.932  35.055  36.412  1.00  0.00     0.040 A 
ATOM     82  F   UNL A   1      42.077  35.251  35.480  1.00  0.00    -0.206 F 
ATOM     83  C   UNL A   1      38.736  34.355  36.567  1.00  0.00     0.006 A 
ENDBRANCH  55  76
BRANCH  67  84
ATOM     84  C   UNL A   1      43.256  26.738  34.450  1.00  0.00     0.057 A 
ATOM     85  C   UNL A   1      44.455  26.052  34.685  1.00  0.00     0.134 A 
ATOM     86  C   UNL A   1      42.075  26.057  34.792  1.00  0.00     0.134 A 
ATOM     87  F   UNL A   1      45.636  26.611  34.380  1.00  0.00    -0.206 F 
ATOM     88  C   UNL A   1      44.477  24.764  35.230  1.00  0.00     0.040 A 
ATOM     89  C   UNL A   1      42.081  24.755  35.299  1.00  0.00     0.040 A 
ATOM     90  F   UNL A   1      40.873  26.641  34.665  1.00  0.00    -0.206 F 
ATOM     91  C   UNL A   1      43.287  24.104  35.521  1.00  0.00     0.006 A 
ENDBRANCH  67  84
ENDBRANCH  41  42
ENDBRANCH  33  36
ENDBRANCH  31  32
ENDBRANCH  30  31
ENDBRANCH   1  30
TORSDOF 13
ENDMDL
MODEL 3
REMARK VINA RESULT:     -13.4      2.959      8.505
REMARK SMILES Cc1cccc(CC(=O)N2CCC3(CCC(=O)N([C@H](C)C(=O)NCCCNC(=O)c4ccc(-c5c6nc(c(-c7c(F)cccc7F)c7ccc([nH]7)c(-c7c(F)cccc7F)c7nc(c(-c8c(F)cccc8F)c8ccc5[nH]8)C=C7)C=C6)cc4)C3)CC2)c1
REMARK SMILES IDX 24 1 23 2 21 3 22 4 19 6 20 7 18 8 8 9 9 10 10 11 11 12
REMARK SMILES IDX 86 13 12 14 85 15 13 16 14 17 84 18 15 19 16 20 17 21 7 22
REMARK SMILES IDX 6 23 1 24 2 25 3 26 87 27 4 28 5 29 25 30 26 31 27 32 28 33
REMARK SMILES IDX 29 35 30 36 31 37 83 38 32 39 82 40 33 41 34 42 35 43 76 44
REMARK SMILES IDX 36 45 81 46 75 47 77 48 37 49 80 50 74 51 73 52 38 54 64 55
REMARK SMILES IDX 47 56 63 57 48 58 51 59 62 60 78 61 49 62 50 63 61 65 79 66
REMARK SMILES IDX 52 67 39 68 40 69 45 70 41 71 42 72 44 73 46 74 43 75 65 76
REMARK SMILES IDX 66 77 71 78 67 79 68 80 70 81 72 82 69 83 53 84 54 85 59 86
REMARK SMILES IDX 55 87 56 88 58 89 60 90 57 91
REMARK H PARENT 23 5 27 34 77 53 51 64
REMARK Flexibility Score: inf
ROOT
ATOM      1  C   UNL A   1      38.078  21.621  25.371  1.00  0.00     0.117 C 
ENDROOT
BRANCH   1   2
ATOM      2  N   UNL A   1      37.405  22.095  24.175  1.00  0.00    -0.354 N 
ATOM      3  C   UNL A   1      36.111  22.517  24.025  1.00  0.00     0.242 C 
ATOM      4  O   UNL A   1      35.804  23.061  22.960  1.00  0.00    -0.273 OA
ATOM      5  H   UNL A   1      37.955  22.117  23.359  1.00  0.00     0.163 HD
BRANCH   3   6
ATOM      6  C   UNL A   1      35.029  22.229  25.101  1.00  0.00     0.171 C 
ATOM      7  C   UNL A   1      35.347  22.970  26.406  1.00  0.00     0.042 C 
BRANCH   6   8
ATOM      8  N   UNL A   1      33.600  22.335  24.739  1.00  0.00    -0.330 N 
ATOM      9  C   UNL A   1      31.278  28.157  22.861  1.00  0.00     0.226 C 
ATOM     10  O   UNL A   1      31.949  28.802  22.043  1.00  0.00    -0.275 OA
ATOM     11  N   UNL A   1      31.298  26.770  22.839  1.00  0.00    -0.342 N 
ATOM     12  C   UNL A   1      32.385  26.069  22.160  1.00  0.00     0.120 C 
ATOM     13  C   UNL A   1      30.307  25.879  23.417  1.00  0.00     0.120 C 
ATOM     14  C   UNL A   1      33.076  25.096  23.133  1.00  0.00     0.030 C 
ATOM     15  C   UNL A   1      30.959  25.057  24.514  1.00  0.00     0.030 C 
ATOM     16  C   UNL A   1      32.095  24.182  23.930  1.00  0.00    -0.008 C 
ATOM     17  C   UNL A   1      31.442  23.099  23.030  1.00  0.00     0.019 C 
ATOM     18  C   UNL A   1      32.839  23.515  25.114  1.00  0.00     0.127 C 
ATOM     19  C   UNL A   1      32.351  21.931  22.734  1.00  0.00     0.101 C 
ATOM     20  C   UNL A   1      32.936  21.374  24.006  1.00  0.00     0.223 C 
ATOM     21  O   UNL A   1      32.948  20.174  24.247  1.00  0.00    -0.275 OA
BRANCH   9  22
ATOM     22  C   UNL A   1      30.631  28.915  24.022  1.00  0.00     0.135 C 
BRANCH  22  23
ATOM     23  C   UNL A   1      31.368  29.029  25.330  1.00  0.00    -0.038 A 
ATOM     24  C   UNL A   1      33.260  31.720  27.271  1.00  0.00     0.044 C 
ATOM     25  C   UNL A   1      32.668  30.398  26.881  1.00  0.00    -0.051 A 
ATOM     26  C   UNL A   1      32.972  29.247  27.616  1.00  0.00     0.003 A 
ATOM     27  C   UNL A   1      31.845  30.285  25.755  1.00  0.00     0.007 A 
ATOM     28  C   UNL A   1      32.459  28.006  27.234  1.00  0.00     0.001 A 
ATOM     29  C   UNL A   1      31.657  27.894  26.097  1.00  0.00     0.004 A 
ENDBRANCH  22  23
ENDBRANCH   9  22
ENDBRANCH   6   8
ENDBRANCH   3   6
ENDBRANCH   1   2
BRANCH   1  30
ATOM     30  C   UNL A   1      38.801  22.704  26.138  1.00  0.00     0.042 C 
BRANCH  30  31
ATOM     31  C   UNL A   1      40.046  22.177  26.820  1.00  0.00     0.118 C 
BRANCH  31  32
ATOM     32  N   UNL A   1      40.779  21.166  26.051  1.00  0.00    -0.352 N 
ATOM     33  C   UNL A   1      42.150  20.952  26.013  1.00  0.00     0.251 C 
ATOM     34  H   UNL A   1      40.232  20.569  25.493  1.00  0.00     0.163 HD
ATOM     35  O   UNL A   1      42.630  20.022  25.383  1.00  0.00    -0.269 OA
BRANCH  33  36
ATOM     36  C   UNL A   1      43.005  21.802  26.874  1.00  0.00     0.039 A 
ATOM     37  C   UNL A   1      42.806  21.724  28.254  1.00  0.00     0.014 A 
ATOM     38  C   UNL A   1      43.685  22.877  26.310  1.00  0.00     0.014 A 
ATOM     39  C   UNL A   1      43.025  22.861  29.023  1.00  0.00     0.010 A 
ATOM     40  C   UNL A   1      43.775  24.042  27.045  1.00  0.00     0.010 A 
ATOM     41  C   UNL A   1      43.365  24.052  28.385  1.00  0.00    -0.014 A 
BRANCH  41  42
ATOM     42  C   UNL A   1      43.164  25.361  29.001  1.00  0.00     0.031 A 
ATOM     43  C   UNL A   1      42.035  26.219  28.583  1.00  0.00     0.074 A 
ATOM     44  C   UNL A   1      43.982  25.777  29.998  1.00  0.00     0.049 A 
ATOM     45  N   UNL A   1      41.966  27.480  28.847  1.00  0.00    -0.248 NA
ATOM     46  C   UNL A   1      40.920  25.747  27.764  1.00  0.00     0.031 C 
ATOM     47  C   UNL A   1      43.777  26.911  30.900  1.00  0.00     0.029 A 
ATOM     48  N   UNL A   1      45.315  25.397  30.228  1.00  0.00    -0.354 N 
ATOM     49  C   UNL A   1      40.701  27.895  28.533  1.00  0.00     0.074 A 
ATOM     50  C   UNL A   1      40.139  26.832  27.739  1.00  0.00     0.031 C 
ATOM     51  C   UNL A   1      44.970  27.342  31.332  1.00  0.00     0.029 A 
ATOM     52  C   UNL A   1      45.985  26.579  30.631  1.00  0.00     0.049 A 
ATOM     53  H   UNL A   1      45.702  24.497  30.130  1.00  0.00     0.167 HD
ATOM     54  C   UNL A   1      40.225  29.038  29.094  1.00  0.00     0.037 A 
ATOM     55  C   UNL A   1      46.995  27.108  29.883  1.00  0.00     0.037 A 
ATOM     56  C   UNL A   1      41.300  29.863  29.639  1.00  0.00     0.049 A 
ATOM     57  C   UNL A   1      46.726  28.496  29.339  1.00  0.00     0.074 A 
ATOM     58  C   UNL A   1      41.716  30.254  30.898  1.00  0.00     0.029 A 
ATOM     59  N   UNL A   1      42.298  30.265  28.766  1.00  0.00    -0.354 N 
ATOM     60  N   UNL A   1      45.640  29.185  29.568  1.00  0.00    -0.248 NA
ATOM     61  C   UNL A   1      47.625  29.174  28.400  1.00  0.00     0.031 C 
ATOM     62  C   UNL A   1      43.028  30.816  30.770  1.00  0.00     0.029 A 
ATOM     63  C   UNL A   1      43.380  30.798  29.431  1.00  0.00     0.049 A 
ATOM     64  H   UNL A   1      42.241  30.181  27.788  1.00  0.00     0.167 HD
ATOM     65  C   UNL A   1      45.635  30.293  28.764  1.00  0.00     0.074 A 
ATOM     66  C   UNL A   1      46.908  30.262  28.071  1.00  0.00     0.031 C 
ATOM     67  C   UNL A   1      44.567  31.132  28.661  1.00  0.00     0.037 A 
BRANCH  54  68
ATOM     68  C   UNL A   1      38.761  29.360  29.229  1.00  0.00     0.057 A 
ATOM     69  C   UNL A   1      38.108  29.205  30.464  1.00  0.00     0.134 A 
ATOM     70  C   UNL A   1      37.912  29.701  28.154  1.00  0.00     0.134 A 
ATOM     71  F   UNL A   1      38.781  28.844  31.566  1.00  0.00    -0.206 F 
ATOM     72  C   UNL A   1      36.727  29.396  30.620  1.00  0.00     0.040 A 
ATOM     73  C   UNL A   1      36.544  29.952  28.308  1.00  0.00     0.040 A 
ATOM     74  F   UNL A   1      38.345  29.746  26.888  1.00  0.00    -0.206 F 
ATOM     75  C   UNL A   1      35.942  29.789  29.544  1.00  0.00     0.006 A 
ENDBRANCH  54  68
BRANCH  55  76
ATOM     76  C   UNL A   1      47.821  26.070  29.215  1.00  0.00     0.057 A 
ATOM     77  C   UNL A   1      47.535  25.746  27.877  1.00  0.00     0.134 A 
ATOM     78  C   UNL A   1      49.063  25.675  29.715  1.00  0.00     0.134 A 
ATOM     79  F   UNL A   1      46.354  26.091  27.338  1.00  0.00    -0.206 F 
ATOM     80  C   UNL A   1      48.488  25.165  27.039  1.00  0.00     0.040 A 
ATOM     81  C   UNL A   1      50.021  25.076  28.889  1.00  0.00     0.040 A 
ATOM     82  F   UNL A   1      49.419  25.971  30.974  1.00  0.00    -0.206 F 
ATOM     83  C   UNL A   1      49.749  24.858  27.539  1.00  0.00     0.006 A 
ENDBRANCH  55  76
BRANCH  67  84
ATOM     84  C   UNL A   1      44.572  32.331  27.765  1.00  0.00     0.057 A 
ATOM     85  C   UNL A   1      44.118  32.266  26.441  1.00  0.00     0.134 A 
ATOM     86  C   UNL A   1      45.144  33.551  28.165  1.00  0.00     0.134 A 
ATOM     87  F   UNL A   1      43.568  31.140  25.959  1.00  0.00    -0.206 F 
ATOM     88  C   UNL A   1      44.227  33.352  25.566  1.00  0.00     0.040 A 
ATOM     89  C   UNL A   1      45.295  34.630  27.290  1.00  0.00     0.040 A 
ATOM     90  F   UNL A   1      45.558  33.746  29.426  1.00  0.00    -0.206 F 
ATOM     91  C   UNL A   1      44.834  34.532  25.984  1.00  0.00     0.006 A 
ENDBRANCH  67  84
ENDBRANCH  41  42
ENDBRANCH  33  36
ENDBRANCH  31  32
ENDBRANCH  30  31
ENDBRANCH   1  30
TORSDOF 13
ENDMDL
