MODEL 1
REMARK VINA RESULT:     -12.9      0.000      0.000
REMARK SMILES Cc1c(CC(=O)NCCCNC(=O)c2ccc(-c3c4nc(c(-c5c(F)cccc5F)c5ccc([nH]5)c(-c5c(F)cccc5F)c5nc(c(-c6c(F)cccc6F)c6ccc3[nH]6)C=C5)C=C4)cc2)c2ccccc2n1C(=O)c1ccc(Cl)cc1
REMARK SMILES IDX 8 1 7 2 5 3 6 4 4 6 3 7 1 8 2 9 74 10 68 11 73 12 69 13
REMARK SMILES IDX 72 14 70 15 71 16 75 17 76 18 77 19 78 20 83 21 79 22 82 23
REMARK SMILES IDX 80 24 81 25 9 26 10 27 11 28 12 29 13 31 14 32 15 33 67 34
REMARK SMILES IDX 16 35 66 36 17 37 18 38 19 39 60 40 20 41 65 42 59 43 61 44
REMARK SMILES IDX 21 45 64 46 58 47 57 48 22 50 48 51 31 52 47 53 32 54 35 55
REMARK SMILES IDX 46 56 62 57 33 58 34 59 45 61 63 62 36 63 23 64 24 65 29 66
REMARK SMILES IDX 25 67 26 68 28 69 30 70 27 71 49 72 50 73 55 74 51 75 52 76
REMARK SMILES IDX 54 77 56 78 53 79 37 80 38 81 43 82 39 83 40 84 42 85 44 86
REMARK SMILES IDX 41 87
REMARK H PARENT 7 5 11 30 61 49 35 60
REMARK Flexibility Score: inf
ROOT
ATOM      1  C   UNL A   1      36.066  22.543  23.968  1.00  0.00     0.117 C 
ENDROOT
BRANCH   1   2
ATOM      2  N   UNL A   1      35.159  22.757  25.081  1.00  0.00    -0.356 N 
ATOM      3  C   UNL A   1      34.333  23.816  25.331  1.00  0.00     0.224 C 
ATOM      4  O   UNL A   1      33.620  23.770  26.337  1.00  0.00    -0.275 OA
ATOM      5  H   UNL A   1      35.137  22.037  25.753  1.00  0.00     0.163 HD
BRANCH   3   6
ATOM      6  C   UNL A   1      34.270  24.990  24.367  1.00  0.00     0.138 C 
BRANCH   6   7
ATOM      7  C   UNL A   1      33.071  25.868  24.588  1.00  0.00    -0.010 A 
ATOM      8  C   UNL A   1      31.302  24.648  23.126  1.00  0.00     0.065 C 
ATOM      9  C   UNL A   1      31.802  25.719  24.047  1.00  0.00     0.028 A 
ATOM     10  N   UNL A   1      31.005  26.799  24.452  1.00  0.00    -0.280 N 
ATOM     11  C   UNL A   1      33.035  27.011  25.436  1.00  0.00     0.004 A 
ATOM     12  C   UNL A   1      31.740  27.538  25.395  1.00  0.00     0.056 A 
ATOM     13  C   UNL A   1      34.009  27.628  26.254  1.00  0.00     0.010 A 
ATOM     14  C   UNL A   1      31.403  28.628  26.228  1.00  0.00     0.027 A 
ATOM     15  C   UNL A   1      33.685  28.752  27.013  1.00  0.00     0.001 A 
ATOM     16  C   UNL A   1      32.390  29.239  27.006  1.00  0.00     0.002 A 
BRANCH  10  17
ATOM     17  C   UNL A   1      29.692  27.086  23.975  1.00  0.00     0.262 C 
ATOM     18  O   UNL A   1      28.767  26.329  24.285  1.00  0.00    -0.268 OA
BRANCH  17  19
ATOM     19  C   UNL A   1      29.322  28.227  23.126  1.00  0.00     0.040 A 
ATOM     20  C   UNL A   1      30.288  28.913  22.383  1.00  0.00     0.015 A 
ATOM     21  C   UNL A   1      27.983  28.629  23.106  1.00  0.00     0.015 A 
ATOM     22  C   UNL A   1      29.922  30.070  21.691  1.00  0.00     0.021 A 
ATOM     23  C   UNL A   1      27.621  29.779  22.406  1.00  0.00     0.021 A 
ATOM     24  C   UNL A   1      28.596  30.506  21.720  1.00  0.00     0.041 A 
ATOM     25  Cl  UNL A   1      28.162  31.969  20.926  1.00  0.00    -0.084 Cl
ENDBRANCH  17  19
ENDBRANCH  10  17
ENDBRANCH   6   7
ENDBRANCH   3   6
ENDBRANCH   1   2
BRANCH   1  26
ATOM     26  C   UNL A   1      37.280  21.685  24.343  1.00  0.00     0.042 C 
BRANCH  26  27
ATOM     27  C   UNL A   1      37.857  22.005  25.724  1.00  0.00     0.118 C 
BRANCH  27  28
ATOM     28  N   UNL A   1      39.292  21.814  25.805  1.00  0.00    -0.352 N 
ATOM     29  C   UNL A   1      40.356  22.482  26.335  1.00  0.00     0.251 C 
ATOM     30  H   UNL A   1      39.573  20.981  25.360  1.00  0.00     0.163 HD
ATOM     31  O   UNL A   1      41.444  21.909  26.222  1.00  0.00    -0.269 OA
BRANCH  29  32
ATOM     32  C   UNL A   1      40.329  23.824  26.979  1.00  0.00     0.039 A 
ATOM     33  C   UNL A   1      39.404  24.838  26.740  1.00  0.00     0.014 A 
ATOM     34  C   UNL A   1      41.385  24.082  27.880  1.00  0.00     0.014 A 
ATOM     35  C   UNL A   1      39.578  26.095  27.326  1.00  0.00     0.010 A 
ATOM     36  C   UNL A   1      41.557  25.329  28.470  1.00  0.00     0.010 A 
ATOM     37  C   UNL A   1      40.677  26.355  28.157  1.00  0.00    -0.014 A 
BRANCH  37  38
ATOM     38  C   UNL A   1      40.814  27.691  28.740  1.00  0.00     0.031 A 
ATOM     39  C   UNL A   1      42.031  28.440  28.317  1.00  0.00     0.074 A 
ATOM     40  C   UNL A   1      39.890  28.284  29.529  1.00  0.00     0.049 A 
ATOM     41  N   UNL A   1      43.036  28.802  29.047  1.00  0.00    -0.248 NA
ATOM     42  C   UNL A   1      42.201  28.728  26.885  1.00  0.00     0.031 C 
ATOM     43  C   UNL A   1      38.527  27.843  29.834  1.00  0.00     0.029 A 
ATOM     44  N   UNL A   1      39.974  29.479  30.186  1.00  0.00    -0.354 N 
ATOM     45  C   UNL A   1      43.891  29.516  28.209  1.00  0.00     0.074 A 
ATOM     46  C   UNL A   1      43.392  29.329  26.871  1.00  0.00     0.031 C 
ATOM     47  C   UNL A   1      37.850  28.852  30.431  1.00  0.00     0.029 A 
ATOM     48  C   UNL A   1      38.766  29.951  30.685  1.00  0.00     0.049 A 
ATOM     49  H   UNL A   1      40.822  29.966  30.296  1.00  0.00     0.167 HD
ATOM     50  C   UNL A   1      44.831  30.366  28.709  1.00  0.00     0.037 A 
ATOM     51  C   UNL A   1      38.529  31.169  31.236  1.00  0.00     0.037 A 
ATOM     52  C   UNL A   1      45.097  30.094  30.098  1.00  0.00     0.049 A 
ATOM     53  C   UNL A   1      39.830  31.729  31.673  1.00  0.00     0.074 A 
ATOM     54  C   UNL A   1      45.579  29.012  30.810  1.00  0.00     0.029 A 
ATOM     55  N   UNL A   1      44.545  30.930  31.037  1.00  0.00    -0.354 N 
ATOM     56  N   UNL A   1      40.525  31.262  32.670  1.00  0.00    -0.248 NA
ATOM     57  C   UNL A   1      40.573  32.536  30.716  1.00  0.00     0.031 C 
ATOM     58  C   UNL A   1      44.842  29.019  32.032  1.00  0.00     0.029 A 
ATOM     59  C   UNL A   1      44.003  30.133  32.009  1.00  0.00     0.049 A 
ATOM     60  H   UNL A   1      44.541  31.914  31.015  1.00  0.00     0.167 HD
ATOM     61  C   UNL A   1      41.840  31.326  32.240  1.00  0.00     0.074 A 
ATOM     62  C   UNL A   1      41.816  32.200  31.068  1.00  0.00     0.031 C 
ATOM     63  C   UNL A   1      42.778  30.447  32.703  1.00  0.00     0.037 A 
BRANCH  50  64
ATOM     64  C   UNL A   1      45.230  31.678  28.071  1.00  0.00     0.057 A 
ATOM     65  C   UNL A   1      46.452  31.891  27.403  1.00  0.00     0.134 A 
ATOM     66  C   UNL A   1      44.238  32.646  27.819  1.00  0.00     0.134 A 
ATOM     67  F   UNL A   1      47.485  31.047  27.505  1.00  0.00    -0.206 F 
ATOM     68  C   UNL A   1      46.648  32.941  26.501  1.00  0.00     0.040 A 
ATOM     69  C   UNL A   1      44.407  33.672  26.882  1.00  0.00     0.040 A 
ATOM     70  F   UNL A   1      43.034  32.568  28.406  1.00  0.00    -0.206 F 
ATOM     71  C   UNL A   1      45.611  33.810  26.204  1.00  0.00     0.006 A 
ENDBRANCH  50  64
BRANCH  51  72
ATOM     72  C   UNL A   1      37.307  32.003  31.157  1.00  0.00     0.057 A 
ATOM     73  C   UNL A   1      36.306  31.915  32.140  1.00  0.00     0.134 A 
ATOM     74  C   UNL A   1      36.957  32.689  29.984  1.00  0.00     0.134 A 
ATOM     75  F   UNL A   1      36.503  31.213  33.265  1.00  0.00    -0.206 F 
ATOM     76  C   UNL A   1      35.031  32.462  31.964  1.00  0.00     0.040 A 
ATOM     77  C   UNL A   1      35.681  33.238  29.793  1.00  0.00     0.040 A 
ATOM     78  F   UNL A   1      37.826  32.786  28.967  1.00  0.00    -0.206 F 
ATOM     79  C   UNL A   1      34.710  33.117  30.781  1.00  0.00     0.006 A 
ENDBRANCH  51  72
BRANCH  63  80
ATOM     80  C   UNL A   1      42.406  29.572  33.865  1.00  0.00     0.057 A 
ATOM     81  C   UNL A   1      42.816  29.946  35.149  1.00  0.00     0.134 A 
ATOM     82  C   UNL A   1      41.781  28.321  33.738  1.00  0.00     0.134 A 
ATOM     83  F   UNL A   1      43.474  31.100  35.339  1.00  0.00    -0.206 F 
ATOM     84  C   UNL A   1      42.601  29.126  36.260  1.00  0.00     0.040 A 
ATOM     85  C   UNL A   1      41.528  27.507  34.847  1.00  0.00     0.040 A 
ATOM     86  F   UNL A   1      41.446  27.830  32.538  1.00  0.00    -0.206 F 
ATOM     87  C   UNL A   1      41.944  27.908  36.113  1.00  0.00     0.006 A 
ENDBRANCH  63  80
ENDBRANCH  37  38
ENDBRANCH  29  32
ENDBRANCH  27  28
ENDBRANCH  26  27
ENDBRANCH   1  26
TORSDOF 13
ENDMDL
MODEL 2
REMARK VINA RESULT:     -12.9      3.186      8.139
REMARK SMILES Cc1c(CC(=O)NCCCNC(=O)c2ccc(-c3c4nc(c(-c5c(F)cccc5F)c5ccc([nH]5)c(-c5c(F)cccc5F)c5nc(c(-c6c(F)cccc6F)c6ccc3[nH]6)C=C5)C=C4)cc2)c2ccccc2n1C(=O)c1ccc(Cl)cc1
REMARK SMILES IDX 8 1 7 2 5 3 6 4 4 6 3 7 1 8 2 9 74 10 68 11 73 12 69 13
REMARK SMILES IDX 72 14 70 15 71 16 75 17 76 18 77 19 78 20 83 21 79 22 82 23
REMARK SMILES IDX 80 24 81 25 9 26 10 27 11 28 12 29 13 31 14 32 15 33 67 34
REMARK SMILES IDX 16 35 66 36 17 37 18 38 19 39 60 40 20 41 65 42 59 43 61 44
REMARK SMILES IDX 21 45 64 46 58 47 57 48 22 50 48 51 31 52 47 53 32 54 35 55
REMARK SMILES IDX 46 56 62 57 33 58 34 59 45 61 63 62 36 63 23 64 24 65 29 66
REMARK SMILES IDX 25 67 26 68 28 69 30 70 27 71 49 72 50 73 55 74 51 75 52 76
REMARK SMILES IDX 54 77 56 78 53 79 37 80 38 81 43 82 39 83 40 84 42 85 44 86
REMARK SMILES IDX 41 87
REMARK H PARENT 7 5 11 30 61 49 35 60
REMARK Flexibility Score: inf
ROOT
ATOM      1  C   UNL A   1      33.265  30.286  26.761  1.00  0.00     0.117 C 
ENDROOT
BRANCH   1   2
ATOM      2  N   UNL A   1      32.478  29.425  27.626  1.00  0.00    -0.356 N 
ATOM      3  C   UNL A   1      31.592  28.440  27.291  1.00  0.00     0.224 C 
ATOM      4  O   UNL A   1      31.053  27.809  28.204  1.00  0.00    -0.275 OA
ATOM      5  H   UNL A   1      32.600  29.571  28.593  1.00  0.00     0.163 HD
BRANCH   3   6
ATOM      6  C   UNL A   1      31.320  28.111  25.832  1.00  0.00     0.138 C 
BRANCH   6   7
ATOM      7  C   UNL A   1      31.898  26.791  25.409  1.00  0.00    -0.010 A 
ATOM      8  C   UNL A   1      34.066  27.575  24.209  1.00  0.00     0.065 C 
ATOM      9  C   UNL A   1      33.074  26.568  24.707  1.00  0.00     0.028 A 
ATOM     10  N   UNL A   1      33.201  25.195  24.455  1.00  0.00    -0.280 N 
ATOM     11  C   UNL A   1      31.331  25.517  25.695  1.00  0.00     0.004 A 
ATOM     12  C   UNL A   1      32.176  24.539  25.159  1.00  0.00     0.056 A 
ATOM     13  C   UNL A   1      30.165  25.121  26.389  1.00  0.00     0.010 A 
ATOM     14  C   UNL A   1      31.895  23.173  25.386  1.00  0.00     0.027 A 
ATOM     15  C   UNL A   1      29.857  23.769  26.539  1.00  0.00     0.001 A 
ATOM     16  C   UNL A   1      30.721  22.806  26.049  1.00  0.00     0.002 A 
BRANCH  10  17
ATOM     17  C   UNL A   1      34.191  24.592  23.626  1.00  0.00     0.262 C 
ATOM     18  O   UNL A   1      34.060  24.655  22.399  1.00  0.00    -0.268 OA
BRANCH  17  19
ATOM     19  C   UNL A   1      35.387  23.883  24.101  1.00  0.00     0.040 A 
ATOM     20  C   UNL A   1      36.036  22.944  23.291  1.00  0.00     0.015 A 
ATOM     21  C   UNL A   1      35.843  24.149  25.396  1.00  0.00     0.015 A 
ATOM     22  C   UNL A   1      37.090  22.198  23.822  1.00  0.00     0.021 A 
ATOM     23  C   UNL A   1      36.902  23.407  25.918  1.00  0.00     0.021 A 
ATOM     24  C   UNL A   1      37.506  22.421  25.137  1.00  0.00     0.041 A 
ATOM     25  Cl  UNL A   1      38.757  21.451  25.811  1.00  0.00    -0.084 Cl
ENDBRANCH  17  19
ENDBRANCH  10  17
ENDBRANCH   6   7
ENDBRANCH   3   6
ENDBRANCH   1   2
BRANCH   1  26
ATOM     26  C   UNL A   1      33.315  31.738  27.251  1.00  0.00     0.042 C 
BRANCH  26  27
ATOM     27  C   UNL A   1      34.615  32.100  27.972  1.00  0.00     0.118 C 
BRANCH  27  28
ATOM     28  N   UNL A   1      34.456  32.234  29.408  1.00  0.00    -0.352 N 
ATOM     29  C   UNL A   1      35.193  31.953  30.520  1.00  0.00     0.251 C 
ATOM     30  H   UNL A   1      33.587  32.634  29.641  1.00  0.00     0.163 HD
ATOM     31  O   UNL A   1      34.680  32.298  31.589  1.00  0.00    -0.269 OA
BRANCH  29  32
ATOM     32  C   UNL A   1      36.501  31.244  30.562  1.00  0.00     0.039 A 
ATOM     33  C   UNL A   1      37.762  31.837  30.603  1.00  0.00     0.014 A 
ATOM     34  C   UNL A   1      36.427  29.835  30.505  1.00  0.00     0.014 A 
ATOM     35  C   UNL A   1      38.910  31.044  30.510  1.00  0.00     0.010 A 
ATOM     36  C   UNL A   1      37.567  29.044  30.420  1.00  0.00     0.010 A 
ATOM     37  C   UNL A   1      38.813  29.652  30.375  1.00  0.00    -0.014 A 
BRANCH  37  38
ATOM     38  C   UNL A   1      40.047  28.870  30.277  1.00  0.00     0.031 A 
ATOM     39  C   UNL A   1      40.786  28.699  31.560  1.00  0.00     0.074 A 
ATOM     40  C   UNL A   1      40.479  28.252  29.155  1.00  0.00     0.049 A 
ATOM     41  N   UNL A   1      41.952  29.162  31.875  1.00  0.00    -0.248 NA
ATOM     42  C   UNL A   1      40.097  28.017  32.667  1.00  0.00     0.031 C 
ATOM     43  C   UNL A   1      39.776  28.064  27.884  1.00  0.00     0.029 A 
ATOM     44  N   UNL A   1      41.653  27.585  28.951  1.00  0.00    -0.354 N 
ATOM     45  C   UNL A   1      42.227  28.690  33.158  1.00  0.00     0.074 A 
ATOM     46  C   UNL A   1      41.003  28.103  33.641  1.00  0.00     0.031 C 
ATOM     47  C   UNL A   1      40.443  27.160  27.129  1.00  0.00     0.029 A 
ATOM     48  C   UNL A   1      41.689  26.817  27.792  1.00  0.00     0.049 A 
ATOM     49  H   UNL A   1      42.413  27.643  29.574  1.00  0.00     0.167 HD
ATOM     50  C   UNL A   1      43.499  28.649  33.643  1.00  0.00     0.037 A 
ATOM     51  C   UNL A   1      42.657  25.940  27.422  1.00  0.00     0.037 A 
ATOM     52  C   UNL A   1      44.375  29.509  32.890  1.00  0.00     0.049 A 
ATOM     53  C   UNL A   1      43.887  26.278  28.177  1.00  0.00     0.074 A 
ATOM     54  C   UNL A   1      44.430  30.865  32.631  1.00  0.00     0.029 A 
ATOM     55  N   UNL A   1      45.223  28.930  31.980  1.00  0.00    -0.354 N 
ATOM     56  N   UNL A   1      44.593  27.353  27.972  1.00  0.00    -0.248 NA
ATOM     57  C   UNL A   1      44.086  25.635  29.467  1.00  0.00     0.031 C 
ATOM     58  C   UNL A   1      44.889  30.962  31.283  1.00  0.00     0.029 A 
ATOM     59  C   UNL A   1      45.135  29.667  30.829  1.00  0.00     0.049 A 
ATOM     60  H   UNL A   1      45.787  28.137  32.127  1.00  0.00     0.167 HD
ATOM     61  C   UNL A   1      44.970  27.770  29.238  1.00  0.00     0.074 A 
ATOM     62  C   UNL A   1      44.705  26.627  30.111  1.00  0.00     0.031 C 
ATOM     63  C   UNL A   1      45.197  29.090  29.509  1.00  0.00     0.037 A 
BRANCH  50  64
ATOM     64  C   UNL A   1      44.042  27.558  34.539  1.00  0.00     0.057 A 
ATOM     65  C   UNL A   1      44.326  27.729  35.908  1.00  0.00     0.134 A 
ATOM     66  C   UNL A   1      43.960  26.218  34.112  1.00  0.00     0.134 A 
ATOM     67  F   UNL A   1      44.402  28.936  36.482  1.00  0.00    -0.206 F 
ATOM     68  C   UNL A   1      44.445  26.656  36.796  1.00  0.00     0.040 A 
ATOM     69  C   UNL A   1      44.030  25.139  35.000  1.00  0.00     0.040 A 
ATOM     70  F   UNL A   1      43.711  25.918  32.828  1.00  0.00    -0.206 F 
ATOM     71  C   UNL A   1      44.255  25.358  36.353  1.00  0.00     0.006 A 
ENDBRANCH  50  64
BRANCH  51  72
ATOM     72  C   UNL A   1      42.521  24.663  26.683  1.00  0.00     0.057 A 
ATOM     73  C   UNL A   1      42.022  23.511  27.315  1.00  0.00     0.134 A 
ATOM     74  C   UNL A   1      43.136  24.463  25.438  1.00  0.00     0.134 A 
ATOM     75  F   UNL A   1      41.489  23.574  28.544  1.00  0.00    -0.206 F 
ATOM     76  C   UNL A   1      42.138  22.236  26.753  1.00  0.00     0.040 A 
ATOM     77  C   UNL A   1      43.263  23.189  24.864  1.00  0.00     0.040 A 
ATOM     78  F   UNL A   1      43.687  25.491  24.776  1.00  0.00    -0.206 F 
ATOM     79  C   UNL A   1      42.771  22.070  25.527  1.00  0.00     0.006 A 
ENDBRANCH  51  72
BRANCH  63  80
ATOM     80  C   UNL A   1      45.267  30.041  28.349  1.00  0.00     0.057 A 
ATOM     81  C   UNL A   1      46.523  30.425  27.867  1.00  0.00     0.134 A 
ATOM     82  C   UNL A   1      44.151  30.683  27.790  1.00  0.00     0.134 A 
ATOM     83  F   UNL A   1      47.640  29.900  28.396  1.00  0.00    -0.206 F 
ATOM     84  C   UNL A   1      46.666  31.389  26.866  1.00  0.00     0.040 A 
ATOM     85  C   UNL A   1      44.279  31.624  26.763  1.00  0.00     0.040 A 
ATOM     86  F   UNL A   1      42.916  30.460  28.257  1.00  0.00    -0.206 F 
ATOM     87  C   UNL A   1      45.541  31.982  26.301  1.00  0.00     0.006 A 
ENDBRANCH  63  80
ENDBRANCH  37  38
ENDBRANCH  29  32
ENDBRANCH  27  28
ENDBRANCH  26  27
ENDBRANCH   1  26
TORSDOF 13
ENDMDL
MODEL 3
REMARK VINA RESULT:     -12.7      3.419      8.282
REMARK SMILES Cc1c(CC(=O)NCCCNC(=O)c2ccc(-c3c4nc(c(-c5c(F)cccc5F)c5ccc([nH]5)c(-c5c(F)cccc5F)c5nc(c(-c6c(F)cccc6F)c6ccc3[nH]6)C=C5)C=C4)cc2)c2ccccc2n1C(=O)c1ccc(Cl)cc1
REMARK SMILES IDX 8 1 7 2 5 3 6 4 4 6 3 7 1 8 2 9 74 10 68 11 73 12 69 13
REMARK SMILES IDX 72 14 70 15 71 16 75 17 76 18 77 19 78 20 83 21 79 22 82 23
REMARK SMILES IDX 80 24 81 25 9 26 10 27 11 28 12 29 13 31 14 32 15 33 67 34
REMARK SMILES IDX 16 35 66 36 17 37 18 38 19 39 60 40 20 41 65 42 59 43 61 44
REMARK SMILES IDX 21 45 64 46 58 47 57 48 22 50 48 51 31 52 47 53 32 54 35 55
REMARK SMILES IDX 46 56 62 57 33 58 34 59 45 61 63 62 36 63 23 64 24 65 29 66
REMARK SMILES IDX 25 67 26 68 28 69 30 70 27 71 49 72 50 73 55 74 51 75 52 76
REMARK SMILES IDX 54 77 56 78 53 79 37 80 38 81 43 82 39 83 40 84 42 85 44 86
REMARK SMILES IDX 41 87
REMARK H PARENT 7 5 11 30 61 49 35 60
REMARK Flexibility Score: inf
ROOT
ATOM      1  C   UNL A   1      31.594  28.465  26.400  1.00  0.00     0.117 C 
ENDROOT
BRANCH   1   2
ATOM      2  N   UNL A   1      32.100  28.086  25.092  1.00  0.00    -0.356 N 
ATOM      3  C   UNL A   1      32.586  26.881  24.669  1.00  0.00     0.224 C 
ATOM      4  O   UNL A   1      32.938  26.779  23.491  1.00  0.00    -0.275 OA
ATOM      5  H   UNL A   1      32.092  28.799  24.413  1.00  0.00     0.163 HD
BRANCH   3   6
ATOM      6  C   UNL A   1      32.646  25.697  25.620  1.00  0.00     0.138 C 
BRANCH   6   7
ATOM      7  C   UNL A   1      33.070  24.423  24.946  1.00  0.00    -0.010 A 
ATOM      8  C   UNL A   1      30.817  23.657  23.899  1.00  0.00     0.065 C 
ATOM      9  C   UNL A   1      32.279  23.549  24.215  1.00  0.00     0.028 A 
ATOM     10  N   UNL A   1      33.056  22.448  23.827  1.00  0.00    -0.280 N 
ATOM     11  C   UNL A   1      34.397  23.908  24.925  1.00  0.00     0.004 A 
ATOM     12  C   UNL A   1      34.389  22.726  24.178  1.00  0.00     0.056 A 
ATOM     13  C   UNL A   1      35.614  24.373  25.474  1.00  0.00     0.010 A 
ATOM     14  C   UNL A   1      35.605  22.056  23.916  1.00  0.00     0.027 A 
ATOM     15  C   UNL A   1      36.796  23.661  25.274  1.00  0.00     0.001 A 
ATOM     16  C   UNL A   1      36.790  22.518  24.493  1.00  0.00     0.002 A 
BRANCH  10  17
ATOM     17  C   UNL A   1      32.564  21.266  23.200  1.00  0.00     0.262 C 
ATOM     18  O   UNL A   1      32.099  21.345  22.058  1.00  0.00    -0.268 OA
BRANCH  17  19
ATOM     19  C   UNL A   1      32.556  19.923  23.797  1.00  0.00     0.040 A 
ATOM     20  C   UNL A   1      32.634  19.752  25.183  1.00  0.00     0.015 A 
ATOM     21  C   UNL A   1      32.500  18.819  22.940  1.00  0.00     0.015 A 
ATOM     22  C   UNL A   1      32.755  18.462  25.706  1.00  0.00     0.021 A 
ATOM     23  C   UNL A   1      32.611  17.533  23.468  1.00  0.00     0.021 A 
ATOM     24  C   UNL A   1      32.760  17.361  24.845  1.00  0.00     0.041 A 
ATOM     25  Cl  UNL A   1      32.980  15.780  25.486  1.00  0.00    -0.084 Cl
ENDBRANCH  17  19
ENDBRANCH  10  17
ENDBRANCH   6   7
ENDBRANCH   3   6
ENDBRANCH   1   2
BRANCH   1  26
ATOM     26  C   UNL A   1      32.685  29.014  27.326  1.00  0.00     0.042 C 
BRANCH  26  27
ATOM     27  C   UNL A   1      33.698  29.916  26.618  1.00  0.00     0.118 C 
BRANCH  27  28
ATOM     28  N   UNL A   1      33.898  31.189  27.284  1.00  0.00    -0.352 N 
ATOM     29  C   UNL A   1      34.886  31.789  28.006  1.00  0.00     0.251 C 
ATOM     30  H   UNL A   1      33.112  31.775  27.189  1.00  0.00     0.163 HD
ATOM     31  O   UNL A   1      34.653  32.951  28.350  1.00  0.00    -0.269 OA
BRANCH  29  32
ATOM     32  C   UNL A   1      36.166  31.168  28.445  1.00  0.00     0.039 A 
ATOM     33  C   UNL A   1      37.289  31.838  28.925  1.00  0.00     0.014 A 
ATOM     34  C   UNL A   1      36.235  29.764  28.304  1.00  0.00     0.014 A 
ATOM     35  C   UNL A   1      38.469  31.132  29.180  1.00  0.00     0.010 A 
ATOM     36  C   UNL A   1      37.404  29.058  28.564  1.00  0.00     0.010 A 
ATOM     37  C   UNL A   1      38.540  29.749  28.958  1.00  0.00    -0.014 A 
BRANCH  37  38
ATOM     38  C   UNL A   1      39.802  29.060  29.237  1.00  0.00     0.031 A 
ATOM     39  C   UNL A   1      40.154  28.955  30.682  1.00  0.00     0.074 A 
ATOM     40  C   UNL A   1      40.576  28.465  28.303  1.00  0.00     0.049 A 
ATOM     41  N   UNL A   1      41.148  29.507  31.301  1.00  0.00    -0.248 NA
ATOM     42  C   UNL A   1      39.227  28.235  31.568  1.00  0.00     0.031 C 
ATOM     43  C   UNL A   1      40.279  28.214  26.891  1.00  0.00     0.029 A 
ATOM     44  N   UNL A   1      41.803  27.885  28.460  1.00  0.00    -0.354 N 
ATOM     45  C   UNL A   1      41.078  29.068  32.622  1.00  0.00     0.074 A 
ATOM     46  C   UNL A   1      39.810  28.397  32.756  1.00  0.00     0.031 C 
ATOM     47  C   UNL A   1      41.193  27.355  26.383  1.00  0.00     0.029 A 
ATOM     48  C   UNL A   1      42.220  27.111  27.382  1.00  0.00     0.049 A 
ATOM     49  H   UNL A   1      42.348  28.005  29.270  1.00  0.00     0.167 HD
ATOM     50  C   UNL A   1      42.159  29.125  33.449  1.00  0.00     0.037 A 
ATOM     51  C   UNL A   1      43.311  26.305  27.328  1.00  0.00     0.037 A 
ATOM     52  C   UNL A   1      43.153  30.041  32.950  1.00  0.00     0.049 A 
ATOM     53  C   UNL A   1      44.249  26.739  28.390  1.00  0.00     0.074 A 
ATOM     54  C   UNL A   1      43.187  31.395  32.677  1.00  0.00     0.029 A 
ATOM     55  N   UNL A   1      44.262  29.518  32.335  1.00  0.00    -0.354 N 
ATOM     56  N   UNL A   1      44.908  27.862  28.362  1.00  0.00    -0.248 NA
ATOM     57  C   UNL A   1      44.115  26.125  29.702  1.00  0.00     0.031 C 
ATOM     58  C   UNL A   1      44.002  31.513  31.511  1.00  0.00     0.029 A 
ATOM     59  C   UNL A   1      44.455  30.236  31.185  1.00  0.00     0.049 A 
ATOM     60  H   UNL A   1      44.813  28.769  32.659  1.00  0.00     0.167 HD
ATOM     61  C   UNL A   1      44.880  28.317  29.670  1.00  0.00     0.074 A 
ATOM     62  C   UNL A   1      44.456  27.166  30.465  1.00  0.00     0.031 C 
ATOM     63  C   UNL A   1      44.930  29.652  29.954  1.00  0.00     0.037 A 
BRANCH  50  64
ATOM     64  C   UNL A   1      42.497  28.086  34.495  1.00  0.00     0.057 A 
ATOM     65  C   UNL A   1      42.137  28.186  35.853  1.00  0.00     0.134 A 
ATOM     66  C   UNL A   1      42.893  26.800  34.077  1.00  0.00     0.134 A 
ATOM     67  F   UNL A   1      41.704  29.327  36.400  1.00  0.00    -0.206 F 
ATOM     68  C   UNL A   1      42.101  27.081  36.708  1.00  0.00     0.040 A 
ATOM     69  C   UNL A   1      42.815  25.680  34.912  1.00  0.00     0.040 A 
ATOM     70  F   UNL A   1      43.277  26.573  32.811  1.00  0.00    -0.206 F 
ATOM     71  C   UNL A   1      42.399  25.816  36.230  1.00  0.00     0.006 A 
ENDBRANCH  50  64
BRANCH  51  72
ATOM     72  C   UNL A   1      43.478  25.014  26.619  1.00  0.00     0.057 A 
ATOM     73  C   UNL A   1      44.193  24.939  25.412  1.00  0.00     0.134 A 
ATOM     74  C   UNL A   1      42.709  23.888  26.949  1.00  0.00     0.134 A 
ATOM     75  F   UNL A   1      44.894  25.989  24.959  1.00  0.00    -0.206 F 
ATOM     76  C   UNL A   1      44.139  23.821  24.575  1.00  0.00     0.040 A 
ATOM     77  C   UNL A   1      42.642  22.760  26.117  1.00  0.00     0.040 A 
ATOM     78  F   UNL A   1      41.952  23.878  28.055  1.00  0.00    -0.206 F 
ATOM     79  C   UNL A   1      43.351  22.729  24.920  1.00  0.00     0.006 A 
ENDBRANCH  51  72
BRANCH  63  80
ATOM     80  C   UNL A   1      45.263  30.596  28.834  1.00  0.00     0.057 A 
ATOM     81  C   UNL A   1      46.562  31.107  28.746  1.00  0.00     0.134 A 
ATOM     82  C   UNL A   1      44.317  31.111  27.933  1.00  0.00     0.134 A 
ATOM     83  F   UNL A   1      47.505  30.707  29.614  1.00  0.00    -0.206 F 
ATOM     84  C   UNL A   1      46.913  32.071  27.798  1.00  0.00     0.040 A 
ATOM     85  C   UNL A   1      44.664  32.050  26.957  1.00  0.00     0.040 A 
ATOM     86  F   UNL A   1      43.026  30.762  28.006  1.00  0.00    -0.206 F 
ATOM     87  C   UNL A   1      45.965  32.537  26.891  1.00  0.00     0.006 A 
ENDBRANCH  63  80
ENDBRANCH  37  38
ENDBRANCH  29  32
ENDBRANCH  27  28
ENDBRANCH  26  27
ENDBRANCH   1  26
TORSDOF 13
ENDMDL
