MODEL 1
REMARK VINA RESULT:     -10.7      0.000      0.000
REMARK SMILES CC(C)c1ncc(SC[C@H](O)CO)c(C(=O)NCCCNC(=O)c2ccc(-c3c4nc(c(-c5c(F)cccc5F)c5ccc([nH]5)c(-c5c(F)cccc5F)c5nc(c(-c6c(F)cccc6F)c6ccc3[nH]6)C=C5)C=C4)cc2)n1
REMARK SMILES IDX 15 1 16 2 17 3 14 5 4 6 5 7 78 8 6 9 7 10 2 11 1 12 3 13
REMARK SMILES IDX 8 14 9 15 10 16 12 17 13 18 11 20 18 22 19 23 20 24 21 25
REMARK SMILES IDX 22 26 23 28 24 29 25 30 77 31 26 32 76 33 27 34 28 35 29 36
REMARK SMILES IDX 70 37 30 38 75 39 69 40 71 41 31 42 74 43 68 44 67 45 32 47
REMARK SMILES IDX 58 48 41 49 57 50 42 51 45 52 56 53 72 54 43 55 44 56 55 58
REMARK SMILES IDX 73 59 46 60 33 61 34 62 39 63 35 64 36 65 38 66 40 67 37 68
REMARK SMILES IDX 59 69 60 70 65 71 61 72 62 73 64 74 66 75 63 76 47 77 48 78
REMARK SMILES IDX 53 79 49 80 50 81 52 82 54 83 51 84
REMARK H PARENT 17 4 13 19 11 21 21 27 71 46 45 57
REMARK Flexibility Score: inf
ROOT
ATOM      1  C   UNL A   1      33.656  28.122  22.600  1.00  0.00     0.271 C 
ATOM      2  O   UNL A   1      34.346  28.291  21.588  1.00  0.00    -0.267 OA
ATOM      3  N   UNL A   1      33.777  29.112  23.544  1.00  0.00    -0.351 N 
ATOM      4  H   UNL A   1      34.296  29.884  23.225  1.00  0.00     0.163 HD
ENDROOT
BRANCH   1   5
ATOM      5  C   UNL A   1      32.703  26.951  22.630  1.00  0.00     0.145 A 
ATOM      6  C   UNL A   1      32.812  24.620  22.657  1.00  0.00     0.131 A 
ATOM      7  N   UNL A   1      31.508  24.510  22.931  1.00  0.00    -0.240 NA
ATOM      8  N   UNL A   1      33.414  25.796  22.446  1.00  0.00    -0.226 NA
ATOM      9  C   UNL A   1      30.829  25.661  23.099  1.00  0.00     0.130 A 
ATOM     10  C   UNL A   1      31.355  26.940  22.966  1.00  0.00     0.057 A 
BRANCH   6  11
ATOM     11  C   UNL A   1      33.647  23.354  22.705  1.00  0.00     0.051 C 
ATOM     12  C   UNL A   1      34.918  23.496  23.549  1.00  0.00     0.016 C 
ATOM     13  C   UNL A   1      32.807  22.194  23.255  1.00  0.00     0.016 C 
ENDBRANCH   6  11
BRANCH  10  14
ATOM     14  S   UNL A   1      30.318  28.245  23.547  1.00  0.00    -0.119 SA
BRANCH  14  15
ATOM     15  C   UNL A   1      29.897  29.301  22.090  1.00  0.00     0.109 C 
BRANCH  15  16
ATOM     16  C   UNL A   1      28.889  30.458  22.008  1.00  0.00     0.150 C 
BRANCH  16  17
ATOM     17  C   UNL A   1      27.729  30.494  23.000  1.00  0.00     0.188 C 
BRANCH  17  18
ATOM     18  O   UNL A   1      26.899  29.348  22.776  1.00  0.00    -0.394 OA
ATOM     19  H   UNL A   1      26.301  29.230  23.531  1.00  0.00     0.210 HD
ENDBRANCH  17  18
ENDBRANCH  16  17
BRANCH  16  20
ATOM     20  O   UNL A   1      29.567  31.720  22.057  1.00  0.00    -0.390 OA
ATOM     21  H   UNL A   1      30.466  31.618  21.709  1.00  0.00     0.211 HD
ENDBRANCH  16  20
ENDBRANCH  15  16
ENDBRANCH  14  15
ENDBRANCH  10  14
ENDBRANCH   1   5
BRANCH   3  22
ATOM     22  C   UNL A   1      33.312  29.270  24.902  1.00  0.00     0.118 C 
BRANCH  22  23
ATOM     23  C   UNL A   1      33.963  28.217  25.799  1.00  0.00     0.042 C 
BRANCH  23  24
ATOM     24  C   UNL A   1      33.720  28.444  27.287  1.00  0.00     0.118 C 
BRANCH  24  25
ATOM     25  N   UNL A   1      33.690  29.862  27.612  1.00  0.00    -0.352 N 
ATOM     26  C   UNL A   1      34.618  30.650  28.248  1.00  0.00     0.251 C 
ATOM     27  H   UNL A   1      32.871  30.332  27.332  1.00  0.00     0.163 HD
ATOM     28  O   UNL A   1      34.274  31.751  28.670  1.00  0.00    -0.269 OA
BRANCH  26  29
ATOM     29  C   UNL A   1      36.019  30.199  28.448  1.00  0.00     0.039 A 
ATOM     30  C   UNL A   1      36.402  29.738  29.713  1.00  0.00     0.014 A 
ATOM     31  C   UNL A   1      36.978  30.297  27.438  1.00  0.00     0.014 A 
ATOM     32  C   UNL A   1      37.721  29.335  29.949  1.00  0.00     0.010 A 
ATOM     33  C   UNL A   1      38.271  29.816  27.646  1.00  0.00     0.010 A 
ATOM     34  C   UNL A   1      38.663  29.346  28.908  1.00  0.00    -0.014 A 
BRANCH  34  35
ATOM     35  C   UNL A   1      40.066  28.902  29.125  1.00  0.00     0.031 A 
ATOM     36  C   UNL A   1      41.072  29.841  29.738  1.00  0.00     0.074 A 
ATOM     37  C   UNL A   1      40.456  27.679  28.716  1.00  0.00     0.049 A 
ATOM     38  N   UNL A   1      42.358  29.673  29.923  1.00  0.00    -0.248 NA
ATOM     39  C   UNL A   1      40.570  31.154  30.176  1.00  0.00     0.031 C 
ATOM     40  C   UNL A   1      39.595  26.688  28.069  1.00  0.00     0.029 A 
ATOM     41  N   UNL A   1      41.683  27.065  28.772  1.00  0.00    -0.354 N 
ATOM     42  C   UNL A   1      42.821  30.864  30.469  1.00  0.00     0.074 A 
ATOM     43  C   UNL A   1      41.688  31.761  30.547  1.00  0.00     0.031 C 
ATOM     44  C   UNL A   1      40.314  25.585  27.805  1.00  0.00     0.029 A 
ATOM     45  C   UNL A   1      41.693  25.803  28.230  1.00  0.00     0.049 A 
ATOM     46  H   UNL A   1      42.480  27.491  29.163  1.00  0.00     0.167 HD
ATOM     47  C   UNL A   1      44.070  31.176  30.890  1.00  0.00     0.037 A 
ATOM     48  C   UNL A   1      42.702  24.923  28.085  1.00  0.00     0.037 A 
ATOM     49  C   UNL A   1      45.188  30.271  30.853  1.00  0.00     0.049 A 
ATOM     50  C   UNL A   1      44.075  25.286  28.574  1.00  0.00     0.074 A 
ATOM     51  C   UNL A   1      46.477  30.472  31.317  1.00  0.00     0.029 A 
ATOM     52  N   UNL A   1      45.149  28.990  30.324  1.00  0.00    -0.354 N 
ATOM     53  N   UNL A   1      44.485  26.395  29.139  1.00  0.00    -0.248 NA
ATOM     54  C   UNL A   1      45.127  24.273  28.406  1.00  0.00     0.031 C 
ATOM     55  C   UNL A   1      47.226  29.324  31.039  1.00  0.00     0.029 A 
ATOM     56  C   UNL A   1      46.394  28.394  30.436  1.00  0.00     0.049 A 
ATOM     57  H   UNL A   1      44.354  28.567  29.927  1.00  0.00     0.167 HD
ATOM     58  C   UNL A   1      45.832  26.205  29.418  1.00  0.00     0.074 A 
ATOM     59  C   UNL A   1      46.168  24.869  28.972  1.00  0.00     0.031 C 
ATOM     60  C   UNL A   1      46.711  27.061  29.994  1.00  0.00     0.037 A 
BRANCH  47  61
ATOM     61  C   UNL A   1      44.291  32.558  31.434  1.00  0.00     0.057 A 
ATOM     62  C   UNL A   1      44.675  33.624  30.610  1.00  0.00     0.134 A 
ATOM     63  C   UNL A   1      44.087  32.833  32.792  1.00  0.00     0.134 A 
ATOM     64  F   UNL A   1      44.897  33.426  29.302  1.00  0.00    -0.206 F 
ATOM     65  C   UNL A   1      44.874  34.908  31.122  1.00  0.00     0.040 A 
ATOM     66  C   UNL A   1      44.258  34.118  33.311  1.00  0.00     0.040 A 
ATOM     67  F   UNL A   1      43.712  31.860  33.636  1.00  0.00    -0.206 F 
ATOM     68  C   UNL A   1      44.660  35.158  32.475  1.00  0.00     0.006 A 
ENDBRANCH  47  61
BRANCH  48  69
ATOM     69  C   UNL A   1      42.444  23.597  27.468  1.00  0.00     0.057 A 
ATOM     70  C   UNL A   1      42.127  22.486  28.258  1.00  0.00     0.134 A 
ATOM     71  C   UNL A   1      42.510  23.408  26.083  1.00  0.00     0.134 A 
ATOM     72  F   UNL A   1      42.068  22.603  29.593  1.00  0.00    -0.206 F 
ATOM     73  C   UNL A   1      41.899  21.230  27.695  1.00  0.00     0.040 A 
ATOM     74  C   UNL A   1      42.263  22.162  25.505  1.00  0.00     0.040 A 
ATOM     75  F   UNL A   1      42.802  24.434  25.272  1.00  0.00    -0.206 F 
ATOM     76  C   UNL A   1      41.961  21.067  26.313  1.00  0.00     0.006 A 
ENDBRANCH  48  69
BRANCH  60  77
ATOM     77  C   UNL A   1      48.112  26.568  30.203  1.00  0.00     0.057 A 
ATOM     78  C   UNL A   1      48.474  25.837  31.341  1.00  0.00     0.134 A 
ATOM     79  C   UNL A   1      49.098  26.793  29.234  1.00  0.00     0.134 A 
ATOM     80  F   UNL A   1      47.578  25.599  32.311  1.00  0.00    -0.206 F 
ATOM     81  C   UNL A   1      49.776  25.364  31.518  1.00  0.00     0.040 A 
ATOM     82  C   UNL A   1      50.396  26.306  29.389  1.00  0.00     0.040 A 
ATOM     83  F   UNL A   1      48.813  27.481  28.119  1.00  0.00    -0.206 F 
ATOM     84  C   UNL A   1      50.738  25.592  30.536  1.00  0.00     0.006 A 
ENDBRANCH  60  77
ENDBRANCH  34  35
ENDBRANCH  26  29
ENDBRANCH  24  25
ENDBRANCH  23  24
ENDBRANCH  22  23
ENDBRANCH   3  22
TORSDOF 17
ENDMDL
MODEL 2
REMARK VINA RESULT:     -10.7      3.626      5.391
REMARK SMILES CC(C)c1ncc(SC[C@H](O)CO)c(C(=O)NCCCNC(=O)c2ccc(-c3c4nc(c(-c5c(F)cccc5F)c5ccc([nH]5)c(-c5c(F)cccc5F)c5nc(c(-c6c(F)cccc6F)c6ccc3[nH]6)C=C5)C=C4)cc2)n1
REMARK SMILES IDX 15 1 16 2 17 3 14 5 4 6 5 7 78 8 6 9 7 10 2 11 1 12 3 13
REMARK SMILES IDX 8 14 9 15 10 16 12 17 13 18 11 20 18 22 19 23 20 24 21 25
REMARK SMILES IDX 22 26 23 28 24 29 25 30 77 31 26 32 76 33 27 34 28 35 29 36
REMARK SMILES IDX 70 37 30 38 75 39 69 40 71 41 31 42 74 43 68 44 67 45 32 47
REMARK SMILES IDX 58 48 41 49 57 50 42 51 45 52 56 53 72 54 43 55 44 56 55 58
REMARK SMILES IDX 73 59 46 60 33 61 34 62 39 63 35 64 36 65 38 66 40 67 37 68
REMARK SMILES IDX 59 69 60 70 65 71 61 72 62 73 64 74 66 75 63 76 47 77 48 78
REMARK SMILES IDX 53 79 49 80 50 81 52 82 54 83 51 84
REMARK H PARENT 17 4 13 19 11 21 21 27 71 46 45 57
REMARK Flexibility Score: inf
ROOT
ATOM      1  C   UNL A   1      32.305  29.419  24.698  1.00  0.00     0.271 C 
ATOM      2  O   UNL A   1      33.301  29.286  23.977  1.00  0.00    -0.267 OA
ATOM      3  N   UNL A   1      32.467  30.304  25.736  1.00  0.00    -0.351 N 
ATOM      4  H   UNL A   1      33.311  30.807  25.681  1.00  0.00     0.163 HD
ENDROOT
BRANCH   1   5
ATOM      5  C   UNL A   1      31.033  28.711  24.301  1.00  0.00     0.145 A 
ATOM      6  C   UNL A   1      29.042  29.202  23.186  1.00  0.00     0.131 A 
ATOM      7  N   UNL A   1      28.695  27.912  23.126  1.00  0.00    -0.240 NA
ATOM      8  N   UNL A   1      30.149  29.630  23.804  1.00  0.00    -0.226 NA
ATOM      9  C   UNL A   1      29.577  27.028  23.631  1.00  0.00     0.130 A 
ATOM     10  C   UNL A   1      30.784  27.345  24.242  1.00  0.00     0.057 A 
BRANCH   6  11
ATOM     11  C   UNL A   1      28.191  30.192  22.413  1.00  0.00     0.051 C 
ATOM     12  C   UNL A   1      27.652  31.336  23.280  1.00  0.00     0.016 C 
ATOM     13  C   UNL A   1      29.000  30.782  21.251  1.00  0.00     0.016 C 
ENDBRANCH   6  11
BRANCH  10  14
ATOM     14  S   UNL A   1      31.868  25.979  24.521  1.00  0.00    -0.119 SA
BRANCH  14  15
ATOM     15  C   UNL A   1      33.397  26.282  23.528  1.00  0.00     0.109 C 
BRANCH  15  16
ATOM     16  C   UNL A   1      33.550  26.328  21.999  1.00  0.00     0.150 C 
BRANCH  16  17
ATOM     17  C   UNL A   1      32.520  25.604  21.136  1.00  0.00     0.188 C 
BRANCH  17  18
ATOM     18  O   UNL A   1      32.893  25.746  19.761  1.00  0.00    -0.394 OA
ATOM     19  H   UNL A   1      33.858  25.811  19.692  1.00  0.00     0.210 HD
ENDBRANCH  17  18
ENDBRANCH  16  17
BRANCH  16  20
ATOM     20  O   UNL A   1      33.652  27.683  21.544  1.00  0.00    -0.390 OA
ATOM     21  H   UNL A   1      34.527  27.828  21.152  1.00  0.00     0.211 HD
ENDBRANCH  16  20
ENDBRANCH  15  16
ENDBRANCH  14  15
ENDBRANCH  10  14
ENDBRANCH   1   5
BRANCH   3  22
ATOM     22  C   UNL A   1      31.674  30.658  26.889  1.00  0.00     0.118 C 
BRANCH  22  23
ATOM     23  C   UNL A   1      31.407  32.164  26.892  1.00  0.00     0.042 C 
BRANCH  23  24
ATOM     24  C   UNL A   1      32.673  33.012  26.839  1.00  0.00     0.118 C 
BRANCH  24  25
ATOM     25  N   UNL A   1      32.535  34.227  27.625  1.00  0.00    -0.352 N 
ATOM     26  C   UNL A   1      33.104  34.580  28.825  1.00  0.00     0.251 C 
ATOM     27  H   UNL A   1      31.938  34.906  27.236  1.00  0.00     0.163 HD
ATOM     28  O   UNL A   1      32.636  35.529  29.449  1.00  0.00    -0.269 OA
BRANCH  26  29
ATOM     29  C   UNL A   1      34.260  33.838  29.390  1.00  0.00     0.039 A 
ATOM     30  C   UNL A   1      35.552  34.225  29.020  1.00  0.00     0.014 A 
ATOM     31  C   UNL A   1      34.089  32.722  30.212  1.00  0.00     0.014 A 
ATOM     32  C   UNL A   1      36.665  33.529  29.506  1.00  0.00     0.010 A 
ATOM     33  C   UNL A   1      35.198  32.081  30.766  1.00  0.00     0.010 A 
ATOM     34  C   UNL A   1      36.498  32.464  30.407  1.00  0.00    -0.014 A 
BRANCH  34  35
ATOM     35  C   UNL A   1      37.664  31.723  30.957  1.00  0.00     0.031 A 
ATOM     36  C   UNL A   1      38.199  32.060  32.324  1.00  0.00     0.074 A 
ATOM     37  C   UNL A   1      38.284  30.791  30.208  1.00  0.00     0.049 A 
ATOM     38  N   UNL A   1      39.258  31.594  32.938  1.00  0.00    -0.248 NA
ATOM     39  C   UNL A   1      37.462  33.077  33.091  1.00  0.00     0.031 C 
ATOM     40  C   UNL A   1      37.896  30.398  28.852  1.00  0.00     0.029 A 
ATOM     41  N   UNL A   1      39.383  30.012  30.476  1.00  0.00    -0.354 N 
ATOM     42  C   UNL A   1      39.329  32.279  34.146  1.00  0.00     0.074 A 
ATOM     43  C   UNL A   1      38.231  33.222  34.160  1.00  0.00     0.031 C 
ATOM     44  C   UNL A   1      38.729  29.441  28.415  1.00  0.00     0.029 A 
ATOM     45  C   UNL A   1      39.732  29.178  29.443  1.00  0.00     0.049 A 
ATOM     46  H   UNL A   1      39.873  30.050  31.329  1.00  0.00     0.167 HD
ATOM     47  C   UNL A   1      40.212  32.122  35.160  1.00  0.00     0.037 A 
ATOM     48  C   UNL A   1      40.751  28.304  29.332  1.00  0.00     0.037 A 
ATOM     49  C   UNL A   1      41.278  31.156  35.165  1.00  0.00     0.049 A 
ATOM     50  C   UNL A   1      41.709  28.136  30.477  1.00  0.00     0.074 A 
ATOM     51  C   UNL A   1      42.184  30.876  36.174  1.00  0.00     0.029 A 
ATOM     52  N   UNL A   1      41.580  30.308  34.111  1.00  0.00    -0.354 N 
ATOM     53  N   UNL A   1      41.728  28.751  31.635  1.00  0.00    -0.248 NA
ATOM     54  C   UNL A   1      42.785  27.150  30.303  1.00  0.00     0.031 C 
ATOM     55  C   UNL A   1      43.055  29.881  35.717  1.00  0.00     0.029 A 
ATOM     56  C   UNL A   1      42.667  29.515  34.438  1.00  0.00     0.049 A 
ATOM     57  H   UNL A   1      41.094  30.275  33.255  1.00  0.00     0.167 HD
ATOM     58  C   UNL A   1      42.799  28.210  32.335  1.00  0.00     0.074 A 
ATOM     59  C   UNL A   1      43.397  27.208  31.477  1.00  0.00     0.031 C 
ATOM     60  C   UNL A   1      43.246  28.516  33.577  1.00  0.00     0.037 A 
BRANCH  47  61
ATOM     61  C   UNL A   1      40.057  33.016  36.356  1.00  0.00     0.057 A 
ATOM     62  C   UNL A   1      40.798  34.197  36.497  1.00  0.00     0.134 A 
ATOM     63  C   UNL A   1      39.133  32.710  37.363  1.00  0.00     0.134 A 
ATOM     64  F   UNL A   1      41.708  34.543  35.574  1.00  0.00    -0.206 F 
ATOM     65  C   UNL A   1      40.645  35.027  37.610  1.00  0.00     0.040 A 
ATOM     66  C   UNL A   1      38.953  33.545  38.467  1.00  0.00     0.040 A 
ATOM     67  F   UNL A   1      38.386  31.599  37.288  1.00  0.00    -0.206 F 
ATOM     68  C   UNL A   1      39.716  34.704  38.596  1.00  0.00     0.006 A 
ENDBRANCH  47  61
BRANCH  48  69
ATOM     69  C   UNL A   1      40.904  27.499  28.094  1.00  0.00     0.057 A 
ATOM     70  C   UNL A   1      40.276  26.255  27.963  1.00  0.00     0.134 A 
ATOM     71  C   UNL A   1      41.678  27.948  27.018  1.00  0.00     0.134 A 
ATOM     72  F   UNL A   1      39.537  25.763  28.969  1.00  0.00    -0.206 F 
ATOM     73  C   UNL A   1      40.424  25.478  26.812  1.00  0.00     0.040 A 
ATOM     74  C   UNL A   1      41.817  27.192  25.853  1.00  0.00     0.040 A 
ATOM     75  F   UNL A   1      42.299  29.135  27.079  1.00  0.00    -0.206 F 
ATOM     76  C   UNL A   1      41.193  25.951  25.751  1.00  0.00     0.006 A 
ENDBRANCH  48  69
BRANCH  60  77
ATOM     77  C   UNL A   1      44.418  27.737  34.095  1.00  0.00     0.057 A 
ATOM     78  C   UNL A   1      44.255  26.513  34.754  1.00  0.00     0.134 A 
ATOM     79  C   UNL A   1      45.724  28.201  33.897  1.00  0.00     0.134 A 
ATOM     80  F   UNL A   1      43.028  26.022  34.987  1.00  0.00    -0.206 F 
ATOM     81  C   UNL A   1      45.354  25.785  35.216  1.00  0.00     0.040 A 
ATOM     82  C   UNL A   1      46.830  27.471  34.334  1.00  0.00     0.040 A 
ATOM     83  F   UNL A   1      45.947  29.364  33.267  1.00  0.00    -0.206 F 
ATOM     84  C   UNL A   1      46.645  26.260  34.999  1.00  0.00     0.006 A 
ENDBRANCH  60  77
ENDBRANCH  34  35
ENDBRANCH  26  29
ENDBRANCH  24  25
ENDBRANCH  23  24
ENDBRANCH  22  23
ENDBRANCH   3  22
TORSDOF 17
ENDMDL
MODEL 3
REMARK VINA RESULT:     -10.7      4.104      8.541
REMARK SMILES CC(C)c1ncc(SC[C@H](O)CO)c(C(=O)NCCCNC(=O)c2ccc(-c3c4nc(c(-c5c(F)cccc5F)c5ccc([nH]5)c(-c5c(F)cccc5F)c5nc(c(-c6c(F)cccc6F)c6ccc3[nH]6)C=C5)C=C4)cc2)n1
REMARK SMILES IDX 15 1 16 2 17 3 14 5 4 6 5 7 78 8 6 9 7 10 2 11 1 12 3 13
REMARK SMILES IDX 8 14 9 15 10 16 12 17 13 18 11 20 18 22 19 23 20 24 21 25
REMARK SMILES IDX 22 26 23 28 24 29 25 30 77 31 26 32 76 33 27 34 28 35 29 36
REMARK SMILES IDX 70 37 30 38 75 39 69 40 71 41 31 42 74 43 68 44 67 45 32 47
REMARK SMILES IDX 58 48 41 49 57 50 42 51 45 52 56 53 72 54 43 55 44 56 55 58
REMARK SMILES IDX 73 59 46 60 33 61 34 62 39 63 35 64 36 65 38 66 40 67 37 68
REMARK SMILES IDX 59 69 60 70 65 71 61 72 62 73 64 74 66 75 63 76 47 77 48 78
REMARK SMILES IDX 53 79 49 80 50 81 52 82 54 83 51 84
REMARK H PARENT 17 4 13 19 11 21 21 27 71 46 45 57
REMARK Flexibility Score: inf
ROOT
ATOM      1  C   UNL A   1      31.863  29.565  24.436  1.00  0.00     0.271 C 
ATOM      2  O   UNL A   1      32.807  29.262  23.697  1.00  0.00    -0.267 OA
ATOM      3  N   UNL A   1      32.227  30.230  25.582  1.00  0.00    -0.351 N 
ATOM      4  H   UNL A   1      33.176  30.488  25.589  1.00  0.00     0.163 HD
ENDROOT
BRANCH   1   5
ATOM      5  C   UNL A   1      30.459  29.286  23.956  1.00  0.00     0.145 A 
ATOM      6  C   UNL A   1      28.647  30.476  23.091  1.00  0.00     0.131 A 
ATOM      7  N   UNL A   1      28.002  29.353  22.757  1.00  0.00    -0.240 NA
ATOM      8  N   UNL A   1      29.822  30.477  23.731  1.00  0.00    -0.226 NA
ATOM      9  C   UNL A   1      28.646  28.195  22.998  1.00  0.00     0.130 A 
ATOM     10  C   UNL A   1      29.892  28.069  23.600  1.00  0.00     0.057 A 
BRANCH   6  11
ATOM     11  C   UNL A   1      28.059  31.790  22.613  1.00  0.00     0.051 C 
ATOM     12  C   UNL A   1      28.821  33.018  23.123  1.00  0.00     0.016 C 
ATOM     13  C   UNL A   1      28.028  31.822  21.080  1.00  0.00     0.016 C 
ENDBRANCH   6  11
BRANCH  10  14
ATOM     14  S   UNL A   1      30.617  26.463  23.500  1.00  0.00    -0.119 SA
BRANCH  14  15
ATOM     15  C   UNL A   1      31.466  26.346  21.862  1.00  0.00     0.109 C 
BRANCH  15  16
ATOM     16  C   UNL A   1      32.831  25.719  21.537  1.00  0.00     0.150 C 
BRANCH  16  17
ATOM     17  C   UNL A   1      33.102  24.280  21.969  1.00  0.00     0.188 C 
BRANCH  17  18
ATOM     18  O   UNL A   1      33.263  23.472  20.799  1.00  0.00    -0.394 OA
ATOM     19  H   UNL A   1      32.803  22.627  20.923  1.00  0.00     0.210 HD
ENDBRANCH  17  18
ENDBRANCH  16  17
BRANCH  16  20
ATOM     20  O   UNL A   1      33.116  25.833  20.136  1.00  0.00    -0.390 OA
ATOM     21  H   UNL A   1      33.313  26.757  19.920  1.00  0.00     0.211 HD
ENDBRANCH  16  20
ENDBRANCH  15  16
ENDBRANCH  14  15
ENDBRANCH  10  14
ENDBRANCH   1   5
BRANCH   3  22
ATOM     22  C   UNL A   1      31.524  30.633  26.777  1.00  0.00     0.118 C 
BRANCH  22  23
ATOM     23  C   UNL A   1      31.398  32.157  26.815  1.00  0.00     0.042 C 
BRANCH  23  24
ATOM     24  C   UNL A   1      32.724  32.877  27.031  1.00  0.00     0.118 C 
BRANCH  24  25
ATOM     25  N   UNL A   1      32.525  34.204  27.591  1.00  0.00    -0.352 N 
ATOM     26  C   UNL A   1      33.044  34.778  28.727  1.00  0.00     0.251 C 
ATOM     27  H   UNL A   1      31.922  34.785  27.073  1.00  0.00     0.163 HD
ATOM     28  O   UNL A   1      32.527  35.804  29.163  1.00  0.00    -0.269 OA
BRANCH  26  29
ATOM     29  C   UNL A   1      34.200  34.184  29.445  1.00  0.00     0.039 A 
ATOM     30  C   UNL A   1      35.488  34.418  28.951  1.00  0.00     0.014 A 
ATOM     31  C   UNL A   1      34.032  33.338  30.543  1.00  0.00     0.014 A 
ATOM     32  C   UNL A   1      36.600  33.848  29.582  1.00  0.00     0.010 A 
ATOM     33  C   UNL A   1      35.143  32.840  31.224  1.00  0.00     0.010 A 
ATOM     34  C   UNL A   1      36.439  33.073  30.742  1.00  0.00    -0.014 A 
BRANCH  34  35
ATOM     35  C   UNL A   1      37.605  32.476  31.445  1.00  0.00     0.031 A 
ATOM     36  C   UNL A   1      38.318  31.287  30.853  1.00  0.00     0.074 A 
ATOM     37  C   UNL A   1      37.988  32.956  32.644  1.00  0.00     0.049 A 
ATOM     38  N   UNL A   1      39.293  30.570  31.356  1.00  0.00    -0.248 NA
ATOM     39  C   UNL A   1      37.856  30.828  29.534  1.00  0.00     0.031 C 
ATOM     40  C   UNL A   1      37.358  34.073  33.349  1.00  0.00     0.029 A 
ATOM     41  N   UNL A   1      38.993  32.555  33.489  1.00  0.00    -0.354 N 
ATOM     42  C   UNL A   1      39.538  29.562  30.431  1.00  0.00     0.074 A 
ATOM     43  C   UNL A   1      38.584  29.734  29.357  1.00  0.00     0.031 C 
ATOM     44  C   UNL A   1      38.001  34.281  34.509  1.00  0.00     0.029 A 
ATOM     45  C   UNL A   1      39.065  33.290  34.647  1.00  0.00     0.049 A 
ATOM     46  H   UNL A   1      39.604  31.811  33.284  1.00  0.00     0.167 HD
ATOM     47  C   UNL A   1      40.486  28.595  30.461  1.00  0.00     0.037 A 
ATOM     48  C   UNL A   1      39.890  33.175  35.706  1.00  0.00     0.037 A 
ATOM     49  C   UNL A   1      41.462  28.448  31.507  1.00  0.00     0.049 A 
ATOM     50  C   UNL A   1      40.943  32.104  35.708  1.00  0.00     0.074 A 
ATOM     51  C   UNL A   1      42.504  27.541  31.594  1.00  0.00     0.029 A 
ATOM     52  N   UNL A   1      41.519  29.233  32.649  1.00  0.00    -0.354 N 
ATOM     53  N   UNL A   1      41.199  31.194  34.800  1.00  0.00    -0.248 NA
ATOM     54  C   UNL A   1      41.826  32.046  36.882  1.00  0.00     0.031 C 
ATOM     55  C   UNL A   1      43.172  27.756  32.804  1.00  0.00     0.029 A 
ATOM     56  C   UNL A   1      42.569  28.822  33.453  1.00  0.00     0.049 A 
ATOM     57  H   UNL A   1      40.904  29.973  32.857  1.00  0.00     0.167 HD
ATOM     58  C   UNL A   1      42.285  30.473  35.279  1.00  0.00     0.074 A 
ATOM     59  C   UNL A   1      42.648  31.059  36.553  1.00  0.00     0.031 C 
ATOM     60  C   UNL A   1      42.924  29.420  34.714  1.00  0.00     0.037 A 
BRANCH  47  61
ATOM     61  C   UNL A   1      40.515  27.620  29.319  1.00  0.00     0.057 A 
ATOM     62  C   UNL A   1      41.423  27.750  28.260  1.00  0.00     0.134 A 
ATOM     63  C   UNL A   1      39.647  26.521  29.295  1.00  0.00     0.134 A 
ATOM     64  F   UNL A   1      42.275  28.786  28.218  1.00  0.00    -0.206 F 
ATOM     65  C   UNL A   1      41.448  26.837  27.204  1.00  0.00     0.040 A 
ATOM     66  C   UNL A   1      39.680  25.588  28.257  1.00  0.00     0.040 A 
ATOM     67  F   UNL A   1      38.757  26.333  30.280  1.00  0.00    -0.206 F 
ATOM     68  C   UNL A   1      40.578  25.749  27.204  1.00  0.00     0.006 A 
ENDBRANCH  47  61
BRANCH  48  69
ATOM     69  C   UNL A   1      39.767  34.119  36.845  1.00  0.00     0.057 A 
ATOM     70  C   UNL A   1      40.398  35.368  36.816  1.00  0.00     0.134 A 
ATOM     71  C   UNL A   1      39.023  33.798  37.986  1.00  0.00     0.134 A 
ATOM     72  F   UNL A   1      41.141  35.723  35.757  1.00  0.00    -0.206 F 
ATOM     73  C   UNL A   1      40.307  36.259  37.886  1.00  0.00     0.040 A 
ATOM     74  C   UNL A   1      38.905  34.688  39.055  1.00  0.00     0.040 A 
ATOM     75  F   UNL A   1      38.388  32.620  38.072  1.00  0.00    -0.206 F 
ATOM     76  C   UNL A   1      39.553  35.921  39.008  1.00  0.00     0.006 A 
ENDBRANCH  48  69
BRANCH  60  77
ATOM     77  C   UNL A   1      44.100  28.855  35.452  1.00  0.00     0.057 A 
ATOM     78  C   UNL A   1      45.394  29.356  35.270  1.00  0.00     0.134 A 
ATOM     79  C   UNL A   1      43.927  27.825  36.385  1.00  0.00     0.134 A 
ATOM     80  F   UNL A   1      45.627  30.334  34.382  1.00  0.00    -0.206 F 
ATOM     81  C   UNL A   1      46.481  28.837  35.977  1.00  0.00     0.040 A 
ATOM     82  C   UNL A   1      45.002  27.313  37.113  1.00  0.00     0.040 A 
ATOM     83  F   UNL A   1      42.711  27.306  36.610  1.00  0.00    -0.206 F 
ATOM     84  C   UNL A   1      46.284  27.818  36.907  1.00  0.00     0.006 A 
ENDBRANCH  60  77
ENDBRANCH  34  35
ENDBRANCH  26  29
ENDBRANCH  24  25
ENDBRANCH  23  24
ENDBRANCH  22  23
ENDBRANCH   3  22
TORSDOF 17
ENDMDL
