MODEL 1
REMARK VINA RESULT:     -12.5      0.000      0.000
REMARK SMILES CC(C)(C)c1ccc(NS(=O)(=O)c2cccc(C(=O)NCCCNC(=O)c3ccc(-c4c5nc(c(-c6c(F)cccc6F)c6ccc([nH]6)c(-c6c(F)cccc6F)c6nc(c(-c7c(F)cccc7F)c7ccc4[nH]7)C=C6)C=C5)cc3)c2)cc1
REMARK SMILES IDX 21 1 20 2 18 3 19 4 17 6 13 7 14 8 81 9 15 10 16 11 10 12
REMARK SMILES IDX 11 13 12 14 9 15 8 17 5 18 6 19 83 20 7 21 82 22 2 23 1 24
REMARK SMILES IDX 3 25 4 26 22 27 23 28 24 29 25 30 26 32 27 33 28 34 80 35
REMARK SMILES IDX 29 36 79 37 30 38 31 39 32 40 73 41 33 42 78 43 72 44 74 45
REMARK SMILES IDX 34 46 77 47 71 48 70 49 35 51 61 52 44 53 60 54 45 55 48 56
REMARK SMILES IDX 59 57 75 58 46 59 47 60 58 62 76 63 49 64 36 65 37 66 42 67
REMARK SMILES IDX 38 68 39 69 41 70 43 71 40 72 62 73 63 74 68 75 64 76 65 77
REMARK SMILES IDX 67 78 69 79 66 80 50 81 51 82 56 83 52 84 53 85 55 86 57 87
REMARK SMILES IDX 54 88
REMARK H PARENT 20 5 9 16 24 31 74 50 48 61
REMARK Flexibility Score: inf
ROOT
ATOM      1  C   UNL A   1      36.257  20.255  24.916  1.00  0.00     0.118 C 
ENDROOT
BRANCH   1   2
ATOM      2  N   UNL A   1      35.134  19.340  25.034  1.00  0.00    -0.352 N 
ATOM      3  C   UNL A   1      33.787  19.515  24.856  1.00  0.00     0.251 C 
ATOM      4  O   UNL A   1      33.045  18.550  25.032  1.00  0.00    -0.269 OA
ATOM      5  H   UNL A   1      35.389  18.424  25.289  1.00  0.00     0.163 HD
BRANCH   3   6
ATOM      6  C   UNL A   1      33.213  20.794  24.361  1.00  0.00     0.041 A 
ATOM      7  C   UNL A   1      33.050  23.205  24.257  1.00  0.00     0.088 A 
ATOM      8  C   UNL A   1      32.305  23.112  23.077  1.00  0.00     0.022 A 
ATOM      9  C   UNL A   1      33.489  22.047  24.914  1.00  0.00     0.036 A 
ATOM     10  C   UNL A   1      31.906  21.862  22.610  1.00  0.00     0.002 A 
ATOM     11  C   UNL A   1      32.363  20.708  23.246  1.00  0.00     0.014 A 
BRANCH   7  12
ATOM     12  S   UNL A   1      33.561  24.805  24.847  1.00  0.00     0.261 S 
ATOM     13  O   UNL A   1      33.899  25.600  23.687  1.00  0.00    -0.201 OA
ATOM     14  O   UNL A   1      34.548  24.589  25.889  1.00  0.00    -0.201 OA
BRANCH  12  15
ATOM     15  N   UNL A   1      32.237  25.573  25.604  1.00  0.00    -0.280 N 
ATOM     16  H   UNL A   1      31.981  25.333  26.524  1.00  0.00     0.180 HD
BRANCH  15  17
ATOM     17  C   UNL A   1      31.504  26.572  24.883  1.00  0.00     0.049 A 
ATOM     18  C   UNL A   1      29.998  28.599  23.593  1.00  0.00    -0.042 A 
ATOM     19  C   UNL A   1      31.058  28.907  24.461  1.00  0.00     0.006 A 
ATOM     20  C   UNL A   1      29.742  27.235  23.357  1.00  0.00     0.006 A 
ATOM     21  C   UNL A   1      31.832  27.911  25.054  1.00  0.00     0.027 A 
ATOM     22  C   UNL A   1      30.479  26.229  24.005  1.00  0.00     0.027 A 
BRANCH  18  23
ATOM     23  C   UNL A   1      29.131  29.717  22.985  1.00  0.00    -0.013 C 
ATOM     24  C   UNL A   1      29.658  30.017  21.568  1.00  0.00     0.016 C 
ATOM     25  C   UNL A   1      29.169  31.022  23.809  1.00  0.00     0.016 C 
ATOM     26  C   UNL A   1      27.643  29.305  22.878  1.00  0.00     0.016 C 
ENDBRANCH  18  23
ENDBRANCH  15  17
ENDBRANCH  12  15
ENDBRANCH   7  12
ENDBRANCH   3   6
ENDBRANCH   1   2
BRANCH   1  27
ATOM     27  C   UNL A   1      37.563  19.474  24.801  1.00  0.00     0.042 C 
BRANCH  27  28
ATOM     28  C   UNL A   1      38.714  20.147  25.543  1.00  0.00     0.118 C 
BRANCH  28  29
ATOM     29  N   UNL A   1      39.837  19.237  25.732  1.00  0.00    -0.352 N 
ATOM     30  C   UNL A   1      41.143  19.506  26.049  1.00  0.00     0.251 C 
ATOM     31  H   UNL A   1      39.625  18.283  25.613  1.00  0.00     0.163 HD
ATOM     32  O   UNL A   1      41.997  18.637  25.899  1.00  0.00    -0.269 OA
BRANCH  30  33
ATOM     33  C   UNL A   1      41.526  20.832  26.577  1.00  0.00     0.039 A 
ATOM     34  C   UNL A   1      41.435  21.062  27.952  1.00  0.00     0.014 A 
ATOM     35  C   UNL A   1      41.920  21.860  25.717  1.00  0.00     0.014 A 
ATOM     36  C   UNL A   1      41.778  22.313  28.467  1.00  0.00     0.010 A 
ATOM     37  C   UNL A   1      42.345  23.077  26.239  1.00  0.00     0.010 A 
ATOM     38  C   UNL A   1      42.260  23.322  27.617  1.00  0.00    -0.014 A 
BRANCH  38  39
ATOM     39  C   UNL A   1      42.663  24.648  28.150  1.00  0.00     0.031 A 
ATOM     40  C   UNL A   1      41.626  25.713  28.381  1.00  0.00     0.074 A 
ATOM     41  C   UNL A   1      43.966  24.907  28.366  1.00  0.00     0.049 A 
ATOM     42  N   UNL A   1      41.786  26.951  28.775  1.00  0.00    -0.248 NA
ATOM     43  C   UNL A   1      40.225  25.353  28.104  1.00  0.00     0.031 C 
ATOM     44  C   UNL A   1      45.068  23.973  28.123  1.00  0.00     0.029 A 
ATOM     45  N   UNL A   1      44.589  26.041  28.825  1.00  0.00    -0.354 N 
ATOM     46  C   UNL A   1      40.517  27.518  28.771  1.00  0.00     0.074 A 
ATOM     47  C   UNL A   1      39.604  26.508  28.288  1.00  0.00     0.031 C 
ATOM     48  C   UNL A   1      46.227  24.563  28.455  1.00  0.00     0.029 A 
ATOM     49  C   UNL A   1      45.957  25.928  28.895  1.00  0.00     0.049 A 
ATOM     50  H   UNL A   1      44.102  26.857  29.081  1.00  0.00     0.167 HD
ATOM     51  C   UNL A   1      40.147  28.761  29.156  1.00  0.00     0.037 A 
ATOM     52  C   UNL A   1      46.888  26.829  29.261  1.00  0.00     0.037 A 
ATOM     53  C   UNL A   1      41.058  29.750  29.671  1.00  0.00     0.049 A 
ATOM     54  C   UNL A   1      46.443  28.197  29.702  1.00  0.00     0.074 A 
ATOM     55  C   UNL A   1      40.772  31.012  30.161  1.00  0.00     0.029 A 
ATOM     56  N   UNL A   1      42.432  29.584  29.764  1.00  0.00    -0.354 N 
ATOM     57  N   UNL A   1      45.231  28.692  29.771  1.00  0.00    -0.248 NA
ATOM     58  C   UNL A   1      47.496  29.129  30.129  1.00  0.00     0.031 C 
ATOM     59  C   UNL A   1      41.978  31.631  30.500  1.00  0.00     0.029 A 
ATOM     60  C   UNL A   1      43.010  30.732  30.279  1.00  0.00     0.049 A 
ATOM     61  H   UNL A   1      42.922  28.773  29.500  1.00  0.00     0.167 HD
ATOM     62  C   UNL A   1      45.372  29.977  30.277  1.00  0.00     0.074 A 
ATOM     63  C   UNL A   1      46.786  30.178  30.516  1.00  0.00     0.031 C 
ATOM     64  C   UNL A   1      44.418  30.908  30.523  1.00  0.00     0.037 A 
BRANCH  51  65
ATOM     65  C   UNL A   1      38.695  29.130  29.042  1.00  0.00     0.057 A 
ATOM     66  C   UNL A   1      37.823  29.054  30.137  1.00  0.00     0.134 A 
ATOM     67  C   UNL A   1      38.178  29.627  27.840  1.00  0.00     0.134 A 
ATOM     68  F   UNL A   1      38.250  28.576  31.315  1.00  0.00    -0.206 F 
ATOM     69  C   UNL A   1      36.486  29.441  30.034  1.00  0.00     0.040 A 
ATOM     70  C   UNL A   1      36.850  30.044  27.732  1.00  0.00     0.040 A 
ATOM     71  F   UNL A   1      38.958  29.732  26.754  1.00  0.00    -0.206 F 
ATOM     72  C   UNL A   1      35.999  29.949  28.831  1.00  0.00     0.006 A 
ENDBRANCH  51  65
BRANCH  52  73
ATOM     73  C   UNL A   1      48.329  26.471  29.237  1.00  0.00     0.057 A 
ATOM     74  C   UNL A   1      48.947  25.871  30.341  1.00  0.00     0.134 A 
ATOM     75  C   UNL A   1      49.132  26.745  28.122  1.00  0.00     0.134 A 
ATOM     76  F   UNL A   1      48.237  25.597  31.446  1.00  0.00    -0.206 F 
ATOM     77  C   UNL A   1      50.315  25.589  30.352  1.00  0.00     0.040 A 
ATOM     78  C   UNL A   1      50.494  26.440  28.107  1.00  0.00     0.040 A 
ATOM     79  F   UNL A   1      48.600  27.309  27.028  1.00  0.00    -0.206 F 
ATOM     80  C   UNL A   1      51.091  25.871  29.230  1.00  0.00     0.006 A 
ENDBRANCH  52  73
BRANCH  64  81
ATOM     81  C   UNL A   1      44.867  32.208  31.123  1.00  0.00     0.057 A 
ATOM     82  C   UNL A   1      45.204  33.315  30.334  1.00  0.00     0.134 A 
ATOM     83  C   UNL A   1      44.931  32.362  32.514  1.00  0.00     0.134 A 
ATOM     84  F   UNL A   1      45.175  33.230  28.996  1.00  0.00    -0.206 F 
ATOM     85  C   UNL A   1      45.618  34.519  30.906  1.00  0.00     0.040 A 
ATOM     86  C   UNL A   1      45.312  33.570  33.098  1.00  0.00     0.040 A 
ATOM     87  F   UNL A   1      44.611  31.346  33.328  1.00  0.00    -0.206 F 
ATOM     88  C   UNL A   1      45.666  34.650  32.293  1.00  0.00     0.006 A 
ENDBRANCH  64  81
ENDBRANCH  38  39
ENDBRANCH  30  33
ENDBRANCH  28  29
ENDBRANCH  27  28
ENDBRANCH   1  27
TORSDOF 14
ENDMDL
MODEL 2
REMARK VINA RESULT:     -12.4      1.736      2.444
REMARK SMILES CC(C)(C)c1ccc(NS(=O)(=O)c2cccc(C(=O)NCCCNC(=O)c3ccc(-c4c5nc(c(-c6c(F)cccc6F)c6ccc([nH]6)c(-c6c(F)cccc6F)c6nc(c(-c7c(F)cccc7F)c7ccc4[nH]7)C=C6)C=C5)cc3)c2)cc1
REMARK SMILES IDX 21 1 20 2 18 3 19 4 17 6 13 7 14 8 81 9 15 10 16 11 10 12
REMARK SMILES IDX 11 13 12 14 9 15 8 17 5 18 6 19 83 20 7 21 82 22 2 23 1 24
REMARK SMILES IDX 3 25 4 26 22 27 23 28 24 29 25 30 26 32 27 33 28 34 80 35
REMARK SMILES IDX 29 36 79 37 30 38 31 39 32 40 73 41 33 42 78 43 72 44 74 45
REMARK SMILES IDX 34 46 77 47 71 48 70 49 35 51 61 52 44 53 60 54 45 55 48 56
REMARK SMILES IDX 59 57 75 58 46 59 47 60 58 62 76 63 49 64 36 65 37 66 42 67
REMARK SMILES IDX 38 68 39 69 41 70 43 71 40 72 62 73 63 74 68 75 64 76 65 77
REMARK SMILES IDX 67 78 69 79 66 80 50 81 51 82 56 83 52 84 53 85 55 86 57 87
REMARK SMILES IDX 54 88
REMARK H PARENT 20 5 9 16 24 31 74 50 48 61
REMARK Flexibility Score: inf
ROOT
ATOM      1  C   UNL A   1      37.401  20.623  24.656  1.00  0.00     0.118 C 
ENDROOT
BRANCH   1   2
ATOM      2  N   UNL A   1      37.780  21.876  25.287  1.00  0.00    -0.352 N 
ATOM      3  C   UNL A   1      37.051  22.979  25.643  1.00  0.00     0.251 C 
ATOM      4  O   UNL A   1      37.640  23.924  26.166  1.00  0.00    -0.269 OA
ATOM      5  H   UNL A   1      38.740  21.945  25.496  1.00  0.00     0.163 HD
BRANCH   3   6
ATOM      6  C   UNL A   1      35.570  23.027  25.513  1.00  0.00     0.041 A 
ATOM      7  C   UNL A   1      33.500  23.027  24.263  1.00  0.00     0.088 A 
ATOM      8  C   UNL A   1      32.784  22.750  25.432  1.00  0.00     0.022 A 
ATOM      9  C   UNL A   1      34.892  23.187  24.302  1.00  0.00     0.036 A 
ATOM     10  C   UNL A   1      33.446  22.737  26.658  1.00  0.00     0.002 A 
ATOM     11  C   UNL A   1      34.834  22.870  26.698  1.00  0.00     0.014 A 
BRANCH   7  12
ATOM     12  S   UNL A   1      32.651  23.036  22.698  1.00  0.00     0.261 S 
ATOM     13  O   UNL A   1      31.955  21.774  22.582  1.00  0.00    -0.201 OA
ATOM     14  O   UNL A   1      33.613  23.428  21.685  1.00  0.00    -0.201 OA
BRANCH  12  15
ATOM     15  N   UNL A   1      31.459  24.258  22.715  1.00  0.00    -0.280 N 
ATOM     16  H   UNL A   1      30.679  24.202  22.116  1.00  0.00     0.180 HD
BRANCH  15  17
ATOM     17  C   UNL A   1      31.605  25.366  23.614  1.00  0.00     0.049 A 
ATOM     18  C   UNL A   1      32.027  27.494  25.438  1.00  0.00    -0.042 A 
ATOM     19  C   UNL A   1      32.871  27.291  24.334  1.00  0.00     0.006 A 
ATOM     20  C   UNL A   1      30.933  26.619  25.576  1.00  0.00     0.006 A 
ATOM     21  C   UNL A   1      32.633  26.277  23.408  1.00  0.00     0.027 A 
ATOM     22  C   UNL A   1      30.729  25.556  24.680  1.00  0.00     0.027 A 
BRANCH  18  23
ATOM     23  C   UNL A   1      32.337  28.594  26.470  1.00  0.00    -0.013 C 
ATOM     24  C   UNL A   1      31.483  28.331  27.726  1.00  0.00     0.016 C 
ATOM     25  C   UNL A   1      32.020  30.013  25.949  1.00  0.00     0.016 C 
ATOM     26  C   UNL A   1      33.828  28.599  26.884  1.00  0.00     0.016 C 
ENDBRANCH  18  23
ENDBRANCH  15  17
ENDBRANCH  12  15
ENDBRANCH   7  12
ENDBRANCH   3   6
ENDBRANCH   1   2
BRANCH   1  27
ATOM     27  C   UNL A   1      38.430  19.541  24.975  1.00  0.00     0.042 C 
BRANCH  27  28
ATOM     28  C   UNL A   1      39.383  19.953  26.093  1.00  0.00     0.118 C 
BRANCH  28  29
ATOM     29  N   UNL A   1      40.603  19.154  26.082  1.00  0.00    -0.352 N 
ATOM     30  C   UNL A   1      41.913  19.548  26.163  1.00  0.00     0.251 C 
ATOM     31  H   UNL A   1      40.463  18.182  26.004  1.00  0.00     0.163 HD
ATOM     32  O   UNL A   1      42.805  18.758  25.866  1.00  0.00    -0.269 OA
BRANCH  30  33
ATOM     33  C   UNL A   1      42.256  20.912  26.614  1.00  0.00     0.039 A 
ATOM     34  C   UNL A   1      42.310  21.176  27.985  1.00  0.00     0.014 A 
ATOM     35  C   UNL A   1      42.471  21.940  25.692  1.00  0.00     0.014 A 
ATOM     36  C   UNL A   1      42.618  22.463  28.429  1.00  0.00     0.010 A 
ATOM     37  C   UNL A   1      42.863  23.198  26.134  1.00  0.00     0.010 A 
ATOM     38  C   UNL A   1      42.923  23.478  27.507  1.00  0.00    -0.014 A 
BRANCH  38  39
ATOM     39  C   UNL A   1      43.286  24.844  27.961  1.00  0.00     0.031 A 
ATOM     40  C   UNL A   1      42.208  25.838  28.297  1.00  0.00     0.074 A 
ATOM     41  C   UNL A   1      44.583  25.203  28.008  1.00  0.00     0.049 A 
ATOM     42  N   UNL A   1      42.321  27.094  28.644  1.00  0.00    -0.248 NA
ATOM     43  C   UNL A   1      40.814  25.369  28.202  1.00  0.00     0.031 C 
ATOM     44  C   UNL A   1      45.714  24.344  27.649  1.00  0.00     0.029 A 
ATOM     45  N   UNL A   1      45.170  26.390  28.365  1.00  0.00    -0.354 N 
ATOM     46  C   UNL A   1      41.022  27.568  28.786  1.00  0.00     0.074 A 
ATOM     47  C   UNL A   1      40.135  26.481  28.439  1.00  0.00     0.031 C 
ATOM     48  C   UNL A   1      46.857  25.025  27.824  1.00  0.00     0.029 A 
ATOM     49  C   UNL A   1      46.541  26.379  28.267  1.00  0.00     0.049 A 
ATOM     50  H   UNL A   1      44.657  27.177  28.663  1.00  0.00     0.167 HD
ATOM     51  C   UNL A   1      40.609  28.792  29.190  1.00  0.00     0.037 A 
ATOM     52  C   UNL A   1      47.439  27.355  28.498  1.00  0.00     0.037 A 
ATOM     53  C   UNL A   1      41.500  29.857  29.569  1.00  0.00     0.049 A 
ATOM     54  C   UNL A   1      46.950  28.699  28.963  1.00  0.00     0.074 A 
ATOM     55  C   UNL A   1      41.181  31.109  30.066  1.00  0.00     0.029 A 
ATOM     56  N   UNL A   1      42.883  29.794  29.494  1.00  0.00    -0.354 N 
ATOM     57  N   UNL A   1      45.722  29.107  29.172  1.00  0.00    -0.248 NA
ATOM     58  C   UNL A   1      47.974  29.716  29.239  1.00  0.00     0.031 C 
ATOM     59  C   UNL A   1      42.370  31.823  30.242  1.00  0.00     0.029 A 
ATOM     60  C   UNL A   1      43.432  30.995  29.912  1.00  0.00     0.049 A 
ATOM     61  H   UNL A   1      43.397  29.013  29.188  1.00  0.00     0.167 HD
ATOM     62  C   UNL A   1      45.826  30.413  29.632  1.00  0.00     0.074 A 
ATOM     63  C   UNL A   1      47.239  30.722  29.690  1.00  0.00     0.031 C 
ATOM     64  C   UNL A   1      44.842  31.279  29.976  1.00  0.00     0.037 A 
BRANCH  51  65
ATOM     65  C   UNL A   1      39.131  29.050  29.250  1.00  0.00     0.057 A 
ATOM     66  C   UNL A   1      38.403  28.920  30.440  1.00  0.00     0.134 A 
ATOM     67  C   UNL A   1      38.440  29.498  28.117  1.00  0.00     0.134 A 
ATOM     68  F   UNL A   1      39.001  28.484  31.559  1.00  0.00    -0.206 F 
ATOM     69  C   UNL A   1      37.038  29.206  30.497  1.00  0.00     0.040 A 
ATOM     70  C   UNL A   1      37.081  29.815  28.168  1.00  0.00     0.040 A 
ATOM     71  F   UNL A   1      39.076  29.651  26.946  1.00  0.00    -0.206 F 
ATOM     72  C   UNL A   1      36.376  29.667  29.361  1.00  0.00     0.006 A 
ENDBRANCH  51  65
BRANCH  52  73
ATOM     73  C   UNL A   1      48.890  27.101  28.303  1.00  0.00     0.057 A 
ATOM     74  C   UNL A   1      49.698  26.659  29.357  1.00  0.00     0.134 A 
ATOM     75  C   UNL A   1      49.510  27.321  27.066  1.00  0.00     0.134 A 
ATOM     76  F   UNL A   1      49.168  26.445  30.570  1.00  0.00    -0.206 F 
ATOM     77  C   UNL A   1      51.074  26.480  29.199  1.00  0.00     0.040 A 
ATOM     78  C   UNL A   1      50.879  27.116  26.886  1.00  0.00     0.040 A 
ATOM     79  F   UNL A   1      48.791  27.734  26.012  1.00  0.00    -0.206 F 
ATOM     80  C   UNL A   1      51.666  26.705  27.959  1.00  0.00     0.006 A 
ENDBRANCH  52  73
BRANCH  64  81
ATOM     81  C   UNL A   1      45.262  32.625  30.491  1.00  0.00     0.057 A 
ATOM     82  C   UNL A   1      45.529  32.852  31.847  1.00  0.00     0.134 A 
ATOM     83  C   UNL A   1      45.434  33.699  29.609  1.00  0.00     0.134 A 
ATOM     84  F   UNL A   1      45.371  31.868  32.745  1.00  0.00    -0.206 F 
ATOM     85  C   UNL A   1      45.920  34.109  32.312  1.00  0.00     0.040 A 
ATOM     86  C   UNL A   1      45.857  34.951  30.057  1.00  0.00     0.040 A 
ATOM     87  F   UNL A   1      45.208  33.547  28.296  1.00  0.00    -0.206 F 
ATOM     88  C   UNL A   1      46.092  35.160  31.414  1.00  0.00     0.006 A 
ENDBRANCH  64  81
ENDBRANCH  38  39
ENDBRANCH  30  33
ENDBRANCH  28  29
ENDBRANCH  27  28
ENDBRANCH   1  27
TORSDOF 14
ENDMDL
MODEL 3
REMARK VINA RESULT:     -12.3      1.690      6.507
REMARK SMILES CC(C)(C)c1ccc(NS(=O)(=O)c2cccc(C(=O)NCCCNC(=O)c3ccc(-c4c5nc(c(-c6c(F)cccc6F)c6ccc([nH]6)c(-c6c(F)cccc6F)c6nc(c(-c7c(F)cccc7F)c7ccc4[nH]7)C=C6)C=C5)cc3)c2)cc1
REMARK SMILES IDX 21 1 20 2 18 3 19 4 17 6 13 7 14 8 81 9 15 10 16 11 10 12
REMARK SMILES IDX 11 13 12 14 9 15 8 17 5 18 6 19 83 20 7 21 82 22 2 23 1 24
REMARK SMILES IDX 3 25 4 26 22 27 23 28 24 29 25 30 26 32 27 33 28 34 80 35
REMARK SMILES IDX 29 36 79 37 30 38 31 39 32 40 73 41 33 42 78 43 72 44 74 45
REMARK SMILES IDX 34 46 77 47 71 48 70 49 35 51 61 52 44 53 60 54 45 55 48 56
REMARK SMILES IDX 59 57 75 58 46 59 47 60 58 62 76 63 49 64 36 65 37 66 42 67
REMARK SMILES IDX 38 68 39 69 41 70 43 71 40 72 62 73 63 74 68 75 64 76 65 77
REMARK SMILES IDX 67 78 69 79 66 80 50 81 51 82 56 83 52 84 53 85 55 86 57 87
REMARK SMILES IDX 54 88
REMARK H PARENT 20 5 9 16 24 31 74 50 48 61
REMARK Flexibility Score: inf
ROOT
ATOM      1  C   UNL A   1      37.470  20.295  24.666  1.00  0.00     0.118 C 
ENDROOT
BRANCH   1   2
ATOM      2  N   UNL A   1      37.788  21.617  25.181  1.00  0.00    -0.352 N 
ATOM      3  C   UNL A   1      37.003  22.705  25.457  1.00  0.00     0.251 C 
ATOM      4  O   UNL A   1      37.547  23.722  25.886  1.00  0.00    -0.269 OA
ATOM      5  H   UNL A   1      38.745  21.756  25.363  1.00  0.00     0.163 HD
BRANCH   3   6
ATOM      6  C   UNL A   1      35.521  22.661  25.354  1.00  0.00     0.041 A 
ATOM      7  C   UNL A   1      33.429  22.643  24.142  1.00  0.00     0.088 A 
ATOM      8  C   UNL A   1      32.759  22.196  25.286  1.00  0.00     0.022 A 
ATOM      9  C   UNL A   1      34.806  22.897  24.177  1.00  0.00     0.036 A 
ATOM     10  C   UNL A   1      33.447  22.104  26.494  1.00  0.00     0.002 A 
ATOM     11  C   UNL A   1      34.823  22.330  26.527  1.00  0.00     0.014 A 
BRANCH   7  12
ATOM     12  S   UNL A   1      32.547  22.755  22.599  1.00  0.00     0.261 S 
ATOM     13  O   UNL A   1      31.946  21.462  22.357  1.00  0.00    -0.201 OA
ATOM     14  O   UNL A   1      33.454  23.326  21.621  1.00  0.00    -0.201 OA
BRANCH  12  15
ATOM     15  N   UNL A   1      31.267  23.872  22.764  1.00  0.00    -0.280 N 
ATOM     16  H   UNL A   1      30.424  23.740  22.272  1.00  0.00     0.180 HD
BRANCH  15  17
ATOM     17  C   UNL A   1      31.433  25.002  23.630  1.00  0.00     0.049 A 
ATOM     18  C   UNL A   1      31.905  27.190  25.371  1.00  0.00    -0.042 A 
ATOM     19  C   UNL A   1      32.603  27.047  24.161  1.00  0.00     0.006 A 
ATOM     20  C   UNL A   1      30.927  26.221  25.663  1.00  0.00     0.006 A 
ATOM     21  C   UNL A   1      32.333  26.000  23.280  1.00  0.00     0.027 A 
ATOM     22  C   UNL A   1      30.700  25.129  24.808  1.00  0.00     0.027 A 
BRANCH  18  23
ATOM     23  C   UNL A   1      32.252  28.330  26.346  1.00  0.00    -0.013 C 
ATOM     24  C   UNL A   1      31.403  28.149  27.620  1.00  0.00     0.016 C 
ATOM     25  C   UNL A   1      31.964  29.730  25.760  1.00  0.00     0.016 C 
ATOM     26  C   UNL A   1      33.747  28.317  26.747  1.00  0.00     0.016 C 
ENDBRANCH  18  23
ENDBRANCH  15  17
ENDBRANCH  12  15
ENDBRANCH   7  12
ENDBRANCH   3   6
ENDBRANCH   1   2
BRANCH   1  27
ATOM     27  C   UNL A   1      38.421  19.257  25.257  1.00  0.00     0.042 C 
BRANCH  27  28
ATOM     28  C   UNL A   1      39.506  19.887  26.125  1.00  0.00     0.118 C 
BRANCH  28  29
ATOM     29  N   UNL A   1      40.762  19.154  26.032  1.00  0.00    -0.352 N 
ATOM     30  C   UNL A   1      42.053  19.616  26.043  1.00  0.00     0.251 C 
ATOM     31  H   UNL A   1      40.670  18.177  25.948  1.00  0.00     0.163 HD
ATOM     32  O   UNL A   1      42.965  18.878  25.683  1.00  0.00    -0.269 OA
BRANCH  30  33
ATOM     33  C   UNL A   1      42.350  20.991  26.492  1.00  0.00     0.039 A 
ATOM     34  C   UNL A   1      42.658  21.962  25.536  1.00  0.00     0.014 A 
ATOM     35  C   UNL A   1      42.379  21.311  27.852  1.00  0.00     0.014 A 
ATOM     36  C   UNL A   1      42.956  23.263  25.944  1.00  0.00     0.010 A 
ATOM     37  C   UNL A   1      42.590  22.625  28.252  1.00  0.00     0.010 A 
ATOM     38  C   UNL A   1      42.899  23.612  27.303  1.00  0.00    -0.014 A 
BRANCH  38  39
ATOM     39  C   UNL A   1      43.179  24.998  27.753  1.00  0.00     0.031 A 
ATOM     40  C   UNL A   1      44.598  25.443  27.983  1.00  0.00     0.074 A 
ATOM     41  C   UNL A   1      42.153  25.831  28.012  1.00  0.00     0.049 A 
ATOM     42  N   UNL A   1      45.042  26.587  28.439  1.00  0.00    -0.248 NA
ATOM     43  C   UNL A   1      45.660  24.466  27.692  1.00  0.00     0.031 C 
ATOM     44  C   UNL A   1      40.734  25.493  27.883  1.00  0.00     0.029 A 
ATOM     45  N   UNL A   1      42.144  27.130  28.453  1.00  0.00    -0.354 N 
ATOM     46  C   UNL A   1      46.424  26.457  28.509  1.00  0.00     0.074 A 
ATOM     47  C   UNL A   1      46.744  25.109  28.098  1.00  0.00     0.031 C 
ATOM     48  C   UNL A   1      39.994  26.562  28.216  1.00  0.00     0.029 A 
ATOM     49  C   UNL A   1      40.882  27.647  28.620  1.00  0.00     0.049 A 
ATOM     50  H   UNL A   1      42.965  27.643  28.633  1.00  0.00     0.167 HD
ATOM     51  C   UNL A   1      47.342  27.386  28.864  1.00  0.00     0.037 A 
ATOM     52  C   UNL A   1      40.487  28.856  29.062  1.00  0.00     0.037 A 
ATOM     53  C   UNL A   1      47.017  28.738  29.236  1.00  0.00     0.049 A 
ATOM     54  C   UNL A   1      41.532  29.873  29.431  1.00  0.00     0.074 A 
ATOM     55  C   UNL A   1      47.878  29.778  29.537  1.00  0.00     0.029 A 
ATOM     56  N   UNL A   1      45.728  29.236  29.356  1.00  0.00    -0.354 N 
ATOM     57  N   UNL A   1      42.838  29.763  29.413  1.00  0.00    -0.248 NA
ATOM     58  C   UNL A   1      41.047  31.190  29.868  1.00  0.00     0.031 C 
ATOM     59  C   UNL A   1      47.110  30.891  29.892  1.00  0.00     0.029 A 
ATOM     60  C   UNL A   1      45.771  30.562  29.752  1.00  0.00     0.049 A 
ATOM     61  H   UNL A   1      44.906  28.722  29.186  1.00  0.00     0.167 HD
ATOM     62  C   UNL A   1      43.331  31.000  29.805  1.00  0.00     0.074 A 
ATOM     63  C   UNL A   1      42.183  31.852  30.035  1.00  0.00     0.031 C 
ATOM     64  C   UNL A   1      44.617  31.398  29.962  1.00  0.00     0.037 A 
BRANCH  51  65
ATOM     65  C   UNL A   1      48.788  26.981  28.863  1.00  0.00     0.057 A 
ATOM     66  C   UNL A   1      49.618  27.196  27.755  1.00  0.00     0.134 A 
ATOM     67  C   UNL A   1      49.373  26.427  30.009  1.00  0.00     0.134 A 
ATOM     68  F   UNL A   1      49.120  27.712  26.622  1.00  0.00    -0.206 F 
ATOM     69  C   UNL A   1      50.972  26.858  27.780  1.00  0.00     0.040 A 
ATOM     70  C   UNL A   1      50.732  26.111  30.056  1.00  0.00     0.040 A 
ATOM     71  F   UNL A   1      48.638  26.199  31.108  1.00  0.00    -0.206 F 
ATOM     72  C   UNL A   1      51.535  26.324  28.937  1.00  0.00     0.006 A 
ENDBRANCH  51  65
BRANCH  52  73
ATOM     73  C   UNL A   1      39.041  29.179  29.173  1.00  0.00     0.057 A 
ATOM     74  C   UNL A   1      38.366  29.078  30.395  1.00  0.00     0.134 A 
ATOM     75  C   UNL A   1      38.292  29.567  28.054  1.00  0.00     0.134 A 
ATOM     76  F   UNL A   1      39.023  28.695  31.499  1.00  0.00    -0.206 F 
ATOM     77  C   UNL A   1      36.994  29.317  30.495  1.00  0.00     0.040 A 
ATOM     78  C   UNL A   1      36.926  29.840  28.146  1.00  0.00     0.040 A 
ATOM     79  F   UNL A   1      38.881  29.693  26.856  1.00  0.00    -0.206 F 
ATOM     80  C   UNL A   1      36.271  29.702  29.368  1.00  0.00     0.006 A 
ENDBRANCH  52  73
BRANCH  64  81
ATOM     81  C   UNL A   1      44.851  32.827  30.354  1.00  0.00     0.057 A 
ATOM     82  C   UNL A   1      44.965  33.850  29.404  1.00  0.00     0.134 A 
ATOM     83  C   UNL A   1      44.928  33.188  31.705  1.00  0.00     0.134 A 
ATOM     84  F   UNL A   1      44.912  33.570  28.093  1.00  0.00    -0.206 F 
ATOM     85  C   UNL A   1      45.181  35.176  29.783  1.00  0.00     0.040 A 
ATOM     86  C   UNL A   1      45.110  34.514  32.098  1.00  0.00     0.040 A 
ATOM     87  F   UNL A   1      44.814  32.260  32.667  1.00  0.00    -0.206 F 
ATOM     88  C   UNL A   1      45.246  35.511  31.135  1.00  0.00     0.006 A 
ENDBRANCH  64  81
ENDBRANCH  38  39
ENDBRANCH  30  33
ENDBRANCH  28  29
ENDBRANCH  27  28
ENDBRANCH   1  27
TORSDOF 14
ENDMDL
