MODEL 1
REMARK VINA RESULT:     -12.2      0.000      0.000
REMARK SMILES CN(C)c1cc(C(F)(F)F)cc(-c2cccc(/C=C/C(=O)NCCCNC(=O)c3ccc(-c4c5nc(c(-c6c(F)cccc6F)c6ccc([nH]6)c(-c6c(F)cccc6F)c6nc(c(-c7c(F)cccc7F)c7ccc4[nH]7)C=C6)C=C5)cc3)c2)n1
REMARK SMILES IDX 23 1 22 2 20 3 21 4 19 6 18 7 17 8 13 9 14 10 83 11 15 12
REMARK SMILES IDX 16 13 12 14 4 15 5 16 84 17 6 18 11 19 2 20 1 21 3 22 7 23
REMARK SMILES IDX 8 24 9 25 10 26 24 27 25 28 26 29 27 30 28 32 29 33 30 34
REMARK SMILES IDX 82 35 31 36 81 37 32 38 33 39 34 40 75 41 35 42 80 43 74 44
REMARK SMILES IDX 76 45 36 46 79 47 73 48 72 49 37 51 63 52 46 53 62 54 47 55
REMARK SMILES IDX 50 56 61 57 77 58 48 59 49 60 60 62 78 63 51 64 38 65 39 66
REMARK SMILES IDX 44 67 40 68 41 69 43 70 45 71 42 72 64 73 65 74 70 75 66 76
REMARK SMILES IDX 67 77 69 78 71 79 68 80 52 81 53 82 58 83 54 84 55 85 57 86
REMARK SMILES IDX 59 87 56 88
REMARK H PARENT 22 5 26 31 76 50 50 61
REMARK Flexibility Score: inf
ROOT
ATOM      1  C   UNL A   1      31.868  30.538  26.914  1.00  0.00     0.118 C 
ENDROOT
BRANCH   1   2
ATOM      2  N   UNL A   1      33.080  30.285  27.674  1.00  0.00    -0.352 N 
ATOM      3  C   UNL A   1      34.127  29.454  27.421  1.00  0.00     0.244 C 
ATOM      4  O   UNL A   1      35.122  29.493  28.140  1.00  0.00    -0.270 OA
ATOM      5  H   UNL A   1      33.157  30.801  28.509  1.00  0.00     0.163 HD
BRANCH   3   6
ATOM      6  C   UNL A   1      34.119  28.562  26.241  1.00  0.00     0.072 C 
ATOM      7  C   UNL A   1      33.703  27.288  26.279  1.00  0.00     0.014 C 
BRANCH   7   8
ATOM      8  C   UNL A   1      33.712  26.380  25.125  1.00  0.00    -0.025 A 
ATOM      9  C   UNL A   1      34.220  24.149  24.250  1.00  0.00     0.001 A 
ATOM     10  C   UNL A   1      33.921  24.612  22.961  1.00  0.00     0.010 A 
ATOM     11  C   UNL A   1      34.114  25.051  25.323  1.00  0.00     0.018 A 
ATOM     12  C   UNL A   1      33.511  25.930  22.751  1.00  0.00     0.001 A 
ATOM     13  C   UNL A   1      33.411  26.812  23.829  1.00  0.00     0.008 A 
BRANCH   9  14
ATOM     14  C   UNL A   1      34.648  22.764  24.470  1.00  0.00     0.073 A 
ATOM     15  C   UNL A   1      36.462  21.338  24.842  1.00  0.00     0.129 A 
ATOM     16  C   UNL A   1      35.605  20.242  24.881  1.00  0.00     0.060 A 
ATOM     17  N   UNL A   1      35.978  22.583  24.644  1.00  0.00    -0.231 NA
ATOM     18  C   UNL A   1      34.226  20.420  24.722  1.00  0.00     0.061 A 
ATOM     19  C   UNL A   1      33.744  21.712  24.505  1.00  0.00     0.042 A 
BRANCH  15  20
ATOM     20  N   UNL A   1      37.831  21.165  25.036  1.00  0.00    -0.363 N 
ATOM     21  C   UNL A   1      38.481  22.096  25.946  1.00  0.00     0.144 C 
ATOM     22  C   UNL A   1      38.294  19.785  25.046  1.00  0.00     0.144 C 
ENDBRANCH  15  20
BRANCH  18  23
ATOM     23  C   UNL A   1      33.276  19.260  24.799  1.00  0.00     0.416 C 
ATOM     24  F   UNL A   1      33.828  18.108  24.328  1.00  0.00    -0.166 F 
ATOM     25  F   UNL A   1      32.885  18.992  26.075  1.00  0.00    -0.166 F 
ATOM     26  F   UNL A   1      32.129  19.442  24.088  1.00  0.00    -0.166 F 
ENDBRANCH  18  23
ENDBRANCH   9  14
ENDBRANCH   7   8
ENDBRANCH   3   6
ENDBRANCH   1   2
BRANCH   1  27
ATOM     27  C   UNL A   1      31.572  32.032  26.802  1.00  0.00     0.042 C 
BRANCH  27  28
ATOM     28  C   UNL A   1      32.818  32.914  26.869  1.00  0.00     0.118 C 
BRANCH  28  29
ATOM     29  N   UNL A   1      32.595  34.123  27.648  1.00  0.00    -0.352 N 
ATOM     30  C   UNL A   1      33.176  34.548  28.817  1.00  0.00     0.251 C 
ATOM     31  H   UNL A   1      31.917  34.733  27.279  1.00  0.00     0.163 HD
ATOM     32  O   UNL A   1      32.689  35.501  29.419  1.00  0.00    -0.269 OA
BRANCH  30  33
ATOM     33  C   UNL A   1      34.376  33.875  29.363  1.00  0.00     0.039 A 
ATOM     34  C   UNL A   1      35.638  34.337  28.971  1.00  0.00     0.014 A 
ATOM     35  C   UNL A   1      34.273  32.761  30.198  1.00  0.00     0.014 A 
ATOM     36  C   UNL A   1      36.791  33.715  29.456  1.00  0.00     0.010 A 
ATOM     37  C   UNL A   1      35.423  32.180  30.732  1.00  0.00     0.010 A 
ATOM     38  C   UNL A   1      36.695  32.647  30.361  1.00  0.00    -0.014 A 
BRANCH  38  39
ATOM     39  C   UNL A   1      37.910  32.008  30.927  1.00  0.00     0.031 A 
ATOM     40  C   UNL A   1      38.618  30.918  30.169  1.00  0.00     0.074 A 
ATOM     41  C   UNL A   1      38.341  32.367  32.152  1.00  0.00     0.049 A 
ATOM     42  N   UNL A   1      39.648  30.195  30.531  1.00  0.00    -0.248 NA
ATOM     43  C   UNL A   1      38.086  30.579  28.840  1.00  0.00     0.031 C 
ATOM     44  C   UNL A   1      37.718  33.382  33.004  1.00  0.00     0.029 A 
ATOM     45  N   UNL A   1      39.399  31.912  32.898  1.00  0.00    -0.354 N 
ATOM     46  C   UNL A   1      39.872  29.304  29.488  1.00  0.00     0.074 A 
ATOM     47  C   UNL A   1      38.849  29.551  28.495  1.00  0.00     0.031 C 
ATOM     48  C   UNL A   1      38.415  33.484  34.147  1.00  0.00     0.029 A 
ATOM     49  C   UNL A   1      39.511  32.521  34.124  1.00  0.00     0.049 A 
ATOM     50  H   UNL A   1      40.019  31.215  32.583  1.00  0.00     0.167 HD
ATOM     51  C   UNL A   1      40.851  28.377  29.362  1.00  0.00     0.037 A 
ATOM     52  C   UNL A   1      40.394  32.319  35.121  1.00  0.00     0.037 A 
ATOM     53  C   UNL A   1      41.891  28.159  30.333  1.00  0.00     0.049 A 
ATOM     54  C   UNL A   1      41.474  31.289  34.950  1.00  0.00     0.074 A 
ATOM     55  C   UNL A   1      42.969  27.294  30.261  1.00  0.00     0.029 A 
ATOM     56  N   UNL A   1      41.983  28.812  31.551  1.00  0.00    -0.354 N 
ATOM     57  N   UNL A   1      41.713  30.503  33.928  1.00  0.00    -0.248 NA
ATOM     58  C   UNL A   1      42.412  31.120  36.069  1.00  0.00     0.031 C 
ATOM     59  C   UNL A   1      43.694  27.397  31.453  1.00  0.00     0.029 A 
ATOM     60  C   UNL A   1      43.090  28.356  32.248  1.00  0.00     0.049 A 
ATOM     61  H   UNL A   1      41.356  29.500  31.874  1.00  0.00     0.167 HD
ATOM     62  C   UNL A   1      42.844  29.772  34.268  1.00  0.00     0.074 A 
ATOM     63  C   UNL A   1      43.251  30.215  35.585  1.00  0.00     0.031 C 
ATOM     64  C   UNL A   1      43.489  28.819  33.552  1.00  0.00     0.037 A 
BRANCH  51  65
ATOM     65  C   UNL A   1      40.853  27.528  28.125  1.00  0.00     0.057 A 
ATOM     66  C   UNL A   1      41.570  27.894  26.979  1.00  0.00     0.134 A 
ATOM     67  C   UNL A   1      40.174  26.303  28.099  1.00  0.00     0.134 A 
ATOM     68  F   UNL A   1      42.233  29.059  26.935  1.00  0.00    -0.206 F 
ATOM     69  C   UNL A   1      41.597  27.080  25.845  1.00  0.00     0.040 A 
ATOM     70  C   UNL A   1      40.213  25.470  26.979  1.00  0.00     0.040 A 
ATOM     71  F   UNL A   1      39.473  25.889  29.166  1.00  0.00    -0.206 F 
ATOM     72  C   UNL A   1      40.923  25.861  25.846  1.00  0.00     0.006 A 
ENDBRANCH  51  65
BRANCH  52  73
ATOM     73  C   UNL A   1      40.310  33.123  36.365  1.00  0.00     0.057 A 
ATOM     74  C   UNL A   1      39.440  32.760  37.400  1.00  0.00     0.134 A 
ATOM     75  C   UNL A   1      41.077  34.280  36.545  1.00  0.00     0.134 A 
ATOM     76  F   UNL A   1      38.665  31.672  37.277  1.00  0.00    -0.206 F 
ATOM     77  C   UNL A   1      39.315  33.531  38.556  1.00  0.00     0.040 A 
ATOM     78  C   UNL A   1      40.981  35.048  37.706  1.00  0.00     0.040 A 
ATOM     79  F   UNL A   1      41.934  34.679  35.594  1.00  0.00    -0.206 F 
ATOM     80  C   UNL A   1      40.092  34.677  38.713  1.00  0.00     0.006 A 
ENDBRANCH  52  73
BRANCH  64  81
ATOM     81  C   UNL A   1      44.724  28.224  34.159  1.00  0.00     0.057 A 
ATOM     82  C   UNL A   1      45.987  28.803  33.982  1.00  0.00     0.134 A 
ATOM     83  C   UNL A   1      44.643  27.078  34.960  1.00  0.00     0.134 A 
ATOM     84  F   UNL A   1      46.133  29.894  33.215  1.00  0.00    -0.206 F 
ATOM     85  C   UNL A   1      47.129  28.250  34.564  1.00  0.00     0.040 A 
ATOM     86  C   UNL A   1      45.773  26.530  35.566  1.00  0.00     0.040 A 
ATOM     87  F   UNL A   1      43.461  26.479  35.175  1.00  0.00    -0.206 F 
ATOM     88  C   UNL A   1      47.022  27.114  35.365  1.00  0.00     0.006 A 
ENDBRANCH  64  81
ENDBRANCH  38  39
ENDBRANCH  30  33
ENDBRANCH  28  29
ENDBRANCH  27  28
ENDBRANCH   1  27
TORSDOF 14
ENDMDL
MODEL 2
REMARK VINA RESULT:     -12.1      0.298      6.131
REMARK SMILES CN(C)c1cc(C(F)(F)F)cc(-c2cccc(/C=C/C(=O)NCCCNC(=O)c3ccc(-c4c5nc(c(-c6c(F)cccc6F)c6ccc([nH]6)c(-c6c(F)cccc6F)c6nc(c(-c7c(F)cccc7F)c7ccc4[nH]7)C=C6)C=C5)cc3)c2)n1
REMARK SMILES IDX 23 1 22 2 20 3 21 4 19 6 18 7 17 8 13 9 14 10 83 11 15 12
REMARK SMILES IDX 16 13 12 14 4 15 5 16 84 17 6 18 11 19 2 20 1 21 3 22 7 23
REMARK SMILES IDX 8 24 9 25 10 26 24 27 25 28 26 29 27 30 28 32 29 33 30 34
REMARK SMILES IDX 82 35 31 36 81 37 32 38 33 39 34 40 75 41 35 42 80 43 74 44
REMARK SMILES IDX 76 45 36 46 79 47 73 48 72 49 37 51 63 52 46 53 62 54 47 55
REMARK SMILES IDX 50 56 61 57 77 58 48 59 49 60 60 62 78 63 51 64 38 65 39 66
REMARK SMILES IDX 44 67 40 68 41 69 43 70 45 71 42 72 64 73 65 74 70 75 66 76
REMARK SMILES IDX 67 77 69 78 71 79 68 80 52 81 53 82 58 83 54 84 55 85 57 86
REMARK SMILES IDX 59 87 56 88
REMARK H PARENT 22 5 26 31 76 50 50 61
REMARK Flexibility Score: inf
ROOT
ATOM      1  C   UNL A   1      31.878  30.575  26.886  1.00  0.00     0.118 C 
ENDROOT
BRANCH   1   2
ATOM      2  N   UNL A   1      33.074  30.300  27.663  1.00  0.00    -0.352 N 
ATOM      3  C   UNL A   1      34.110  29.450  27.423  1.00  0.00     0.244 C 
ATOM      4  O   UNL A   1      35.094  29.470  28.157  1.00  0.00    -0.270 OA
ATOM      5  H   UNL A   1      33.148  30.812  28.500  1.00  0.00     0.163 HD
BRANCH   3   6
ATOM      6  C   UNL A   1      34.103  28.561  26.241  1.00  0.00     0.072 C 
ATOM      7  C   UNL A   1      33.664  27.294  26.270  1.00  0.00     0.014 C 
BRANCH   7   8
ATOM      8  C   UNL A   1      33.674  26.389  25.115  1.00  0.00    -0.025 A 
ATOM      9  C   UNL A   1      34.196  24.164  24.232  1.00  0.00     0.001 A 
ATOM     10  C   UNL A   1      33.885  24.627  22.946  1.00  0.00     0.010 A 
ATOM     11  C   UNL A   1      34.089  25.063  25.307  1.00  0.00     0.018 A 
ATOM     12  C   UNL A   1      33.461  25.942  22.741  1.00  0.00     0.001 A 
ATOM     13  C   UNL A   1      33.360  26.820  23.821  1.00  0.00     0.008 A 
BRANCH   9  14
ATOM     14  C   UNL A   1      34.639  22.783  24.446  1.00  0.00     0.073 A 
ATOM     15  C   UNL A   1      36.466  21.377  24.833  1.00  0.00     0.129 A 
ATOM     16  C   UNL A   1      35.621  20.270  24.850  1.00  0.00     0.060 A 
ATOM     17  N   UNL A   1      35.969  22.617  24.638  1.00  0.00    -0.231 NA
ATOM     18  C   UNL A   1      34.243  20.432  24.671  1.00  0.00     0.061 A 
ATOM     19  C   UNL A   1      33.748  21.719  24.459  1.00  0.00     0.042 A 
BRANCH  15  20
ATOM     20  N   UNL A   1      37.834  21.219  25.046  1.00  0.00    -0.363 N 
ATOM     21  C   UNL A   1      38.460  22.160  25.962  1.00  0.00     0.144 C 
ATOM     22  C   UNL A   1      38.312  19.844  25.066  1.00  0.00     0.144 C 
ENDBRANCH  15  20
BRANCH  18  23
ATOM     23  C   UNL A   1      33.307  19.259  24.724  1.00  0.00     0.416 C 
ATOM     24  F   UNL A   1      32.436  19.246  23.678  1.00  0.00    -0.166 F 
ATOM     25  F   UNL A   1      33.964  18.067  24.678  1.00  0.00    -0.166 F 
ATOM     26  F   UNL A   1      32.541  19.219  25.849  1.00  0.00    -0.166 F 
ENDBRANCH  18  23
ENDBRANCH   9  14
ENDBRANCH   7   8
ENDBRANCH   3   6
ENDBRANCH   1   2
BRANCH   1  27
ATOM     27  C   UNL A   1      31.538  32.064  26.880  1.00  0.00     0.042 C 
BRANCH  27  28
ATOM     28  C   UNL A   1      32.761  32.975  26.799  1.00  0.00     0.118 C 
BRANCH  28  29
ATOM     29  N   UNL A   1      32.602  34.183  27.596  1.00  0.00    -0.352 N 
ATOM     30  C   UNL A   1      33.201  34.557  28.773  1.00  0.00     0.251 C 
ATOM     31  H   UNL A   1      31.961  34.836  27.233  1.00  0.00     0.163 HD
ATOM     32  O   UNL A   1      32.765  35.526  29.387  1.00  0.00    -0.269 OA
BRANCH  30  33
ATOM     33  C   UNL A   1      34.359  33.810  29.313  1.00  0.00     0.039 A 
ATOM     34  C   UNL A   1      35.646  34.198  28.923  1.00  0.00     0.014 A 
ATOM     35  C   UNL A   1      34.191  32.697  30.140  1.00  0.00     0.014 A 
ATOM     36  C   UNL A   1      36.760  33.505  29.402  1.00  0.00     0.010 A 
ATOM     37  C   UNL A   1      35.305  32.045  30.668  1.00  0.00     0.010 A 
ATOM     38  C   UNL A   1      36.601  32.439  30.299  1.00  0.00    -0.014 A 
BRANCH  38  39
ATOM     39  C   UNL A   1      37.776  31.724  30.860  1.00  0.00     0.031 A 
ATOM     40  C   UNL A   1      38.303  32.080  32.224  1.00  0.00     0.074 A 
ATOM     41  C   UNL A   1      38.406  30.794  30.116  1.00  0.00     0.049 A 
ATOM     42  N   UNL A   1      39.356  31.618  32.849  1.00  0.00    -0.248 NA
ATOM     43  C   UNL A   1      37.563  33.107  32.974  1.00  0.00     0.031 C 
ATOM     44  C   UNL A   1      38.018  30.387  28.764  1.00  0.00     0.029 A 
ATOM     45  N   UNL A   1      39.513  30.030  30.387  1.00  0.00    -0.354 N 
ATOM     46  C   UNL A   1      39.418  32.312  34.052  1.00  0.00     0.074 A 
ATOM     47  C   UNL A   1      38.318  33.252  34.054  1.00  0.00     0.031 C 
ATOM     48  C   UNL A   1      38.861  29.436  28.332  1.00  0.00     0.029 A 
ATOM     49  C   UNL A   1      39.869  29.191  29.360  1.00  0.00     0.049 A 
ATOM     50  H   UNL A   1      40.005  30.077  31.238  1.00  0.00     0.167 HD
ATOM     51  C   UNL A   1      40.300  32.166  35.069  1.00  0.00     0.037 A 
ATOM     52  C   UNL A   1      40.897  28.327  29.254  1.00  0.00     0.037 A 
ATOM     53  C   UNL A   1      41.370  31.203  35.083  1.00  0.00     0.049 A 
ATOM     54  C   UNL A   1      41.856  28.181  30.401  1.00  0.00     0.074 A 
ATOM     55  C   UNL A   1      42.271  30.930  36.098  1.00  0.00     0.029 A 
ATOM     56  N   UNL A   1      41.683  30.356  34.032  1.00  0.00    -0.354 N 
ATOM     57  N   UNL A   1      41.859  28.794  31.560  1.00  0.00    -0.248 NA
ATOM     58  C   UNL A   1      42.952  27.216  30.230  1.00  0.00     0.031 C 
ATOM     59  C   UNL A   1      43.152  29.942  35.647  1.00  0.00     0.029 A 
ATOM     60  C   UNL A   1      42.774  29.572  34.368  1.00  0.00     0.049 A 
ATOM     61  H   UNL A   1      41.200  30.317  33.174  1.00  0.00     0.167 HD
ATOM     62  C   UNL A   1      42.934  28.270  32.265  1.00  0.00     0.074 A 
ATOM     63  C   UNL A   1      43.553  27.279  31.410  1.00  0.00     0.031 C 
ATOM     64  C   UNL A   1      43.369  28.580  33.510  1.00  0.00     0.037 A 
BRANCH  51  65
ATOM     65  C   UNL A   1      40.145  33.064  36.261  1.00  0.00     0.057 A 
ATOM     66  C   UNL A   1      40.874  34.253  36.390  1.00  0.00     0.134 A 
ATOM     67  C   UNL A   1      39.215  32.764  37.265  1.00  0.00     0.134 A 
ATOM     68  F   UNL A   1      41.788  34.594  35.469  1.00  0.00    -0.206 F 
ATOM     69  C   UNL A   1      40.697  35.102  37.484  1.00  0.00     0.040 A 
ATOM     70  C   UNL A   1      39.012  33.617  38.351  1.00  0.00     0.040 A 
ATOM     71  F   UNL A   1      38.478  31.644  37.199  1.00  0.00    -0.206 F 
ATOM     72  C   UNL A   1      39.758  34.788  38.465  1.00  0.00     0.006 A 
ENDBRANCH  51  65
BRANCH  52  73
ATOM     73  C   UNL A   1      41.065  27.514  28.024  1.00  0.00     0.057 A 
ATOM     74  C   UNL A   1      41.786  28.005  26.929  1.00  0.00     0.134 A 
ATOM     75  C   UNL A   1      40.495  26.241  27.901  1.00  0.00     0.134 A 
ATOM     76  F   UNL A   1      42.339  29.227  26.980  1.00  0.00    -0.206 F 
ATOM     77  C   UNL A   1      41.914  27.273  25.749  1.00  0.00     0.040 A 
ATOM     78  C   UNL A   1      40.635  25.487  26.736  1.00  0.00     0.040 A 
ATOM     79  F   UNL A   1      39.797  25.711  28.917  1.00  0.00    -0.206 F 
ATOM     80  C   UNL A   1      41.340  26.007  25.652  1.00  0.00     0.006 A 
ENDBRANCH  52  73
BRANCH  64  81
ATOM     81  C   UNL A   1      44.543  27.811  34.038  1.00  0.00     0.057 A 
ATOM     82  C   UNL A   1      44.385  26.598  34.722  1.00  0.00     0.134 A 
ATOM     83  C   UNL A   1      45.849  28.271  33.827  1.00  0.00     0.134 A 
ATOM     84  F   UNL A   1      43.159  26.111  34.967  1.00  0.00    -0.206 F 
ATOM     85  C   UNL A   1      45.485  25.882  35.196  1.00  0.00     0.040 A 
ATOM     86  C   UNL A   1      46.957  27.553  34.275  1.00  0.00     0.040 A 
ATOM     87  F   UNL A   1      46.068  29.422  33.173  1.00  0.00    -0.206 F 
ATOM     88  C   UNL A   1      46.776  26.356  34.966  1.00  0.00     0.006 A 
ENDBRANCH  64  81
ENDBRANCH  38  39
ENDBRANCH  30  33
ENDBRANCH  28  29
ENDBRANCH  27  28
ENDBRANCH   1  27
TORSDOF 14
ENDMDL
MODEL 3
REMARK VINA RESULT:     -12.0      3.024      7.906
REMARK SMILES CN(C)c1cc(C(F)(F)F)cc(-c2cccc(/C=C/C(=O)NCCCNC(=O)c3ccc(-c4c5nc(c(-c6c(F)cccc6F)c6ccc([nH]6)c(-c6c(F)cccc6F)c6nc(c(-c7c(F)cccc7F)c7ccc4[nH]7)C=C6)C=C5)cc3)c2)n1
REMARK SMILES IDX 23 1 22 2 20 3 21 4 19 6 18 7 17 8 13 9 14 10 83 11 15 12
REMARK SMILES IDX 16 13 12 14 4 15 5 16 84 17 6 18 11 19 2 20 1 21 3 22 7 23
REMARK SMILES IDX 8 24 9 25 10 26 24 27 25 28 26 29 27 30 28 32 29 33 30 34
REMARK SMILES IDX 82 35 31 36 81 37 32 38 33 39 34 40 75 41 35 42 80 43 74 44
REMARK SMILES IDX 76 45 36 46 79 47 73 48 72 49 37 51 63 52 46 53 62 54 47 55
REMARK SMILES IDX 50 56 61 57 77 58 48 59 49 60 60 62 78 63 51 64 38 65 39 66
REMARK SMILES IDX 44 67 40 68 41 69 43 70 45 71 42 72 64 73 65 74 70 75 66 76
REMARK SMILES IDX 67 77 69 78 71 79 68 80 52 81 53 82 58 83 54 84 55 85 57 86
REMARK SMILES IDX 59 87 56 88
REMARK H PARENT 22 5 26 31 76 50 50 61
REMARK Flexibility Score: inf
ROOT
ATOM      1  C   UNL A   1      44.096  22.034  25.646  1.00  0.00     0.118 C 
ENDROOT
BRANCH   1   2
ATOM      2  N   UNL A   1      43.589  20.731  26.040  1.00  0.00    -0.352 N 
ATOM      3  C   UNL A   1      42.319  20.313  26.291  1.00  0.00     0.244 C 
ATOM      4  O   UNL A   1      42.098  19.121  26.485  1.00  0.00    -0.270 OA
ATOM      5  H   UNL A   1      44.278  20.035  26.140  1.00  0.00     0.163 HD
BRANCH   3   6
ATOM      6  C   UNL A   1      41.187  21.265  26.252  1.00  0.00     0.072 C 
ATOM      7  C   UNL A   1      39.913  20.892  26.062  1.00  0.00     0.014 C 
BRANCH   7   8
ATOM      8  C   UNL A   1      38.780  21.823  25.993  1.00  0.00    -0.025 A 
ATOM      9  C   UNL A   1      36.445  22.199  25.352  1.00  0.00     0.001 A 
ATOM     10  C   UNL A   1      36.602  23.557  25.668  1.00  0.00     0.010 A 
ATOM     11  C   UNL A   1      37.550  21.346  25.517  1.00  0.00     0.018 A 
ATOM     12  C   UNL A   1      37.818  24.043  26.151  1.00  0.00     0.001 A 
ATOM     13  C   UNL A   1      38.904  23.180  26.309  1.00  0.00     0.008 A 
BRANCH   9  14
ATOM     14  C   UNL A   1      35.167  21.689  24.847  1.00  0.00     0.073 A 
ATOM     15  C   UNL A   1      33.185  22.212  23.725  1.00  0.00     0.129 A 
ATOM     16  C   UNL A   1      32.753  20.895  23.856  1.00  0.00     0.060 A 
ATOM     17  N   UNL A   1      34.385  22.594  24.214  1.00  0.00    -0.231 NA
ATOM     18  C   UNL A   1      33.562  19.948  24.492  1.00  0.00     0.061 A 
ATOM     19  C   UNL A   1      34.793  20.361  25.002  1.00  0.00     0.042 A 
BRANCH  15  20
ATOM     20  N   UNL A   1      32.394  23.148  23.061  1.00  0.00    -0.363 N 
ATOM     21  C   UNL A   1      31.129  23.493  23.692  1.00  0.00     0.144 C 
ATOM     22  C   UNL A   1      33.118  24.213  22.383  1.00  0.00     0.144 C 
ENDBRANCH  15  20
BRANCH  18  23
ATOM     23  C   UNL A   1      33.136  18.512  24.612  1.00  0.00     0.416 C 
ATOM     24  F   UNL A   1      32.083  18.217  23.801  1.00  0.00    -0.166 F 
ATOM     25  F   UNL A   1      34.127  17.646  24.267  1.00  0.00    -0.166 F 
ATOM     26  F   UNL A   1      32.751  18.158  25.869  1.00  0.00    -0.166 F 
ENDBRANCH  18  23
ENDBRANCH   9  14
ENDBRANCH   7   8
ENDBRANCH   3   6
ENDBRANCH   1   2
BRANCH   1  27
ATOM     27  C   UNL A   1      44.505  22.871  26.857  1.00  0.00     0.042 C 
BRANCH  27  28
ATOM     28  C   UNL A   1      43.470  23.920  27.258  1.00  0.00     0.118 C 
BRANCH  28  29
ATOM     29  N   UNL A   1      42.739  24.439  26.111  1.00  0.00    -0.352 N 
ATOM     30  C   UNL A   1      41.791  25.428  26.034  1.00  0.00     0.251 C 
ATOM     31  H   UNL A   1      42.960  24.010  25.253  1.00  0.00     0.163 HD
ATOM     32  O   UNL A   1      41.146  25.562  24.998  1.00  0.00    -0.269 OA
BRANCH  30  33
ATOM     33  C   UNL A   1      41.531  26.330  27.178  1.00  0.00     0.039 A 
ATOM     34  C   UNL A   1      40.565  25.955  28.119  1.00  0.00     0.014 A 
ATOM     35  C   UNL A   1      42.176  27.563  27.299  1.00  0.00     0.014 A 
ATOM     36  C   UNL A   1      40.285  26.790  29.204  1.00  0.00     0.010 A 
ATOM     37  C   UNL A   1      41.942  28.367  28.415  1.00  0.00     0.010 A 
ATOM     38  C   UNL A   1      40.989  27.991  29.375  1.00  0.00    -0.014 A 
BRANCH  38  39
ATOM     39  C   UNL A   1      40.742  28.866  30.549  1.00  0.00     0.031 A 
ATOM     40  C   UNL A   1      39.645  29.896  30.513  1.00  0.00     0.074 A 
ATOM     41  C   UNL A   1      41.544  28.774  31.628  1.00  0.00     0.049 A 
ATOM     42  N   UNL A   1      39.325  30.795  31.409  1.00  0.00    -0.248 NA
ATOM     43  C   UNL A   1      38.813  29.937  29.300  1.00  0.00     0.031 C 
ATOM     44  C   UNL A   1      42.666  27.845  31.770  1.00  0.00     0.029 A 
ATOM     45  N   UNL A   1      41.545  29.479  32.805  1.00  0.00    -0.354 N 
ATOM     46  C   UNL A   1      38.274  31.520  30.861  1.00  0.00     0.074 A 
ATOM     47  C   UNL A   1      38.033  30.982  29.539  1.00  0.00     0.031 C 
ATOM     48  C   UNL A   1      43.236  28.025  32.973  1.00  0.00     0.029 A 
ATOM     49  C   UNL A   1      42.542  29.103  33.672  1.00  0.00     0.049 A 
ATOM     50  H   UNL A   1      40.893  30.187  33.010  1.00  0.00     0.167 HD
ATOM     51  C   UNL A   1      37.562  32.530  31.416  1.00  0.00     0.037 A 
ATOM     52  C   UNL A   1      42.867  29.579  34.889  1.00  0.00     0.037 A 
ATOM     53  C   UNL A   1      37.776  33.039  32.745  1.00  0.00     0.049 A 
ATOM     54  C   UNL A   1      42.056  30.696  35.482  1.00  0.00     0.074 A 
ATOM     55  C   UNL A   1      37.060  34.010  33.422  1.00  0.00     0.029 A 
ATOM     56  N   UNL A   1      38.782  32.615  33.600  1.00  0.00    -0.354 N 
ATOM     57  N   UNL A   1      41.021  31.324  34.979  1.00  0.00    -0.248 NA
ATOM     58  C   UNL A   1      42.453  31.168  36.817  1.00  0.00     0.031 C 
ATOM     59  C   UNL A   1      37.655  34.200  34.673  1.00  0.00     0.029 A 
ATOM     60  C   UNL A   1      38.715  33.318  34.791  1.00  0.00     0.049 A 
ATOM     61  H   UNL A   1      39.444  31.916  33.391  1.00  0.00     0.167 HD
ATOM     62  C   UNL A   1      40.625  32.240  35.945  1.00  0.00     0.074 A 
ATOM     63  C   UNL A   1      41.524  32.079  37.069  1.00  0.00     0.031 C 
ATOM     64  C   UNL A   1      39.608  33.134  35.905  1.00  0.00     0.037 A 
BRANCH  51  65
ATOM     65  C   UNL A   1      36.476  33.154  30.590  1.00  0.00     0.057 A 
ATOM     66  C   UNL A   1      36.761  34.028  29.533  1.00  0.00     0.134 A 
ATOM     67  C   UNL A   1      35.132  32.833  30.818  1.00  0.00     0.134 A 
ATOM     68  F   UNL A   1      38.027  34.384  29.267  1.00  0.00    -0.206 F 
ATOM     69  C   UNL A   1      35.747  34.575  28.745  1.00  0.00     0.040 A 
ATOM     70  C   UNL A   1      34.111  33.355  30.022  1.00  0.00     0.040 A 
ATOM     71  F   UNL A   1      34.790  31.996  31.810  1.00  0.00    -0.206 F 
ATOM     72  C   UNL A   1      34.418  34.233  28.984  1.00  0.00     0.006 A 
ENDBRANCH  51  65
BRANCH  52  73
ATOM     73  C   UNL A   1      44.002  28.991  35.643  1.00  0.00     0.057 A 
ATOM     74  C   UNL A   1      43.810  27.895  36.492  1.00  0.00     0.134 A 
ATOM     75  C   UNL A   1      45.296  29.518  35.552  1.00  0.00     0.134 A 
ATOM     76  F   UNL A   1      42.589  27.359  36.635  1.00  0.00    -0.206 F 
ATOM     77  C   UNL A   1      44.857  27.359  37.244  1.00  0.00     0.040 A 
ATOM     78  C   UNL A   1      46.357  28.977  36.279  1.00  0.00     0.040 A 
ATOM     79  F   UNL A   1      45.546  30.564  34.751  1.00  0.00    -0.206 F 
ATOM     80  C   UNL A   1      46.137  27.899  37.134  1.00  0.00     0.006 A 
ENDBRANCH  52  73
BRANCH  64  81
ATOM     81  C   UNL A   1      39.387  33.975  37.127  1.00  0.00     0.057 A 
ATOM     82  C   UNL A   1      39.860  35.290  37.215  1.00  0.00     0.134 A 
ATOM     83  C   UNL A   1      38.659  33.474  38.214  1.00  0.00     0.134 A 
ATOM     84  F   UNL A   1      40.577  35.823  36.213  1.00  0.00    -0.206 F 
ATOM     85  C   UNL A   1      39.635  36.071  38.350  1.00  0.00     0.040 A 
ATOM     86  C   UNL A   1      38.406  34.252  39.343  1.00  0.00     0.040 A 
ATOM     87  F   UNL A   1      38.171  32.224  38.189  1.00  0.00    -0.206 F 
ATOM     88  C   UNL A   1      38.900  35.553  39.416  1.00  0.00     0.006 A 
ENDBRANCH  64  81
ENDBRANCH  38  39
ENDBRANCH  30  33
ENDBRANCH  28  29
ENDBRANCH  27  28
ENDBRANCH   1  27
TORSDOF 14
ENDMDL
