MODEL 1
REMARK VINA RESULT:      -9.5      0.000      0.000
REMARK SMILES O=C(NCCCNC(=O)[C@H](c1ccc(Cl)cc1)[NH+]1CCCCC1)c1ccc(-c2c3nc(c(-c4c(F)cccc4F)c4ccc([nH]4)c(-c4c(F)cccc4F)c4nc(c(-c5c(F)cccc5F)c5ccc2[nH]5)C=C4)C=C3)cc1
REMARK SMILES IDX 4 1 3 2 1 3 2 4 24 6 25 7 77 8 26 9 76 10 27 11 28 12 29 13
REMARK SMILES IDX 70 14 30 15 75 16 69 17 71 18 31 19 74 20 68 21 67 22 32 24
REMARK SMILES IDX 58 25 41 26 57 27 42 28 45 29 56 30 72 31 43 32 44 33 55 35
REMARK SMILES IDX 73 36 46 37 33 38 34 39 39 40 35 41 36 42 38 43 40 44 37 45
REMARK SMILES IDX 59 46 60 47 65 48 61 49 62 50 64 51 66 52 63 53 47 54 48 55
REMARK SMILES IDX 53 56 49 57 50 58 52 59 54 60 51 61 5 62 6 63 7 64 8 65 9 67
REMARK SMILES IDX 10 68 18 69 19 70 23 71 20 73 22 74 21 75 11 76 12 77 17 78
REMARK SMILES IDX 13 79 16 80 14 81 15 82
REMARK H PARENT 3 5 71 23 45 34 7 66 18 72
REMARK Flexibility Score: inf
ROOT
ATOM      1  C   UNL A   1      45.061  20.093  25.354  1.00  0.00     0.118 C 
ENDROOT
BRANCH   1   2
ATOM      2  N   UNL A   1      43.726  19.559  25.142  1.00  0.00    -0.352 N 
ATOM      3  O   UNL A   1      41.554  19.185  25.587  1.00  0.00    -0.269 OA
ATOM      4  C   UNL A   1      42.522  19.934  25.690  1.00  0.00     0.251 C 
ATOM      5  H   UNL A   1      43.676  18.810  24.505  1.00  0.00     0.163 HD
BRANCH   4   6
ATOM      6  C   UNL A   1      42.378  21.225  26.406  1.00  0.00     0.039 A 
ATOM      7  C   UNL A   1      42.448  21.283  27.797  1.00  0.00     0.014 A 
ATOM      8  C   UNL A   1      42.261  22.413  25.675  1.00  0.00     0.014 A 
ATOM      9  C   UNL A   1      42.247  22.482  28.463  1.00  0.00     0.010 A 
ATOM     10  C   UNL A   1      42.214  23.643  26.341  1.00  0.00     0.010 A 
ATOM     11  C   UNL A   1      42.213  23.684  27.743  1.00  0.00    -0.014 A 
BRANCH  11  12
ATOM     12  C   UNL A   1      42.385  24.952  28.492  1.00  0.00     0.031 A 
ATOM     13  C   UNL A   1      41.273  25.945  28.630  1.00  0.00     0.074 A 
ATOM     14  C   UNL A   1      43.592  25.186  29.050  1.00  0.00     0.049 A 
ATOM     15  N   UNL A   1      41.290  27.112  29.222  1.00  0.00    -0.248 NA
ATOM     16  C   UNL A   1      39.978  25.599  28.024  1.00  0.00     0.031 C 
ATOM     17  C   UNL A   1      44.752  24.289  28.954  1.00  0.00     0.029 A 
ATOM     18  N   UNL A   1      44.051  26.227  29.813  1.00  0.00    -0.354 N 
ATOM     19  C   UNL A   1      40.025  27.652  29.038  1.00  0.00     0.074 A 
ATOM     20  C   UNL A   1      39.262  26.688  28.274  1.00  0.00     0.031 C 
ATOM     21  C   UNL A   1      45.766  24.794  29.666  1.00  0.00     0.029 A 
ATOM     22  C   UNL A   1      45.368  26.092  30.186  1.00  0.00     0.049 A 
ATOM     23  H   UNL A   1      43.492  26.996  30.070  1.00  0.00     0.167 HD
ATOM     24  C   UNL A   1      39.557  28.847  29.469  1.00  0.00     0.037 A 
ATOM     25  C   UNL A   1      46.187  26.941  30.830  1.00  0.00     0.037 A 
ATOM     26  C   UNL A   1      40.328  29.781  30.250  1.00  0.00     0.049 A 
ATOM     27  C   UNL A   1      45.641  28.269  31.259  1.00  0.00     0.074 A 
ATOM     28  C   UNL A   1      39.920  30.985  30.798  1.00  0.00     0.029 A 
ATOM     29  N   UNL A   1      41.666  29.625  30.580  1.00  0.00    -0.354 N 
ATOM     30  N   UNL A   1      44.425  28.739  31.131  1.00  0.00    -0.248 NA
ATOM     31  C   UNL A   1      46.582  29.193  31.904  1.00  0.00     0.031 C 
ATOM     32  C   UNL A   1      41.026  31.586  31.406  1.00  0.00     0.029 A 
ATOM     33  C   UNL A   1      42.111  30.733  31.284  1.00  0.00     0.049 A 
ATOM     34  H   UNL A   1      42.218  28.843  30.349  1.00  0.00     0.167 HD
ATOM     35  C   UNL A   1      44.451  30.010  31.683  1.00  0.00     0.074 A 
ATOM     36  C   UNL A   1      45.796  30.224  32.178  1.00  0.00     0.031 C 
ATOM     37  C   UNL A   1      43.456  30.925  31.761  1.00  0.00     0.037 A 
BRANCH  24  38
ATOM     38  C   UNL A   1      38.159  29.241  29.097  1.00  0.00     0.057 A 
ATOM     39  C   UNL A   1      37.111  29.240  30.025  1.00  0.00     0.134 A 
ATOM     40  C   UNL A   1      37.882  29.730  27.812  1.00  0.00     0.134 A 
ATOM     41  F   UNL A   1      37.306  28.777  31.269  1.00  0.00    -0.206 F 
ATOM     42  C   UNL A   1      35.838  29.708  29.690  1.00  0.00     0.040 A 
ATOM     43  C   UNL A   1      36.621  30.220  27.471  1.00  0.00     0.040 A 
ATOM     44  F   UNL A   1      38.843  29.765  26.876  1.00  0.00    -0.206 F 
ATOM     45  C   UNL A   1      35.594  30.211  28.412  1.00  0.00     0.006 A 
ENDBRANCH  24  38
BRANCH  25  46
ATOM     46  C   UNL A   1      47.614  26.590  31.041  1.00  0.00     0.057 A 
ATOM     47  C   UNL A   1      48.014  25.763  32.095  1.00  0.00     0.134 A 
ATOM     48  C   UNL A   1      48.617  27.088  30.197  1.00  0.00     0.134 A 
ATOM     49  F   UNL A   1      47.103  25.266  32.946  1.00  0.00    -0.206 F 
ATOM     50  C   UNL A   1      49.359  25.464  32.319  1.00  0.00     0.040 A 
ATOM     51  C   UNL A   1      49.961  26.770  30.388  1.00  0.00     0.040 A 
ATOM     52  F   UNL A   1      48.301  27.879  29.160  1.00  0.00    -0.206 F 
ATOM     53  C   UNL A   1      50.337  25.964  31.460  1.00  0.00     0.006 A 
ENDBRANCH  25  46
BRANCH  37  54
ATOM     54  C   UNL A   1      43.791  32.232  32.412  1.00  0.00     0.057 A 
ATOM     55  C   UNL A   1      44.303  33.308  31.675  1.00  0.00     0.134 A 
ATOM     56  C   UNL A   1      43.576  32.426  33.783  1.00  0.00     0.134 A 
ATOM     57  F   UNL A   1      44.550  33.177  30.363  1.00  0.00    -0.206 F 
ATOM     58  C   UNL A   1      44.607  34.526  32.283  1.00  0.00     0.040 A 
ATOM     59  C   UNL A   1      43.849  33.649  34.395  1.00  0.00     0.040 A 
ATOM     60  F   UNL A   1      43.084  31.436  34.542  1.00  0.00    -0.206 F 
ATOM     61  C   UNL A   1      44.372  34.701  33.646  1.00  0.00     0.006 A 
ENDBRANCH  37  54
ENDBRANCH  11  12
ENDBRANCH   4   6
ENDBRANCH   1   2
BRANCH   1  62
ATOM     62  C   UNL A   1      45.309  21.326  24.516  1.00  0.00     0.042 C 
BRANCH  62  63
ATOM     63  C   UNL A   1      45.882  22.486  25.322  1.00  0.00     0.118 C 
BRANCH  63  64
ATOM     64  N   UNL A   1      46.551  23.455  24.481  1.00  0.00    -0.351 N 
ATOM     65  C   UNL A   1      47.000  24.720  24.704  1.00  0.00     0.283 C 
ATOM     66  H   UNL A   1      46.713  23.135  23.564  1.00  0.00     0.163 HD
ATOM     67  O   UNL A   1      47.533  25.255  23.718  1.00  0.00    -0.268 OA
BRANCH  65  68
ATOM     68  C   UNL A   1      46.875  25.523  26.038  1.00  0.00     0.305 C 
BRANCH  68  69
ATOM     69  N   UNL A   1      48.170  25.994  26.651  1.00  0.00    -0.321 N 
ATOM     70  C   UNL A   1      49.049  24.825  26.902  1.00  0.00     0.263 C 
ATOM     71  C   UNL A   1      48.870  27.039  25.916  1.00  0.00     0.263 C 
ATOM     72  H   UNL A   1      47.918  26.448  27.529  1.00  0.00     0.349 HD
ATOM     73  C   UNL A   1      50.407  25.190  27.506  1.00  0.00     0.062 C 
ATOM     74  C   UNL A   1      50.244  27.425  26.466  1.00  0.00     0.062 C 
ATOM     75  C   UNL A   1      51.129  26.200  26.630  1.00  0.00     0.012 C 
ENDBRANCH  68  69
BRANCH  68  76
ATOM     76  C   UNL A   1      45.612  26.390  26.157  1.00  0.00     0.019 A 
ATOM     77  C   UNL A   1      45.493  27.550  26.933  1.00  0.00     0.012 A 
ATOM     78  C   UNL A   1      44.492  26.036  25.370  1.00  0.00     0.012 A 
ATOM     79  C   UNL A   1      44.349  28.358  26.878  1.00  0.00     0.021 A 
ATOM     80  C   UNL A   1      43.332  26.818  25.340  1.00  0.00     0.021 A 
ATOM     81  C   UNL A   1      43.274  27.990  26.080  1.00  0.00     0.041 A 
ATOM     82  Cl  UNL A   1      41.876  28.989  26.010  1.00  0.00    -0.084 Cl
ENDBRANCH  68  76
ENDBRANCH  65  68
ENDBRANCH  63  64
ENDBRANCH  62  63
ENDBRANCH   1  62
TORSDOF 12
ENDMDL
MODEL 2
REMARK VINA RESULT:      -9.5      4.484      7.700
REMARK SMILES O=C(NCCCNC(=O)[C@H](c1ccc(Cl)cc1)[NH+]1CCCCC1)c1ccc(-c2c3nc(c(-c4c(F)cccc4F)c4ccc([nH]4)c(-c4c(F)cccc4F)c4nc(c(-c5c(F)cccc5F)c5ccc2[nH]5)C=C4)C=C3)cc1
REMARK SMILES IDX 4 1 3 2 1 3 2 4 24 6 25 7 77 8 26 9 76 10 27 11 28 12 29 13
REMARK SMILES IDX 70 14 30 15 75 16 69 17 71 18 31 19 74 20 68 21 67 22 32 24
REMARK SMILES IDX 58 25 41 26 57 27 42 28 45 29 56 30 72 31 43 32 44 33 55 35
REMARK SMILES IDX 73 36 46 37 33 38 34 39 39 40 35 41 36 42 38 43 40 44 37 45
REMARK SMILES IDX 59 46 60 47 65 48 61 49 62 50 64 51 66 52 63 53 47 54 48 55
REMARK SMILES IDX 53 56 49 57 50 58 52 59 54 60 51 61 5 62 6 63 7 64 8 65 9 67
REMARK SMILES IDX 10 68 18 69 19 70 23 71 20 73 22 74 21 75 11 76 12 77 17 78
REMARK SMILES IDX 13 79 16 80 14 81 15 82
REMARK H PARENT 3 5 71 23 45 34 7 66 18 72
REMARK Flexibility Score: inf
ROOT
ATOM      1  C   UNL A   1      39.071  20.478  25.759  1.00  0.00     0.118 C 
ENDROOT
BRANCH   1   2
ATOM      2  N   UNL A   1      40.049  19.409  25.881  1.00  0.00    -0.352 N 
ATOM      3  O   UNL A   1      42.087  18.460  25.867  1.00  0.00    -0.269 OA
ATOM      4  C   UNL A   1      41.411  19.468  26.058  1.00  0.00     0.251 C 
ATOM      5  H   UNL A   1      39.677  18.499  25.828  1.00  0.00     0.163 HD
BRANCH   4   6
ATOM      6  C   UNL A   1      42.074  20.728  26.473  1.00  0.00     0.039 A 
ATOM      7  C   UNL A   1      42.523  21.645  25.523  1.00  0.00     0.014 A 
ATOM      8  C   UNL A   1      42.170  21.046  27.832  1.00  0.00     0.014 A 
ATOM      9  C   UNL A   1      43.200  22.790  25.914  1.00  0.00     0.010 A 
ATOM     10  C   UNL A   1      42.714  22.274  28.227  1.00  0.00     0.010 A 
ATOM     11  C   UNL A   1      43.228  23.157  27.266  1.00  0.00    -0.014 A 
BRANCH  11  12
ATOM     12  C   UNL A   1      43.611  24.549  27.604  1.00  0.00     0.031 A 
ATOM     13  C   UNL A   1      42.595  25.569  28.017  1.00  0.00     0.074 A 
ATOM     14  C   UNL A   1      44.920  24.870  27.524  1.00  0.00     0.049 A 
ATOM     15  N   UNL A   1      42.779  26.833  28.304  1.00  0.00    -0.248 NA
ATOM     16  C   UNL A   1      41.195  25.129  28.114  1.00  0.00     0.031 C 
ATOM     17  C   UNL A   1      45.989  23.952  27.110  1.00  0.00     0.029 A 
ATOM     18  N   UNL A   1      45.583  26.038  27.795  1.00  0.00    -0.354 N 
ATOM     19  C   UNL A   1      41.521  27.346  28.588  1.00  0.00     0.074 A 
ATOM     20  C   UNL A   1      40.577  26.259  28.434  1.00  0.00     0.031 C 
ATOM     21  C   UNL A   1      47.170  24.575  27.196  1.00  0.00     0.029 A 
ATOM     22  C   UNL A   1      46.938  25.959  27.575  1.00  0.00     0.049 A 
ATOM     23  H   UNL A   1      45.133  26.854  28.114  1.00  0.00     0.167 HD
ATOM     24  C   UNL A   1      41.197  28.612  28.939  1.00  0.00     0.037 A 
ATOM     25  C   UNL A   1      47.890  26.909  27.621  1.00  0.00     0.037 A 
ATOM     26  C   UNL A   1      42.157  29.674  29.109  1.00  0.00     0.049 A 
ATOM     27  C   UNL A   1      47.485  28.306  27.978  1.00  0.00     0.074 A 
ATOM     28  C   UNL A   1      41.936  30.972  29.535  1.00  0.00     0.029 A 
ATOM     29  N   UNL A   1      43.515  29.565  28.847  1.00  0.00    -0.354 N 
ATOM     30  N   UNL A   1      46.300  28.762  28.304  1.00  0.00    -0.248 NA
ATOM     31  C   UNL A   1      48.540  29.326  27.956  1.00  0.00     0.031 C 
ATOM     32  C   UNL A   1      43.148  31.666  29.471  1.00  0.00     0.029 A 
ATOM     33  C   UNL A   1      44.135  30.786  29.058  1.00  0.00     0.049 A 
ATOM     34  H   UNL A   1      43.970  28.742  28.555  1.00  0.00     0.167 HD
ATOM     35  C   UNL A   1      46.467  30.119  28.531  1.00  0.00     0.074 A 
ATOM     36  C   UNL A   1      47.874  30.405  28.340  1.00  0.00     0.031 C 
ATOM     37  C   UNL A   1      45.536  31.048  28.855  1.00  0.00     0.037 A 
BRANCH  24  38
ATOM     38  C   UNL A   1      39.749  28.947  29.143  1.00  0.00     0.057 A 
ATOM     39  C   UNL A   1      38.915  29.329  28.086  1.00  0.00     0.134 A 
ATOM     40  C   UNL A   1      39.159  28.783  30.405  1.00  0.00     0.134 A 
ATOM     41  F   UNL A   1      39.418  29.511  26.856  1.00  0.00    -0.206 F 
ATOM     42  C   UNL A   1      37.547  29.537  28.274  1.00  0.00     0.040 A 
ATOM     43  C   UNL A   1      37.790  28.967  30.601  1.00  0.00     0.040 A 
ATOM     44  F   UNL A   1      39.900  28.412  31.460  1.00  0.00    -0.206 F 
ATOM     45  C   UNL A   1      36.978  29.344  29.534  1.00  0.00     0.006 A 
ENDBRANCH  24  38
BRANCH  25  46
ATOM     46  C   UNL A   1      49.291  26.583  27.253  1.00  0.00     0.057 A 
ATOM     47  C   UNL A   1      49.725  26.621  25.925  1.00  0.00     0.134 A 
ATOM     48  C   UNL A   1      50.229  26.209  28.226  1.00  0.00     0.134 A 
ATOM     49  F   UNL A   1      48.872  26.958  24.945  1.00  0.00    -0.206 F 
ATOM     50  C   UNL A   1      51.031  26.276  25.573  1.00  0.00     0.040 A 
ATOM     51  C   UNL A   1      51.546  25.895  27.893  1.00  0.00     0.040 A 
ATOM     52  F   UNL A   1      49.881  26.162  29.522  1.00  0.00    -0.206 F 
ATOM     53  C   UNL A   1      51.947  25.916  26.560  1.00  0.00     0.006 A 
ENDBRANCH  25  46
BRANCH  37  54
ATOM     54  C   UNL A   1      46.022  32.455  29.028  1.00  0.00     0.057 A 
ATOM     55  C   UNL A   1      46.488  32.922  30.264  1.00  0.00     0.134 A 
ATOM     56  C   UNL A   1      46.048  33.342  27.945  1.00  0.00     0.134 A 
ATOM     57  F   UNL A   1      46.469  32.126  31.343  1.00  0.00    -0.206 F 
ATOM     58  C   UNL A   1      46.946  34.230  30.420  1.00  0.00     0.040 A 
ATOM     59  C   UNL A   1      46.532  34.643  28.083  1.00  0.00     0.040 A 
ATOM     60  F   UNL A   1      45.619  32.954  26.735  1.00  0.00    -0.206 F 
ATOM     61  C   UNL A   1      46.977  35.091  29.325  1.00  0.00     0.006 A 
ENDBRANCH  37  54
ENDBRANCH  11  12
ENDBRANCH   4   6
ENDBRANCH   1   2
BRANCH   1  62
ATOM     62  C   UNL A   1      37.848  20.031  24.992  1.00  0.00     0.042 C 
BRANCH  62  63
ATOM     63  C   UNL A   1      36.790  21.122  24.874  1.00  0.00     0.118 C 
BRANCH  63  64
ATOM     64  N   UNL A   1      36.022  21.268  26.092  1.00  0.00    -0.351 N 
ATOM     65  C   UNL A   1      34.807  21.819  26.359  1.00  0.00     0.283 C 
ATOM     66  H   UNL A   1      36.467  20.892  26.886  1.00  0.00     0.163 HD
ATOM     67  O   UNL A   1      34.468  21.759  27.552  1.00  0.00    -0.268 OA
BRANCH  65  68
ATOM     68  C   UNL A   1      33.863  22.516  25.327  1.00  0.00     0.305 C 
BRANCH  68  69
ATOM     69  N   UNL A   1      32.900  21.613  24.597  1.00  0.00    -0.321 N 
ATOM     70  C   UNL A   1      32.849  22.002  23.166  1.00  0.00     0.263 C 
ATOM     71  C   UNL A   1      33.135  20.184  24.754  1.00  0.00     0.263 C 
ATOM     72  H   UNL A   1      31.991  21.755  25.040  1.00  0.00     0.349 HD
ATOM     73  C   UNL A   1      31.914  21.134  22.322  1.00  0.00     0.062 C 
ATOM     74  C   UNL A   1      32.240  19.272  23.913  1.00  0.00     0.062 C 
ATOM     75  C   UNL A   1      32.288  19.667  22.446  1.00  0.00     0.012 C 
ENDBRANCH  68  69
BRANCH  68  76
ATOM     76  C   UNL A   1      33.440  23.946  25.698  1.00  0.00     0.019 A 
ATOM     77  C   UNL A   1      34.232  25.093  25.545  1.00  0.00     0.012 A 
ATOM     78  C   UNL A   1      32.123  24.144  26.172  1.00  0.00     0.012 A 
ATOM     79  C   UNL A   1      33.720  26.376  25.780  1.00  0.00     0.021 A 
ATOM     80  C   UNL A   1      31.619  25.420  26.446  1.00  0.00     0.021 A 
ATOM     81  C   UNL A   1      32.416  26.535  26.228  1.00  0.00     0.041 A 
ATOM     82  Cl  UNL A   1      31.791  28.112  26.507  1.00  0.00    -0.084 Cl
ENDBRANCH  68  76
ENDBRANCH  65  68
ENDBRANCH  63  64
ENDBRANCH  62  63
ENDBRANCH   1  62
TORSDOF 12
ENDMDL
MODEL 3
REMARK VINA RESULT:      -9.5      4.838      7.989
REMARK SMILES O=C(NCCCNC(=O)[C@H](c1ccc(Cl)cc1)[NH+]1CCCCC1)c1ccc(-c2c3nc(c(-c4c(F)cccc4F)c4ccc([nH]4)c(-c4c(F)cccc4F)c4nc(c(-c5c(F)cccc5F)c5ccc2[nH]5)C=C4)C=C3)cc1
REMARK SMILES IDX 4 1 3 2 1 3 2 4 24 6 25 7 77 8 26 9 76 10 27 11 28 12 29 13
REMARK SMILES IDX 70 14 30 15 75 16 69 17 71 18 31 19 74 20 68 21 67 22 32 24
REMARK SMILES IDX 58 25 41 26 57 27 42 28 45 29 56 30 72 31 43 32 44 33 55 35
REMARK SMILES IDX 73 36 46 37 33 38 34 39 39 40 35 41 36 42 38 43 40 44 37 45
REMARK SMILES IDX 59 46 60 47 65 48 61 49 62 50 64 51 66 52 63 53 47 54 48 55
REMARK SMILES IDX 53 56 49 57 50 58 52 59 54 60 51 61 5 62 6 63 7 64 8 65 9 67
REMARK SMILES IDX 10 68 18 69 19 70 23 71 20 73 22 74 21 75 11 76 12 77 17 78
REMARK SMILES IDX 13 79 16 80 14 81 15 82
REMARK H PARENT 3 5 71 23 45 34 7 66 18 72
REMARK Flexibility Score: inf
ROOT
ATOM      1  C   UNL A   1      39.191  20.277  26.098  1.00  0.00     0.118 C 
ENDROOT
BRANCH   1   2
ATOM      2  N   UNL A   1      40.205  19.236  26.063  1.00  0.00    -0.352 N 
ATOM      3  O   UNL A   1      42.246  18.348  25.753  1.00  0.00    -0.269 OA
ATOM      4  C   UNL A   1      41.576  19.332  26.056  1.00  0.00     0.251 C 
ATOM      5  H   UNL A   1      39.853  18.317  26.040  1.00  0.00     0.163 HD
BRANCH   4   6
ATOM      6  C   UNL A   1      42.255  20.603  26.405  1.00  0.00     0.039 A 
ATOM      7  C   UNL A   1      42.685  21.480  25.411  1.00  0.00     0.014 A 
ATOM      8  C   UNL A   1      42.387  20.971  27.748  1.00  0.00     0.014 A 
ATOM      9  C   UNL A   1      43.377  22.635  25.740  1.00  0.00     0.010 A 
ATOM     10  C   UNL A   1      42.947  22.210  28.083  1.00  0.00     0.010 A 
ATOM     11  C   UNL A   1      43.441  23.053  27.077  1.00  0.00    -0.014 A 
BRANCH  11  12
ATOM     12  C   UNL A   1      43.838  24.455  27.352  1.00  0.00     0.031 A 
ATOM     13  C   UNL A   1      42.842  25.491  27.771  1.00  0.00     0.074 A 
ATOM     14  C   UNL A   1      45.143  24.770  27.208  1.00  0.00     0.049 A 
ATOM     15  N   UNL A   1      43.038  26.763  28.007  1.00  0.00    -0.248 NA
ATOM     16  C   UNL A   1      41.446  25.058  27.939  1.00  0.00     0.031 C 
ATOM     17  C   UNL A   1      46.194  23.835  26.783  1.00  0.00     0.029 A 
ATOM     18  N   UNL A   1      45.819  25.945  27.413  1.00  0.00    -0.354 N 
ATOM     19  C   UNL A   1      41.793  27.289  28.324  1.00  0.00     0.074 A 
ATOM     20  C   UNL A   1      40.843  26.200  28.245  1.00  0.00     0.031 C 
ATOM     21  C   UNL A   1      47.378  24.458  26.800  1.00  0.00     0.029 A 
ATOM     22  C   UNL A   1      47.164  25.855  27.142  1.00  0.00     0.049 A 
ATOM     23  H   UNL A   1      45.383  26.772  27.722  1.00  0.00     0.167 HD
ATOM     24  C   UNL A   1      41.486  28.567  28.645  1.00  0.00     0.037 A 
ATOM     25  C   UNL A   1      48.118  26.803  27.117  1.00  0.00     0.037 A 
ATOM     26  C   UNL A   1      42.453  29.631  28.740  1.00  0.00     0.049 A 
ATOM     27  C   UNL A   1      47.729  28.212  27.442  1.00  0.00     0.074 A 
ATOM     28  C   UNL A   1      42.251  30.944  29.130  1.00  0.00     0.029 A 
ATOM     29  N   UNL A   1      43.799  29.510  28.427  1.00  0.00    -0.354 N 
ATOM     30  N   UNL A   1      46.559  28.681  27.800  1.00  0.00    -0.248 NA
ATOM     31  C   UNL A   1      48.784  29.228  27.344  1.00  0.00     0.031 C 
ATOM     32  C   UNL A   1      43.460  31.632  28.995  1.00  0.00     0.029 A 
ATOM     33  C   UNL A   1      44.429  30.736  28.572  1.00  0.00     0.049 A 
ATOM     34  H   UNL A   1      44.241  28.676  28.145  1.00  0.00     0.167 HD
ATOM     35  C   UNL A   1      46.737  30.045  27.975  1.00  0.00     0.074 A 
ATOM     36  C   UNL A   1      48.135  30.321  27.717  1.00  0.00     0.031 C 
ATOM     37  C   UNL A   1      45.821  30.987  28.304  1.00  0.00     0.037 A 
BRANCH  24  38
ATOM     38  C   UNL A   1      40.047  28.912  28.896  1.00  0.00     0.057 A 
ATOM     39  C   UNL A   1      39.162  29.224  27.857  1.00  0.00     0.134 A 
ATOM     40  C   UNL A   1      39.518  28.828  30.192  1.00  0.00     0.134 A 
ATOM     41  F   UNL A   1      39.606  29.328  26.595  1.00  0.00    -0.206 F 
ATOM     42  C   UNL A   1      37.804  29.442  28.096  1.00  0.00     0.040 A 
ATOM     43  C   UNL A   1      38.159  29.023  30.441  1.00  0.00     0.040 A 
ATOM     44  F   UNL A   1      40.310  28.528  31.232  1.00  0.00    -0.206 F 
ATOM     45  C   UNL A   1      37.297  29.330  29.391  1.00  0.00     0.006 A 
ENDBRANCH  24  38
BRANCH  25  46
ATOM     46  C   UNL A   1      49.502  26.460  26.704  1.00  0.00     0.057 A 
ATOM     47  C   UNL A   1      49.918  26.579  25.375  1.00  0.00     0.134 A 
ATOM     48  C   UNL A   1      50.442  25.991  27.633  1.00  0.00     0.134 A 
ATOM     49  F   UNL A   1      49.062  27.009  24.435  1.00  0.00    -0.206 F 
ATOM     50  C   UNL A   1      51.207  26.219  24.978  1.00  0.00     0.040 A 
ATOM     51  C   UNL A   1      51.744  25.661  27.258  1.00  0.00     0.040 A 
ATOM     52  F   UNL A   1      50.111  25.864  28.928  1.00  0.00    -0.206 F 
ATOM     53  C   UNL A   1      52.126  25.764  25.923  1.00  0.00     0.006 A 
ENDBRANCH  25  46
BRANCH  37  54
ATOM     54  C   UNL A   1      46.315  32.398  28.410  1.00  0.00     0.057 A 
ATOM     55  C   UNL A   1      46.266  33.275  27.319  1.00  0.00     0.134 A 
ATOM     56  C   UNL A   1      46.818  32.892  29.620  1.00  0.00     0.134 A 
ATOM     57  F   UNL A   1      45.814  32.854  26.128  1.00  0.00    -0.206 F 
ATOM     58  C   UNL A   1      46.720  34.590  27.423  1.00  0.00     0.040 A 
ATOM     59  C   UNL A   1      47.246  34.214  29.744  1.00  0.00     0.040 A 
ATOM     60  F   UNL A   1      46.886  32.103  30.703  1.00  0.00    -0.206 F 
ATOM     61  C   UNL A   1      47.203  35.064  28.641  1.00  0.00     0.006 A 
ENDBRANCH  37  54
ENDBRANCH  11  12
ENDBRANCH   4   6
ENDBRANCH   1   2
BRANCH   1  62
ATOM     62  C   UNL A   1      38.173  20.103  24.995  1.00  0.00     0.042 C 
BRANCH  62  63
ATOM     63  C   UNL A   1      37.259  21.313  24.836  1.00  0.00     0.118 C 
BRANCH  63  64
ATOM     64  N   UNL A   1      36.316  21.428  25.928  1.00  0.00    -0.351 N 
ATOM     65  C   UNL A   1      34.967  21.264  26.007  1.00  0.00     0.283 C 
ATOM     66  H   UNL A   1      36.734  21.675  26.785  1.00  0.00     0.163 HD
ATOM     67  O   UNL A   1      34.494  21.455  27.139  1.00  0.00    -0.268 OA
BRANCH  65  68
ATOM     68  C   UNL A   1      34.011  20.897  24.827  1.00  0.00     0.305 C 
BRANCH  68  69
ATOM     69  N   UNL A   1      33.680  19.434  24.674  1.00  0.00    -0.321 N 
ATOM     70  C   UNL A   1      32.794  19.250  23.498  1.00  0.00     0.263 C 
ATOM     71  C   UNL A   1      34.823  18.532  24.626  1.00  0.00     0.263 C 
ATOM     72  H   UNL A   1      33.198  19.163  25.532  1.00  0.00     0.349 HD
ATOM     73  C   UNL A   1      32.410  17.792  23.235  1.00  0.00     0.062 C 
ATOM     74  C   UNL A   1      34.495  17.065  24.342  1.00  0.00     0.062 C 
ATOM     75  C   UNL A   1      33.652  16.930  23.085  1.00  0.00     0.012 C 
ENDBRANCH  68  69
BRANCH  68  76
ATOM     76  C   UNL A   1      32.952  21.961  24.497  1.00  0.00     0.019 A 
ATOM     77  C   UNL A   1      31.810  22.233  25.261  1.00  0.00     0.012 A 
ATOM     78  C   UNL A   1      33.171  22.783  23.368  1.00  0.00     0.012 A 
ATOM     79  C   UNL A   1      30.966  23.313  24.963  1.00  0.00     0.021 A 
ATOM     80  C   UNL A   1      32.311  23.838  23.043  1.00  0.00     0.021 A 
ATOM     81  C   UNL A   1      31.221  24.112  23.857  1.00  0.00     0.041 A 
ATOM     82  Cl  UNL A   1      30.188  25.439  23.501  1.00  0.00    -0.084 Cl
ENDBRANCH  68  76
ENDBRANCH  65  68
ENDBRANCH  63  64
ENDBRANCH  62  63
ENDBRANCH   1  62
TORSDOF 12
ENDMDL
