MODEL 1
REMARK VINA RESULT:     -13.5      0.000      0.000
REMARK SMILES Cc1ccc(S(=O)(=O)Nc2ccc(C(=O)CCC(=O)NCCCNC(=O)c3ccc(-c4c5nc(c(-c6c(F)cccc6F)c6ccc([nH]6)c(-c6c(F)cccc6F)c6nc(c(-c7c(F)cccc7F)c7ccc4[nH]7)C=C6)C=C5)cc3)cc2)c(C)c1
REMARK SMILES IDX 18 1 19 2 20 3 17 5 16 6 14 7 15 8 13 9 10 10 11 11 82 12
REMARK SMILES IDX 12 13 81 14 9 15 6 17 7 18 8 19 5 20 1 21 2 22 3 23 85 24
REMARK SMILES IDX 4 25 83 26 84 27 21 28 22 29 23 30 24 31 25 32 26 34 27 35
REMARK SMILES IDX 28 36 80 37 29 38 79 39 30 40 31 41 32 42 73 43 33 44 78 45
REMARK SMILES IDX 72 46 74 47 34 48 77 49 71 50 70 51 35 53 61 54 44 55 60 56
REMARK SMILES IDX 45 57 48 58 59 59 75 60 46 61 47 62 58 64 76 65 49 66 36 67
REMARK SMILES IDX 37 68 42 69 38 70 39 71 41 72 43 73 40 74 62 75 63 76 68 77
REMARK SMILES IDX 64 78 65 79 67 80 69 81 66 82 50 83 51 84 56 85 52 86 53 87
REMARK SMILES IDX 55 88 57 89 54 90
REMARK H PARENT 20 4 9 16 24 33 74 52 48 63
REMARK Flexibility Score: inf
ROOT
ATOM      1  C   UNL A   1      31.893  28.084  26.261  1.00  0.00     0.220 C 
ATOM      2  O   UNL A   1      31.108  27.365  26.882  1.00  0.00    -0.275 OA
ATOM      3  N   UNL A   1      33.197  28.145  26.696  1.00  0.00    -0.356 N 
ATOM      4  H   UNL A   1      33.516  27.389  27.242  1.00  0.00     0.163 HD
ENDROOT
BRANCH   1   5
ATOM      5  C   UNL A   1      31.427  28.915  25.048  1.00  0.00     0.108 C 
BRANCH   5   6
ATOM      6  C   UNL A   1      32.046  28.525  23.671  1.00  0.00     0.091 C 
BRANCH   6   7
ATOM      7  C   UNL A   1      31.105  27.864  22.608  1.00  0.00     0.163 C 
ATOM      8  O   UNL A   1      30.228  28.490  22.023  1.00  0.00    -0.294 OA
BRANCH   7   9
ATOM      9  C   UNL A   1      31.121  26.350  22.449  1.00  0.00     0.018 A 
ATOM     10  C   UNL A   1      32.727  23.482  24.003  1.00  0.00     0.049 A 
ATOM     11  C   UNL A   1      31.157  24.168  24.701  1.00  0.00     0.027 A 
ATOM     12  C   UNL A   1      33.444  24.247  22.548  1.00  0.00     0.027 A 
ATOM     13  C   UNL A   1      30.329  25.548  23.876  1.00  0.00     0.014 A 
ATOM     14  C   UNL A   1      32.622  25.659  21.763  1.00  0.00     0.014 A 
BRANCH  10  15
ATOM     15  N   UNL A   1      32.940  22.066  24.226  1.00  0.00    -0.280 N 
ATOM     16  H   UNL A   1      32.605  21.432  23.551  1.00  0.00     0.180 HD
BRANCH  15  17
ATOM     17  S   UNL A   1      33.736  21.444  25.585  1.00  0.00     0.262 S 
ATOM     18  O   UNL A   1      33.519  20.014  25.611  1.00  0.00    -0.201 OA
ATOM     19  O   UNL A   1      33.331  22.277  26.696  1.00  0.00    -0.201 OA
BRANCH  17  20
ATOM     20  C   UNL A   1      35.451  21.750  25.284  1.00  0.00     0.090 A 
ATOM     21  C   UNL A   1      39.646  21.782  26.049  1.00  0.00     0.044 C 
ATOM     22  C   UNL A   1      38.196  21.829  25.676  1.00  0.00    -0.051 A 
ATOM     23  C   UNL A   1      37.614  20.719  25.068  1.00  0.00     0.005 A 
ATOM     24  C   UNL A   1      37.419  22.976  25.894  1.00  0.00     0.008 A 
ATOM     25  C   UNL A   1      36.246  20.696  24.841  1.00  0.00     0.023 A 
ATOM     26  C   UNL A   1      36.031  22.955  25.696  1.00  0.00    -0.030 A 
ATOM     27  C   UNL A   1      35.246  24.235  25.776  1.00  0.00     0.046 C 
ENDBRANCH  17  20
ENDBRANCH  15  17
ENDBRANCH  10  15
ENDBRANCH   7   9
ENDBRANCH   6   7
ENDBRANCH   5   6
ENDBRANCH   1   5
BRANCH   3  28
ATOM     28  C   UNL A   1      34.162  29.218  26.431  1.00  0.00     0.117 C 
BRANCH  28  29
ATOM     29  C   UNL A   1      33.636  30.543  27.270  1.00  0.00     0.042 C 
BRANCH  29  30
ATOM     30  C   UNL A   1      32.261  32.220  27.043  1.00  0.00     0.118 C 
BRANCH  30  31
ATOM     31  N   UNL A   1      32.439  33.781  27.623  1.00  0.00    -0.352 N 
ATOM     32  C   UNL A   1      33.161  34.499  28.495  1.00  0.00     0.251 C 
ATOM     33  H   UNL A   1      31.795  34.372  27.169  1.00  0.00     0.163 HD
ATOM     34  O   UNL A   1      32.834  35.671  28.674  1.00  0.00    -0.269 OA
BRANCH  32  35
ATOM     35  C   UNL A   1      34.313  33.959  29.162  1.00  0.00     0.039 A 
ATOM     36  C   UNL A   1      35.557  34.377  28.685  1.00  0.00     0.014 A 
ATOM     37  C   UNL A   1      34.161  32.957  30.116  1.00  0.00     0.014 A 
ATOM     38  C   UNL A   1      36.684  33.779  29.187  1.00  0.00     0.010 A 
ATOM     39  C   UNL A   1      35.286  32.424  30.685  1.00  0.00     0.010 A 
ATOM     40  C   UNL A   1      36.535  32.821  30.196  1.00  0.00    -0.014 A 
BRANCH  40  41
ATOM     41  C   UNL A   1      37.713  32.186  30.759  1.00  0.00     0.031 A 
ATOM     42  C   UNL A   1      38.263  32.727  32.031  1.00  0.00     0.074 A 
ATOM     43  C   UNL A   1      38.254  31.199  30.033  1.00  0.00     0.049 A 
ATOM     44  N   UNL A   1      39.336  32.366  32.672  1.00  0.00    -0.248 NA
ATOM     45  C   UNL A   1      37.542  33.860  32.643  1.00  0.00     0.031 C 
ATOM     46  C   UNL A   1      37.737  30.718  28.743  1.00  0.00     0.029 A 
ATOM     47  N   UNL A   1      39.344  30.425  30.267  1.00  0.00    -0.354 N 
ATOM     48  C   UNL A   1      39.429  33.235  33.748  1.00  0.00     0.074 A 
ATOM     49  C   UNL A   1      38.352  34.189  33.637  1.00  0.00     0.031 C 
ATOM     50  C   UNL A   1      38.495  29.698  28.322  1.00  0.00     0.029 A 
ATOM     51  C   UNL A   1      39.559  29.488  29.291  1.00  0.00     0.049 A 
ATOM     52  H   UNL A   1      39.922  30.527  31.058  1.00  0.00     0.167 HD
ATOM     53  C   UNL A   1      40.333  33.196  34.750  1.00  0.00     0.037 A 
ATOM     54  C   UNL A   1      40.523  28.559  29.222  1.00  0.00     0.037 A 
ATOM     55  C   UNL A   1      41.365  32.194  34.797  1.00  0.00     0.049 A 
ATOM     56  C   UNL A   1      41.482  28.509  30.373  1.00  0.00     0.074 A 
ATOM     57  C   UNL A   1      42.335  31.986  35.755  1.00  0.00     0.029 A 
ATOM     58  N   UNL A   1      41.541  31.218  33.819  1.00  0.00    -0.354 N 
ATOM     59  N   UNL A   1      41.546  29.294  31.427  1.00  0.00    -0.248 NA
ATOM     60  C   UNL A   1      42.482  27.443  30.348  1.00  0.00     0.031 C 
ATOM     61  C   UNL A   1      43.121  30.906  35.336  1.00  0.00     0.029 A 
ATOM     62  C   UNL A   1      42.608  30.405  34.145  1.00  0.00     0.049 A 
ATOM     63  H   UNL A   1      40.986  31.121  33.011  1.00  0.00     0.167 HD
ATOM     64  C   UNL A   1      42.577  28.803  32.210  1.00  0.00     0.074 A 
ATOM     65  C   UNL A   1      43.093  27.638  31.509  1.00  0.00     0.031 C 
ATOM     66  C   UNL A   1      43.061  29.258  33.392  1.00  0.00     0.037 A 
BRANCH  53  67
ATOM     67  C   UNL A   1      40.227  34.240  35.821  1.00  0.00     0.057 A 
ATOM     68  C   UNL A   1      39.422  34.064  36.958  1.00  0.00     0.134 A 
ATOM     69  C   UNL A   1      40.914  35.455  35.709  1.00  0.00     0.134 A 
ATOM     70  F   UNL A   1      38.714  32.936  37.122  1.00  0.00    -0.206 F 
ATOM     71  C   UNL A   1      39.275  35.067  37.919  1.00  0.00     0.040 A 
ATOM     72  C   UNL A   1      40.802  36.454  36.680  1.00  0.00     0.040 A 
ATOM     73  F   UNL A   1      41.696  35.701  34.647  1.00  0.00    -0.206 F 
ATOM     74  C   UNL A   1      39.973  36.266  37.784  1.00  0.00     0.006 A 
ENDBRANCH  53  67
BRANCH  54  75
ATOM     75  C   UNL A   1      40.550  27.601  28.092  1.00  0.00     0.057 A 
ATOM     76  C   UNL A   1      41.287  27.872  26.936  1.00  0.00     0.134 A 
ATOM     77  C   UNL A   1      39.899  26.363  28.165  1.00  0.00     0.134 A 
ATOM     78  F   UNL A   1      41.946  29.033  26.812  1.00  0.00    -0.206 F 
ATOM     79  C   UNL A   1      41.355  26.961  25.880  1.00  0.00     0.040 A 
ATOM     80  C   UNL A   1      39.978  25.431  27.129  1.00  0.00     0.040 A 
ATOM     81  F   UNL A   1      39.206  26.025  29.263  1.00  0.00    -0.206 F 
ATOM     82  C   UNL A   1      40.702  25.733  25.977  1.00  0.00     0.006 A 
ENDBRANCH  54  75
BRANCH  66  83
ATOM     83  C   UNL A   1      44.174  28.459  33.993  1.00  0.00     0.057 A 
ATOM     84  C   UNL A   1      45.517  28.770  33.753  1.00  0.00     0.134 A 
ATOM     85  C   UNL A   1      43.888  27.386  34.846  1.00  0.00     0.134 A 
ATOM     86  F   UNL A   1      45.846  29.779  32.932  1.00  0.00    -0.206 F 
ATOM     87  C   UNL A   1      46.543  28.016  34.317  1.00  0.00     0.040 A 
ATOM     88  C   UNL A   1      44.906  26.648  35.443  1.00  0.00     0.040 A 
ATOM     89  F   UNL A   1      42.619  27.052  35.121  1.00  0.00    -0.206 F 
ATOM     90  C   UNL A   1      46.238  26.957  35.171  1.00  0.00     0.006 A 
ENDBRANCH  66  83
ENDBRANCH  40  41
ENDBRANCH  32  35
ENDBRANCH  30  31
ENDBRANCH  29  30
ENDBRANCH  28  29
ENDBRANCH   3  28
TORSDOF 16
ENDMDL
MODEL 2
REMARK VINA RESULT:     -13.4      0.448      6.287
REMARK SMILES Cc1ccc(S(=O)(=O)Nc2ccc(C(=O)CCC(=O)NCCCNC(=O)c3ccc(-c4c5nc(c(-c6c(F)cccc6F)c6ccc([nH]6)c(-c6c(F)cccc6F)c6nc(c(-c7c(F)cccc7F)c7ccc4[nH]7)C=C6)C=C5)cc3)cc2)c(C)c1
REMARK SMILES IDX 18 1 19 2 20 3 17 5 16 6 14 7 15 8 13 9 10 10 11 11 82 12
REMARK SMILES IDX 12 13 81 14 9 15 6 17 7 18 8 19 5 20 1 21 2 22 3 23 85 24
REMARK SMILES IDX 4 25 83 26 84 27 21 28 22 29 23 30 24 31 25 32 26 34 27 35
REMARK SMILES IDX 28 36 80 37 29 38 79 39 30 40 31 41 32 42 73 43 33 44 78 45
REMARK SMILES IDX 72 46 74 47 34 48 77 49 71 50 70 51 35 53 61 54 44 55 60 56
REMARK SMILES IDX 45 57 48 58 59 59 75 60 46 61 47 62 58 64 76 65 49 66 36 67
REMARK SMILES IDX 37 68 42 69 38 70 39 71 41 72 43 73 40 74 62 75 63 76 68 77
REMARK SMILES IDX 64 78 65 79 67 80 69 81 66 82 50 83 51 84 56 85 52 86 53 87
REMARK SMILES IDX 55 88 57 89 54 90
REMARK H PARENT 20 4 9 16 24 33 74 52 48 63
REMARK Flexibility Score: inf
ROOT
ATOM      1  C   UNL A   1      31.848  27.784  26.171  1.00  0.00     0.220 C 
ATOM      2  O   UNL A   1      31.206  26.891  26.726  1.00  0.00    -0.275 OA
ATOM      3  N   UNL A   1      33.121  28.044  26.625  1.00  0.00    -0.356 N 
ATOM      4  H   UNL A   1      33.571  27.318  27.115  1.00  0.00     0.163 HD
ENDROOT
BRANCH   1   5
ATOM      5  C   UNL A   1      31.238  28.609  25.019  1.00  0.00     0.108 C 
BRANCH   5   6
ATOM      6  C   UNL A   1      31.885  28.408  23.615  1.00  0.00     0.091 C 
BRANCH   6   7
ATOM      7  C   UNL A   1      31.020  27.723  22.504  1.00  0.00     0.163 C 
ATOM      8  O   UNL A   1      30.126  28.312  21.906  1.00  0.00    -0.294 OA
BRANCH   7   9
ATOM      9  C   UNL A   1      31.132  26.218  22.305  1.00  0.00     0.018 A 
ATOM     10  C   UNL A   1      32.763  23.390  23.908  1.00  0.00     0.049 A 
ATOM     11  C   UNL A   1      31.106  23.971  24.493  1.00  0.00     0.027 A 
ATOM     12  C   UNL A   1      33.552  24.238  22.538  1.00  0.00     0.027 A 
ATOM     13  C   UNL A   1      30.272  25.331  23.641  1.00  0.00     0.014 A 
ATOM     14  C   UNL A   1      32.718  25.628  21.727  1.00  0.00     0.014 A 
BRANCH  10  15
ATOM     15  N   UNL A   1      33.035  21.981  24.109  1.00  0.00    -0.280 N 
ATOM     16  H   UNL A   1      32.759  21.349  23.407  1.00  0.00     0.180 HD
BRANCH  15  17
ATOM     17  S   UNL A   1      33.802  21.366  25.488  1.00  0.00     0.262 S 
ATOM     18  O   UNL A   1      33.594  19.934  25.510  1.00  0.00    -0.201 OA
ATOM     19  O   UNL A   1      33.366  22.198  26.587  1.00  0.00    -0.201 OA
BRANCH  17  20
ATOM     20  C   UNL A   1      35.522  21.683  25.226  1.00  0.00     0.090 A 
ATOM     21  C   UNL A   1      39.695  21.766  26.099  1.00  0.00     0.044 C 
ATOM     22  C   UNL A   1      38.255  21.793  25.688  1.00  0.00    -0.051 A 
ATOM     23  C   UNL A   1      37.699  20.668  25.083  1.00  0.00     0.005 A 
ATOM     24  C   UNL A   1      37.463  22.937  25.867  1.00  0.00     0.008 A 
ATOM     25  C   UNL A   1      36.337  20.629  24.821  1.00  0.00     0.023 A 
ATOM     26  C   UNL A   1      36.081  22.900  25.633  1.00  0.00    -0.030 A 
ATOM     27  C   UNL A   1      35.283  24.173  25.672  1.00  0.00     0.046 C 
ENDBRANCH  17  20
ENDBRANCH  15  17
ENDBRANCH  10  15
ENDBRANCH   7   9
ENDBRANCH   6   7
ENDBRANCH   5   6
ENDBRANCH   1   5
BRANCH   3  28
ATOM     28  C   UNL A   1      33.878  29.290  26.454  1.00  0.00     0.117 C 
BRANCH  28  29
ATOM     29  C   UNL A   1      33.036  30.467  27.254  1.00  0.00     0.042 C 
BRANCH  29  30
ATOM     30  C   UNL A   1      32.005  32.346  26.847  1.00  0.00     0.118 C 
BRANCH  30  31
ATOM     31  N   UNL A   1      32.298  33.848  27.530  1.00  0.00    -0.352 N 
ATOM     32  C   UNL A   1      33.125  34.467  28.384  1.00  0.00     0.251 C 
ATOM     33  H   UNL A   1      31.639  34.494  27.187  1.00  0.00     0.163 HD
ATOM     34  O   UNL A   1      32.863  35.630  28.686  1.00  0.00    -0.269 OA
BRANCH  32  35
ATOM     35  C   UNL A   1      34.311  33.837  28.894  1.00  0.00     0.039 A 
ATOM     36  C   UNL A   1      34.118  32.837  29.850  1.00  0.00     0.014 A 
ATOM     37  C   UNL A   1      35.566  34.333  28.553  1.00  0.00     0.014 A 
ATOM     38  C   UNL A   1      35.220  32.310  30.475  1.00  0.00     0.010 A 
ATOM     39  C   UNL A   1      36.671  33.745  29.108  1.00  0.00     0.010 A 
ATOM     40  C   UNL A   1      36.485  32.759  30.083  1.00  0.00    -0.014 A 
BRANCH  40  41
ATOM     41  C   UNL A   1      37.669  32.204  30.715  1.00  0.00     0.031 A 
ATOM     42  C   UNL A   1      38.334  31.043  30.066  1.00  0.00     0.074 A 
ATOM     43  C   UNL A   1      38.021  32.750  31.886  1.00  0.00     0.049 A 
ATOM     44  N   UNL A   1      39.351  30.349  30.485  1.00  0.00    -0.248 NA
ATOM     45  C   UNL A   1      37.749  30.559  28.801  1.00  0.00     0.031 C 
ATOM     46  C   UNL A   1      37.315  33.856  32.550  1.00  0.00     0.029 A 
ATOM     47  N   UNL A   1      39.050  32.460  32.723  1.00  0.00    -0.354 N 
ATOM     48  C   UNL A   1      39.517  29.340  29.548  1.00  0.00     0.074 A 
ATOM     49  C   UNL A   1      38.454  29.461  28.580  1.00  0.00     0.031 C 
ATOM     50  C   UNL A   1      37.963  34.175  33.677  1.00  0.00     0.029 A 
ATOM     51  C   UNL A   1      39.096  33.275  33.823  1.00  0.00     0.049 A 
ATOM     52  H   UNL A   1      39.696  31.735  32.556  1.00  0.00     0.167 HD
ATOM     53  C   UNL A   1      40.505  28.422  29.509  1.00  0.00     0.037 A 
ATOM     54  C   UNL A   1      39.985  33.274  34.826  1.00  0.00     0.037 A 
ATOM     55  C   UNL A   1      41.542  28.385  30.505  1.00  0.00     0.049 A 
ATOM     56  C   UNL A   1      41.099  32.275  34.729  1.00  0.00     0.074 A 
ATOM     57  C   UNL A   1      42.635  27.549  30.595  1.00  0.00     0.029 A 
ATOM     58  N   UNL A   1      41.601  29.252  31.594  1.00  0.00    -0.354 N 
ATOM     59  N   UNL A   1      41.296  31.348  33.815  1.00  0.00    -0.248 NA
ATOM     60  C   UNL A   1      42.120  32.326  35.773  1.00  0.00     0.031 C 
ATOM     61  C   UNL A   1      43.334  27.888  31.760  1.00  0.00     0.029 A 
ATOM     62  C   UNL A   1      42.710  28.971  32.367  1.00  0.00     0.049 A 
ATOM     63  H   UNL A   1      40.947  29.962  31.786  1.00  0.00     0.167 HD
ATOM     64  C   UNL A   1      42.482  30.721  34.156  1.00  0.00     0.074 A 
ATOM     65  C   UNL A   1      42.962  31.392  35.353  1.00  0.00     0.031 C 
ATOM     66  C   UNL A   1      43.123  29.690  33.550  1.00  0.00     0.037 A 
BRANCH  53  67
ATOM     67  C   UNL A   1      40.486  27.430  28.384  1.00  0.00     0.057 A 
ATOM     68  C   UNL A   1      41.172  27.655  27.179  1.00  0.00     0.134 A 
ATOM     69  C   UNL A   1      39.749  26.244  28.485  1.00  0.00     0.134 A 
ATOM     70  F   UNL A   1      41.879  28.781  27.000  1.00  0.00    -0.206 F 
ATOM     71  C   UNL A   1      41.096  26.759  26.110  1.00  0.00     0.040 A 
ATOM     72  C   UNL A   1      39.691  25.324  27.435  1.00  0.00     0.040 A 
ATOM     73  F   UNL A   1      39.059  25.963  29.601  1.00  0.00    -0.206 F 
ATOM     74  C   UNL A   1      40.358  25.584  26.239  1.00  0.00     0.006 A 
ENDBRANCH  53  67
BRANCH  54  75
ATOM     75  C   UNL A   1      39.882  34.281  35.908  1.00  0.00     0.057 A 
ATOM     76  C   UNL A   1      39.167  34.010  37.079  1.00  0.00     0.134 A 
ATOM     77  C   UNL A   1      40.551  35.509  35.833  1.00  0.00     0.134 A 
ATOM     78  F   UNL A   1      38.518  32.844  37.218  1.00  0.00    -0.206 F 
ATOM     79  C   UNL A   1      39.094  34.933  38.124  1.00  0.00     0.040 A 
ATOM     80  C   UNL A   1      40.510  36.431  36.880  1.00  0.00     0.040 A 
ATOM     81  F   UNL A   1      41.286  35.816  34.754  1.00  0.00    -0.206 F 
ATOM     82  C   UNL A   1      39.771  36.147  38.028  1.00  0.00     0.006 A 
ENDBRANCH  54  75
BRANCH  66  83
ATOM     83  C   UNL A   1      44.421  29.275  34.168  1.00  0.00     0.057 A 
ATOM     84  C   UNL A   1      44.484  28.281  35.151  1.00  0.00     0.134 A 
ATOM     85  C   UNL A   1      45.620  29.860  33.745  1.00  0.00     0.134 A 
ATOM     86  F   UNL A   1      43.363  27.698  35.602  1.00  0.00    -0.206 F 
ATOM     87  C   UNL A   1      45.698  27.906  35.720  1.00  0.00     0.040 A 
ATOM     88  C   UNL A   1      46.843  29.468  34.281  1.00  0.00     0.040 A 
ATOM     89  F   UNL A   1      45.620  30.809  32.797  1.00  0.00    -0.206 F 
ATOM     90  C   UNL A   1      46.882  28.494  35.278  1.00  0.00     0.006 A 
ENDBRANCH  66  83
ENDBRANCH  40  41
ENDBRANCH  32  35
ENDBRANCH  30  31
ENDBRANCH  29  30
ENDBRANCH  28  29
ENDBRANCH   3  28
TORSDOF 16
ENDMDL
MODEL 3
REMARK VINA RESULT:     -13.0      1.218      2.134
REMARK SMILES Cc1ccc(S(=O)(=O)Nc2ccc(C(=O)CCC(=O)NCCCNC(=O)c3ccc(-c4c5nc(c(-c6c(F)cccc6F)c6ccc([nH]6)c(-c6c(F)cccc6F)c6nc(c(-c7c(F)cccc7F)c7ccc4[nH]7)C=C6)C=C5)cc3)cc2)c(C)c1
REMARK SMILES IDX 18 1 19 2 20 3 17 5 16 6 14 7 15 8 13 9 10 10 11 11 82 12
REMARK SMILES IDX 12 13 81 14 9 15 6 17 7 18 8 19 5 20 1 21 2 22 3 23 85 24
REMARK SMILES IDX 4 25 83 26 84 27 21 28 22 29 23 30 24 31 25 32 26 34 27 35
REMARK SMILES IDX 28 36 80 37 29 38 79 39 30 40 31 41 32 42 73 43 33 44 78 45
REMARK SMILES IDX 72 46 74 47 34 48 77 49 71 50 70 51 35 53 61 54 44 55 60 56
REMARK SMILES IDX 45 57 48 58 59 59 75 60 46 61 47 62 58 64 76 65 49 66 36 67
REMARK SMILES IDX 37 68 42 69 38 70 39 71 41 72 43 73 40 74 62 75 63 76 68 77
REMARK SMILES IDX 64 78 65 79 67 80 69 81 66 82 50 83 51 84 56 85 52 86 53 87
REMARK SMILES IDX 55 88 57 89 54 90
REMARK H PARENT 20 4 9 16 24 33 74 52 48 63
REMARK Flexibility Score: inf
ROOT
ATOM      1  C   UNL A   1      32.271  28.121  26.255  1.00  0.00     0.220 C 
ATOM      2  O   UNL A   1      31.596  27.182  26.681  1.00  0.00    -0.275 OA
ATOM      3  N   UNL A   1      33.567  28.241  26.702  1.00  0.00    -0.356 N 
ATOM      4  H   UNL A   1      33.990  27.424  27.054  1.00  0.00     0.163 HD
ENDROOT
BRANCH   1   5
ATOM      5  C   UNL A   1      31.677  29.150  25.272  1.00  0.00     0.108 C 
BRANCH   5   6
ATOM      6  C   UNL A   1      32.197  29.074  23.803  1.00  0.00     0.091 C 
BRANCH   6   7
ATOM      7  C   UNL A   1      31.163  28.724  22.681  1.00  0.00     0.163 C 
ATOM      8  O   UNL A   1      30.414  29.561  22.189  1.00  0.00    -0.294 OA
BRANCH   7   9
ATOM      9  C   UNL A   1      30.914  27.262  22.337  1.00  0.00     0.018 A 
ATOM     10  C   UNL A   1      31.882  23.986  23.584  1.00  0.00     0.049 A 
ATOM     11  C   UNL A   1      30.425  24.869  24.304  1.00  0.00     0.027 A 
ATOM     12  C   UNL A   1      32.809  24.766  22.260  1.00  0.00     0.027 A 
ATOM     13  C   UNL A   1      29.909  26.464  23.626  1.00  0.00     0.014 A 
ATOM     14  C   UNL A   1      32.302  26.387  21.626  1.00  0.00     0.014 A 
BRANCH  10  15
ATOM     15  N   UNL A   1      31.823  22.539  23.638  1.00  0.00    -0.280 N 
ATOM     16  H   UNL A   1      31.444  22.059  22.866  1.00  0.00     0.180 HD
BRANCH  15  17
ATOM     17  S   UNL A   1      32.371  21.631  24.958  1.00  0.00     0.262 S 
ATOM     18  O   UNL A   1      31.215  21.207  25.716  1.00  0.00    -0.201 OA
ATOM     19  O   UNL A   1      33.415  22.421  25.574  1.00  0.00    -0.201 OA
BRANCH  17  20
ATOM     20  C   UNL A   1      33.132  20.206  24.240  1.00  0.00     0.090 A 
ATOM     21  C   UNL A   1      34.101  16.084  23.739  1.00  0.00     0.044 C 
ATOM     22  C   UNL A   1      33.836  17.555  23.823  1.00  0.00    -0.051 A 
ATOM     23  C   UNL A   1      32.709  18.080  23.195  1.00  0.00     0.005 A 
ATOM     24  C   UNL A   1      34.714  18.422  24.490  1.00  0.00     0.008 A 
ATOM     25  C   UNL A   1      32.378  19.415  23.377  1.00  0.00     0.023 A 
ATOM     26  C   UNL A   1      34.376  19.765  24.706  1.00  0.00    -0.030 A 
ATOM     27  C   UNL A   1      35.398  20.711  25.274  1.00  0.00     0.046 C 
ENDBRANCH  17  20
ENDBRANCH  15  17
ENDBRANCH  10  15
ENDBRANCH   7   9
ENDBRANCH   6   7
ENDBRANCH   5   6
ENDBRANCH   1   5
BRANCH   3  28
ATOM     28  C   UNL A   1      34.385  29.459  26.707  1.00  0.00     0.117 C 
BRANCH  28  29
ATOM     29  C   UNL A   1      33.505  30.615  27.497  1.00  0.00     0.042 C 
BRANCH  29  30
ATOM     30  C   UNL A   1      32.261  32.352  27.056  1.00  0.00     0.118 C 
BRANCH  30  31
ATOM     31  N   UNL A   1      32.416  33.907  27.660  1.00  0.00    -0.352 N 
ATOM     32  C   UNL A   1      33.123  34.620  28.548  1.00  0.00     0.251 C 
ATOM     33  H   UNL A   1      31.769  34.496  27.211  1.00  0.00     0.163 HD
ATOM     34  O   UNL A   1      32.781  35.785  28.742  1.00  0.00    -0.269 OA
BRANCH  32  35
ATOM     35  C   UNL A   1      34.277  34.085  29.216  1.00  0.00     0.039 A 
ATOM     36  C   UNL A   1      35.520  34.474  28.711  1.00  0.00     0.014 A 
ATOM     37  C   UNL A   1      34.125  33.111  30.198  1.00  0.00     0.014 A 
ATOM     38  C   UNL A   1      36.646  33.876  29.216  1.00  0.00     0.010 A 
ATOM     39  C   UNL A   1      35.252  32.580  30.768  1.00  0.00     0.010 A 
ATOM     40  C   UNL A   1      36.499  32.948  30.252  1.00  0.00    -0.014 A 
BRANCH  40  41
ATOM     41  C   UNL A   1      37.677  32.315  30.818  1.00  0.00     0.031 A 
ATOM     42  C   UNL A   1      38.226  32.859  32.089  1.00  0.00     0.074 A 
ATOM     43  C   UNL A   1      38.217  31.325  30.094  1.00  0.00     0.049 A 
ATOM     44  N   UNL A   1      39.298  32.499  32.731  1.00  0.00    -0.248 NA
ATOM     45  C   UNL A   1      37.505  33.994  32.696  1.00  0.00     0.031 C 
ATOM     46  C   UNL A   1      37.701  30.841  28.806  1.00  0.00     0.029 A 
ATOM     47  N   UNL A   1      39.307  30.551  30.331  1.00  0.00    -0.354 N 
ATOM     48  C   UNL A   1      39.391  33.371  33.805  1.00  0.00     0.074 A 
ATOM     49  C   UNL A   1      38.314  34.325  33.690  1.00  0.00     0.031 C 
ATOM     50  C   UNL A   1      38.459  29.819  28.388  1.00  0.00     0.029 A 
ATOM     51  C   UNL A   1      39.522  29.611  29.358  1.00  0.00     0.049 A 
ATOM     52  H   UNL A   1      39.885  30.656  31.122  1.00  0.00     0.167 HD
ATOM     53  C   UNL A   1      40.294  33.334  34.807  1.00  0.00     0.037 A 
ATOM     54  C   UNL A   1      40.486  28.682  29.292  1.00  0.00     0.037 A 
ATOM     55  C   UNL A   1      41.326  32.332  34.857  1.00  0.00     0.049 A 
ATOM     56  C   UNL A   1      41.445  28.635  30.444  1.00  0.00     0.074 A 
ATOM     57  C   UNL A   1      42.295  32.127  35.816  1.00  0.00     0.029 A 
ATOM     58  N   UNL A   1      41.503  31.354  33.882  1.00  0.00    -0.354 N 
ATOM     59  N   UNL A   1      41.509  29.424  31.496  1.00  0.00    -0.248 NA
ATOM     60  C   UNL A   1      42.444  27.569  30.423  1.00  0.00     0.031 C 
ATOM     61  C   UNL A   1      43.081  31.046  35.401  1.00  0.00     0.029 A 
ATOM     62  C   UNL A   1      42.569  30.541  34.211  1.00  0.00     0.049 A 
ATOM     63  H   UNL A   1      40.948  31.255  33.075  1.00  0.00     0.167 HD
ATOM     64  C   UNL A   1      42.538  28.934  32.280  1.00  0.00     0.074 A 
ATOM     65  C   UNL A   1      43.055  27.767  31.583  1.00  0.00     0.031 C 
ATOM     66  C   UNL A   1      43.022  29.392  33.462  1.00  0.00     0.037 A 
BRANCH  53  67
ATOM     67  C   UNL A   1      40.188  34.382  35.876  1.00  0.00     0.057 A 
ATOM     68  C   UNL A   1      40.891  35.595  35.802  1.00  0.00     0.134 A 
ATOM     69  C   UNL A   1      39.398  34.171  37.012  1.00  0.00     0.134 A 
ATOM     70  F   UNL A   1      41.688  35.857  34.755  1.00  0.00    -0.206 F 
ATOM     71  C   UNL A   1      40.842  36.538  36.831  1.00  0.00     0.040 A 
ATOM     72  C   UNL A   1      39.314  35.121  38.034  1.00  0.00     0.040 A 
ATOM     73  F   UNL A   1      38.705  33.033  37.159  1.00  0.00    -0.206 F 
ATOM     74  C   UNL A   1      40.044  36.305  37.950  1.00  0.00     0.006 A 
ENDBRANCH  53  67
BRANCH  54  75
ATOM     75  C   UNL A   1      40.513  27.721  28.165  1.00  0.00     0.057 A 
ATOM     76  C   UNL A   1      41.247  27.991  27.006  1.00  0.00     0.134 A 
ATOM     77  C   UNL A   1      39.866  26.481  28.244  1.00  0.00     0.134 A 
ATOM     78  F   UNL A   1      41.902  29.154  26.877  1.00  0.00    -0.206 F 
ATOM     79  C   UNL A   1      41.315  27.077  25.952  1.00  0.00     0.040 A 
ATOM     80  C   UNL A   1      39.947  25.547  27.210  1.00  0.00     0.040 A 
ATOM     81  F   UNL A   1      39.177  26.144  29.344  1.00  0.00    -0.206 F 
ATOM     82  C   UNL A   1      40.666  25.848  26.055  1.00  0.00     0.006 A 
ENDBRANCH  54  75
BRANCH  66  83
ATOM     83  C   UNL A   1      44.135  28.594  34.065  1.00  0.00     0.057 A 
ATOM     84  C   UNL A   1      43.888  27.508  34.912  1.00  0.00     0.134 A 
ATOM     85  C   UNL A   1      45.466  28.905  33.762  1.00  0.00     0.134 A 
ATOM     86  F   UNL A   1      42.631  27.177  35.245  1.00  0.00    -0.206 F 
ATOM     87  C   UNL A   1      44.934  26.776  35.468  1.00  0.00     0.040 A 
ATOM     88  C   UNL A   1      46.518  28.157  34.284  1.00  0.00     0.040 A 
ATOM     89  F   UNL A   1      45.760  29.927  32.946  1.00  0.00    -0.206 F 
ATOM     90  C   UNL A   1      46.252  27.095  35.147  1.00  0.00     0.006 A 
ENDBRANCH  66  83
ENDBRANCH  40  41
ENDBRANCH  32  35
ENDBRANCH  30  31
ENDBRANCH  29  30
ENDBRANCH  28  29
ENDBRANCH   3  28
TORSDOF 16
ENDMDL
