MODEL 1
REMARK VINA RESULT:      -8.7      0.000      0.000
REMARK SMILES O=C(COc1ccc(/C=C/C(=O)c2ccc(F)cc2F)cc1[N+](=O)[O-])NCCCNC(=O)c1ccc(-c2c3nc(c(-c4c(F)cccc4F)c4ccc([nH]4)c(-c4c(F)cccc4F)c4nc(c(-c5c(F)cccc5F)c5ccc2[nH]5)C=C4)C=C3)cc1
REMARK SMILES IDX 1 1 2 2 26 3 3 5 4 6 5 7 6 8 22 9 7 10 21 11 8 12 23 13
REMARK SMILES IDX 24 14 25 15 9 16 10 17 11 18 12 19 13 20 14 21 19 22 15 23
REMARK SMILES IDX 18 24 20 25 16 26 17 27 27 28 28 29 29 30 30 31 31 32 32 34
REMARK SMILES IDX 33 35 34 36 86 37 35 38 85 39 36 40 37 41 38 42 79 43 39 44
REMARK SMILES IDX 84 45 78 46 80 47 40 48 83 49 77 50 76 51 41 53 67 54 50 55
REMARK SMILES IDX 66 56 51 57 54 58 65 59 81 60 52 61 53 62 64 64 82 65 55 66
REMARK SMILES IDX 42 67 43 68 48 69 44 70 45 71 47 72 49 73 46 74 68 75 69 76
REMARK SMILES IDX 74 77 70 78 71 79 73 80 75 81 72 82 56 83 57 84 62 85 58 86
REMARK SMILES IDX 59 87 61 88 63 89 60 90
REMARK H PARENT 26 4 30 33 80 52 54 63
REMARK Flexibility Score: inf
ROOT
ATOM      1  O   UNL A   1      37.096  34.241  31.931  1.00  0.00    -0.271 OA
ATOM      2  C   UNL A   1      36.862  33.065  31.669  1.00  0.00     0.257 C 
ATOM      3  N   UNL A   1      36.783  32.563  30.388  1.00  0.00    -0.353 N 
ATOM      4  H   UNL A   1      36.802  31.586  30.264  1.00  0.00     0.163 HD
ENDROOT
BRANCH   2   5
ATOM      5  C   UNL A   1      36.635  32.016  32.766  1.00  0.00     0.329 C 
BRANCH   5   6
ATOM      6  O   UNL A   1      37.576  32.113  33.843  1.00  0.00    -0.477 OA
BRANCH   6   7
ATOM      7  C   UNL A   1      38.615  31.230  33.714  1.00  0.00     0.197 A 
ATOM      8  C   UNL A   1      38.358  29.966  33.173  1.00  0.00     0.054 A 
ATOM      9  C   UNL A   1      39.900  31.497  34.188  1.00  0.00     0.311 A 
ATOM     10  C   UNL A   1      39.388  29.014  33.067  1.00  0.00     0.012 A 
ATOM     11  C   UNL A   1      40.942  30.578  34.044  1.00  0.00     0.098 A 
ATOM     12  C   UNL A   1      40.687  29.324  33.490  1.00  0.00    -0.018 A 
BRANCH   9  13
ATOM     13  N   UNL A   1      40.201  32.699  34.930  1.00  0.00     0.066 N 
ATOM     14  O   UNL A   1      39.792  32.756  36.098  1.00  0.00    -0.258 OA
ATOM     15  O   UNL A   1      40.815  33.601  34.339  1.00  0.00    -0.258 OA
ENDBRANCH   9  13
BRANCH  12  16
ATOM     16  C   UNL A   1      41.825  28.409  33.415  1.00  0.00     0.012 C 
ATOM     17  C   UNL A   1      42.932  28.537  34.158  1.00  0.00     0.053 C 
BRANCH  17  18
ATOM     18  C   UNL A   1      44.141  27.713  33.892  1.00  0.00     0.188 C 
ATOM     19  O   UNL A   1      45.228  28.252  33.720  1.00  0.00    -0.289 OA
BRANCH  18  20
ATOM     20  C   UNL A   1      44.026  26.236  33.838  1.00  0.00     0.058 A 
ATOM     21  C   UNL A   1      44.410  25.573  32.665  1.00  0.00     0.018 A 
ATOM     22  C   UNL A   1      43.524  25.496  34.913  1.00  0.00     0.137 A 
ATOM     23  C   UNL A   1      44.329  24.180  32.598  1.00  0.00     0.040 A 
ATOM     24  C   UNL A   1      43.440  24.109  34.849  1.00  0.00     0.079 A 
ATOM     25  F   UNL A   1      43.105  26.103  36.033  1.00  0.00    -0.206 F 
ATOM     26  C   UNL A   1      43.850  23.463  33.691  1.00  0.00     0.126 A 
ATOM     27  F   UNL A   1      43.780  22.127  33.622  1.00  0.00    -0.207 F 
ENDBRANCH  18  20
ENDBRANCH  17  18
ENDBRANCH  12  16
ENDBRANCH   6   7
ENDBRANCH   5   6
ENDBRANCH   2   5
BRANCH   3  28
ATOM     28  C   UNL A   1      36.669  33.409  29.212  1.00  0.00     0.117 C 
BRANCH  28  29
ATOM     29  C   UNL A   1      35.464  33.102  28.344  1.00  0.00     0.042 C 
BRANCH  29  30
ATOM     30  C   UNL A   1      34.402  32.220  28.989  1.00  0.00     0.118 C 
BRANCH  30  31
ATOM     31  N   UNL A   1      33.974  31.082  28.185  1.00  0.00    -0.352 N 
ATOM     32  C   UNL A   1      34.681  29.968  27.781  1.00  0.00     0.251 C 
ATOM     33  H   UNL A   1      33.037  31.112  27.884  1.00  0.00     0.163 HD
ATOM     34  O   UNL A   1      34.152  29.127  27.065  1.00  0.00    -0.269 OA
BRANCH  32  35
ATOM     35  C   UNL A   1      36.104  29.806  28.164  1.00  0.00     0.039 A 
ATOM     36  C   UNL A   1      36.405  29.327  29.444  1.00  0.00     0.014 A 
ATOM     37  C   UNL A   1      37.137  30.089  27.269  1.00  0.00     0.014 A 
ATOM     38  C   UNL A   1      37.729  29.028  29.783  1.00  0.00     0.010 A 
ATOM     39  C   UNL A   1      38.440  29.705  27.573  1.00  0.00     0.010 A 
ATOM     40  C   UNL A   1      38.750  29.158  28.828  1.00  0.00    -0.014 A 
BRANCH  40  41
ATOM     41  C   UNL A   1      40.142  28.716  29.104  1.00  0.00     0.031 A 
ATOM     42  C   UNL A   1      41.116  29.656  29.761  1.00  0.00     0.074 A 
ATOM     43  C   UNL A   1      40.563  27.509  28.675  1.00  0.00     0.049 A 
ATOM     44  N   UNL A   1      42.404  29.515  29.949  1.00  0.00    -0.248 NA
ATOM     45  C   UNL A   1      40.576  30.939  30.236  1.00  0.00     0.031 C 
ATOM     46  C   UNL A   1      39.738  26.519  27.979  1.00  0.00     0.029 A 
ATOM     47  N   UNL A   1      41.801  26.918  28.744  1.00  0.00    -0.354 N 
ATOM     48  C   UNL A   1      42.831  30.701  30.532  1.00  0.00     0.074 A 
ATOM     49  C   UNL A   1      41.674  31.565  30.629  1.00  0.00     0.031 C 
ATOM     50  C   UNL A   1      40.486  25.438  27.704  1.00  0.00     0.029 A 
ATOM     51  C   UNL A   1      41.851  25.673  28.164  1.00  0.00     0.049 A 
ATOM     52  H   UNL A   1      42.579  27.345  29.170  1.00  0.00     0.167 HD
ATOM     53  C   UNL A   1      44.070  31.035  30.966  1.00  0.00     0.037 A 
ATOM     54  C   UNL A   1      42.882  24.821  28.010  1.00  0.00     0.037 A 
ATOM     55  C   UNL A   1      45.211  30.161  30.915  1.00  0.00     0.049 A 
ATOM     56  C   UNL A   1      44.242  25.203  28.522  1.00  0.00     0.074 A 
ATOM     57  C   UNL A   1      46.491  30.385  31.393  1.00  0.00     0.029 A 
ATOM     58  N   UNL A   1      45.209  28.891  30.359  1.00  0.00    -0.354 N 
ATOM     59  N   UNL A   1      44.619  26.309  29.115  1.00  0.00    -0.248 NA
ATOM     60  C   UNL A   1      45.319  24.219  28.344  1.00  0.00     0.031 C 
ATOM     61  C   UNL A   1      47.271  29.259  31.102  1.00  0.00     0.029 A 
ATOM     62  C   UNL A   1      46.467  28.323  30.473  1.00  0.00     0.049 A 
ATOM     63  H   UNL A   1      44.428  28.458  29.944  1.00  0.00     0.167 HD
ATOM     64  C   UNL A   1      45.967  26.144  29.404  1.00  0.00     0.074 A 
ATOM     65  C   UNL A   1      46.339  24.828  28.930  1.00  0.00     0.031 C 
ATOM     66  C   UNL A   1      46.818  27.007  30.008  1.00  0.00     0.037 A 
BRANCH  53  67
ATOM     67  C   UNL A   1      44.250  32.407  31.543  1.00  0.00     0.057 A 
ATOM     68  C   UNL A   1      44.187  32.639  32.924  1.00  0.00     0.134 A 
ATOM     69  C   UNL A   1      44.513  33.504  30.713  1.00  0.00     0.134 A 
ATOM     70  F   UNL A   1      43.924  31.633  33.771  1.00  0.00    -0.206 F 
ATOM     71  C   UNL A   1      44.352  33.919  33.456  1.00  0.00     0.040 A 
ATOM     72  C   UNL A   1      44.704  34.784  31.237  1.00  0.00     0.040 A 
ATOM     73  F   UNL A   1      44.592  33.350  29.384  1.00  0.00    -0.206 F 
ATOM     74  C   UNL A   1      44.617  34.995  32.612  1.00  0.00     0.006 A 
ENDBRANCH  53  67
BRANCH  54  75
ATOM     75  C   UNL A   1      42.666  23.505  27.357  1.00  0.00     0.057 A 
ATOM     76  C   UNL A   1      42.259  22.393  28.103  1.00  0.00     0.134 A 
ATOM     77  C   UNL A   1      42.871  23.324  25.984  1.00  0.00     0.134 A 
ATOM     78  F   UNL A   1      42.068  22.503  29.426  1.00  0.00    -0.206 F 
ATOM     79  C   UNL A   1      42.077  21.142  27.512  1.00  0.00     0.040 A 
ATOM     80  C   UNL A   1      42.673  22.083  25.376  1.00  0.00     0.040 A 
ATOM     81  F   UNL A   1      43.258  24.351  25.216  1.00  0.00    -0.206 F 
ATOM     82  C   UNL A   1      42.280  20.986  26.142  1.00  0.00     0.006 A 
ENDBRANCH  54  75
BRANCH  66  83
ATOM     83  C   UNL A   1      48.227  26.541  30.224  1.00  0.00     0.057 A 
ATOM     84  C   UNL A   1      48.617  25.892  31.401  1.00  0.00     0.134 A 
ATOM     85  C   UNL A   1      49.193  26.711  29.225  1.00  0.00     0.134 A 
ATOM     86  F   UNL A   1      47.741  25.711  32.401  1.00  0.00    -0.206 F 
ATOM     87  C   UNL A   1      49.925  25.441  31.584  1.00  0.00     0.040 A 
ATOM     88  C   UNL A   1      50.499  26.246  29.388  1.00  0.00     0.040 A 
ATOM     89  F   UNL A   1      48.880  27.320  28.071  1.00  0.00    -0.206 F 
ATOM     90  C   UNL A   1      50.868  25.612  30.571  1.00  0.00     0.006 A 
ENDBRANCH  66  83
ENDBRANCH  40  41
ENDBRANCH  32  35
ENDBRANCH  30  31
ENDBRANCH  29  30
ENDBRANCH  28  29
ENDBRANCH   3  28
TORSDOF 16
ENDMDL
MODEL 2
REMARK VINA RESULT:      -8.3      1.207      2.146
REMARK SMILES O=C(COc1ccc(/C=C/C(=O)c2ccc(F)cc2F)cc1[N+](=O)[O-])NCCCNC(=O)c1ccc(-c2c3nc(c(-c4c(F)cccc4F)c4ccc([nH]4)c(-c4c(F)cccc4F)c4nc(c(-c5c(F)cccc5F)c5ccc2[nH]5)C=C4)C=C3)cc1
REMARK SMILES IDX 1 1 2 2 26 3 3 5 4 6 5 7 6 8 22 9 7 10 21 11 8 12 23 13
REMARK SMILES IDX 24 14 25 15 9 16 10 17 11 18 12 19 13 20 14 21 19 22 15 23
REMARK SMILES IDX 18 24 20 25 16 26 17 27 27 28 28 29 29 30 30 31 31 32 32 34
REMARK SMILES IDX 33 35 34 36 86 37 35 38 85 39 36 40 37 41 38 42 79 43 39 44
REMARK SMILES IDX 84 45 78 46 80 47 40 48 83 49 77 50 76 51 41 53 67 54 50 55
REMARK SMILES IDX 66 56 51 57 54 58 65 59 81 60 52 61 53 62 64 64 82 65 55 66
REMARK SMILES IDX 42 67 43 68 48 69 44 70 45 71 47 72 49 73 46 74 68 75 69 76
REMARK SMILES IDX 74 77 70 78 71 79 73 80 75 81 72 82 56 83 57 84 62 85 58 86
REMARK SMILES IDX 59 87 61 88 63 89 60 90
REMARK H PARENT 26 4 30 33 80 52 54 63
REMARK Flexibility Score: inf
ROOT
ATOM      1  O   UNL A   1      37.866  34.769  33.101  1.00  0.00    -0.271 OA
ATOM      2  C   UNL A   1      37.762  33.598  32.748  1.00  0.00     0.257 C 
ATOM      3  N   UNL A   1      37.665  33.197  31.432  1.00  0.00    -0.353 N 
ATOM      4  H   UNL A   1      37.796  32.244  31.221  1.00  0.00     0.163 HD
ENDROOT
BRANCH   2   5
ATOM      5  C   UNL A   1      37.732  32.442  33.757  1.00  0.00     0.329 C 
BRANCH   5   6
ATOM      6  O   UNL A   1      37.830  31.152  33.138  1.00  0.00    -0.477 OA
BRANCH   6   7
ATOM      7  C   UNL A   1      39.063  30.579  33.310  1.00  0.00     0.197 A 
ATOM      8  C   UNL A   1      40.173  31.414  33.466  1.00  0.00     0.054 A 
ATOM      9  C   UNL A   1      39.276  29.202  33.238  1.00  0.00     0.311 A 
ATOM     10  C   UNL A   1      41.463  30.867  33.598  1.00  0.00     0.012 A 
ATOM     11  C   UNL A   1      40.544  28.645  33.417  1.00  0.00     0.098 A 
ATOM     12  C   UNL A   1      41.649  29.479  33.588  1.00  0.00    -0.018 A 
BRANCH   9  13
ATOM     13  N   UNL A   1      38.214  28.287  32.889  1.00  0.00     0.066 N 
ATOM     14  O   UNL A   1      38.527  27.292  32.222  1.00  0.00    -0.258 OA
ATOM     15  O   UNL A   1      37.063  28.578  33.251  1.00  0.00    -0.258 OA
ENDBRANCH   9  13
BRANCH  12  16
ATOM     16  C   UNL A   1      42.943  28.813  33.725  1.00  0.00     0.012 C 
ATOM     17  C   UNL A   1      43.385  27.866  32.886  1.00  0.00     0.053 C 
BRANCH  17  18
ATOM     18  C   UNL A   1      44.605  27.073  33.191  1.00  0.00     0.188 C 
ATOM     19  O   UNL A   1      45.716  27.567  33.038  1.00  0.00    -0.289 OA
BRANCH  18  20
ATOM     20  C   UNL A   1      44.472  25.680  33.683  1.00  0.00     0.058 A 
ATOM     21  C   UNL A   1      44.285  25.466  35.055  1.00  0.00     0.018 A 
ATOM     22  C   UNL A   1      44.551  24.583  32.820  1.00  0.00     0.137 A 
ATOM     23  C   UNL A   1      44.136  24.163  35.539  1.00  0.00     0.040 A 
ATOM     24  C   UNL A   1      44.405  23.285  33.299  1.00  0.00     0.079 A 
ATOM     25  F   UNL A   1      44.774  24.751  31.508  1.00  0.00    -0.206 F 
ATOM     26  C   UNL A   1      44.193  23.088  34.656  1.00  0.00     0.126 A 
ATOM     27  F   UNL A   1      44.045  21.842  35.126  1.00  0.00    -0.207 F 
ENDBRANCH  18  20
ENDBRANCH  17  18
ENDBRANCH  12  16
ENDBRANCH   6   7
ENDBRANCH   5   6
ENDBRANCH   2   5
BRANCH   3  28
ATOM     28  C   UNL A   1      37.378  34.116  30.345  1.00  0.00     0.117 C 
BRANCH  28  29
ATOM     29  C   UNL A   1      36.183  33.717  29.500  1.00  0.00     0.042 C 
BRANCH  29  30
ATOM     30  C   UNL A   1      35.303  32.621  30.088  1.00  0.00     0.118 C 
BRANCH  30  31
ATOM     31  N   UNL A   1      34.458  31.926  29.124  1.00  0.00    -0.352 N 
ATOM     32  C   UNL A   1      34.720  30.804  28.364  1.00  0.00     0.251 C 
ATOM     33  H   UNL A   1      33.563  32.316  28.997  1.00  0.00     0.163 HD
ATOM     34  O   UNL A   1      33.885  30.387  27.571  1.00  0.00    -0.269 OA
BRANCH  32  35
ATOM     35  C   UNL A   1      36.035  30.126  28.460  1.00  0.00     0.039 A 
ATOM     36  C   UNL A   1      36.916  30.212  27.377  1.00  0.00     0.014 A 
ATOM     37  C   UNL A   1      36.417  29.438  29.612  1.00  0.00     0.014 A 
ATOM     38  C   UNL A   1      38.215  29.707  27.494  1.00  0.00     0.010 A 
ATOM     39  C   UNL A   1      37.736  29.019  29.761  1.00  0.00     0.010 A 
ATOM     40  C   UNL A   1      38.655  29.161  28.709  1.00  0.00    -0.014 A 
BRANCH  40  41
ATOM     41  C   UNL A   1      40.067  28.745  28.917  1.00  0.00     0.031 A 
ATOM     42  C   UNL A   1      41.072  29.728  29.453  1.00  0.00     0.074 A 
ATOM     43  C   UNL A   1      40.472  27.519  28.530  1.00  0.00     0.049 A 
ATOM     44  N   UNL A   1      42.371  29.608  29.563  1.00  0.00    -0.248 NA
ATOM     45  C   UNL A   1      40.550  31.032  29.890  1.00  0.00     0.031 C 
ATOM     46  C   UNL A   1      39.614  26.484  27.948  1.00  0.00     0.029 A 
ATOM     47  N   UNL A   1      41.718  26.941  28.551  1.00  0.00    -0.354 N 
ATOM     48  C   UNL A   1      42.823  30.828  30.048  1.00  0.00     0.074 A 
ATOM     49  C   UNL A   1      41.665  31.688  30.173  1.00  0.00     0.031 C 
ATOM     50  C   UNL A   1      40.355  25.395  27.685  1.00  0.00     0.029 A 
ATOM     51  C   UNL A   1      41.744  25.665  28.040  1.00  0.00     0.049 A 
ATOM     52  H   UNL A   1      42.518  27.398  28.899  1.00  0.00     0.167 HD
ATOM     53  C   UNL A   1      44.084  31.196  30.380  1.00  0.00     0.037 A 
ATOM     54  C   UNL A   1      42.771  24.814  27.866  1.00  0.00     0.037 A 
ATOM     55  C   UNL A   1      45.229  30.329  30.303  1.00  0.00     0.049 A 
ATOM     56  C   UNL A   1      44.158  25.234  28.265  1.00  0.00     0.074 A 
ATOM     57  C   UNL A   1      46.534  30.588  30.681  1.00  0.00     0.029 A 
ATOM     58  N   UNL A   1      45.203  29.028  29.821  1.00  0.00    -0.354 N 
ATOM     59  N   UNL A   1      44.561  26.375  28.768  1.00  0.00    -0.248 NA
ATOM     60  C   UNL A   1      45.232  24.249  28.072  1.00  0.00     0.031 C 
ATOM     61  C   UNL A   1      47.305  29.454  30.404  1.00  0.00     0.029 A 
ATOM     62  C   UNL A   1      46.472  28.477  29.884  1.00  0.00     0.049 A 
ATOM     63  H   UNL A   1      44.402  28.567  29.484  1.00  0.00     0.167 HD
ATOM     64  C   UNL A   1      45.927  26.237  28.975  1.00  0.00     0.074 A 
ATOM     65  C   UNL A   1      46.282  24.898  28.554  1.00  0.00     0.031 C 
ATOM     66  C   UNL A   1      46.807  27.139  29.472  1.00  0.00     0.037 A 
BRANCH  53  67
ATOM     67  C   UNL A   1      44.286  32.599  30.865  1.00  0.00     0.057 A 
ATOM     68  C   UNL A   1      44.424  32.895  32.228  1.00  0.00     0.134 A 
ATOM     69  C   UNL A   1      44.369  33.665  29.960  1.00  0.00     0.134 A 
ATOM     70  F   UNL A   1      44.340  31.921  33.147  1.00  0.00    -0.206 F 
ATOM     71  C   UNL A   1      44.608  34.205  32.675  1.00  0.00     0.040 A 
ATOM     72  C   UNL A   1      44.578  34.975  30.395  1.00  0.00     0.040 A 
ATOM     73  F   UNL A   1      44.251  33.450  28.641  1.00  0.00    -0.206 F 
ATOM     74  C   UNL A   1      44.692  35.249  31.756  1.00  0.00     0.006 A 
ENDBRANCH  53  67
BRANCH  54  75
ATOM     75  C   UNL A   1      42.528  23.461  27.306  1.00  0.00     0.057 A 
ATOM     76  C   UNL A   1      42.531  23.247  25.923  1.00  0.00     0.134 A 
ATOM     77  C   UNL A   1      42.279  22.358  28.130  1.00  0.00     0.134 A 
ATOM     78  F   UNL A   1      42.743  24.271  25.083  1.00  0.00    -0.206 F 
ATOM     79  C   UNL A   1      42.279  21.988  25.377  1.00  0.00     0.040 A 
ATOM     80  C   UNL A   1      42.045  21.088  27.599  1.00  0.00     0.040 A 
ATOM     81  F   UNL A   1      42.267  22.498  29.463  1.00  0.00    -0.206 F 
ATOM     82  C   UNL A   1      42.039  20.903  26.217  1.00  0.00     0.006 A 
ENDBRANCH  54  75
BRANCH  66  83
ATOM     83  C   UNL A   1      48.231  26.696  29.621  1.00  0.00     0.057 A 
ATOM     84  C   UNL A   1      49.196  26.977  28.645  1.00  0.00     0.134 A 
ATOM     85  C   UNL A   1      48.649  26.017  30.771  1.00  0.00     0.134 A 
ATOM     86  F   UNL A   1      48.856  27.612  27.515  1.00  0.00    -0.206 F 
ATOM     87  C   UNL A   1      50.526  26.581  28.803  1.00  0.00     0.040 A 
ATOM     88  C   UNL A   1      49.980  25.635  30.949  1.00  0.00     0.040 A 
ATOM     89  F   UNL A   1      47.774  25.725  31.746  1.00  0.00    -0.206 F 
ATOM     90  C   UNL A   1      50.921  25.914  29.962  1.00  0.00     0.006 A 
ENDBRANCH  66  83
ENDBRANCH  40  41
ENDBRANCH  32  35
ENDBRANCH  30  31
ENDBRANCH  29  30
ENDBRANCH  28  29
ENDBRANCH   3  28
TORSDOF 16
ENDMDL
MODEL 3
REMARK VINA RESULT:      -8.3      8.731     13.350
REMARK SMILES O=C(COc1ccc(/C=C/C(=O)c2ccc(F)cc2F)cc1[N+](=O)[O-])NCCCNC(=O)c1ccc(-c2c3nc(c(-c4c(F)cccc4F)c4ccc([nH]4)c(-c4c(F)cccc4F)c4nc(c(-c5c(F)cccc5F)c5ccc2[nH]5)C=C4)C=C3)cc1
REMARK SMILES IDX 1 1 2 2 26 3 3 5 4 6 5 7 6 8 22 9 7 10 21 11 8 12 23 13
REMARK SMILES IDX 24 14 25 15 9 16 10 17 11 18 12 19 13 20 14 21 19 22 15 23
REMARK SMILES IDX 18 24 20 25 16 26 17 27 27 28 28 29 29 30 30 31 31 32 32 34
REMARK SMILES IDX 33 35 34 36 86 37 35 38 85 39 36 40 37 41 38 42 79 43 39 44
REMARK SMILES IDX 84 45 78 46 80 47 40 48 83 49 77 50 76 51 41 53 67 54 50 55
REMARK SMILES IDX 66 56 51 57 54 58 65 59 81 60 52 61 53 62 64 64 82 65 55 66
REMARK SMILES IDX 42 67 43 68 48 69 44 70 45 71 47 72 49 73 46 74 68 75 69 76
REMARK SMILES IDX 74 77 70 78 71 79 73 80 75 81 72 82 56 83 57 84 62 85 58 86
REMARK SMILES IDX 59 87 61 88 63 89 60 90
REMARK H PARENT 26 4 30 33 80 52 54 63
REMARK Flexibility Score: inf
ROOT
ATOM      1  O   UNL A   1      43.075  38.772  26.491  1.00  0.00    -0.271 OA
ATOM      2  C   UNL A   1      43.328  39.971  26.429  1.00  0.00     0.257 C 
ATOM      3  N   UNL A   1      44.439  40.554  27.000  1.00  0.00    -0.353 N 
ATOM      4  H   UNL A   1      44.679  41.471  26.731  1.00  0.00     0.163 HD
ENDROOT
BRANCH   2   5
ATOM      5  C   UNL A   1      42.415  40.959  25.690  1.00  0.00     0.329 C 
BRANCH   5   6
ATOM      6  O   UNL A   1      43.075  42.183  25.339  1.00  0.00    -0.477 OA
BRANCH   6   7
ATOM      7  C   UNL A   1      42.970  42.474  24.005  1.00  0.00     0.197 A 
ATOM      8  C   UNL A   1      41.706  42.428  23.407  1.00  0.00     0.054 A 
ATOM      9  C   UNL A   1      44.077  42.720  23.193  1.00  0.00     0.311 A 
ATOM     10  C   UNL A   1      41.561  42.674  22.030  1.00  0.00     0.012 A 
ATOM     11  C   UNL A   1      43.940  43.014  21.834  1.00  0.00     0.098 A 
ATOM     12  C   UNL A   1      42.677  42.982  21.243  1.00  0.00    -0.018 A 
BRANCH   9  13
ATOM     13  N   UNL A   1      45.427  42.596  23.692  1.00  0.00     0.066 N 
ATOM     14  O   UNL A   1      45.759  41.493  24.145  1.00  0.00    -0.258 OA
ATOM     15  O   UNL A   1      46.144  43.608  23.663  1.00  0.00    -0.258 OA
ENDBRANCH   9  13
BRANCH  12  16
ATOM     16  C   UNL A   1      42.631  43.261  19.808  1.00  0.00     0.012 C 
ATOM     17  C   UNL A   1      43.705  43.594  19.080  1.00  0.00     0.053 C 
BRANCH  17  18
ATOM     18  C   UNL A   1      43.570  44.076  17.680  1.00  0.00     0.188 C 
ATOM     19  O   UNL A   1      43.531  43.274  16.754  1.00  0.00    -0.289 OA
BRANCH  18  20
ATOM     20  C   UNL A   1      43.482  45.531  17.409  1.00  0.00     0.058 A 
ATOM     21  C   UNL A   1      44.647  46.221  17.050  1.00  0.00     0.018 A 
ATOM     22  C   UNL A   1      42.276  46.230  17.525  1.00  0.00     0.137 A 
ATOM     23  C   UNL A   1      44.584  47.589  16.770  1.00  0.00     0.040 A 
ATOM     24  C   UNL A   1      42.211  47.592  17.249  1.00  0.00     0.079 A 
ATOM     25  F   UNL A   1      41.152  45.609  17.911  1.00  0.00    -0.206 F 
ATOM     26  C   UNL A   1      43.367  48.258  16.869  1.00  0.00     0.126 A 
ATOM     27  F   UNL A   1      43.312  49.568  16.594  1.00  0.00    -0.207 F 
ENDBRANCH  18  20
ENDBRANCH  17  18
ENDBRANCH  12  16
ENDBRANCH   6   7
ENDBRANCH   5   6
ENDBRANCH   2   5
BRANCH   3  28
ATOM     28  C   UNL A   1      45.270  39.880  27.982  1.00  0.00     0.117 C 
BRANCH  28  29
ATOM     29  C   UNL A   1      44.569  39.604  29.299  1.00  0.00     0.042 C 
BRANCH  29  30
ATOM     30  C   UNL A   1      45.207  38.525  30.165  1.00  0.00     0.118 C 
BRANCH  30  31
ATOM     31  N   UNL A   1      46.593  38.212  29.839  1.00  0.00    -0.352 N 
ATOM     32  C   UNL A   1      47.163  37.016  29.450  1.00  0.00     0.251 C 
ATOM     33  H   UNL A   1      47.218  38.968  29.906  1.00  0.00     0.163 HD
ATOM     34  O   UNL A   1      48.369  36.941  29.256  1.00  0.00    -0.269 OA
BRANCH  32  35
ATOM     35  C   UNL A   1      46.327  35.798  29.316  1.00  0.00     0.039 A 
ATOM     36  C   UNL A   1      45.578  35.622  28.148  1.00  0.00     0.014 A 
ATOM     37  C   UNL A   1      46.300  34.820  30.311  1.00  0.00     0.014 A 
ATOM     38  C   UNL A   1      44.896  34.420  27.932  1.00  0.00     0.010 A 
ATOM     39  C   UNL A   1      45.699  33.591  30.056  1.00  0.00     0.010 A 
ATOM     40  C   UNL A   1      45.002  33.371  28.858  1.00  0.00    -0.014 A 
BRANCH  40  41
ATOM     41  C   UNL A   1      44.411  32.032  28.596  1.00  0.00     0.031 A 
ATOM     42  C   UNL A   1      43.064  31.677  29.165  1.00  0.00     0.074 A 
ATOM     43  C   UNL A   1      45.125  31.098  27.936  1.00  0.00     0.049 A 
ATOM     44  N   UNL A   1      42.449  30.522  29.178  1.00  0.00    -0.248 NA
ATOM     45  C   UNL A   1      42.328  32.758  29.839  1.00  0.00     0.031 C 
ATOM     46  C   UNL A   1      46.465  31.291  27.376  1.00  0.00     0.029 A 
ATOM     47  N   UNL A   1      44.829  29.789  27.642  1.00  0.00    -0.354 N 
ATOM     48  C   UNL A   1      41.273  30.729  29.887  1.00  0.00     0.074 A 
ATOM     49  C   UNL A   1      41.280  32.109  30.324  1.00  0.00     0.031 C 
ATOM     50  C   UNL A   1      46.865  30.150  26.791  1.00  0.00     0.029 A 
ATOM     51  C   UNL A   1      45.833  29.135  26.968  1.00  0.00     0.049 A 
ATOM     52  H   UNL A   1      43.979  29.360  27.890  1.00  0.00     0.167 HD
ATOM     53  C   UNL A   1      40.268  29.856  30.138  1.00  0.00     0.037 A 
ATOM     54  C   UNL A   1      45.917  27.858  26.551  1.00  0.00     0.037 A 
ATOM     55  C   UNL A   1      40.235  28.498  29.665  1.00  0.00     0.049 A 
ATOM     56  C   UNL A   1      44.779  26.914  26.819  1.00  0.00     0.074 A 
ATOM     57  C   UNL A   1      39.229  27.558  29.809  1.00  0.00     0.029 A 
ATOM     58  N   UNL A   1      41.253  27.887  28.948  1.00  0.00    -0.354 N 
ATOM     59  N   UNL A   1      43.652  27.138  27.450  1.00  0.00    -0.248 NA
ATOM     60  C   UNL A   1      44.923  25.540  26.316  1.00  0.00     0.031 C 
ATOM     61  C   UNL A   1      39.649  26.369  29.201  1.00  0.00     0.029 A 
ATOM     62  C   UNL A   1      40.903  26.580  28.651  1.00  0.00     0.049 A 
ATOM     63  H   UNL A   1      42.099  28.318  28.690  1.00  0.00     0.167 HD
ATOM     64  C   UNL A   1      42.944  25.945  27.397  1.00  0.00     0.074 A 
ATOM     65  C   UNL A   1      43.763  25.003  26.664  1.00  0.00     0.031 C 
ATOM     66  C   UNL A   1      41.723  25.658  27.910  1.00  0.00     0.037 A 
BRANCH  53  67
ATOM     67  C   UNL A   1      39.115  30.351  30.957  1.00  0.00     0.057 A 
ATOM     68  C   UNL A   1      39.115  30.268  32.356  1.00  0.00     0.134 A 
ATOM     69  C   UNL A   1      38.001  30.941  30.344  1.00  0.00     0.134 A 
ATOM     70  F   UNL A   1      40.145  29.702  33.003  1.00  0.00    -0.206 F 
ATOM     71  C   UNL A   1      38.037  30.727  33.114  1.00  0.00     0.040 A 
ATOM     72  C   UNL A   1      36.929  31.426  31.095  1.00  0.00     0.040 A 
ATOM     73  F   UNL A   1      37.940  31.056  29.010  1.00  0.00    -0.206 F 
ATOM     74  C   UNL A   1      36.942  31.314  32.483  1.00  0.00     0.006 A 
ENDBRANCH  53  67
BRANCH  54  75
ATOM     75  C   UNL A   1      47.119  27.395  25.813  1.00  0.00     0.057 A 
ATOM     76  C   UNL A   1      48.182  26.782  26.486  1.00  0.00     0.134 A 
ATOM     77  C   UNL A   1      47.240  27.562  24.429  1.00  0.00     0.134 A 
ATOM     78  F   UNL A   1      48.131  26.615  27.816  1.00  0.00    -0.206 F 
ATOM     79  C   UNL A   1      49.331  26.365  25.813  1.00  0.00     0.040 A 
ATOM     80  C   UNL A   1      48.375  27.131  23.739  1.00  0.00     0.040 A 
ATOM     81  F   UNL A   1      46.254  28.139  23.727  1.00  0.00    -0.206 F 
ATOM     82  C   UNL A   1      49.427  26.535  24.434  1.00  0.00     0.006 A 
ENDBRANCH  54  75
BRANCH  66  83
ATOM     83  C   UNL A   1      41.184  24.281  27.666  1.00  0.00     0.057 A 
ATOM     84  C   UNL A   1      40.201  24.035  26.701  1.00  0.00     0.134 A 
ATOM     85  C   UNL A   1      41.685  23.185  28.379  1.00  0.00     0.134 A 
ATOM     86  F   UNL A   1      39.672  25.044  25.995  1.00  0.00    -0.206 F 
ATOM     87  C   UNL A   1      39.721  22.745  26.465  1.00  0.00     0.040 A 
ATOM     88  C   UNL A   1      41.228  21.889  28.137  1.00  0.00     0.040 A 
ATOM     89  F   UNL A   1      42.633  23.355  29.313  1.00  0.00    -0.206 F 
ATOM     90  C   UNL A   1      40.241  21.667  27.180  1.00  0.00     0.006 A 
ENDBRANCH  66  83
ENDBRANCH  40  41
ENDBRANCH  32  35
ENDBRANCH  30  31
ENDBRANCH  29  30
ENDBRANCH  28  29
ENDBRANCH   3  28
TORSDOF 16
ENDMDL
