MODEL 1
REMARK VINA RESULT:     -10.9      0.000      0.000
REMARK SMILES C[C@H]([NH2+]C1C(C)(C)C1(C)C)[C@H](C)C(=O)NCCCNC(=O)c1ccc(-c2c3nc(c(-c4c(F)cccc4F)c4ccc([nH]4)c(-c4c(F)cccc4F)c4nc(c(-c5c(F)cccc5F)c5ccc2[nH]5)C=C4)C=C3)cc1
REMARK SMILES IDX 16 1 15 2 13 3 14 4 11 6 12 7 2 8 1 9 3 10 4 13 5 14 8 15
REMARK SMILES IDX 6 16 7 17 9 18 10 19 17 20 18 21 19 22 20 23 21 25 22 26
REMARK SMILES IDX 23 27 75 28 24 29 74 30 25 31 26 32 27 33 68 34 28 35 73 36
REMARK SMILES IDX 67 37 69 38 29 39 72 40 66 41 65 42 30 44 56 45 39 46 55 47
REMARK SMILES IDX 40 48 43 49 54 50 70 51 41 52 42 53 53 55 71 56 44 57 31 58
REMARK SMILES IDX 32 59 37 60 33 61 34 62 36 63 38 64 35 65 57 66 58 67 63 68
REMARK SMILES IDX 59 69 60 70 62 71 64 72 61 73 45 74 46 75 51 76 47 77 48 78
REMARK SMILES IDX 50 79 52 80 49 81
REMARK H PARENT 15 5 3 11 3 12 19 24 69 43 43 54
REMARK Flexibility Score: inf
ROOT
ATOM      1  C   UNL A   1      36.796  20.569  24.994  1.00  0.00     0.117 C 
ENDROOT
BRANCH   1   2
ATOM      2  N   UNL A   1      36.842  21.498  23.882  1.00  0.00    -0.356 N 
ATOM      3  C   UNL A   1      36.525  22.823  23.825  1.00  0.00     0.228 C 
ATOM      4  O   UNL A   1      36.694  23.395  22.746  1.00  0.00    -0.275 OA
ATOM      5  H   UNL A   1      37.151  21.110  23.033  1.00  0.00     0.163 HD
BRANCH   3   6
ATOM      6  C   UNL A   1      35.925  23.558  25.024  1.00  0.00     0.133 C 
ATOM      7  C   UNL A   1      37.062  24.073  25.915  1.00  0.00     0.024 C 
BRANCH   6   8
ATOM      8  C   UNL A   1      34.841  24.584  24.588  1.00  0.00     0.191 C 
ATOM      9  C   UNL A   1      34.220  25.413  25.722  1.00  0.00     0.076 C 
BRANCH   8  10
ATOM     10  N   UNL A   1      33.725  23.944  23.885  1.00  0.00    -0.340 N 
ATOM     11  H   UNL A   1      34.091  23.565  23.012  1.00  0.00     0.346 HD
ATOM     12  H   UNL A   1      33.027  24.681  23.784  1.00  0.00     0.346 HD
BRANCH  10  13
ATOM     13  C   UNL A   1      33.019  22.856  24.573  1.00  0.00     0.195 C 
ATOM     14  C   UNL A   1      31.487  22.879  24.581  1.00  0.00     0.028 C 
ATOM     15  C   UNL A   1      32.241  21.692  23.969  1.00  0.00     0.028 C 
ATOM     16  C   UNL A   1      30.785  22.721  25.911  1.00  0.00     0.018 C 
ATOM     17  C   UNL A   1      30.718  23.809  23.657  1.00  0.00     0.018 C 
ATOM     18  C   UNL A   1      32.099  21.439  22.485  1.00  0.00     0.018 C 
ATOM     19  C   UNL A   1      32.312  20.382  24.736  1.00  0.00     0.018 C 
ENDBRANCH  10  13
ENDBRANCH   8  10
ENDBRANCH   6   8
ENDBRANCH   3   6
ENDBRANCH   1   2
BRANCH   1  20
ATOM     20  C   UNL A   1      37.959  19.595  25.001  1.00  0.00     0.042 C 
BRANCH  20  21
ATOM     21  C   UNL A   1      39.172  20.102  25.763  1.00  0.00     0.118 C 
BRANCH  21  22
ATOM     22  N   UNL A   1      40.207  19.084  25.913  1.00  0.00    -0.352 N 
ATOM     23  C   UNL A   1      41.547  19.208  26.173  1.00  0.00     0.251 C 
ATOM     24  H   UNL A   1      39.890  18.158  25.810  1.00  0.00     0.163 HD
ATOM     25  O   UNL A   1      42.281  18.228  26.055  1.00  0.00    -0.269 OA
BRANCH  23  26
ATOM     26  C   UNL A   1      42.119  20.511  26.571  1.00  0.00     0.039 A 
ATOM     27  C   UNL A   1      42.572  21.383  25.578  1.00  0.00     0.014 A 
ATOM     28  C   UNL A   1      42.220  20.872  27.916  1.00  0.00     0.014 A 
ATOM     29  C   UNL A   1      43.051  22.647  25.932  1.00  0.00     0.010 A 
ATOM     30  C   UNL A   1      42.601  22.164  28.260  1.00  0.00     0.010 A 
ATOM     31  C   UNL A   1      43.024  23.066  27.272  1.00  0.00    -0.014 A 
BRANCH  31  32
ATOM     32  C   UNL A   1      43.427  24.442  27.662  1.00  0.00     0.031 A 
ATOM     33  C   UNL A   1      42.381  25.465  28.016  1.00  0.00     0.074 A 
ATOM     34  C   UNL A   1      44.729  24.789  27.623  1.00  0.00     0.049 A 
ATOM     35  N   UNL A   1      42.531  26.734  28.299  1.00  0.00    -0.248 NA
ATOM     36  C   UNL A   1      40.980  25.013  28.026  1.00  0.00     0.031 C 
ATOM     37  C   UNL A   1      45.832  23.905  27.239  1.00  0.00     0.029 A 
ATOM     38  N   UNL A   1      45.345  25.986  27.893  1.00  0.00    -0.354 N 
ATOM     39  C   UNL A   1      41.250  27.232  28.498  1.00  0.00     0.074 A 
ATOM     40  C   UNL A   1      40.329  26.144  28.258  1.00  0.00     0.031 C 
ATOM     41  C   UNL A   1      46.988  24.582  27.315  1.00  0.00     0.029 A 
ATOM     42  C   UNL A   1      46.707  25.959  27.707  1.00  0.00     0.049 A 
ATOM     43  H   UNL A   1      44.858  26.787  28.193  1.00  0.00     0.167 HD
ATOM     44  C   UNL A   1      40.876  28.480  28.866  1.00  0.00     0.037 A 
ATOM     45  C   UNL A   1      47.625  26.939  27.822  1.00  0.00     0.037 A 
ATOM     46  C   UNL A   1      41.798  29.551  29.140  1.00  0.00     0.049 A 
ATOM     47  C   UNL A   1      47.178  28.314  28.238  1.00  0.00     0.074 A 
ATOM     48  C   UNL A   1      41.520  30.825  29.604  1.00  0.00     0.029 A 
ATOM     49  N   UNL A   1      43.171  29.475  28.972  1.00  0.00    -0.354 N 
ATOM     50  N   UNL A   1      45.971  28.745  28.512  1.00  0.00    -0.248 NA
ATOM     51  C   UNL A   1      48.223  29.340  28.366  1.00  0.00     0.031 C 
ATOM     52  C   UNL A   1      42.719  31.540  29.658  1.00  0.00     0.029 A 
ATOM     53  C   UNL A   1      43.752  30.692  29.290  1.00  0.00     0.049 A 
ATOM     54  H   UNL A   1      43.661  28.676  28.671  1.00  0.00     0.167 HD
ATOM     55  C   UNL A   1      46.114  30.078  28.874  1.00  0.00     0.074 A 
ATOM     56  C   UNL A   1      47.528  30.380  28.805  1.00  0.00     0.031 C 
ATOM     57  C   UNL A   1      45.162  30.974  29.229  1.00  0.00     0.037 A 
BRANCH  44  58
ATOM     58  C   UNL A   1      39.409  28.767  29.003  1.00  0.00     0.057 A 
ATOM     59  C   UNL A   1      38.729  28.584  30.213  1.00  0.00     0.134 A 
ATOM     60  C   UNL A   1      38.690  29.313  27.933  1.00  0.00     0.134 A 
ATOM     61  F   UNL A   1      39.356  28.057  31.275  1.00  0.00    -0.206 F 
ATOM     62  C   UNL A   1      37.381  28.924  30.351  1.00  0.00     0.040 A 
ATOM     63  C   UNL A   1      37.350  29.682  28.065  1.00  0.00     0.040 A 
ATOM     64  F   UNL A   1      39.283  29.519  26.747  1.00  0.00    -0.206 F 
ATOM     65  C   UNL A   1      36.692  29.487  29.278  1.00  0.00     0.006 A 
ENDBRANCH  44  58
BRANCH  45  66
ATOM     66  C   UNL A   1      49.058  26.667  27.533  1.00  0.00     0.057 A 
ATOM     67  C   UNL A   1      49.591  26.859  26.252  1.00  0.00     0.134 A 
ATOM     68  C   UNL A   1      49.918  26.166  28.518  1.00  0.00     0.134 A 
ATOM     69  F   UNL A   1      48.814  27.321  25.260  1.00  0.00    -0.206 F 
ATOM     70  C   UNL A   1      50.913  26.528  25.951  1.00  0.00     0.040 A 
ATOM     71  C   UNL A   1      51.251  25.861  28.239  1.00  0.00     0.040 A 
ATOM     72  F   UNL A   1      49.476  25.968  29.767  1.00  0.00    -0.206 F 
ATOM     73  C   UNL A   1      51.748  26.028  26.949  1.00  0.00     0.006 A 
ENDBRANCH  45  66
BRANCH  57  74
ATOM     74  C   UNL A   1      45.618  32.351  29.612  1.00  0.00     0.057 A 
ATOM     75  C   UNL A   1      45.997  32.670  30.923  1.00  0.00     0.134 A 
ATOM     76  C   UNL A   1      45.717  33.362  28.647  1.00  0.00     0.134 A 
ATOM     77  F   UNL A   1      45.913  31.752  31.897  1.00  0.00    -0.206 F 
ATOM     78  C   UNL A   1      46.433  33.951  31.263  1.00  0.00     0.040 A 
ATOM     79  C   UNL A   1      46.182  34.636  28.969  1.00  0.00     0.040 A 
ATOM     80  F   UNL A   1      45.380  33.120  27.370  1.00  0.00    -0.206 F 
ATOM     81  C   UNL A   1      46.536  34.936  30.282  1.00  0.00     0.006 A 
ENDBRANCH  57  74
ENDBRANCH  31  32
ENDBRANCH  23  26
ENDBRANCH  21  22
ENDBRANCH  20  21
ENDBRANCH   1  20
TORSDOF 13
ENDMDL
MODEL 2
REMARK VINA RESULT:     -10.9      4.519      9.924
REMARK SMILES C[C@H]([NH2+]C1C(C)(C)C1(C)C)[C@H](C)C(=O)NCCCNC(=O)c1ccc(-c2c3nc(c(-c4c(F)cccc4F)c4ccc([nH]4)c(-c4c(F)cccc4F)c4nc(c(-c5c(F)cccc5F)c5ccc2[nH]5)C=C4)C=C3)cc1
REMARK SMILES IDX 16 1 15 2 13 3 14 4 11 6 12 7 2 8 1 9 3 10 4 13 5 14 8 15
REMARK SMILES IDX 6 16 7 17 9 18 10 19 17 20 18 21 19 22 20 23 21 25 22 26
REMARK SMILES IDX 23 27 75 28 24 29 74 30 25 31 26 32 27 33 68 34 28 35 73 36
REMARK SMILES IDX 67 37 69 38 29 39 72 40 66 41 65 42 30 44 56 45 39 46 55 47
REMARK SMILES IDX 40 48 43 49 54 50 70 51 41 52 42 53 53 55 71 56 44 57 31 58
REMARK SMILES IDX 32 59 37 60 33 61 34 62 36 63 38 64 35 65 57 66 58 67 63 68
REMARK SMILES IDX 59 69 60 70 62 71 64 72 61 73 45 74 46 75 51 76 47 77 48 78
REMARK SMILES IDX 50 79 52 80 49 81
REMARK H PARENT 15 5 3 11 3 12 19 24 69 43 43 54
REMARK Flexibility Score: inf
ROOT
ATOM      1  C   UNL A   1      34.212  34.921  29.051  1.00  0.00     0.117 C 
ENDROOT
BRANCH   1   2
ATOM      2  N   UNL A   1      33.120  34.936  30.004  1.00  0.00    -0.356 N 
ATOM      3  C   UNL A   1      33.067  35.417  31.279  1.00  0.00     0.228 C 
ATOM      4  O   UNL A   1      31.986  35.337  31.866  1.00  0.00    -0.275 OA
ATOM      5  H   UNL A   1      32.283  34.534  29.680  1.00  0.00     0.163 HD
BRANCH   3   6
ATOM      6  C   UNL A   1      34.307  35.973  31.979  1.00  0.00     0.133 C 
ATOM      7  C   UNL A   1      33.878  37.072  32.960  1.00  0.00     0.024 C 
BRANCH   6   8
ATOM      8  C   UNL A   1      35.213  34.839  32.535  1.00  0.00     0.191 C 
ATOM      9  C   UNL A   1      35.228  34.691  34.064  1.00  0.00     0.076 C 
BRANCH   8  10
ATOM     10  N   UNL A   1      36.612  34.995  32.122  1.00  0.00    -0.340 N 
ATOM     11  H   UNL A   1      36.893  35.948  32.353  1.00  0.00     0.346 HD
ATOM     12  H   UNL A   1      36.615  34.765  31.128  1.00  0.00     0.346 HD
BRANCH  10  13
ATOM     13  C   UNL A   1      37.603  34.090  32.716  1.00  0.00     0.195 C 
ATOM     14  C   UNL A   1      37.990  32.829  31.936  1.00  0.00     0.028 C 
ATOM     15  C   UNL A   1      39.056  33.868  32.309  1.00  0.00     0.028 C 
ATOM     16  C   UNL A   1      37.941  31.505  32.664  1.00  0.00     0.018 C 
ATOM     17  C   UNL A   1      37.607  32.670  30.474  1.00  0.00     0.018 C 
ATOM     18  C   UNL A   1      39.753  34.613  31.193  1.00  0.00     0.018 C 
ATOM     19  C   UNL A   1      40.021  33.567  33.443  1.00  0.00     0.018 C 
ENDBRANCH  10  13
ENDBRANCH   8  10
ENDBRANCH   6   8
ENDBRANCH   3   6
ENDBRANCH   1   2
BRANCH   1  20
ATOM     20  C   UNL A   1      34.262  33.648  28.228  1.00  0.00     0.042 C 
BRANCH  20  21
ATOM     21  C   UNL A   1      34.584  32.408  29.045  1.00  0.00     0.118 C 
BRANCH  21  22
ATOM     22  N   UNL A   1      34.040  31.189  28.455  1.00  0.00    -0.352 N 
ATOM     23  C   UNL A   1      34.668  30.045  28.036  1.00  0.00     0.251 C 
ATOM     24  H   UNL A   1      33.062  31.190  28.339  1.00  0.00     0.163 HD
ATOM     25  O   UNL A   1      34.043  29.217  27.375  1.00  0.00    -0.269 OA
BRANCH  23  26
ATOM     26  C   UNL A   1      36.092  29.811  28.350  1.00  0.00     0.039 A 
ATOM     27  C   UNL A   1      36.434  29.285  29.598  1.00  0.00     0.014 A 
ATOM     28  C   UNL A   1      37.093  30.115  27.424  1.00  0.00     0.014 A 
ATOM     29  C   UNL A   1      37.770  28.992  29.884  1.00  0.00     0.010 A 
ATOM     30  C   UNL A   1      38.406  29.731  27.671  1.00  0.00     0.010 A 
ATOM     31  C   UNL A   1      38.761  29.168  28.905  1.00  0.00    -0.014 A 
BRANCH  31  32
ATOM     32  C   UNL A   1      40.170  28.764  29.147  1.00  0.00     0.031 A 
ATOM     33  C   UNL A   1      41.140  29.735  29.764  1.00  0.00     0.074 A 
ATOM     34  C   UNL A   1      40.592  27.550  28.741  1.00  0.00     0.049 A 
ATOM     35  N   UNL A   1      42.425  29.596  29.976  1.00  0.00    -0.248 NA
ATOM     36  C   UNL A   1      40.607  31.046  30.171  1.00  0.00     0.031 C 
ATOM     37  C   UNL A   1      39.762  26.541  28.078  1.00  0.00     0.029 A 
ATOM     38  N   UNL A   1      41.831  26.962  28.812  1.00  0.00    -0.354 N 
ATOM     39  C   UNL A   1      42.852  30.802  30.517  1.00  0.00     0.074 A 
ATOM     40  C   UNL A   1      41.704  31.679  30.559  1.00  0.00     0.031 C 
ATOM     41  C   UNL A   1      40.509  25.456  27.818  1.00  0.00     0.029 A 
ATOM     42  C   UNL A   1      41.878  25.707  28.254  1.00  0.00     0.049 A 
ATOM     43  H   UNL A   1      42.611  27.399  29.224  1.00  0.00     0.167 HD
ATOM     44  C   UNL A   1      44.087  31.140  30.957  1.00  0.00     0.037 A 
ATOM     45  C   UNL A   1      42.914  24.859  28.093  1.00  0.00     0.037 A 
ATOM     46  C   UNL A   1      45.219  30.250  30.947  1.00  0.00     0.049 A 
ATOM     47  C   UNL A   1      44.273  25.262  28.597  1.00  0.00     0.074 A 
ATOM     48  C   UNL A   1      46.489  30.471  31.451  1.00  0.00     0.029 A 
ATOM     49  N   UNL A   1      45.219  28.976  30.403  1.00  0.00    -0.354 N 
ATOM     50  N   UNL A   1      44.640  26.372  29.192  1.00  0.00    -0.248 NA
ATOM     51  C   UNL A   1      45.363  24.292  28.415  1.00  0.00     0.031 C 
ATOM     52  C   UNL A   1      47.274  29.354  31.159  1.00  0.00     0.029 A 
ATOM     53  C   UNL A   1      46.477  28.411  30.530  1.00  0.00     0.049 A 
ATOM     54  H   UNL A   1      44.440  28.537  29.989  1.00  0.00     0.167 HD
ATOM     55  C   UNL A   1      45.990  26.221  29.480  1.00  0.00     0.074 A 
ATOM     56  C   UNL A   1      46.373  24.905  29.015  1.00  0.00     0.031 C 
ATOM     57  C   UNL A   1      46.839  27.094  30.074  1.00  0.00     0.037 A 
BRANCH  44  58
ATOM     58  C   UNL A   1      44.291  32.526  31.493  1.00  0.00     0.057 A 
ATOM     59  C   UNL A   1      44.705  33.584  30.674  1.00  0.00     0.134 A 
ATOM     60  C   UNL A   1      43.988  32.822  32.828  1.00  0.00     0.134 A 
ATOM     61  F   UNL A   1      45.020  33.367  29.388  1.00  0.00    -0.206 F 
ATOM     62  C   UNL A   1      44.821  34.886  31.166  1.00  0.00     0.040 A 
ATOM     63  C   UNL A   1      44.074  34.124  33.326  1.00  0.00     0.040 A 
ATOM     64  F   UNL A   1      43.581  31.857  33.666  1.00  0.00    -0.206 F 
ATOM     65  C   UNL A   1      44.493  35.160  32.493  1.00  0.00     0.006 A 
ENDBRANCH  44  58
BRANCH  45  66
ATOM     66  C   UNL A   1      42.718  23.549  27.420  1.00  0.00     0.057 A 
ATOM     67  C   UNL A   1      42.893  23.407  26.038  1.00  0.00     0.134 A 
ATOM     68  C   UNL A   1      42.308  22.416  28.135  1.00  0.00     0.134 A 
ATOM     69  F   UNL A   1      43.268  24.459  25.295  1.00  0.00    -0.206 F 
ATOM     70  C   UNL A   1      42.630  22.202  25.385  1.00  0.00     0.040 A 
ATOM     71  C   UNL A   1      42.073  21.195  27.500  1.00  0.00     0.040 A 
ATOM     72  F   UNL A   1      42.131  22.478  29.462  1.00  0.00    -0.206 F 
ATOM     73  C   UNL A   1      42.220  21.090  26.119  1.00  0.00     0.006 A 
ENDBRANCH  45  66
BRANCH  57  74
ATOM     74  C   UNL A   1      48.253  26.642  30.294  1.00  0.00     0.057 A 
ATOM     75  C   UNL A   1      49.274  26.924  29.377  1.00  0.00     0.134 A 
ATOM     76  C   UNL A   1      48.605  25.949  31.461  1.00  0.00     0.134 A 
ATOM     77  F   UNL A   1      49.002  27.572  28.235  1.00  0.00    -0.206 F 
ATOM     78  C   UNL A   1      50.588  26.510  29.601  1.00  0.00     0.040 A 
ATOM     79  C   UNL A   1      49.920  25.560  31.710  1.00  0.00     0.040 A 
ATOM     80  F   UNL A   1      47.677  25.657  32.385  1.00  0.00    -0.206 F 
ATOM     81  C   UNL A   1      50.915  25.834  30.775  1.00  0.00     0.006 A 
ENDBRANCH  57  74
ENDBRANCH  31  32
ENDBRANCH  23  26
ENDBRANCH  21  22
ENDBRANCH  20  21
ENDBRANCH   1  20
TORSDOF 13
ENDMDL
MODEL 3
REMARK VINA RESULT:     -10.8      1.717      6.748
REMARK SMILES C[C@H]([NH2+]C1C(C)(C)C1(C)C)[C@H](C)C(=O)NCCCNC(=O)c1ccc(-c2c3nc(c(-c4c(F)cccc4F)c4ccc([nH]4)c(-c4c(F)cccc4F)c4nc(c(-c5c(F)cccc5F)c5ccc2[nH]5)C=C4)C=C3)cc1
REMARK SMILES IDX 16 1 15 2 13 3 14 4 11 6 12 7 2 8 1 9 3 10 4 13 5 14 8 15
REMARK SMILES IDX 6 16 7 17 9 18 10 19 17 20 18 21 19 22 20 23 21 25 22 26
REMARK SMILES IDX 23 27 75 28 24 29 74 30 25 31 26 32 27 33 68 34 28 35 73 36
REMARK SMILES IDX 67 37 69 38 29 39 72 40 66 41 65 42 30 44 56 45 39 46 55 47
REMARK SMILES IDX 40 48 43 49 54 50 70 51 41 52 42 53 53 55 71 56 44 57 31 58
REMARK SMILES IDX 32 59 37 60 33 61 34 62 36 63 38 64 35 65 57 66 58 67 63 68
REMARK SMILES IDX 59 69 60 70 62 71 64 72 61 73 45 74 46 75 51 76 47 77 48 78
REMARK SMILES IDX 50 79 52 80 49 81
REMARK H PARENT 15 5 3 11 3 12 19 24 69 43 43 54
REMARK Flexibility Score: inf
ROOT
ATOM      1  C   UNL A   1      36.546  20.554  24.993  1.00  0.00     0.117 C 
ENDROOT
BRANCH   1   2
ATOM      2  N   UNL A   1      36.840  21.913  25.401  1.00  0.00    -0.356 N 
ATOM      3  C   UNL A   1      36.013  22.895  25.861  1.00  0.00     0.228 C 
ATOM      4  O   UNL A   1      36.535  23.966  26.178  1.00  0.00    -0.275 OA
ATOM      5  H   UNL A   1      37.787  22.169  25.333  1.00  0.00     0.163 HD
BRANCH   3   6
ATOM      6  C   UNL A   1      34.497  22.705  25.923  1.00  0.00     0.133 C 
ATOM      7  C   UNL A   1      34.081  22.476  27.382  1.00  0.00     0.024 C 
BRANCH   6   8
ATOM      8  C   UNL A   1      33.745  23.813  25.133  1.00  0.00     0.191 C 
ATOM      9  C   UNL A   1      34.246  24.063  23.703  1.00  0.00     0.076 C 
BRANCH   8  10
ATOM     10  N   UNL A   1      33.788  25.108  25.819  1.00  0.00    -0.340 N 
ATOM     11  H   UNL A   1      34.483  25.682  25.341  1.00  0.00     0.346 HD
ATOM     12  H   UNL A   1      34.001  24.879  26.790  1.00  0.00     0.346 HD
BRANCH  10  13
ATOM     13  C   UNL A   1      32.546  25.887  25.885  1.00  0.00     0.195 C 
ATOM     14  C   UNL A   1      32.638  27.362  26.290  1.00  0.00     0.028 C 
ATOM     15  C   UNL A   1      32.045  26.966  24.932  1.00  0.00     0.028 C 
ATOM     16  C   UNL A   1      31.729  27.849  27.395  1.00  0.00     0.018 C 
ATOM     17  C   UNL A   1      33.978  28.079  26.320  1.00  0.00     0.018 C 
ATOM     18  C   UNL A   1      32.770  27.401  23.678  1.00  0.00     0.018 C 
ATOM     19  C   UNL A   1      30.540  27.025  24.733  1.00  0.00     0.018 C 
ENDBRANCH  10  13
ENDBRANCH   8  10
ENDBRANCH   6   8
ENDBRANCH   3   6
ENDBRANCH   1   2
BRANCH   1  20
ATOM     20  C   UNL A   1      37.776  19.667  24.957  1.00  0.00     0.042 C 
BRANCH  20  21
ATOM     21  C   UNL A   1      38.964  20.244  25.709  1.00  0.00     0.118 C 
BRANCH  21  22
ATOM     22  N   UNL A   1      40.092  19.321  25.771  1.00  0.00    -0.352 N 
ATOM     23  C   UNL A   1      41.415  19.547  26.049  1.00  0.00     0.251 C 
ATOM     24  H   UNL A   1      39.865  18.381  25.582  1.00  0.00     0.163 HD
ATOM     25  O   UNL A   1      42.239  18.658  25.845  1.00  0.00    -0.269 OA
BRANCH  23  26
ATOM     26  C   UNL A   1      41.861  20.857  26.567  1.00  0.00     0.039 A 
ATOM     27  C   UNL A   1      42.335  21.816  25.668  1.00  0.00     0.014 A 
ATOM     28  C   UNL A   1      41.823  21.142  27.934  1.00  0.00     0.014 A 
ATOM     29  C   UNL A   1      42.694  23.084  26.133  1.00  0.00     0.010 A 
ATOM     30  C   UNL A   1      42.084  22.432  28.381  1.00  0.00     0.010 A 
ATOM     31  C   UNL A   1      42.526  23.418  27.486  1.00  0.00    -0.014 A 
BRANCH  31  32
ATOM     32  C   UNL A   1      42.799  24.790  27.986  1.00  0.00     0.031 A 
ATOM     33  C   UNL A   1      44.189  25.177  28.413  1.00  0.00     0.074 A 
ATOM     34  C   UNL A   1      41.779  25.660  28.125  1.00  0.00     0.049 A 
ATOM     35  N   UNL A   1      44.605  26.296  28.952  1.00  0.00    -0.248 NA
ATOM     36  C   UNL A   1      45.247  24.168  28.241  1.00  0.00     0.031 C 
ATOM     37  C   UNL A   1      40.377  25.385  27.802  1.00  0.00     0.029 A 
ATOM     38  N   UNL A   1      41.761  26.952  28.593  1.00  0.00    -0.354 N 
ATOM     39  C   UNL A   1      45.960  26.116  29.200  1.00  0.00     0.074 A 
ATOM     40  C   UNL A   1      46.290  24.767  28.798  1.00  0.00     0.031 C 
ATOM     41  C   UNL A   1      39.641  26.476  28.064  1.00  0.00     0.029 A 
ATOM     42  C   UNL A   1      40.507  27.513  28.616  1.00  0.00     0.049 A 
ATOM     43  H   UNL A   1      42.571  27.430  28.884  1.00  0.00     0.167 HD
ATOM     44  C   UNL A   1      46.852  27.002  29.700  1.00  0.00     0.037 A 
ATOM     45  C   UNL A   1      40.096  28.720  29.050  1.00  0.00     0.037 A 
ATOM     46  C   UNL A   1      46.527  28.357  30.064  1.00  0.00     0.049 A 
ATOM     47  C   UNL A   1      41.113  29.685  29.596  1.00  0.00     0.074 A 
ATOM     48  C   UNL A   1      47.380  29.357  30.497  1.00  0.00     0.029 A 
ATOM     49  N   UNL A   1      45.251  28.897  30.042  1.00  0.00    -0.354 N 
ATOM     50  N   UNL A   1      42.408  29.532  29.737  1.00  0.00    -0.248 NA
ATOM     51  C   UNL A   1      40.614  30.996  30.037  1.00  0.00     0.031 C 
ATOM     52  C   UNL A   1      46.612  30.485  30.795  1.00  0.00     0.029 A 
ATOM     53  C   UNL A   1      45.289  30.209  30.487  1.00  0.00     0.049 A 
ATOM     54  H   UNL A   1      44.440  28.421  29.753  1.00  0.00     0.167 HD
ATOM     55  C   UNL A   1      42.880  30.732  30.253  1.00  0.00     0.074 A 
ATOM     56  C   UNL A   1      41.737  31.611  30.380  1.00  0.00     0.031 C 
ATOM     57  C   UNL A   1      44.145  31.076  30.595  1.00  0.00     0.037 A 
BRANCH  44  58
ATOM     58  C   UNL A   1      48.271  26.550  29.883  1.00  0.00     0.057 A 
ATOM     59  C   UNL A   1      48.698  25.903  31.048  1.00  0.00     0.134 A 
ATOM     60  C   UNL A   1      49.200  26.690  28.844  1.00  0.00     0.134 A 
ATOM     61  F   UNL A   1      47.861  25.745  32.085  1.00  0.00    -0.206 F 
ATOM     62  C   UNL A   1      50.002  25.420  31.180  1.00  0.00     0.040 A 
ATOM     63  C   UNL A   1      50.498  26.188  28.952  1.00  0.00     0.040 A 
ATOM     64  F   UNL A   1      48.856  27.296  27.697  1.00  0.00    -0.206 F 
ATOM     65  C   UNL A   1      50.902  25.551  30.124  1.00  0.00     0.006 A 
ENDBRANCH  44  58
BRANCH  45  66
ATOM     66  C   UNL A   1      38.657  29.091  28.999  1.00  0.00     0.057 A 
ATOM     67  C   UNL A   1      38.077  29.600  27.831  1.00  0.00     0.134 A 
ATOM     68  C   UNL A   1      37.837  28.988  30.130  1.00  0.00     0.134 A 
ATOM     69  F   UNL A   1      38.814  29.739  26.718  1.00  0.00    -0.206 F 
ATOM     70  C   UNL A   1      36.750  30.029  27.797  1.00  0.00     0.040 A 
ATOM     71  C   UNL A   1      36.499  29.382  30.103  1.00  0.00     0.040 A 
ATOM     72  F   UNL A   1      38.325  28.499  31.279  1.00  0.00    -0.206 F 
ATOM     73  C   UNL A   1      35.956  29.918  28.937  1.00  0.00     0.006 A 
ENDBRANCH  45  66
BRANCH  57  74
ATOM     74  C   UNL A   1      44.370  32.472  31.096  1.00  0.00     0.057 A 
ATOM     75  C   UNL A   1      44.626  33.540  30.227  1.00  0.00     0.134 A 
ATOM     76  C   UNL A   1      44.288  32.758  32.466  1.00  0.00     0.134 A 
ATOM     77  F   UNL A   1      44.729  33.333  28.906  1.00  0.00    -0.206 F 
ATOM     78  C   UNL A   1      44.819  34.837  30.705  1.00  0.00     0.040 A 
ATOM     79  C   UNL A   1      44.447  34.055  32.952  1.00  0.00     0.040 A 
ATOM     80  F   UNL A   1      44.035  31.781  33.351  1.00  0.00    -0.206 F 
ATOM     81  C   UNL A   1      44.720  35.099  32.071  1.00  0.00     0.006 A 
ENDBRANCH  57  74
ENDBRANCH  31  32
ENDBRANCH  23  26
ENDBRANCH  21  22
ENDBRANCH  20  21
ENDBRANCH   1  20
TORSDOF 13
ENDMDL
