MODEL 1
REMARK VINA RESULT:     -13.2      0.000      0.000
REMARK SMILES O=C(NCCCNC(=O)[C@@H]1CC=CC[C@H]1C(=O)N1CC[NH+](Cc2ccc3c(c2)OCO3)CC1)c1ccc(-c2c3nc(c(-c4c(F)cccc4F)c4ccc([nH]4)c(-c4c(F)cccc4F)c4nc(c(-c5c(F)cccc5F)c5ccc2[nH]5)C=C4)C=C3)cc1
REMARK SMILES IDX 5 1 4 2 3 3 1 4 2 5 34 7 35 8 87 9 36 10 86 11 37 12 38 13
REMARK SMILES IDX 39 14 80 15 40 16 85 17 79 18 81 19 41 20 84 21 78 22 77 23
REMARK SMILES IDX 42 25 68 26 51 27 67 28 52 29 55 30 66 31 82 32 53 33 54 34
REMARK SMILES IDX 65 36 83 37 56 38 43 39 44 40 49 41 45 42 46 43 48 44 50 45
REMARK SMILES IDX 47 46 69 47 70 48 75 49 71 50 72 51 74 52 76 53 73 54 57 55
REMARK SMILES IDX 58 56 63 57 59 58 60 59 62 60 64 61 61 62 6 63 7 64 8 65
REMARK SMILES IDX 9 67 10 68 11 69 15 70 12 71 14 72 13 73 16 74 17 75 18 76
REMARK SMILES IDX 19 77 33 78 20 79 32 80 21 81 22 83 23 84 24 85 28 86 25 87
REMARK SMILES IDX 27 88 26 89 29 90 31 91 30 92
REMARK H PARENT 3 6 81 24 55 35 7 66 21 82
REMARK Flexibility Score: inf
ROOT
ATOM      1  C   UNL A   1      33.716  27.949  26.106  1.00  0.00     0.042 C 
ENDROOT
BRANCH   1   2
ATOM      2  C   UNL A   1      33.310  28.526  27.462  1.00  0.00     0.118 C 
BRANCH   2   3
ATOM      3  N   UNL A   1      33.514  29.967  27.538  1.00  0.00    -0.352 N 
ATOM      4  O   UNL A   1      34.419  31.926  28.132  1.00  0.00    -0.269 OA
ATOM      5  C   UNL A   1      34.588  30.720  27.958  1.00  0.00     0.251 C 
ATOM      6  H   UNL A   1      32.743  30.499  27.235  1.00  0.00     0.163 HD
BRANCH   5   7
ATOM      7  C   UNL A   1      35.942  30.150  28.201  1.00  0.00     0.039 A 
ATOM      8  C   UNL A   1      36.960  30.224  27.256  1.00  0.00     0.014 A 
ATOM      9  C   UNL A   1      36.253  29.651  29.474  1.00  0.00     0.014 A 
ATOM     10  C   UNL A   1      38.231  29.708  27.543  1.00  0.00     0.010 A 
ATOM     11  C   UNL A   1      37.552  29.206  29.785  1.00  0.00     0.010 A 
ATOM     12  C   UNL A   1      38.564  29.213  28.816  1.00  0.00    -0.014 A 
BRANCH  12  13
ATOM     13  C   UNL A   1      39.977  28.816  29.131  1.00  0.00     0.031 A 
ATOM     14  C   UNL A   1      40.939  29.745  29.836  1.00  0.00     0.074 A 
ATOM     15  C   UNL A   1      40.419  27.595  28.757  1.00  0.00     0.049 A 
ATOM     16  N   UNL A   1      42.220  29.579  30.075  1.00  0.00    -0.248 NA
ATOM     17  C   UNL A   1      40.406  31.022  30.334  1.00  0.00     0.031 C 
ATOM     18  C   UNL A   1      39.622  26.586  28.054  1.00  0.00     0.029 A 
ATOM     19  N   UNL A   1      41.645  26.989  28.912  1.00  0.00    -0.354 N 
ATOM     20  C   UNL A   1      42.653  30.744  30.700  1.00  0.00     0.074 A 
ATOM     21  C   UNL A   1      41.497  31.608  30.812  1.00  0.00     0.031 C 
ATOM     22  C   UNL A   1      40.356  25.478  27.884  1.00  0.00     0.029 A 
ATOM     23  C   UNL A   1      41.708  25.728  28.364  1.00  0.00     0.049 A 
ATOM     24  H   UNL A   1      42.404  27.416  29.370  1.00  0.00     0.167 HD
ATOM     25  C   UNL A   1      43.898  31.064  31.137  1.00  0.00     0.037 A 
ATOM     26  C   UNL A   1      42.738  24.876  28.206  1.00  0.00     0.037 A 
ATOM     27  C   UNL A   1      45.044  30.188  31.080  1.00  0.00     0.049 A 
ATOM     28  C   UNL A   1      44.108  25.269  28.669  1.00  0.00     0.074 A 
ATOM     29  C   UNL A   1      46.317  30.406  31.584  1.00  0.00     0.029 A 
ATOM     30  N   UNL A   1      45.064  28.941  30.481  1.00  0.00    -0.354 N 
ATOM     31  N   UNL A   1      44.487  26.364  29.279  1.00  0.00    -0.248 NA
ATOM     32  C   UNL A   1      45.198  24.322  28.397  1.00  0.00     0.031 C 
ATOM     33  C   UNL A   1      47.121  29.313  31.244  1.00  0.00     0.029 A 
ATOM     34  C   UNL A   1      46.336  28.395  30.566  1.00  0.00     0.049 A 
ATOM     35  H   UNL A   1      44.290  28.505  30.056  1.00  0.00     0.167 HD
ATOM     36  C   UNL A   1      45.856  26.237  29.464  1.00  0.00     0.074 A 
ATOM     37  C   UNL A   1      46.238  24.949  28.927  1.00  0.00     0.031 C 
ATOM     38  C   UNL A   1      46.718  27.120  30.022  1.00  0.00     0.037 A 
BRANCH  25  39
ATOM     39  C   UNL A   1      44.121  32.435  31.708  1.00  0.00     0.057 A 
ATOM     40  C   UNL A   1      44.451  33.533  30.905  1.00  0.00     0.134 A 
ATOM     41  C   UNL A   1      43.886  32.679  33.069  1.00  0.00     0.134 A 
ATOM     42  F   UNL A   1      44.687  33.370  29.595  1.00  0.00    -0.206 F 
ATOM     43  C   UNL A   1      44.546  34.823  31.435  1.00  0.00     0.040 A 
ATOM     44  C   UNL A   1      43.959  33.965  33.608  1.00  0.00     0.040 A 
ATOM     45  F   UNL A   1      43.550  31.674  33.892  1.00  0.00    -0.206 F 
ATOM     46  C   UNL A   1      44.290  35.042  32.788  1.00  0.00     0.006 A 
ENDBRANCH  25  39
BRANCH  26  47
ATOM     47  C   UNL A   1      42.520  23.583  27.508  1.00  0.00     0.057 A 
ATOM     48  C   UNL A   1      42.597  23.486  26.115  1.00  0.00     0.134 A 
ATOM     49  C   UNL A   1      42.232  22.412  28.223  1.00  0.00     0.134 A 
ATOM     50  F   UNL A   1      42.844  24.577  25.375  1.00  0.00    -0.206 F 
ATOM     51  C   UNL A   1      42.390  22.273  25.457  1.00  0.00     0.040 A 
ATOM     52  C   UNL A   1      42.055  21.187  27.581  1.00  0.00     0.040 A 
ATOM     53  F   UNL A   1      42.147  22.440  29.561  1.00  0.00    -0.206 F 
ATOM     54  C   UNL A   1      42.127  21.118  26.191  1.00  0.00     0.006 A 
ENDBRANCH  26  47
BRANCH  38  55
ATOM     55  C   UNL A   1      48.162  26.719  30.084  1.00  0.00     0.057 A 
ATOM     56  C   UNL A   1      49.070  27.101  29.089  1.00  0.00     0.134 A 
ATOM     57  C   UNL A   1      48.653  25.966  31.157  1.00  0.00     0.134 A 
ATOM     58  F   UNL A   1      48.657  27.807  28.026  1.00  0.00    -0.206 F 
ATOM     59  C   UNL A   1      50.416  26.734  29.152  1.00  0.00     0.040 A 
ATOM     60  C   UNL A   1      50.000  25.612  31.241  1.00  0.00     0.040 A 
ATOM     61  F   UNL A   1      47.835  25.571  32.144  1.00  0.00    -0.206 F 
ATOM     62  C   UNL A   1      50.885  25.993  30.234  1.00  0.00     0.006 A 
ENDBRANCH  38  55
ENDBRANCH  12  13
ENDBRANCH   5   7
ENDBRANCH   2   3
ENDBRANCH   1   2
BRANCH   1  63
ATOM     63  C   UNL A   1      33.765  26.417  26.033  1.00  0.00     0.117 C 
BRANCH  63  64
ATOM     64  N   UNL A   1      34.100  25.938  24.695  1.00  0.00    -0.356 N 
ATOM     65  C   UNL A   1      34.162  24.735  24.082  1.00  0.00     0.224 C 
ATOM     66  H   UNL A   1      34.341  26.675  24.089  1.00  0.00     0.163 HD
ATOM     67  O   UNL A   1      34.489  24.787  22.886  1.00  0.00    -0.275 OA
BRANCH  65  68
ATOM     68  C   UNL A   1      33.861  23.354  24.677  1.00  0.00     0.095 C 
ATOM     69  C   UNL A   1      34.798  22.316  24.020  1.00  0.00     0.041 C 
ATOM     70  C   UNL A   1      32.437  22.823  24.785  1.00  0.00     0.095 C 
ATOM     71  C   UNL A   1      34.616  20.932  24.580  1.00  0.00    -0.030 C 
ATOM     72  C   UNL A   1      32.385  21.482  25.555  1.00  0.00     0.041 C 
ATOM     73  C   UNL A   1      33.539  20.565  25.285  1.00  0.00    -0.030 C 
BRANCH  70  74
ATOM     74  C   UNL A   1      31.301  23.655  25.381  1.00  0.00     0.227 C 
ATOM     75  O   UNL A   1      30.955  23.360  26.535  1.00  0.00    -0.275 OA
ATOM     76  N   UNL A   1      30.798  24.792  24.784  1.00  0.00    -0.331 N 
ATOM     77  C   UNL A   1      30.025  25.712  25.623  1.00  0.00     0.181 C 
ATOM     78  C   UNL A   1      30.599  25.047  23.359  1.00  0.00     0.181 C 
ATOM     79  C   UNL A   1      30.209  27.192  25.211  1.00  0.00     0.284 C 
ATOM     80  C   UNL A   1      30.906  26.502  22.981  1.00  0.00     0.284 C 
ATOM     81  N   UNL A   1      30.192  27.505  23.774  1.00  0.00    -0.328 N 
ATOM     82  H   UNL A   1      30.733  28.367  23.699  1.00  0.00     0.348 HD
BRANCH  81  83
ATOM     83  C   UNL A   1      28.916  27.957  23.211  1.00  0.00     0.299 C 
BRANCH  83  84
ATOM     84  C   UNL A   1      28.832  29.410  22.815  1.00  0.00     0.010 A 
ATOM     85  C   UNL A   1      29.216  30.401  23.738  1.00  0.00     0.013 A 
ATOM     86  C   UNL A   1      28.316  29.796  21.562  1.00  0.00     0.060 A 
ATOM     87  C   UNL A   1      29.013  31.748  23.460  1.00  0.00     0.051 A 
ATOM     88  C   UNL A   1      28.131  31.141  21.317  1.00  0.00     0.166 A 
ATOM     89  C   UNL A   1      28.458  32.093  22.248  1.00  0.00     0.165 A 
ATOM     90  O   UNL A   1      27.583  31.681  20.196  1.00  0.00    -0.454 OA
ATOM     91  O   UNL A   1      28.148  33.352  21.840  1.00  0.00    -0.454 OA
ATOM     92  C   UNL A   1      27.572  33.081  20.544  1.00  0.00     0.468 C 
ENDBRANCH  83  84
ENDBRANCH  81  83
ENDBRANCH  70  74
ENDBRANCH  65  68
ENDBRANCH  63  64
ENDBRANCH   1  63
TORSDOF 13
ENDMDL
MODEL 2
REMARK VINA RESULT:     -12.8      3.965      9.340
REMARK SMILES O=C(NCCCNC(=O)[C@@H]1CC=CC[C@H]1C(=O)N1CC[NH+](Cc2ccc3c(c2)OCO3)CC1)c1ccc(-c2c3nc(c(-c4c(F)cccc4F)c4ccc([nH]4)c(-c4c(F)cccc4F)c4nc(c(-c5c(F)cccc5F)c5ccc2[nH]5)C=C4)C=C3)cc1
REMARK SMILES IDX 5 1 4 2 3 3 1 4 2 5 34 7 35 8 87 9 36 10 86 11 37 12 38 13
REMARK SMILES IDX 39 14 80 15 40 16 85 17 79 18 81 19 41 20 84 21 78 22 77 23
REMARK SMILES IDX 42 25 68 26 51 27 67 28 52 29 55 30 66 31 82 32 53 33 54 34
REMARK SMILES IDX 65 36 83 37 56 38 43 39 44 40 49 41 45 42 46 43 48 44 50 45
REMARK SMILES IDX 47 46 69 47 70 48 75 49 71 50 72 51 74 52 76 53 73 54 57 55
REMARK SMILES IDX 58 56 63 57 59 58 60 59 62 60 64 61 61 62 6 63 7 64 8 65
REMARK SMILES IDX 9 67 10 68 11 69 15 70 12 71 14 72 13 73 16 74 17 75 18 76
REMARK SMILES IDX 19 77 33 78 20 79 32 80 21 81 22 83 23 84 24 85 28 86 25 87
REMARK SMILES IDX 27 88 26 89 29 90 31 91 30 92
REMARK H PARENT 3 6 81 24 55 35 7 66 21 82
REMARK Flexibility Score: inf
ROOT
ATOM      1  C   UNL A   1      31.424  32.205  26.548  1.00  0.00     0.042 C 
ENDROOT
BRANCH   1   2
ATOM      2  C   UNL A   1      32.697  32.830  27.117  1.00  0.00     0.118 C 
BRANCH   2   3
ATOM      3  N   UNL A   1      32.489  34.195  27.582  1.00  0.00    -0.352 N 
ATOM      4  O   UNL A   1      32.527  35.975  28.938  1.00  0.00    -0.269 OA
ATOM      5  C   UNL A   1      33.043  34.904  28.625  1.00  0.00     0.251 C 
ATOM      6  H   UNL A   1      31.832  34.704  27.053  1.00  0.00     0.163 HD
BRANCH   5   7
ATOM      7  C   UNL A   1      34.239  34.442  29.383  1.00  0.00     0.039 A 
ATOM      8  C   UNL A   1      34.136  33.796  30.611  1.00  0.00     0.014 A 
ATOM      9  C   UNL A   1      35.503  34.526  28.781  1.00  0.00     0.014 A 
ATOM     10  C   UNL A   1      35.287  33.344  31.271  1.00  0.00     0.010 A 
ATOM     11  C   UNL A   1      36.647  34.000  29.411  1.00  0.00     0.010 A 
ATOM     12  C   UNL A   1      36.560  33.410  30.679  1.00  0.00    -0.014 A 
BRANCH  12  13
ATOM     13  C   UNL A   1      37.743  32.774  31.348  1.00  0.00     0.031 A 
ATOM     14  C   UNL A   1      38.446  31.567  30.769  1.00  0.00     0.074 A 
ATOM     15  C   UNL A   1      38.191  33.278  32.519  1.00  0.00     0.049 A 
ATOM     16  N   UNL A   1      39.410  30.845  31.292  1.00  0.00    -0.248 NA
ATOM     17  C   UNL A   1      38.017  31.105  29.441  1.00  0.00     0.031 C 
ATOM     18  C   UNL A   1      37.614  34.430  33.219  1.00  0.00     0.029 A 
ATOM     19  N   UNL A   1      39.231  32.894  33.333  1.00  0.00    -0.354 N 
ATOM     20  C   UNL A   1      39.665  29.820  30.386  1.00  0.00     0.074 A 
ATOM     21  C   UNL A   1      38.758  30.017  29.274  1.00  0.00     0.031 C 
ATOM     22  C   UNL A   1      38.331  34.686  34.321  1.00  0.00     0.029 A 
ATOM     23  C   UNL A   1      39.352  33.659  34.470  1.00  0.00     0.049 A 
ATOM     24  H   UNL A   1      39.832  32.143  33.122  1.00  0.00     0.167 HD
ATOM     25  C   UNL A   1      40.566  28.810  30.474  1.00  0.00     0.037 A 
ATOM     26  C   UNL A   1      40.149  33.533  35.548  1.00  0.00     0.037 A 
ATOM     27  C   UNL A   1      41.510  28.636  31.552  1.00  0.00     0.049 A 
ATOM     28  C   UNL A   1      41.111  32.388  35.633  1.00  0.00     0.074 A 
ATOM     29  C   UNL A   1      42.517  27.689  31.668  1.00  0.00     0.029 A 
ATOM     30  N   UNL A   1      41.564  29.413  32.696  1.00  0.00    -0.354 N 
ATOM     31  N   UNL A   1      41.351  31.448  34.754  1.00  0.00    -0.248 NA
ATOM     32  C   UNL A   1      41.896  32.270  36.871  1.00  0.00     0.031 C 
ATOM     33  C   UNL A   1      43.144  27.860  32.907  1.00  0.00     0.029 A 
ATOM     34  C   UNL A   1      42.558  28.942  33.542  1.00  0.00     0.049 A 
ATOM     35  H   UNL A   1      40.984  30.186  32.883  1.00  0.00     0.167 HD
ATOM     36  C   UNL A   1      42.311  30.629  35.330  1.00  0.00     0.074 A 
ATOM     37  C   UNL A   1      42.631  31.196  36.623  1.00  0.00     0.031 C 
ATOM     38  C   UNL A   1      42.868  29.499  34.831  1.00  0.00     0.037 A 
BRANCH  25  39
ATOM     39  C   UNL A   1      40.583  27.773  29.387  1.00  0.00     0.057 A 
ATOM     40  C   UNL A   1      39.635  26.744  29.323  1.00  0.00     0.134 A 
ATOM     41  C   UNL A   1      41.491  27.881  28.324  1.00  0.00     0.134 A 
ATOM     42  F   UNL A   1      38.737  26.585  30.306  1.00  0.00    -0.206 F 
ATOM     43  C   UNL A   1      39.596  25.855  28.245  1.00  0.00     0.040 A 
ATOM     44  C   UNL A   1      41.451  27.011  27.233  1.00  0.00     0.040 A 
ATOM     45  F   UNL A   1      42.414  28.855  28.314  1.00  0.00    -0.206 F 
ATOM     46  C   UNL A   1      40.499  25.994  27.192  1.00  0.00     0.006 A 
ENDBRANCH  25  39
BRANCH  26  47
ATOM     47  C   UNL A   1      40.013  34.489  36.676  1.00  0.00     0.057 A 
ATOM     48  C   UNL A   1      40.732  35.688  36.706  1.00  0.00     0.134 A 
ATOM     49  C   UNL A   1      39.153  34.224  37.752  1.00  0.00     0.134 A 
ATOM     50  F   UNL A   1      41.589  35.985  35.718  1.00  0.00    -0.206 F 
ATOM     51  C   UNL A   1      40.608  36.587  37.766  1.00  0.00     0.040 A 
ATOM     52  C   UNL A   1      38.995  35.127  38.802  1.00  0.00     0.040 A 
ATOM     53  F   UNL A   1      38.435  33.092  37.781  1.00  0.00    -0.206 F 
ATOM     54  C   UNL A   1      39.730  36.311  38.814  1.00  0.00     0.006 A 
ENDBRANCH  26  47
BRANCH  38  55
ATOM     55  C   UNL A   1      43.885  28.804  35.685  1.00  0.00     0.057 A 
ATOM     56  C   UNL A   1      43.519  27.797  36.586  1.00  0.00     0.134 A 
ATOM     57  C   UNL A   1      45.244  29.126  35.589  1.00  0.00     0.134 A 
ATOM     58  F   UNL A   1      42.230  27.455  36.737  1.00  0.00    -0.206 F 
ATOM     59  C   UNL A   1      44.468  27.144  37.375  1.00  0.00     0.040 A 
ATOM     60  C   UNL A   1      46.205  28.467  36.357  1.00  0.00     0.040 A 
ATOM     61  F   UNL A   1      45.661  30.080  34.743  1.00  0.00    -0.206 F 
ATOM     62  C   UNL A   1      45.817  27.475  37.257  1.00  0.00     0.006 A 
ENDBRANCH  38  55
ENDBRANCH  12  13
ENDBRANCH   5   7
ENDBRANCH   2   3
ENDBRANCH   1   2
BRANCH   1  63
ATOM     63  C   UNL A   1      31.425  30.673  26.465  1.00  0.00     0.117 C 
BRANCH  63  64
ATOM     64  N   UNL A   1      32.330  30.176  25.434  1.00  0.00    -0.356 N 
ATOM     65  C   UNL A   1      32.272  29.239  24.460  1.00  0.00     0.224 C 
ATOM     66  H   UNL A   1      33.199  30.638  25.451  1.00  0.00     0.163 HD
ATOM     67  O   UNL A   1      33.301  29.152  23.773  1.00  0.00    -0.275 OA
BRANCH  65  68
ATOM     68  C   UNL A   1      31.101  28.314  24.107  1.00  0.00     0.095 C 
ATOM     69  C   UNL A   1      29.998  29.151  23.420  1.00  0.00     0.041 C 
ATOM     70  C   UNL A   1      30.509  27.351  25.127  1.00  0.00     0.095 C 
ATOM     71  C   UNL A   1      28.823  28.319  22.985  1.00  0.00    -0.030 C 
ATOM     72  C   UNL A   1      29.445  26.426  24.487  1.00  0.00     0.041 C 
ATOM     73  C   UNL A   1      28.587  27.087  23.453  1.00  0.00    -0.030 C 
BRANCH  70  74
ATOM     74  C   UNL A   1      31.380  26.414  25.965  1.00  0.00     0.227 C 
ATOM     75  O   UNL A   1      31.521  26.720  27.159  1.00  0.00    -0.275 OA
ATOM     76  N   UNL A   1      31.839  25.195  25.511  1.00  0.00    -0.331 N 
ATOM     77  C   UNL A   1      32.296  24.228  26.513  1.00  0.00     0.181 C 
ATOM     78  C   UNL A   1      32.286  24.848  24.164  1.00  0.00     0.181 C 
ATOM     79  C   UNL A   1      32.005  22.764  26.104  1.00  0.00     0.284 C 
ATOM     80  C   UNL A   1      31.872  23.425  23.763  1.00  0.00     0.284 C 
ATOM     81  N   UNL A   1      32.272  22.381  24.709  1.00  0.00    -0.328 N 
ATOM     82  H   UNL A   1      31.648  21.591  24.543  1.00  0.00     0.348 HD
BRANCH  81  83
ATOM     83  C   UNL A   1      33.565  21.746  24.434  1.00  0.00     0.299 C 
BRANCH  83  84
ATOM     84  C   UNL A   1      33.544  20.258  24.190  1.00  0.00     0.010 A 
ATOM     85  C   UNL A   1      32.442  19.680  23.532  1.00  0.00     0.013 A 
ATOM     86  C   UNL A   1      34.578  19.427  24.667  1.00  0.00     0.060 A 
ATOM     87  C   UNL A   1      32.324  18.298  23.424  1.00  0.00     0.051 A 
ATOM     88  C   UNL A   1      34.430  18.061  24.541  1.00  0.00     0.166 A 
ATOM     89  C   UNL A   1      33.325  17.510  23.947  1.00  0.00     0.165 A 
ATOM     90  O   UNL A   1      35.292  17.118  25.004  1.00  0.00    -0.454 OA
ATOM     91  O   UNL A   1      33.341  16.151  23.970  1.00  0.00    -0.454 OA
ATOM     92  C   UNL A   1      34.584  15.909  24.663  1.00  0.00     0.468 C 
ENDBRANCH  83  84
ENDBRANCH  81  83
ENDBRANCH  70  74
ENDBRANCH  65  68
ENDBRANCH  63  64
ENDBRANCH   1  63
TORSDOF 13
ENDMDL
MODEL 3
REMARK VINA RESULT:     -12.7      2.385      5.890
REMARK SMILES O=C(NCCCNC(=O)[C@@H]1CC=CC[C@H]1C(=O)N1CC[NH+](Cc2ccc3c(c2)OCO3)CC1)c1ccc(-c2c3nc(c(-c4c(F)cccc4F)c4ccc([nH]4)c(-c4c(F)cccc4F)c4nc(c(-c5c(F)cccc5F)c5ccc2[nH]5)C=C4)C=C3)cc1
REMARK SMILES IDX 5 1 4 2 3 3 1 4 2 5 34 7 35 8 87 9 36 10 86 11 37 12 38 13
REMARK SMILES IDX 39 14 80 15 40 16 85 17 79 18 81 19 41 20 84 21 78 22 77 23
REMARK SMILES IDX 42 25 68 26 51 27 67 28 52 29 55 30 66 31 82 32 53 33 54 34
REMARK SMILES IDX 65 36 83 37 56 38 43 39 44 40 49 41 45 42 46 43 48 44 50 45
REMARK SMILES IDX 47 46 69 47 70 48 75 49 71 50 72 51 74 52 76 53 73 54 57 55
REMARK SMILES IDX 58 56 63 57 59 58 60 59 62 60 64 61 61 62 6 63 7 64 8 65
REMARK SMILES IDX 9 67 10 68 11 69 15 70 12 71 14 72 13 73 16 74 17 75 18 76
REMARK SMILES IDX 19 77 33 78 20 79 32 80 21 81 22 83 23 84 24 85 28 86 25 87
REMARK SMILES IDX 27 88 26 89 29 90 31 91 30 92
REMARK H PARENT 3 6 81 24 55 35 7 66 21 82
REMARK Flexibility Score: inf
ROOT
ATOM      1  C   UNL A   1      32.988  29.863  27.259  1.00  0.00     0.042 C 
ENDROOT
BRANCH   1   2
ATOM      2  C   UNL A   1      34.448  30.236  27.514  1.00  0.00     0.118 C 
BRANCH   2   3
ATOM      3  N   UNL A   1      34.619  31.017  28.732  1.00  0.00    -0.352 N 
ATOM      4  O   UNL A   1      35.428  31.643  30.723  1.00  0.00    -0.269 OA
ATOM      5  C   UNL A   1      35.633  31.053  29.664  1.00  0.00     0.251 C 
ATOM      6  H   UNL A   1      33.874  31.631  28.925  1.00  0.00     0.163 HD
BRANCH   5   7
ATOM      7  C   UNL A   1      36.965  30.424  29.447  1.00  0.00     0.039 A 
ATOM      8  C   UNL A   1      37.592  30.420  28.205  1.00  0.00     0.014 A 
ATOM      9  C   UNL A   1      37.682  29.947  30.555  1.00  0.00     0.014 A 
ATOM     10  C   UNL A   1      38.864  29.850  28.056  1.00  0.00     0.010 A 
ATOM     11  C   UNL A   1      38.991  29.448  30.415  1.00  0.00     0.010 A 
ATOM     12  C   UNL A   1      39.602  29.377  29.156  1.00  0.00    -0.014 A 
BRANCH  12  13
ATOM     13  C   UNL A   1      41.020  28.920  28.979  1.00  0.00     0.031 A 
ATOM     14  C   UNL A   1      42.196  29.858  29.128  1.00  0.00     0.074 A 
ATOM     15  C   UNL A   1      41.264  27.630  28.656  1.00  0.00     0.049 A 
ATOM     16  N   UNL A   1      43.468  29.630  28.896  1.00  0.00    -0.248 NA
ATOM     17  C   UNL A   1      41.917  31.226  29.590  1.00  0.00     0.031 C 
ATOM     18  C   UNL A   1      40.240  26.600  28.460  1.00  0.00     0.029 A 
ATOM     19  N   UNL A   1      42.444  26.959  28.433  1.00  0.00    -0.354 N 
ATOM     20  C   UNL A   1      44.129  30.831  29.132  1.00  0.00     0.074 A 
ATOM     21  C   UNL A   1      43.119  31.787  29.535  1.00  0.00     0.031 C 
ATOM     22  C   UNL A   1      40.832  25.428  28.197  1.00  0.00     0.029 A 
ATOM     23  C   UNL A   1      42.270  25.636  28.097  1.00  0.00     0.049 A 
ATOM     24  H   UNL A   1      43.329  27.385  28.506  1.00  0.00     0.167 HD
ATOM     25  C   UNL A   1      45.453  31.111  29.022  1.00  0.00     0.037 A 
ATOM     26  C   UNL A   1      43.146  24.695  27.698  1.00  0.00     0.037 A 
ATOM     27  C   UNL A   1      46.474  30.152  28.675  1.00  0.00     0.049 A 
ATOM     28  C   UNL A   1      44.597  25.042  27.553  1.00  0.00     0.074 A 
ATOM     29  C   UNL A   1      47.848  30.338  28.631  1.00  0.00     0.029 A 
ATOM     30  N   UNL A   1      46.241  28.838  28.306  1.00  0.00    -0.354 N 
ATOM     31  N   UNL A   1      45.200  26.176  27.807  1.00  0.00    -0.248 NA
ATOM     32  C   UNL A   1      45.484  23.988  27.041  1.00  0.00     0.031 C 
ATOM     33  C   UNL A   1      48.441  29.152  28.184  1.00  0.00     0.029 A 
ATOM     34  C   UNL A   1      47.440  28.215  27.993  1.00  0.00     0.049 A 
ATOM     35  H   UNL A   1      45.356  28.409  28.270  1.00  0.00     0.167 HD
ATOM     36  C   UNL A   1      46.535  25.972  27.487  1.00  0.00     0.074 A 
ATOM     37  C   UNL A   1      46.660  24.599  27.045  1.00  0.00     0.031 C 
ATOM     38  C   UNL A   1      47.562  26.853  27.544  1.00  0.00     0.037 A 
BRANCH  25  39
ATOM     39  C   UNL A   1      45.903  32.525  29.256  1.00  0.00     0.057 A 
ATOM     40  C   UNL A   1      45.941  33.475  28.228  1.00  0.00     0.134 A 
ATOM     41  C   UNL A   1      46.190  32.967  30.555  1.00  0.00     0.134 A 
ATOM     42  F   UNL A   1      45.677  33.119  26.963  1.00  0.00    -0.206 F 
ATOM     43  C   UNL A   1      46.255  34.813  28.484  1.00  0.00     0.040 A 
ATOM     44  C   UNL A   1      46.486  34.304  30.827  1.00  0.00     0.040 A 
ATOM     45  F   UNL A   1      46.155  32.112  31.589  1.00  0.00    -0.206 F 
ATOM     46  C   UNL A   1      46.519  35.232  29.787  1.00  0.00     0.006 A 
ENDBRANCH  25  39
BRANCH  26  47
ATOM     47  C   UNL A   1      42.654  23.342  27.333  1.00  0.00     0.057 A 
ATOM     48  C   UNL A   1      42.392  22.375  28.309  1.00  0.00     0.134 A 
ATOM     49  C   UNL A   1      42.431  22.988  25.996  1.00  0.00     0.134 A 
ATOM     50  F   UNL A   1      42.611  22.647  29.604  1.00  0.00    -0.206 F 
ATOM     51  C   UNL A   1      41.933  21.103  27.969  1.00  0.00     0.040 A 
ATOM     52  C   UNL A   1      41.942  21.731  25.643  1.00  0.00     0.040 A 
ATOM     53  F   UNL A   1      42.661  23.872  25.014  1.00  0.00    -0.206 F 
ATOM     54  C   UNL A   1      41.698  20.781  26.633  1.00  0.00     0.006 A 
ENDBRANCH  26  47
BRANCH  38  55
ATOM     55  C   UNL A   1      48.913  26.357  27.124  1.00  0.00     0.057 A 
ATOM     56  C   UNL A   1      49.388  26.545  25.821  1.00  0.00     0.134 A 
ATOM     57  C   UNL A   1      49.754  25.707  28.035  1.00  0.00     0.134 A 
ATOM     58  F   UNL A   1      48.622  27.145  24.897  1.00  0.00    -0.206 F 
ATOM     59  C   UNL A   1      50.650  26.090  25.433  1.00  0.00     0.040 A 
ATOM     60  C   UNL A   1      51.025  25.266  27.665  1.00  0.00     0.040 A 
ATOM     61  F   UNL A   1      49.358  25.498  29.300  1.00  0.00    -0.206 F 
ATOM     62  C   UNL A   1      51.475  25.454  26.359  1.00  0.00     0.006 A 
ENDBRANCH  38  55
ENDBRANCH  12  13
ENDBRANCH   5   7
ENDBRANCH   2   3
ENDBRANCH   1   2
BRANCH   1  63
ATOM     63  C   UNL A   1      32.421  30.313  25.907  1.00  0.00     0.117 C 
BRANCH  63  64
ATOM     64  N   UNL A   1      33.054  29.626  24.786  1.00  0.00    -0.356 N 
ATOM     65  C   UNL A   1      32.692  28.664  23.907  1.00  0.00     0.224 C 
ATOM     66  H   UNL A   1      33.973  29.943  24.630  1.00  0.00     0.163 HD
ATOM     67  O   UNL A   1      33.566  28.378  23.074  1.00  0.00    -0.275 OA
BRANCH  65  68
ATOM     68  C   UNL A   1      31.353  27.924  23.815  1.00  0.00     0.095 C 
ATOM     69  C   UNL A   1      30.316  28.856  23.148  1.00  0.00     0.041 C 
ATOM     70  C   UNL A   1      30.755  27.201  25.015  1.00  0.00     0.095 C 
ATOM     71  C   UNL A   1      28.976  28.197  22.962  1.00  0.00    -0.030 C 
ATOM     72  C   UNL A   1      29.483  26.409  24.629  1.00  0.00     0.041 C 
ATOM     73  C   UNL A   1      28.612  27.087  23.616  1.00  0.00    -0.030 C 
BRANCH  70  74
ATOM     74  C   UNL A   1      31.570  26.230  25.870  1.00  0.00     0.227 C 
ATOM     75  O   UNL A   1      31.675  26.514  27.072  1.00  0.00    -0.275 OA
ATOM     76  N   UNL A   1      32.011  25.005  25.414  1.00  0.00    -0.331 N 
ATOM     77  C   UNL A   1      32.405  24.011  26.418  1.00  0.00     0.181 C 
ATOM     78  C   UNL A   1      32.498  24.664  24.079  1.00  0.00     0.181 C 
ATOM     79  C   UNL A   1      32.090  22.562  25.978  1.00  0.00     0.284 C 
ATOM     80  C   UNL A   1      32.060  23.258  23.643  1.00  0.00     0.284 C 
ATOM     81  N   UNL A   1      32.397  22.191  24.588  1.00  0.00    -0.328 N 
ATOM     82  H   UNL A   1      31.758  21.421  24.387  1.00  0.00     0.348 HD
BRANCH  81  83
ATOM     83  C   UNL A   1      33.681  21.524  24.349  1.00  0.00     0.299 C 
BRANCH  83  84
ATOM     84  C   UNL A   1      33.641  20.024  24.197  1.00  0.00     0.010 A 
ATOM     85  C   UNL A   1      32.496  19.414  23.650  1.00  0.00     0.013 A 
ATOM     86  C   UNL A   1      34.703  19.217  24.652  1.00  0.00     0.060 A 
ATOM     87  C   UNL A   1      32.369  18.029  23.634  1.00  0.00     0.051 A 
ATOM     88  C   UNL A   1      34.545  17.847  24.618  1.00  0.00     0.166 A 
ATOM     89  C   UNL A   1      33.401  17.268  24.134  1.00  0.00     0.165 A 
ATOM     90  O   UNL A   1      35.434  16.929  25.078  1.00  0.00    -0.454 OA
ATOM     91  O   UNL A   1      33.416  15.913  24.237  1.00  0.00    -0.454 OA
ATOM     92  C   UNL A   1      34.703  15.705  24.858  1.00  0.00     0.468 C 
ENDBRANCH  83  84
ENDBRANCH  81  83
ENDBRANCH  70  74
ENDBRANCH  65  68
ENDBRANCH  63  64
ENDBRANCH   1  63
TORSDOF 13
ENDMDL
