MODEL 1
REMARK VINA RESULT:     -10.4      0.000      0.000
REMARK SMILES C=CCOc1ccccc1/C=C/c1cc(C(=O)NCCCNC(=O)c2ccc(-c3c4nc(c(-c5c(F)cccc5F)c5ccc([nH]5)c(-c5c(F)cccc5F)c5nc(c(-c6c(F)cccc6F)c6ccc3[nH]6)C=C5)C=C4)cc2)ncn1
REMARK SMILES IDX 16 1 17 2 18 3 15 5 13 6 14 7 81 8 80 9 79 10 12 11 11 12
REMARK SMILES IDX 10 13 5 14 6 15 7 16 9 17 8 18 4 19 3 20 2 21 1 22 19 23
REMARK SMILES IDX 20 24 21 25 22 26 23 27 24 29 25 30 26 31 78 32 27 33 77 34
REMARK SMILES IDX 28 35 29 36 30 37 71 38 31 39 76 40 70 41 72 42 32 43 75 44
REMARK SMILES IDX 69 45 68 46 33 48 59 49 42 50 58 51 43 52 46 53 57 54 73 55
REMARK SMILES IDX 44 56 45 57 56 59 74 60 47 61 34 62 35 63 40 64 36 65 37 66
REMARK SMILES IDX 39 67 41 68 38 69 60 70 61 71 66 72 62 73 63 74 65 75 67 76
REMARK SMILES IDX 64 77 48 78 49 79 54 80 50 81 51 82 53 83 55 84 52 85
REMARK H PARENT 18 4 22 28 72 47 46 58
REMARK Flexibility Score: inf
ROOT
ATOM      1  C   UNL A   1      33.227  36.782  29.370  1.00  0.00     0.270 C 
ATOM      2  O   UNL A   1      33.235  37.953  28.987  1.00  0.00    -0.268 OA
ATOM      3  N   UNL A   1      33.029  35.806  28.413  1.00  0.00    -0.351 N 
ATOM      4  H   UNL A   1      32.834  36.160  27.515  1.00  0.00     0.163 HD
ENDROOT
BRANCH   1   5
ATOM      5  C   UNL A   1      33.464  36.463  30.816  1.00  0.00     0.132 A 
ATOM      6  C   UNL A   1      34.274  35.117  32.546  1.00  0.00     0.067 A 
ATOM      7  C   UNL A   1      33.896  35.225  31.226  1.00  0.00     0.062 A 
ATOM      8  N   UNL A   1      34.053  36.095  33.441  1.00  0.00    -0.237 NA
ATOM      9  C   UNL A   1      33.518  37.225  32.961  1.00  0.00     0.223 A 
ATOM     10  N   UNL A   1      33.243  37.479  31.678  1.00  0.00    -0.231 NA
BRANCH   6  11
ATOM     11  C   UNL A   1      35.063  33.978  33.042  1.00  0.00     0.029 C 
ATOM     12  C   UNL A   1      35.912  33.307  32.245  1.00  0.00     0.014 C 
BRANCH  12  13
ATOM     13  C   UNL A   1      36.933  32.334  32.664  1.00  0.00     0.017 A 
ATOM     14  C   UNL A   1      38.244  32.781  32.926  1.00  0.00     0.126 A 
ATOM     15  C   UNL A   1      39.261  31.886  33.263  1.00  0.00     0.047 A 
ATOM     16  C   UNL A   1      38.970  30.529  33.379  1.00  0.00     0.004 A 
ATOM     17  C   UNL A   1      36.661  30.967  32.777  1.00  0.00     0.012 A 
ATOM     18  C   UNL A   1      37.673  30.072  33.141  1.00  0.00     0.001 A 
BRANCH  14  19
ATOM     19  O   UNL A   1      38.567  34.115  32.804  1.00  0.00    -0.489 OA
BRANCH  19  20
ATOM     20  C   UNL A   1      39.538  34.317  31.767  1.00  0.00     0.257 C 
BRANCH  20  21
ATOM     21  C   UNL A   1      38.814  34.592  30.480  1.00  0.00     0.006 C 
ATOM     22  C   UNL A   1      39.389  34.575  29.270  1.00  0.00     0.007 C 
ENDBRANCH  20  21
ENDBRANCH  19  20
ENDBRANCH  14  19
ENDBRANCH  12  13
ENDBRANCH   6  11
ENDBRANCH   1   5
BRANCH   3  23
ATOM     23  C   UNL A   1      33.053  34.352  28.483  1.00  0.00     0.118 C 
BRANCH  23  24
ATOM     24  C   UNL A   1      34.425  33.792  28.104  1.00  0.00     0.042 C 
BRANCH  24  25
ATOM     25  C   UNL A   1      34.841  32.569  28.918  1.00  0.00     0.118 C 
BRANCH  25  26
ATOM     26  N   UNL A   1      34.155  31.361  28.490  1.00  0.00    -0.352 N 
ATOM     27  C   UNL A   1      34.656  30.143  28.108  1.00  0.00     0.251 C 
ATOM     28  H   UNL A   1      33.173  31.428  28.471  1.00  0.00     0.163 HD
ATOM     29  O   UNL A   1      33.893  29.318  27.606  1.00  0.00    -0.269 OA
BRANCH  27  30
ATOM     30  C   UNL A   1      36.089  29.802  28.273  1.00  0.00     0.039 A 
ATOM     31  C   UNL A   1      36.513  29.303  29.510  1.00  0.00     0.014 A 
ATOM     32  C   UNL A   1      37.029  30.029  27.263  1.00  0.00     0.014 A 
ATOM     33  C   UNL A   1      37.859  28.998  29.720  1.00  0.00     0.010 A 
ATOM     34  C   UNL A   1      38.363  29.662  27.451  1.00  0.00     0.010 A 
ATOM     35  C   UNL A   1      38.794  29.154  28.685  1.00  0.00    -0.014 A 
BRANCH  35  36
ATOM     36  C   UNL A   1      40.218  28.789  28.893  1.00  0.00     0.031 A 
ATOM     37  C   UNL A   1      41.176  29.757  29.532  1.00  0.00     0.074 A 
ATOM     38  C   UNL A   1      40.663  27.591  28.470  1.00  0.00     0.049 A 
ATOM     39  N   UNL A   1      42.448  29.603  29.805  1.00  0.00    -0.248 NA
ATOM     40  C   UNL A   1      40.643  31.080  29.887  1.00  0.00     0.031 C 
ATOM     41  C   UNL A   1      39.853  26.587  27.777  1.00  0.00     0.029 A 
ATOM     42  N   UNL A   1      41.905  27.015  28.556  1.00  0.00    -0.354 N 
ATOM     43  C   UNL A   1      42.869  30.810  30.347  1.00  0.00     0.074 A 
ATOM     44  C   UNL A   1      41.729  31.702  30.322  1.00  0.00     0.031 C 
ATOM     45  C   UNL A   1      40.613  25.510  27.525  1.00  0.00     0.029 A 
ATOM     46  C   UNL A   1      41.964  25.753  28.020  1.00  0.00     0.049 A 
ATOM     47  H   UNL A   1      42.681  27.464  28.965  1.00  0.00     0.167 HD
ATOM     48  C   UNL A   1      44.087  31.140  30.840  1.00  0.00     0.037 A 
ATOM     49  C   UNL A   1      42.989  24.884  27.943  1.00  0.00     0.037 A 
ATOM     50  C   UNL A   1      45.213  30.245  30.892  1.00  0.00     0.049 A 
ATOM     51  C   UNL A   1      44.317  25.251  28.538  1.00  0.00     0.074 A 
ATOM     52  C   UNL A   1      46.466  30.462  31.440  1.00  0.00     0.029 A 
ATOM     53  N   UNL A   1      45.222  28.959  30.371  1.00  0.00    -0.354 N 
ATOM     54  N   UNL A   1      44.677  26.365  29.126  1.00  0.00    -0.248 NA
ATOM     55  C   UNL A   1      45.376  24.234  28.475  1.00  0.00     0.031 C 
ATOM     56  C   UNL A   1      47.244  29.318  31.220  1.00  0.00     0.029 A 
ATOM     57  C   UNL A   1      46.464  28.376  30.570  1.00  0.00     0.049 A 
ATOM     58  H   UNL A   1      44.459  28.525  29.926  1.00  0.00     0.167 HD
ATOM     59  C   UNL A   1      45.995  26.179  29.520  1.00  0.00     0.074 A 
ATOM     60  C   UNL A   1      46.367  24.838  29.117  1.00  0.00     0.031 C 
ATOM     61  C   UNL A   1      46.820  27.041  30.162  1.00  0.00     0.037 A 
BRANCH  48  62
ATOM     62  C   UNL A   1      44.259  32.536  31.366  1.00  0.00     0.057 A 
ATOM     63  C   UNL A   1      43.986  32.860  32.703  1.00  0.00     0.134 A 
ATOM     64  C   UNL A   1      44.716  33.564  30.533  1.00  0.00     0.134 A 
ATOM     65  F   UNL A   1      43.535  31.924  33.551  1.00  0.00    -0.206 F 
ATOM     66  C   UNL A   1      44.129  34.163  33.182  1.00  0.00     0.040 A 
ATOM     67  C   UNL A   1      44.887  34.866  31.007  1.00  0.00     0.040 A 
ATOM     68  F   UNL A   1      45.003  33.321  29.245  1.00  0.00    -0.206 F 
ATOM     69  C   UNL A   1      44.585  35.171  32.333  1.00  0.00     0.006 A 
ENDBRANCH  48  62
BRANCH  49  70
ATOM     70  C   UNL A   1      42.771  23.556  27.319  1.00  0.00     0.057 A 
ATOM     71  C   UNL A   1      43.013  23.353  25.956  1.00  0.00     0.134 A 
ATOM     72  C   UNL A   1      42.355  22.453  28.075  1.00  0.00     0.134 A 
ATOM     73  F   UNL A   1      43.399  24.377  25.180  1.00  0.00    -0.206 F 
ATOM     74  C   UNL A   1      42.842  22.102  25.363  1.00  0.00     0.040 A 
ATOM     75  C   UNL A   1      42.199  21.192  27.498  1.00  0.00     0.040 A 
ATOM     76  F   UNL A   1      42.118  22.584  29.389  1.00  0.00    -0.206 F 
ATOM     77  C   UNL A   1      42.440  21.014  26.137  1.00  0.00     0.006 A 
ENDBRANCH  49  70
BRANCH  61  78
ATOM     78  C   UNL A   1      48.200  26.552  30.487  1.00  0.00     0.057 A 
ATOM     79  C   UNL A   1      49.273  26.736  29.606  1.00  0.00     0.134 A 
ATOM     80  C   UNL A   1      48.464  25.919  31.708  1.00  0.00     0.134 A 
ATOM     81  F   UNL A   1      49.083  27.324  28.415  1.00  0.00    -0.206 F 
ATOM     82  C   UNL A   1      50.557  26.287  29.919  1.00  0.00     0.040 A 
ATOM     83  C   UNL A   1      49.748  25.485  32.041  1.00  0.00     0.040 A 
ATOM     84  F   UNL A   1      47.480  25.718  32.598  1.00  0.00    -0.206 F 
ATOM     85  C   UNL A   1      50.798  25.665  31.143  1.00  0.00     0.006 A 
ENDBRANCH  61  78
ENDBRANCH  35  36
ENDBRANCH  27  30
ENDBRANCH  25  26
ENDBRANCH  24  25
ENDBRANCH  23  24
ENDBRANCH   3  23
TORSDOF 15
ENDMDL
MODEL 2
REMARK VINA RESULT:     -10.3      4.670     12.266
REMARK SMILES C=CCOc1ccccc1/C=C/c1cc(C(=O)NCCCNC(=O)c2ccc(-c3c4nc(c(-c5c(F)cccc5F)c5ccc([nH]5)c(-c5c(F)cccc5F)c5nc(c(-c6c(F)cccc6F)c6ccc3[nH]6)C=C5)C=C4)cc2)ncn1
REMARK SMILES IDX 16 1 17 2 18 3 15 5 13 6 14 7 81 8 80 9 79 10 12 11 11 12
REMARK SMILES IDX 10 13 5 14 6 15 7 16 9 17 8 18 4 19 3 20 2 21 1 22 19 23
REMARK SMILES IDX 20 24 21 25 22 26 23 27 24 29 25 30 26 31 78 32 27 33 77 34
REMARK SMILES IDX 28 35 29 36 30 37 71 38 31 39 76 40 70 41 72 42 32 43 75 44
REMARK SMILES IDX 69 45 68 46 33 48 59 49 42 50 58 51 43 52 46 53 57 54 73 55
REMARK SMILES IDX 44 56 45 57 56 59 74 60 47 61 34 62 35 63 40 64 36 65 37 66
REMARK SMILES IDX 39 67 41 68 38 69 60 70 61 71 66 72 62 73 63 74 65 75 67 76
REMARK SMILES IDX 64 77 48 78 49 79 54 80 50 81 51 82 53 83 55 84 52 85
REMARK H PARENT 18 4 22 28 72 47 46 58
REMARK Flexibility Score: inf
ROOT
ATOM      1  C   UNL A   1      42.791  18.756  25.750  1.00  0.00     0.270 C 
ATOM      2  O   UNL A   1      42.620  17.542  25.867  1.00  0.00    -0.268 OA
ATOM      3  N   UNL A   1      41.699  19.572  25.972  1.00  0.00    -0.351 N 
ATOM      4  H   UNL A   1      40.859  19.082  26.129  1.00  0.00     0.163 HD
ENDROOT
BRANCH   1   5
ATOM      5  C   UNL A   1      44.150  19.295  25.417  1.00  0.00     0.132 A 
ATOM      6  C   UNL A   1      45.673  21.032  25.066  1.00  0.00     0.067 A 
ATOM      7  C   UNL A   1      44.359  20.626  25.153  1.00  0.00     0.062 A 
ATOM      8  N   UNL A   1      46.696  20.161  25.041  1.00  0.00    -0.237 NA
ATOM      9  C   UNL A   1      46.375  18.869  25.190  1.00  0.00     0.223 A 
ATOM     10  N   UNL A   1      45.150  18.386  25.417  1.00  0.00    -0.231 NA
BRANCH   6  11
ATOM     11  C   UNL A   1      46.058  22.451  25.128  1.00  0.00     0.029 C 
ATOM     12  C   UNL A   1      45.225  23.388  25.612  1.00  0.00     0.014 C 
BRANCH  12  13
ATOM     13  C   UNL A   1      45.566  24.776  25.963  1.00  0.00     0.017 A 
ATOM     14  C   UNL A   1      45.955  25.075  27.284  1.00  0.00     0.126 A 
ATOM     15  C   UNL A   1      46.226  26.386  27.680  1.00  0.00     0.047 A 
ATOM     16  C   UNL A   1      46.145  27.416  26.746  1.00  0.00     0.004 A 
ATOM     17  C   UNL A   1      45.483  25.823  25.040  1.00  0.00     0.012 A 
ATOM     18  C   UNL A   1      45.780  27.134  25.429  1.00  0.00     0.001 A 
BRANCH  14  19
ATOM     19  O   UNL A   1      46.028  24.082  28.236  1.00  0.00    -0.489 OA
BRANCH  19  20
ATOM     20  C   UNL A   1      45.161  24.364  29.344  1.00  0.00     0.257 C 
BRANCH  20  21
ATOM     21  C   UNL A   1      43.784  23.862  29.014  1.00  0.00     0.006 C 
ATOM     22  C   UNL A   1      43.095  22.996  29.769  1.00  0.00     0.007 C 
ENDBRANCH  20  21
ENDBRANCH  19  20
ENDBRANCH  14  19
ENDBRANCH  12  13
ENDBRANCH   6  11
ENDBRANCH   1   5
BRANCH   3  23
ATOM     23  C   UNL A   1      41.555  21.020  26.017  1.00  0.00     0.118 C 
BRANCH  23  24
ATOM     24  C   UNL A   1      40.748  21.470  27.235  1.00  0.00     0.042 C 
BRANCH  24  25
ATOM     25  C   UNL A   1      40.430  22.963  27.251  1.00  0.00     0.118 C 
BRANCH  25  26
ATOM     26  N   UNL A   1      41.185  23.699  26.250  1.00  0.00    -0.352 N 
ATOM     27  C   UNL A   1      41.505  25.030  26.181  1.00  0.00     0.251 C 
ATOM     28  H   UNL A   1      41.520  23.153  25.503  1.00  0.00     0.163 HD
ATOM     29  O   UNL A   1      41.999  25.469  25.143  1.00  0.00    -0.269 OA
BRANCH  27  30
ATOM     30  C   UNL A   1      41.261  25.951  27.316  1.00  0.00     0.039 A 
ATOM     31  C   UNL A   1      42.269  26.860  27.661  1.00  0.00     0.014 A 
ATOM     32  C   UNL A   1      40.095  25.892  28.086  1.00  0.00     0.014 A 
ATOM     33  C   UNL A   1      42.094  27.726  28.742  1.00  0.00     0.010 A 
ATOM     34  C   UNL A   1      39.893  26.802  29.126  1.00  0.00     0.010 A 
ATOM     35  C   UNL A   1      40.896  27.719  29.472  1.00  0.00    -0.014 A 
BRANCH  35  36
ATOM     36  C   UNL A   1      40.691  28.669  30.595  1.00  0.00     0.031 A 
ATOM     37  C   UNL A   1      41.525  28.578  31.842  1.00  0.00     0.074 A 
ATOM     38  C   UNL A   1      39.721  29.599  30.507  1.00  0.00     0.049 A 
ATOM     39  N   UNL A   1      41.494  29.330  32.915  1.00  0.00    -0.248 NA
ATOM     40  C   UNL A   1      42.503  27.482  31.907  1.00  0.00     0.031 C 
ATOM     41  C   UNL A   1      38.799  29.753  29.380  1.00  0.00     0.029 A 
ATOM     42  N   UNL A   1      39.346  30.588  31.381  1.00  0.00    -0.354 N 
ATOM     43  C   UNL A   1      42.434  28.791  33.784  1.00  0.00     0.074 A 
ATOM     44  C   UNL A   1      42.985  27.621  33.134  1.00  0.00     0.031 C 
ATOM     45  C   UNL A   1      37.984  30.792  29.620  1.00  0.00     0.029 A 
ATOM     46  C   UNL A   1      38.311  31.363  30.922  1.00  0.00     0.049 A 
ATOM     47  H   UNL A   1      39.779  30.729  32.254  1.00  0.00     0.167 HD
ATOM     48  C   UNL A   1      42.818  29.240  35.003  1.00  0.00     0.037 A 
ATOM     49  C   UNL A   1      37.698  32.423  31.482  1.00  0.00     0.037 A 
ATOM     50  C   UNL A   1      42.292  30.420  35.638  1.00  0.00     0.049 A 
ATOM     51  C   UNL A   1      38.172  32.934  32.812  1.00  0.00     0.074 A 
ATOM     52  C   UNL A   1      42.670  30.998  36.838  1.00  0.00     0.029 A 
ATOM     53  N   UNL A   1      41.268  31.201  35.124  1.00  0.00    -0.354 N 
ATOM     54  N   UNL A   1      39.120  32.465  33.585  1.00  0.00    -0.248 NA
ATOM     55  C   UNL A   1      37.501  34.129  33.340  1.00  0.00     0.031 C 
ATOM     56  C   UNL A   1      41.851  32.111  37.065  1.00  0.00     0.029 A 
ATOM     57  C   UNL A   1      40.989  32.247  35.989  1.00  0.00     0.049 A 
ATOM     58  H   UNL A   1      40.807  31.037  34.270  1.00  0.00     0.167 HD
ATOM     59  C   UNL A   1      39.176  33.317  34.679  1.00  0.00     0.074 A 
ATOM     60  C   UNL A   1      38.174  34.341  34.464  1.00  0.00     0.031 C 
ATOM     61  C   UNL A   1      39.988  33.258  35.762  1.00  0.00     0.037 A 
BRANCH  48  62
ATOM     62  C   UNL A   1      43.866  28.446  35.728  1.00  0.00     0.057 A 
ATOM     63  C   UNL A   1      45.232  28.737  35.603  1.00  0.00     0.134 A 
ATOM     64  C   UNL A   1      43.507  27.387  36.571  1.00  0.00     0.134 A 
ATOM     65  F   UNL A   1      45.645  29.730  34.802  1.00  0.00    -0.206 F 
ATOM     66  C   UNL A   1      46.203  27.982  36.263  1.00  0.00     0.040 A 
ATOM     67  C   UNL A   1      44.467  26.642  37.257  1.00  0.00     0.040 A 
ATOM     68  F   UNL A   1      42.217  27.060  36.742  1.00  0.00    -0.206 F 
ATOM     69  C   UNL A   1      45.821  26.932  37.098  1.00  0.00     0.006 A 
ENDBRANCH  48  62
BRANCH  49  70
ATOM     70  C   UNL A   1      36.601  33.100  30.750  1.00  0.00     0.057 A 
ATOM     71  C   UNL A   1      36.873  33.962  29.682  1.00  0.00     0.134 A 
ATOM     72  C   UNL A   1      35.258  32.875  31.074  1.00  0.00     0.134 A 
ATOM     73  F   UNL A   1      38.142  34.227  29.335  1.00  0.00    -0.206 F 
ATOM     74  C   UNL A   1      35.850  34.582  28.964  1.00  0.00     0.040 A 
ATOM     75  C   UNL A   1      34.224  33.473  30.353  1.00  0.00     0.040 A 
ATOM     76  F   UNL A   1      34.934  32.051  32.082  1.00  0.00    -0.206 F 
ATOM     77  C   UNL A   1      34.519  34.332  29.296  1.00  0.00     0.006 A 
ENDBRANCH  49  70
BRANCH  61  78
ATOM     78  C   UNL A   1      39.840  34.343  36.788  1.00  0.00     0.057 A 
ATOM     79  C   UNL A   1      40.476  35.582  36.645  1.00  0.00     0.134 A 
ATOM     80  C   UNL A   1      39.029  34.154  37.913  1.00  0.00     0.134 A 
ATOM     81  F   UNL A   1      41.277  35.821  35.596  1.00  0.00    -0.206 F 
ATOM     82  C   UNL A   1      40.325  36.590  37.599  1.00  0.00     0.040 A 
ATOM     83  C   UNL A   1      38.854  35.162  38.862  1.00  0.00     0.040 A 
ATOM     84  F   UNL A   1      38.388  32.991  38.104  1.00  0.00    -0.206 F 
ATOM     85  C   UNL A   1      39.507  36.383  38.709  1.00  0.00     0.006 A 
ENDBRANCH  61  78
ENDBRANCH  35  36
ENDBRANCH  27  30
ENDBRANCH  25  26
ENDBRANCH  24  25
ENDBRANCH  23  24
ENDBRANCH   3  23
TORSDOF 15
ENDMDL
MODEL 3
REMARK VINA RESULT:     -10.3      4.368      7.972
REMARK SMILES C=CCOc1ccccc1/C=C/c1cc(C(=O)NCCCNC(=O)c2ccc(-c3c4nc(c(-c5c(F)cccc5F)c5ccc([nH]5)c(-c5c(F)cccc5F)c5nc(c(-c6c(F)cccc6F)c6ccc3[nH]6)C=C5)C=C4)cc2)ncn1
REMARK SMILES IDX 16 1 17 2 18 3 15 5 13 6 14 7 81 8 80 9 79 10 12 11 11 12
REMARK SMILES IDX 10 13 5 14 6 15 7 16 9 17 8 18 4 19 3 20 2 21 1 22 19 23
REMARK SMILES IDX 20 24 21 25 22 26 23 27 24 29 25 30 26 31 78 32 27 33 77 34
REMARK SMILES IDX 28 35 29 36 30 37 71 38 31 39 76 40 70 41 72 42 32 43 75 44
REMARK SMILES IDX 69 45 68 46 33 48 59 49 42 50 58 51 43 52 46 53 57 54 73 55
REMARK SMILES IDX 44 56 45 57 56 59 74 60 47 61 34 62 35 63 40 64 36 65 37 66
REMARK SMILES IDX 39 67 41 68 38 69 60 70 61 71 66 72 62 73 63 74 65 75 67 76
REMARK SMILES IDX 64 77 48 78 49 79 54 80 50 81 51 82 53 83 55 84 52 85
REMARK H PARENT 18 4 22 28 72 47 46 58
REMARK Flexibility Score: inf
ROOT
ATOM      1  C   UNL A   1      31.773  28.407  27.072  1.00  0.00     0.270 C 
ATOM      2  O   UNL A   1      31.752  27.787  28.135  1.00  0.00    -0.268 OA
ATOM      3  N   UNL A   1      31.563  29.771  27.132  1.00  0.00    -0.351 N 
ATOM      4  H   UNL A   1      31.339  30.102  28.032  1.00  0.00     0.163 HD
ENDROOT
BRANCH   1   5
ATOM      5  C   UNL A   1      32.052  27.686  25.787  1.00  0.00     0.132 A 
ATOM      6  C   UNL A   1      33.291  26.231  24.443  1.00  0.00     0.067 A 
ATOM      7  C   UNL A   1      33.235  27.023  25.568  1.00  0.00     0.062 A 
ATOM      8  N   UNL A   1      32.333  26.250  23.500  1.00  0.00    -0.237 NA
ATOM      9  C   UNL A   1      31.269  27.023  23.754  1.00  0.00     0.223 A 
ATOM     10  N   UNL A   1      31.057  27.720  24.874  1.00  0.00    -0.231 NA
BRANCH   6  11
ATOM     11  C   UNL A   1      34.337  25.213  24.255  1.00  0.00     0.029 C 
ATOM     12  C   UNL A   1      34.669  24.353  25.233  1.00  0.00     0.014 C 
BRANCH  12  13
ATOM     13  C   UNL A   1      35.497  23.144  25.101  1.00  0.00     0.017 A 
ATOM     14  C   UNL A   1      34.871  21.882  25.059  1.00  0.00     0.126 A 
ATOM     15  C   UNL A   1      35.618  20.704  25.000  1.00  0.00     0.047 A 
ATOM     16  C   UNL A   1      37.008  20.775  24.946  1.00  0.00     0.004 A 
ATOM     17  C   UNL A   1      36.894  23.196  25.054  1.00  0.00     0.012 A 
ATOM     18  C   UNL A   1      37.643  22.018  24.968  1.00  0.00     0.001 A 
BRANCH  14  19
ATOM     19  O   UNL A   1      33.499  21.777  25.128  1.00  0.00    -0.489 OA
BRANCH  19  20
ATOM     20  C   UNL A   1      33.020  20.724  24.279  1.00  0.00     0.257 C 
BRANCH  20  21
ATOM     21  C   UNL A   1      32.293  21.340  23.117  1.00  0.00     0.006 C 
ATOM     22  C   UNL A   1      31.898  22.619  23.065  1.00  0.00     0.007 C 
ENDBRANCH  20  21
ENDBRANCH  19  20
ENDBRANCH  14  19
ENDBRANCH  12  13
ENDBRANCH   6  11
ENDBRANCH   1   5
BRANCH   3  23
ATOM     23  C   UNL A   1      31.612  30.812  26.115  1.00  0.00     0.118 C 
BRANCH  23  24
ATOM     24  C   UNL A   1      31.427  32.203  26.722  1.00  0.00     0.042 C 
BRANCH  24  25
ATOM     25  C   UNL A   1      32.733  32.964  26.939  1.00  0.00     0.118 C 
BRANCH  25  26
ATOM     26  N   UNL A   1      32.543  34.177  27.717  1.00  0.00    -0.352 N 
ATOM     27  C   UNL A   1      33.189  34.621  28.841  1.00  0.00     0.251 C 
ATOM     28  H   UNL A   1      31.838  34.777  27.381  1.00  0.00     0.163 HD
ATOM     29  O   UNL A   1      32.736  35.596  29.441  1.00  0.00    -0.269 OA
BRANCH  27  30
ATOM     30  C   UNL A   1      34.406  33.951  29.358  1.00  0.00     0.039 A 
ATOM     31  C   UNL A   1      34.251  32.943  30.317  1.00  0.00     0.014 A 
ATOM     32  C   UNL A   1      35.691  34.340  28.971  1.00  0.00     0.014 A 
ATOM     33  C   UNL A   1      35.371  32.305  30.854  1.00  0.00     0.010 A 
ATOM     34  C   UNL A   1      36.809  33.658  29.459  1.00  0.00     0.010 A 
ATOM     35  C   UNL A   1      36.660  32.643  30.414  1.00  0.00    -0.014 A 
BRANCH  35  36
ATOM     36  C   UNL A   1      37.850  31.936  30.952  1.00  0.00     0.031 A 
ATOM     37  C   UNL A   1      38.391  32.267  32.315  1.00  0.00     0.074 A 
ATOM     38  C   UNL A   1      38.472  31.014  30.193  1.00  0.00     0.049 A 
ATOM     39  N   UNL A   1      39.411  31.742  32.950  1.00  0.00    -0.248 NA
ATOM     40  C   UNL A   1      37.718  33.346  33.052  1.00  0.00     0.031 C 
ATOM     41  C   UNL A   1      38.088  30.646  28.828  1.00  0.00     0.029 A 
ATOM     42  N   UNL A   1      39.560  30.221  30.457  1.00  0.00    -0.354 N 
ATOM     43  C   UNL A   1      39.509  32.436  34.149  1.00  0.00     0.074 A 
ATOM     44  C   UNL A   1      38.476  33.450  34.134  1.00  0.00     0.031 C 
ATOM     45  C   UNL A   1      38.911  29.682  28.387  1.00  0.00     0.029 A 
ATOM     46  C   UNL A   1      39.890  29.378  29.426  1.00  0.00     0.049 A 
ATOM     47  H   UNL A   1      40.057  30.253  31.307  1.00  0.00     0.167 HD
ATOM     48  C   UNL A   1      40.366  32.234  35.178  1.00  0.00     0.037 A 
ATOM     49  C   UNL A   1      40.864  28.455  29.330  1.00  0.00     0.037 A 
ATOM     50  C   UNL A   1      41.375  31.208  35.207  1.00  0.00     0.049 A 
ATOM     51  C   UNL A   1      41.774  28.214  30.500  1.00  0.00     0.074 A 
ATOM     52  C   UNL A   1      42.243  30.877  36.234  1.00  0.00     0.029 A 
ATOM     53  N   UNL A   1      41.654  30.348  34.155  1.00  0.00    -0.354 N 
ATOM     54  N   UNL A   1      41.800  28.820  31.661  1.00  0.00    -0.248 NA
ATOM     55  C   UNL A   1      42.778  27.152  30.352  1.00  0.00     0.031 C 
ATOM     56  C   UNL A   1      43.070  29.838  35.790  1.00  0.00     0.029 A 
ATOM     57  C   UNL A   1      42.691  29.496  34.502  1.00  0.00     0.049 A 
ATOM     58  H   UNL A   1      41.184  30.343  33.291  1.00  0.00     0.167 HD
ATOM     59  C   UNL A   1      42.806  28.201  32.391  1.00  0.00     0.074 A 
ATOM     60  C   UNL A   1      43.358  27.163  31.544  1.00  0.00     0.031 C 
ATOM     61  C   UNL A   1      43.231  28.468  33.649  1.00  0.00     0.037 A 
BRANCH  48  62
ATOM     62  C   UNL A   1      40.244  33.150  36.363  1.00  0.00     0.057 A 
ATOM     63  C   UNL A   1      39.335  32.898  37.400  1.00  0.00     0.134 A 
ATOM     64  C   UNL A   1      41.053  34.287  36.476  1.00  0.00     0.134 A 
ATOM     65  F   UNL A   1      38.523  31.831  37.348  1.00  0.00    -0.206 F 
ATOM     66  C   UNL A   1      39.211  33.762  38.489  1.00  0.00     0.040 A 
ATOM     67  C   UNL A   1      40.956  35.145  37.573  1.00  0.00     0.040 A 
ATOM     68  F   UNL A   1      41.949  34.583  35.523  1.00  0.00    -0.206 F 
ATOM     69  C   UNL A   1      40.027  34.889  38.580  1.00  0.00     0.006 A 
ENDBRANCH  48  62
BRANCH  49  70
ATOM     70  C   UNL A   1      40.988  27.654  28.088  1.00  0.00     0.057 A 
ATOM     71  C   UNL A   1      40.312  26.437  27.946  1.00  0.00     0.134 A 
ATOM     72  C   UNL A   1      41.751  28.101  27.003  1.00  0.00     0.134 A 
ATOM     73  F   UNL A   1      39.578  25.951  28.959  1.00  0.00    -0.206 F 
ATOM     74  C   UNL A   1      40.396  25.688  26.772  1.00  0.00     0.040 A 
ATOM     75  C   UNL A   1      41.828  27.372  25.816  1.00  0.00     0.040 A 
ATOM     76  F   UNL A   1      42.414  29.265  27.076  1.00  0.00    -0.206 F 
ATOM     77  C   UNL A   1      41.151  26.159  25.699  1.00  0.00     0.006 A 
ENDBRANCH  49  70
BRANCH  61  78
ATOM     78  C   UNL A   1      44.333  27.610  34.196  1.00  0.00     0.057 A 
ATOM     79  C   UNL A   1      45.676  27.994  34.110  1.00  0.00     0.134 A 
ATOM     80  C   UNL A   1      44.042  26.401  34.840  1.00  0.00     0.134 A 
ATOM     81  F   UNL A   1      46.021  29.134  33.493  1.00  0.00    -0.206 F 
ATOM     82  C   UNL A   1      46.696  27.194  34.630  1.00  0.00     0.040 A 
ATOM     83  C   UNL A   1      45.052  25.604  35.382  1.00  0.00     0.040 A 
ATOM     84  F   UNL A   1      42.774  25.980  34.959  1.00  0.00    -0.206 F 
ATOM     85  C   UNL A   1      46.383  25.998  35.273  1.00  0.00     0.006 A 
ENDBRANCH  61  78
ENDBRANCH  35  36
ENDBRANCH  27  30
ENDBRANCH  25  26
ENDBRANCH  24  25
ENDBRANCH  23  24
ENDBRANCH   3  23
TORSDOF 15
ENDMDL
