MODEL 1
REMARK VINA RESULT:     -12.1      0.000      0.000
REMARK SMILES Cc1cc(OC(F)(F)F)cc2c1O[C@@H](C(F)(F)F)C(C(=O)NCCCNC(=O)c1ccc(-c3c4nc(c(-c5c(F)cccc5F)c5ccc([nH]5)c(-c5c(F)cccc5F)c5nc(c(-c6c(F)cccc6F)c6ccc3[nH]6)C=C5)C=C4)cc1)=C2
REMARK SMILES IDX 24 1 23 2 22 3 20 4 21 5 19 7 1 8 2 9 3 10 12 11 4 12 11 13
REMARK SMILES IDX 13 14 10 15 83 16 14 17 5 18 6 19 7 20 8 21 9 22 15 23 16 24
REMARK SMILES IDX 17 25 18 26 25 27 26 28 27 29 28 31 29 32 30 33 82 34 31 35
REMARK SMILES IDX 81 36 32 37 33 38 34 39 75 40 35 41 80 42 74 43 76 44 36 45
REMARK SMILES IDX 79 46 73 47 72 48 37 50 63 51 46 52 62 53 47 54 50 55 61 56
REMARK SMILES IDX 77 57 48 58 49 59 60 61 78 62 51 63 38 64 39 65 44 66 40 67
REMARK SMILES IDX 41 68 43 69 45 70 42 71 64 72 65 73 70 74 66 75 67 76 69 77
REMARK SMILES IDX 71 78 68 79 52 80 53 81 58 82 54 83 55 84 57 85 59 86 56 87
REMARK H PARENT 22 6 26 30 76 49 50 60
REMARK Flexibility Score: inf
ROOT
ATOM      1  C   UNL A   1      37.549  19.483  25.042  1.00  0.00     0.042 C 
ENDROOT
BRANCH   1   2
ATOM      2  C   UNL A   1      36.364  20.442  24.968  1.00  0.00     0.118 C 
BRANCH   2   3
ATOM      3  N   UNL A   1      36.585  21.495  23.989  1.00  0.00    -0.352 N 
ATOM      4  C   UNL A   1      36.024  22.686  23.671  1.00  0.00     0.251 C 
ATOM      5  O   UNL A   1      36.614  23.331  22.798  1.00  0.00    -0.270 OA
ATOM      6  H   UNL A   1      37.347  21.288  23.402  1.00  0.00     0.163 HD
BRANCH   4   7
ATOM      7  C   UNL A   1      34.780  23.238  24.278  1.00  0.00     0.067 C 
ATOM      8  C   UNL A   1      30.241  24.066  26.572  1.00  0.00     0.048 C 
ATOM      9  C   UNL A   1      31.384  24.915  26.090  1.00  0.00    -0.005 A 
ATOM     10  C   UNL A   1      31.283  26.311  26.197  1.00  0.00     0.054 A 
ATOM     11  C   UNL A   1      32.536  24.360  25.523  1.00  0.00     0.131 A 
ATOM     12  C   UNL A   1      32.317  27.141  25.756  1.00  0.00     0.130 A 
ATOM     13  C   UNL A   1      33.583  25.174  25.083  1.00  0.00     0.021 A 
ATOM     14  O   UNL A   1      32.610  22.997  25.463  1.00  0.00    -0.475 OA
ATOM     15  C   UNL A   1      33.465  26.564  25.198  1.00  0.00     0.058 A 
ATOM     16  C   UNL A   1      34.792  24.556  24.548  1.00  0.00     0.025 C 
ATOM     17  C   UNL A   1      33.525  22.440  24.488  1.00  0.00     0.314 C 
BRANCH  12  18
ATOM     18  O   UNL A   1      32.333  28.505  25.811  1.00  0.00    -0.406 OA
BRANCH  18  19
ATOM     19  C   UNL A   1      32.570  29.109  27.074  1.00  0.00     0.573 C 
ATOM     20  F   UNL A   1      33.443  28.383  27.805  1.00  0.00    -0.132 F 
ATOM     21  F   UNL A   1      33.039  30.368  26.932  1.00  0.00    -0.132 F 
ATOM     22  F   UNL A   1      31.404  29.171  27.754  1.00  0.00    -0.132 F 
ENDBRANCH  18  19
ENDBRANCH  12  18
BRANCH  17  23
ATOM     23  C   UNL A   1      32.783  22.107  23.186  1.00  0.00     0.429 C 
ATOM     24  F   UNL A   1      33.313  22.719  22.105  1.00  0.00    -0.167 F 
ATOM     25  F   UNL A   1      32.765  20.780  22.922  1.00  0.00    -0.167 F 
ATOM     26  F   UNL A   1      31.486  22.500  23.278  1.00  0.00    -0.167 F 
ENDBRANCH  17  23
ENDBRANCH   4   7
ENDBRANCH   2   3
ENDBRANCH   1   2
BRANCH   1  27
ATOM     27  C   UNL A   1      38.847  20.202  25.395  1.00  0.00     0.118 C 
BRANCH  27  28
ATOM     28  N   UNL A   1      39.914  19.253  25.690  1.00  0.00    -0.352 N 
ATOM     29  C   UNL A   1      41.205  19.501  26.089  1.00  0.00     0.251 C 
ATOM     30  H   UNL A   1      39.677  18.303  25.588  1.00  0.00     0.163 HD
ATOM     31  O   UNL A   1      42.055  18.622  26.016  1.00  0.00    -0.269 OA
BRANCH  29  32
ATOM     32  C   UNL A   1      41.559  20.838  26.604  1.00  0.00     0.039 A 
ATOM     33  C   UNL A   1      42.085  21.792  25.730  1.00  0.00     0.014 A 
ATOM     34  C   UNL A   1      41.380  21.137  27.957  1.00  0.00     0.014 A 
ATOM     35  C   UNL A   1      42.384  23.068  26.209  1.00  0.00     0.010 A 
ATOM     36  C   UNL A   1      41.603  22.430  28.415  1.00  0.00     0.010 A 
ATOM     37  C   UNL A   1      42.124  23.401  27.548  1.00  0.00    -0.014 A 
BRANCH  37  38
ATOM     38  C   UNL A   1      42.442  24.749  28.075  1.00  0.00     0.031 A 
ATOM     39  C   UNL A   1      43.858  25.087  28.445  1.00  0.00     0.074 A 
ATOM     40  C   UNL A   1      41.457  25.648  28.253  1.00  0.00     0.049 A 
ATOM     41  N   UNL A   1      44.344  26.203  28.924  1.00  0.00    -0.248 NA
ATOM     42  C   UNL A   1      44.856  24.019  28.276  1.00  0.00     0.031 C 
ATOM     43  C   UNL A   1      40.039  25.419  27.971  1.00  0.00     0.029 A 
ATOM     44  N   UNL A   1      41.501  26.936  28.723  1.00  0.00    -0.354 N 
ATOM     45  C   UNL A   1      45.701  25.973  29.106  1.00  0.00     0.074 A 
ATOM     46  C   UNL A   1      45.947  24.590  28.761  1.00  0.00     0.031 C 
ATOM     47  C   UNL A   1      39.351  26.539  28.249  1.00  0.00     0.029 A 
ATOM     48  C   UNL A   1      40.274  27.552  28.755  1.00  0.00     0.049 A 
ATOM     49  H   UNL A   1      42.333  27.377  29.008  1.00  0.00     0.167 HD
ATOM     50  C   UNL A   1      46.664  26.843  29.496  1.00  0.00     0.037 A 
ATOM     51  C   UNL A   1      39.938  28.793  29.148  1.00  0.00     0.037 A 
ATOM     52  C   UNL A   1      46.413  28.215  29.850  1.00  0.00     0.049 A 
ATOM     53  C   UNL A   1      41.018  29.726  29.627  1.00  0.00     0.074 A 
ATOM     54  C   UNL A   1      47.318  29.192  30.221  1.00  0.00     0.029 A 
ATOM     55  N   UNL A   1      45.155  28.799  29.889  1.00  0.00    -0.354 N 
ATOM     56  N   UNL A   1      42.311  29.523  29.718  1.00  0.00    -0.248 NA
ATOM     57  C   UNL A   1      40.588  31.064  30.053  1.00  0.00     0.031 C 
ATOM     58  C   UNL A   1      46.602  30.352  30.540  1.00  0.00     0.029 A 
ATOM     59  C   UNL A   1      45.256  30.115  30.310  1.00  0.00     0.049 A 
ATOM     60  H   UNL A   1      44.313  28.346  29.653  1.00  0.00     0.167 HD
ATOM     61  C   UNL A   1      42.851  30.715  30.183  1.00  0.00     0.074 A 
ATOM     62  C   UNL A   1      41.748  31.642  30.333  1.00  0.00     0.031 C 
ATOM     63  C   UNL A   1      44.144  31.019  30.464  1.00  0.00     0.037 A 
BRANCH  50  64
ATOM     64  C   UNL A   1      48.069  26.318  29.563  1.00  0.00     0.057 A 
ATOM     65  C   UNL A   1      48.572  25.761  30.745  1.00  0.00     0.134 A 
ATOM     66  C   UNL A   1      48.925  26.353  28.453  1.00  0.00     0.134 A 
ATOM     67  F   UNL A   1      47.811  25.698  31.847  1.00  0.00    -0.206 F 
ATOM     68  C   UNL A   1      49.870  25.249  30.817  1.00  0.00     0.040 A 
ATOM     69  C   UNL A   1      50.212  25.816  28.503  1.00  0.00     0.040 A 
ATOM     70  F   UNL A   1      48.502  26.860  27.284  1.00  0.00    -0.206 F 
ATOM     71  C   UNL A   1      50.689  25.266  29.690  1.00  0.00     0.006 A 
ENDBRANCH  50  64
BRANCH  51  72
ATOM     72  C   UNL A   1      38.524  29.244  29.087  1.00  0.00     0.057 A 
ATOM     73  C   UNL A   1      37.697  29.218  30.215  1.00  0.00     0.134 A 
ATOM     74  C   UNL A   1      37.978  29.748  27.899  1.00  0.00     0.134 A 
ATOM     75  F   UNL A   1      38.156  28.743  31.381  1.00  0.00    -0.206 F 
ATOM     76  C   UNL A   1      36.379  29.677  30.166  1.00  0.00     0.040 A 
ATOM     77  C   UNL A   1      36.672  30.235  27.842  1.00  0.00     0.040 A 
ATOM     78  F   UNL A   1      38.728  29.816  26.789  1.00  0.00    -0.206 F 
ATOM     79  C   UNL A   1      35.867  30.198  28.979  1.00  0.00     0.006 A 
ENDBRANCH  51  72
BRANCH  63  80
ATOM     80  C   UNL A   1      44.425  32.417  30.938  1.00  0.00     0.057 A 
ATOM     81  C   UNL A   1      44.420  32.721  32.306  1.00  0.00     0.134 A 
ATOM     82  C   UNL A   1      44.698  33.462  30.046  1.00  0.00     0.134 A 
ATOM     83  F   UNL A   1      44.155  31.771  33.215  1.00  0.00    -0.206 F 
ATOM     84  C   UNL A   1      44.682  34.012  32.768  1.00  0.00     0.040 A 
ATOM     85  C   UNL A   1      44.995  34.749  30.498  1.00  0.00     0.040 A 
ATOM     86  F   UNL A   1      44.732  33.236  28.724  1.00  0.00    -0.206 F 
ATOM     87  C   UNL A   1      44.983  35.027  31.863  1.00  0.00     0.006 A 
ENDBRANCH  63  80
ENDBRANCH  37  38
ENDBRANCH  29  32
ENDBRANCH  27  28
ENDBRANCH   1  27
TORSDOF 13
ENDMDL
MODEL 2
REMARK VINA RESULT:     -12.1      0.125      1.673
REMARK SMILES Cc1cc(OC(F)(F)F)cc2c1O[C@@H](C(F)(F)F)C(C(=O)NCCCNC(=O)c1ccc(-c3c4nc(c(-c5c(F)cccc5F)c5ccc([nH]5)c(-c5c(F)cccc5F)c5nc(c(-c6c(F)cccc6F)c6ccc3[nH]6)C=C5)C=C4)cc1)=C2
REMARK SMILES IDX 24 1 23 2 22 3 20 4 21 5 19 7 1 8 2 9 3 10 12 11 4 12 11 13
REMARK SMILES IDX 13 14 10 15 83 16 14 17 5 18 6 19 7 20 8 21 9 22 15 23 16 24
REMARK SMILES IDX 17 25 18 26 25 27 26 28 27 29 28 31 29 32 30 33 82 34 31 35
REMARK SMILES IDX 81 36 32 37 33 38 34 39 75 40 35 41 80 42 74 43 76 44 36 45
REMARK SMILES IDX 79 46 73 47 72 48 37 50 63 51 46 52 62 53 47 54 50 55 61 56
REMARK SMILES IDX 77 57 48 58 49 59 60 61 78 62 51 63 38 64 39 65 44 66 40 67
REMARK SMILES IDX 41 68 43 69 45 70 42 71 64 72 65 73 70 74 66 75 67 76 69 77
REMARK SMILES IDX 71 78 68 79 52 80 53 81 58 82 54 83 55 84 57 85 59 86 56 87
REMARK H PARENT 22 6 26 30 76 49 50 60
REMARK Flexibility Score: inf
ROOT
ATOM      1  C   UNL A   1      37.510  19.537  25.093  1.00  0.00     0.042 C 
ENDROOT
BRANCH   1   2
ATOM      2  C   UNL A   1      36.345  20.519  25.010  1.00  0.00     0.118 C 
BRANCH   2   3
ATOM      3  N   UNL A   1      36.578  21.546  24.004  1.00  0.00    -0.352 N 
ATOM      4  C   UNL A   1      36.027  22.732  23.654  1.00  0.00     0.251 C 
ATOM      5  O   UNL A   1      36.626  23.349  22.767  1.00  0.00    -0.270 OA
ATOM      6  H   UNL A   1      37.340  21.318  23.426  1.00  0.00     0.163 HD
BRANCH   4   7
ATOM      7  C   UNL A   1      34.785  23.308  24.242  1.00  0.00     0.067 C 
ATOM      8  C   UNL A   1      30.242  24.229  26.491  1.00  0.00     0.048 C 
ATOM      9  C   UNL A   1      31.395  25.057  25.996  1.00  0.00    -0.005 A 
ATOM     10  C   UNL A   1      31.306  26.456  26.069  1.00  0.00     0.054 A 
ATOM     11  C   UNL A   1      32.544  24.479  25.447  1.00  0.00     0.131 A 
ATOM     12  C   UNL A   1      32.349  27.266  25.614  1.00  0.00     0.130 A 
ATOM     13  C   UNL A   1      33.600  25.273  24.995  1.00  0.00     0.021 A 
ATOM     14  O   UNL A   1      32.607  23.114  25.420  1.00  0.00    -0.475 OA
ATOM     15  C   UNL A   1      33.494  26.666  25.076  1.00  0.00     0.058 A 
ATOM     16  C   UNL A   1      34.808  24.633  24.480  1.00  0.00     0.025 C 
ATOM     17  C   UNL A   1      33.523  22.527  24.463  1.00  0.00     0.314 C 
BRANCH  12  18
ATOM     18  O   UNL A   1      32.376  28.631  25.638  1.00  0.00    -0.406 OA
BRANCH  18  19
ATOM     19  C   UNL A   1      32.697  29.261  26.869  1.00  0.00     0.573 C 
ATOM     20  F   UNL A   1      33.477  30.346  26.673  1.00  0.00    -0.132 F 
ATOM     21  F   UNL A   1      31.580  29.624  27.537  1.00  0.00    -0.132 F 
ATOM     22  F   UNL A   1      33.381  28.387  27.640  1.00  0.00    -0.132 F 
ENDBRANCH  18  19
ENDBRANCH  12  18
BRANCH  17  23
ATOM     23  C   UNL A   1      32.783  22.169  23.165  1.00  0.00     0.429 C 
ATOM     24  F   UNL A   1      31.485  22.542  23.178  1.00  0.00    -0.167 F 
ATOM     25  F   UNL A   1      33.348  22.734  22.073  1.00  0.00    -0.167 F 
ATOM     26  F   UNL A   1      32.817  20.827  22.967  1.00  0.00    -0.167 F 
ENDBRANCH  17  23
ENDBRANCH   4   7
ENDBRANCH   2   3
ENDBRANCH   1   2
BRANCH   1  27
ATOM     27  C   UNL A   1      38.834  20.239  25.375  1.00  0.00     0.118 C 
BRANCH  27  28
ATOM     28  N   UNL A   1      39.890  19.279  25.673  1.00  0.00    -0.352 N 
ATOM     29  C   UNL A   1      41.182  19.512  26.078  1.00  0.00     0.251 C 
ATOM     30  H   UNL A   1      39.643  18.331  25.568  1.00  0.00     0.163 HD
ATOM     31  O   UNL A   1      42.023  18.624  26.008  1.00  0.00    -0.269 OA
BRANCH  29  32
ATOM     32  C   UNL A   1      41.547  20.844  26.597  1.00  0.00     0.039 A 
ATOM     33  C   UNL A   1      42.084  21.795  25.727  1.00  0.00     0.014 A 
ATOM     34  C   UNL A   1      41.368  21.141  27.951  1.00  0.00     0.014 A 
ATOM     35  C   UNL A   1      42.394  23.067  26.209  1.00  0.00     0.010 A 
ATOM     36  C   UNL A   1      41.604  22.431  28.412  1.00  0.00     0.010 A 
ATOM     37  C   UNL A   1      42.135  23.399  27.548  1.00  0.00    -0.014 A 
BRANCH  37  38
ATOM     38  C   UNL A   1      42.465  24.743  28.079  1.00  0.00     0.031 A 
ATOM     39  C   UNL A   1      43.884  25.067  28.450  1.00  0.00     0.074 A 
ATOM     40  C   UNL A   1      41.488  25.650  28.261  1.00  0.00     0.049 A 
ATOM     41  N   UNL A   1      44.380  26.178  28.932  1.00  0.00    -0.248 NA
ATOM     42  C   UNL A   1      44.873  23.991  28.277  1.00  0.00     0.031 C 
ATOM     43  C   UNL A   1      40.068  25.434  27.979  1.00  0.00     0.029 A 
ATOM     44  N   UNL A   1      41.544  26.936  28.734  1.00  0.00    -0.354 N 
ATOM     45  C   UNL A   1      45.736  25.935  29.113  1.00  0.00     0.074 A 
ATOM     46  C   UNL A   1      45.970  24.552  28.763  1.00  0.00     0.031 C 
ATOM     47  C   UNL A   1      39.390  26.559  28.260  1.00  0.00     0.029 A 
ATOM     48  C   UNL A   1      40.322  27.562  28.769  1.00  0.00     0.049 A 
ATOM     49  H   UNL A   1      42.379  27.369  29.021  1.00  0.00     0.167 HD
ATOM     50  C   UNL A   1      46.706  26.795  29.505  1.00  0.00     0.037 A 
ATOM     51  C   UNL A   1      39.997  28.806  29.166  1.00  0.00     0.037 A 
ATOM     52  C   UNL A   1      46.467  28.169  29.862  1.00  0.00     0.049 A 
ATOM     53  C   UNL A   1      41.086  29.727  29.648  1.00  0.00     0.074 A 
ATOM     54  C   UNL A   1      47.382  29.137  30.236  1.00  0.00     0.029 A 
ATOM     55  N   UNL A   1      45.214  28.763  29.905  1.00  0.00    -0.354 N 
ATOM     56  N   UNL A   1      42.377  29.512  29.737  1.00  0.00    -0.248 NA
ATOM     57  C   UNL A   1      40.668  31.068  30.078  1.00  0.00     0.031 C 
ATOM     58  C   UNL A   1      46.676  30.302  30.559  1.00  0.00     0.029 A 
ATOM     59  C   UNL A   1      45.328  30.077  30.329  1.00  0.00     0.049 A 
ATOM     60  H   UNL A   1      44.369  28.318  29.668  1.00  0.00     0.167 HD
ATOM     61  C   UNL A   1      42.928  30.698  30.206  1.00  0.00     0.074 A 
ATOM     62  C   UNL A   1      41.833  31.635  30.359  1.00  0.00     0.031 C 
ATOM     63  C   UNL A   1      44.223  30.990  30.487  1.00  0.00     0.037 A 
BRANCH  50  64
ATOM     64  C   UNL A   1      48.107  26.258  29.569  1.00  0.00     0.057 A 
ATOM     65  C   UNL A   1      48.940  26.286  28.445  1.00  0.00     0.134 A 
ATOM     66  C   UNL A   1      48.639  25.721  30.751  1.00  0.00     0.134 A 
ATOM     67  F   UNL A   1      48.496  26.782  27.280  1.00  0.00    -0.206 F 
ATOM     68  C   UNL A   1      50.252  25.810  28.495  1.00  0.00     0.040 A 
ATOM     69  C   UNL A   1      49.958  25.272  30.823  1.00  0.00     0.040 A 
ATOM     70  F   UNL A   1      47.900  25.677  31.871  1.00  0.00    -0.206 F 
ATOM     71  C   UNL A   1      50.767  25.312  29.690  1.00  0.00     0.006 A 
ENDBRANCH  50  64
BRANCH  51  72
ATOM     72  C   UNL A   1      38.587  29.269  29.107  1.00  0.00     0.057 A 
ATOM     73  C   UNL A   1      38.021  29.742  27.918  1.00  0.00     0.134 A 
ATOM     74  C   UNL A   1      37.762  29.214  30.237  1.00  0.00     0.134 A 
ATOM     75  F   UNL A   1      38.758  29.825  26.802  1.00  0.00    -0.206 F 
ATOM     76  C   UNL A   1      36.684  30.143  27.854  1.00  0.00     0.040 A 
ATOM     77  C   UNL A   1      36.419  29.586  30.181  1.00  0.00     0.040 A 
ATOM     78  F   UNL A   1      38.243  28.753  31.401  1.00  0.00    -0.206 F 
ATOM     79  C   UNL A   1      35.877  30.054  28.986  1.00  0.00     0.006 A 
ENDBRANCH  51  72
BRANCH  63  80
ATOM     80  C   UNL A   1      44.517  32.384  30.964  1.00  0.00     0.057 A 
ATOM     81  C   UNL A   1      44.757  33.417  30.048  1.00  0.00     0.134 A 
ATOM     82  C   UNL A   1      44.565  32.707  32.327  1.00  0.00     0.134 A 
ATOM     83  F   UNL A   1      44.736  33.177  28.729  1.00  0.00    -0.206 F 
ATOM     84  C   UNL A   1      45.027  34.720  30.470  1.00  0.00     0.040 A 
ATOM     85  C   UNL A   1      44.802  34.013  32.760  1.00  0.00     0.040 A 
ATOM     86  F   UNL A   1      44.331  31.769  33.257  1.00  0.00    -0.206 F 
ATOM     87  C   UNL A   1      45.038  35.023  31.829  1.00  0.00     0.006 A 
ENDBRANCH  63  80
ENDBRANCH  37  38
ENDBRANCH  29  32
ENDBRANCH  27  28
ENDBRANCH   1  27
TORSDOF 13
ENDMDL
MODEL 3
REMARK VINA RESULT:     -12.1      0.798      6.152
REMARK SMILES Cc1cc(OC(F)(F)F)cc2c1O[C@@H](C(F)(F)F)C(C(=O)NCCCNC(=O)c1ccc(-c3c4nc(c(-c5c(F)cccc5F)c5ccc([nH]5)c(-c5c(F)cccc5F)c5nc(c(-c6c(F)cccc6F)c6ccc3[nH]6)C=C5)C=C4)cc1)=C2
REMARK SMILES IDX 24 1 23 2 22 3 20 4 21 5 19 7 1 8 2 9 3 10 12 11 4 12 11 13
REMARK SMILES IDX 13 14 10 15 83 16 14 17 5 18 6 19 7 20 8 21 9 22 15 23 16 24
REMARK SMILES IDX 17 25 18 26 25 27 26 28 27 29 28 31 29 32 30 33 82 34 31 35
REMARK SMILES IDX 81 36 32 37 33 38 34 39 75 40 35 41 80 42 74 43 76 44 36 45
REMARK SMILES IDX 79 46 73 47 72 48 37 50 63 51 46 52 62 53 47 54 50 55 61 56
REMARK SMILES IDX 77 57 48 58 49 59 60 61 78 62 51 63 38 64 39 65 44 66 40 67
REMARK SMILES IDX 41 68 43 69 45 70 42 71 64 72 65 73 70 74 66 75 67 76 69 77
REMARK SMILES IDX 71 78 68 79 52 80 53 81 58 82 54 83 55 84 57 85 59 86 56 87
REMARK H PARENT 22 6 26 30 76 49 50 60
REMARK Flexibility Score: inf
ROOT
ATOM      1  C   UNL A   1      37.776  19.622  25.037  1.00  0.00     0.042 C 
ENDROOT
BRANCH   1   2
ATOM      2  C   UNL A   1      36.587  20.579  25.021  1.00  0.00     0.118 C 
BRANCH   2   3
ATOM      3  N   UNL A   1      36.735  21.604  23.998  1.00  0.00    -0.352 N 
ATOM      4  C   UNL A   1      36.126  22.766  23.664  1.00  0.00     0.251 C 
ATOM      5  O   UNL A   1      36.659  23.397  22.747  1.00  0.00    -0.270 OA
ATOM      6  H   UNL A   1      37.479  21.399  23.387  1.00  0.00     0.163 HD
BRANCH   4   7
ATOM      7  C   UNL A   1      34.891  23.301  24.304  1.00  0.00     0.067 C 
ATOM      8  C   UNL A   1      30.334  24.071  26.583  1.00  0.00     0.048 C 
ATOM      9  C   UNL A   1      31.523  24.917  26.222  1.00  0.00    -0.005 A 
ATOM     10  C   UNL A   1      31.478  26.295  26.482  1.00  0.00     0.054 A 
ATOM     11  C   UNL A   1      32.665  24.377  25.620  1.00  0.00     0.131 A 
ATOM     12  C   UNL A   1      32.557  27.122  26.158  1.00  0.00     0.130 A 
ATOM     13  C   UNL A   1      33.755  25.188  25.296  1.00  0.00     0.021 A 
ATOM     14  O   UNL A   1      32.683  23.027  25.410  1.00  0.00    -0.475 OA
ATOM     15  C   UNL A   1      33.693  26.560  25.563  1.00  0.00     0.058 A 
ATOM     16  C   UNL A   1      34.951  24.580  24.720  1.00  0.00     0.025 C 
ATOM     17  C   UNL A   1      33.599  22.542  24.398  1.00  0.00     0.314 C 
BRANCH  12  18
ATOM     18  O   UNL A   1      32.628  28.470  26.366  1.00  0.00    -0.406 OA
BRANCH  18  19
ATOM     19  C   UNL A   1      32.165  29.321  25.329  1.00  0.00     0.573 C 
ATOM     20  F   UNL A   1      33.153  29.604  24.453  1.00  0.00    -0.132 F 
ATOM     21  F   UNL A   1      31.124  28.766  24.670  1.00  0.00    -0.132 F 
ATOM     22  F   UNL A   1      31.743  30.483  25.875  1.00  0.00    -0.132 F 
ENDBRANCH  18  19
ENDBRANCH  12  18
BRANCH  17  23
ATOM     23  C   UNL A   1      32.876  22.388  23.051  1.00  0.00     0.429 C 
ATOM     24  F   UNL A   1      33.556  22.938  22.022  1.00  0.00    -0.167 F 
ATOM     25  F   UNL A   1      32.646  21.094  22.729  1.00  0.00    -0.167 F 
ATOM     26  F   UNL A   1      31.662  22.995  23.105  1.00  0.00    -0.167 F 
ENDBRANCH  17  23
ENDBRANCH   4   7
ENDBRANCH   2   3
ENDBRANCH   1   2
BRANCH   1  27
ATOM     27  C   UNL A   1      39.027  20.270  25.622  1.00  0.00     0.118 C 
BRANCH  27  28
ATOM     28  N   UNL A   1      40.087  19.290  25.820  1.00  0.00    -0.352 N 
ATOM     29  C   UNL A   1      41.419  19.498  26.083  1.00  0.00     0.251 C 
ATOM     30  H   UNL A   1      39.810  18.347  25.756  1.00  0.00     0.163 HD
ATOM     31  O   UNL A   1      42.229  18.591  25.937  1.00  0.00    -0.269 OA
BRANCH  29  32
ATOM     32  C   UNL A   1      41.866  20.828  26.542  1.00  0.00     0.039 A 
ATOM     33  C   UNL A   1      42.310  21.763  25.604  1.00  0.00     0.014 A 
ATOM     34  C   UNL A   1      41.856  21.139  27.904  1.00  0.00     0.014 A 
ATOM     35  C   UNL A   1      42.695  23.034  26.033  1.00  0.00     0.010 A 
ATOM     36  C   UNL A   1      42.166  22.428  28.321  1.00  0.00     0.010 A 
ATOM     37  C   UNL A   1      42.605  23.380  27.390  1.00  0.00    -0.014 A 
BRANCH  37  38
ATOM     38  C   UNL A   1      43.018  24.722  27.865  1.00  0.00     0.031 A 
ATOM     39  C   UNL A   1      41.978  25.779  28.102  1.00  0.00     0.074 A 
ATOM     40  C   UNL A   1      44.323  24.996  28.044  1.00  0.00     0.049 A 
ATOM     41  N   UNL A   1      42.129  27.012  28.513  1.00  0.00    -0.248 NA
ATOM     42  C   UNL A   1      40.582  25.406  27.817  1.00  0.00     0.031 C 
ATOM     43  C   UNL A   1      45.426  24.065  27.804  1.00  0.00     0.029 A 
ATOM     44  N   UNL A   1      44.941  26.146  28.465  1.00  0.00    -0.354 N 
ATOM     45  C   UNL A   1      40.852  27.557  28.541  1.00  0.00     0.074 A 
ATOM     46  C   UNL A   1      39.949  26.548  28.034  1.00  0.00     0.031 C 
ATOM     47  C   UNL A   1      46.586  24.673  28.106  1.00  0.00     0.029 A 
ATOM     48  C   UNL A   1      46.309  26.042  28.532  1.00  0.00     0.049 A 
ATOM     49  H   UNL A   1      44.452  26.967  28.697  1.00  0.00     0.167 HD
ATOM     50  C   UNL A   1      40.461  28.777  28.980  1.00  0.00     0.037 A 
ATOM     51  C   UNL A   1      47.230  26.951  28.898  1.00  0.00     0.037 A 
ATOM     52  C   UNL A   1      41.365  29.782  29.474  1.00  0.00     0.049 A 
ATOM     53  C   UNL A   1      46.775  28.319  29.332  1.00  0.00     0.074 A 
ATOM     54  C   UNL A   1      41.072  31.036  29.979  1.00  0.00     0.029 A 
ATOM     55  N   UNL A   1      42.745  29.649  29.509  1.00  0.00    -0.354 N 
ATOM     56  N   UNL A   1      45.557  28.796  29.432  1.00  0.00    -0.248 NA
ATOM     57  C   UNL A   1      47.827  29.272  29.709  1.00  0.00     0.031 C 
ATOM     58  C   UNL A   1      42.279  31.684  30.267  1.00  0.00     0.029 A 
ATOM     59  C   UNL A   1      43.321  30.811  29.997  1.00  0.00     0.049 A 
ATOM     60  H   UNL A   1      43.243  28.847  29.229  1.00  0.00     0.167 HD
ATOM     61  C   UNL A   1      45.695  30.093  29.911  1.00  0.00     0.074 A 
ATOM     62  C   UNL A   1      47.114  30.317  30.102  1.00  0.00     0.031 C 
ATOM     63  C   UNL A   1      44.738  31.019  30.169  1.00  0.00     0.037 A 
BRANCH  50  64
ATOM     64  C   UNL A   1      38.991  29.079  28.931  1.00  0.00     0.057 A 
ATOM     65  C   UNL A   1      38.193  28.952  30.075  1.00  0.00     0.134 A 
ATOM     66  C   UNL A   1      38.363  29.509  27.752  1.00  0.00     0.134 A 
ATOM     67  F   UNL A   1      38.726  28.544  31.236  1.00  0.00    -0.206 F 
ATOM     68  C   UNL A   1      36.829  29.250  30.050  1.00  0.00     0.040 A 
ATOM     69  C   UNL A   1      37.007  29.840  27.723  1.00  0.00     0.040 A 
ATOM     70  F   UNL A   1      39.071  29.666  26.623  1.00  0.00    -0.206 F 
ATOM     71  C   UNL A   1      36.235  29.706  28.875  1.00  0.00     0.006 A 
ENDBRANCH  50  64
BRANCH  51  72
ATOM     72  C   UNL A   1      48.674  26.601  28.896  1.00  0.00     0.057 A 
ATOM     73  C   UNL A   1      49.304  26.085  30.034  1.00  0.00     0.134 A 
ATOM     74  C   UNL A   1      49.449  26.744  27.738  1.00  0.00     0.134 A 
ATOM     75  F   UNL A   1      48.620  25.929  31.175  1.00  0.00    -0.206 F 
ATOM     76  C   UNL A   1      50.652  25.721  30.020  1.00  0.00     0.040 A 
ATOM     77  C   UNL A   1      50.789  26.359  27.703  1.00  0.00     0.040 A 
ATOM     78  F   UNL A   1      48.896  27.216  26.611  1.00  0.00    -0.206 F 
ATOM     79  C   UNL A   1      51.396  25.848  28.848  1.00  0.00     0.006 A 
ENDBRANCH  51  72
BRANCH  63  80
ATOM     80  C   UNL A   1      45.201  32.344  30.706  1.00  0.00     0.057 A 
ATOM     81  C   UNL A   1      45.499  33.401  29.836  1.00  0.00     0.134 A 
ATOM     82  C   UNL A   1      45.354  32.575  32.079  1.00  0.00     0.134 A 
ATOM     83  F   UNL A   1      45.384  33.246  28.509  1.00  0.00    -0.206 F 
ATOM     84  C   UNL A   1      45.926  34.641  30.314  1.00  0.00     0.040 A 
ATOM     85  C   UNL A   1      45.749  33.821  32.570  1.00  0.00     0.040 A 
ATOM     86  F   UNL A   1      45.073  31.610  32.968  1.00  0.00    -0.206 F 
ATOM     87  C   UNL A   1      46.040  34.857  31.685  1.00  0.00     0.006 A 
ENDBRANCH  63  80
ENDBRANCH  37  38
ENDBRANCH  29  32
ENDBRANCH  27  28
ENDBRANCH   1  27
TORSDOF 13
ENDMDL
