MODEL 1
REMARK VINA RESULT:     -12.7      0.000      0.000
REMARK SMILES N#CCOc1ccc2[nH]cc([C@H](C(=O)NCCCNC(=O)c3ccc(-c4c5nc(c(-c6c(F)cccc6F)c6ccc([nH]6)c(-c6c(F)cccc6F)c6nc(c(-c7c(F)cccc7F)c7ccc4[nH]7)C=C6)C=C5)cc3)[NH+]3CC[NH+]([C@@H]4CCS(=O)(=O)C4)CC3)c2c1
REMARK SMILES IDX 16 1 15 2 13 3 14 4 12 6 11 7 5 8 6 9 90 10 7 11 89 12 8 13
REMARK SMILES IDX 9 14 10 15 4 17 3 18 2 19 1 20 76 21 77 22 88 23 78 25 87 26
REMARK SMILES IDX 79 27 80 29 81 30 86 31 82 32 83 33 84 34 85 35 17 36 18 37
REMARK SMILES IDX 19 38 20 39 21 41 22 42 23 43 75 44 24 45 74 46 25 47 26 48
REMARK SMILES IDX 27 49 68 50 28 51 73 52 67 53 69 54 29 55 72 56 66 57 65 58
REMARK SMILES IDX 30 60 56 61 39 62 55 63 40 64 43 65 54 66 70 67 41 68 42 69
REMARK SMILES IDX 53 71 71 72 44 73 31 74 32 75 37 76 33 77 34 78 36 79 38 80
REMARK SMILES IDX 35 81 57 82 58 83 63 84 59 85 60 86 62 87 64 88 61 89 45 90
REMARK SMILES IDX 46 91 51 92 47 93 48 94 50 95 52 96 49 97
REMARK H PARENT 15 5 9 16 76 24 79 28 19 40 69 59 43 70
REMARK Flexibility Score: inf
ROOT
ATOM      1  C   UNL A   1      33.283  29.515  24.954  1.00  0.00     0.118 C 
ENDROOT
BRANCH   1   2
ATOM      2  N   UNL A   1      33.030  28.843  23.704  1.00  0.00    -0.351 N 
ATOM      3  C   UNL A   1      32.363  27.690  23.444  1.00  0.00     0.283 C 
ATOM      4  O   UNL A   1      32.445  27.318  22.272  1.00  0.00    -0.268 OA
ATOM      5  H   UNL A   1      33.401  29.292  22.912  1.00  0.00     0.163 HD
BRANCH   3   6
ATOM      6  C   UNL A   1      31.495  27.019  24.544  1.00  0.00     0.308 C 
BRANCH   6   7
ATOM      7  C   UNL A   1      30.044  26.953  24.128  1.00  0.00     0.045 A 
ATOM      8  C   UNL A   1      28.667  30.342  23.084  1.00  0.00     0.121 A 
ATOM      9  C   UNL A   1      27.346  29.897  22.986  1.00  0.00     0.048 A 
ATOM     10  C   UNL A   1      29.628  29.382  23.298  1.00  0.00     0.057 A 
ATOM     11  C   UNL A   1      26.969  28.548  23.159  1.00  0.00     0.030 A 
ATOM     12  C   UNL A   1      29.291  28.056  23.625  1.00  0.00     0.013 A 
ATOM     13  C   UNL A   1      27.969  27.653  23.517  1.00  0.00     0.046 A 
ATOM     14  N   UNL A   1      27.930  26.310  23.795  1.00  0.00    -0.361 N 
ATOM     15  C   UNL A   1      29.172  25.880  24.193  1.00  0.00     0.094 A 
ATOM     16  H   UNL A   1      27.132  25.739  23.720  1.00  0.00     0.166 HD
BRANCH   8  17
ATOM     17  O   UNL A   1      29.243  31.587  22.947  1.00  0.00    -0.479 OA
BRANCH  17  18
ATOM     18  C   UNL A   1      28.455  32.724  22.543  1.00  0.00     0.349 C 
BRANCH  18  19
ATOM     19  C   UNL A   1      28.013  32.411  21.123  1.00  0.00     0.104 C 
ATOM     20  N   UNL A   1      27.646  32.151  19.944  1.00  0.00    -0.195 NA
ENDBRANCH  18  19
ENDBRANCH  17  18
ENDBRANCH   8  17
ENDBRANCH   6   7
BRANCH   6  21
ATOM     21  N   UNL A   1      31.973  25.691  24.970  1.00  0.00    -0.312 N 
ATOM     22  C   UNL A   1      31.959  24.609  23.975  1.00  0.00     0.325 C 
ATOM     23  C   UNL A   1      33.229  25.776  25.724  1.00  0.00     0.325 C 
ATOM     24  H   UNL A   1      31.239  25.379  25.606  1.00  0.00     0.349 HD
ATOM     25  C   UNL A   1      33.291  24.210  23.298  1.00  0.00     0.324 C 
ATOM     26  C   UNL A   1      34.526  25.451  24.959  1.00  0.00     0.324 C 
ATOM     27  N   UNL A   1      34.483  24.234  24.156  1.00  0.00    -0.322 N 
ATOM     28  H   UNL A   1      35.301  24.316  23.553  1.00  0.00     0.348 HD
BRANCH  27  29
ATOM     29  C   UNL A   1      34.875  22.962  24.759  1.00  0.00     0.200 C 
ATOM     30  C   UNL A   1      34.180  21.660  24.325  1.00  0.00     0.082 C 
ATOM     31  C   UNL A   1      34.865  22.984  26.294  1.00  0.00     0.201 C 
ATOM     32  C   UNL A   1      33.031  21.330  25.264  1.00  0.00     0.143 C 
ATOM     33  S   UNL A   1      33.393  22.121  26.812  1.00  0.00     0.156 S 
ATOM     34  O   UNL A   1      32.335  23.068  27.095  1.00  0.00    -0.229 OA
ATOM     35  O   UNL A   1      33.772  21.103  27.773  1.00  0.00    -0.229 OA
ENDBRANCH  27  29
ENDBRANCH   6  21
ENDBRANCH   3   6
ENDBRANCH   1   2
BRANCH   1  36
ATOM     36  C   UNL A   1      32.032  30.266  25.376  1.00  0.00     0.042 C 
BRANCH  36  37
ATOM     37  C   UNL A   1      32.076  30.745  26.825  1.00  0.00     0.118 C 
BRANCH  37  38
ATOM     38  N   UNL A   1      32.048  32.200  26.940  1.00  0.00    -0.352 N 
ATOM     39  C   UNL A   1      32.948  33.030  27.559  1.00  0.00     0.251 C 
ATOM     40  H   UNL A   1      31.280  32.646  26.517  1.00  0.00     0.163 HD
ATOM     41  O   UNL A   1      32.699  34.218  27.724  1.00  0.00    -0.269 OA
BRANCH  39  42
ATOM     42  C   UNL A   1      34.212  32.451  28.045  1.00  0.00     0.039 A 
ATOM     43  C   UNL A   1      35.299  33.290  28.280  1.00  0.00     0.014 A 
ATOM     44  C   UNL A   1      34.280  31.085  28.337  1.00  0.00     0.014 A 
ATOM     45  C   UNL A   1      36.447  32.764  28.871  1.00  0.00     0.010 A 
ATOM     46  C   UNL A   1      35.382  30.589  29.015  1.00  0.00     0.010 A 
ATOM     47  C   UNL A   1      36.483  31.419  29.276  1.00  0.00    -0.014 A 
BRANCH  47  48
ATOM     48  C   UNL A   1      37.674  30.849  29.949  1.00  0.00     0.031 A 
ATOM     49  C   UNL A   1      37.953  31.196  31.385  1.00  0.00     0.074 A 
ATOM     50  C   UNL A   1      38.530  30.075  29.255  1.00  0.00     0.049 A 
ATOM     51  N   UNL A   1      38.970  30.856  32.134  1.00  0.00    -0.248 NA
ATOM     52  C   UNL A   1      36.975  32.067  32.058  1.00  0.00     0.031 C 
ATOM     53  C   UNL A   1      38.394  29.713  27.842  1.00  0.00     0.029 A 
ATOM     54  N   UNL A   1      39.693  29.460  29.644  1.00  0.00    -0.354 N 
ATOM     55  C   UNL A   1      38.761  31.484  33.356  1.00  0.00     0.074 A 
ATOM     56  C   UNL A   1      37.560  32.278  33.227  1.00  0.00     0.031 C 
ATOM     57  C   UNL A   1      39.417  28.915  27.493  1.00  0.00     0.029 A 
ATOM     58  C   UNL A   1      40.300  28.744  28.641  1.00  0.00     0.049 A 
ATOM     59  H   UNL A   1      40.058  29.525  30.556  1.00  0.00     0.167 HD
ATOM     60  C   UNL A   1      39.488  31.384  34.493  1.00  0.00     0.037 A 
ATOM     61  C   UNL A   1      41.446  28.037  28.647  1.00  0.00     0.037 A 
ATOM     62  C   UNL A   1      40.669  30.575  34.621  1.00  0.00     0.049 A 
ATOM     63  C   UNL A   1      42.242  27.949  29.921  1.00  0.00     0.074 A 
ATOM     64  C   UNL A   1      41.449  30.358  35.743  1.00  0.00     0.029 A 
ATOM     65  N   UNL A   1      41.244  29.849  33.588  1.00  0.00    -0.354 N 
ATOM     66  N   UNL A   1      41.995  28.488  31.091  1.00  0.00    -0.248 NA
ATOM     67  C   UNL A   1      43.472  27.147  29.879  1.00  0.00     0.031 C 
ATOM     68  C   UNL A   1      42.525  29.547  35.376  1.00  0.00     0.029 A 
ATOM     69  C   UNL A   1      42.382  29.203  34.040  1.00  0.00     0.049 A 
ATOM     70  H   UNL A   1      40.895  29.800  32.668  1.00  0.00     0.167 HD
ATOM     71  C   UNL A   1      43.016  28.062  31.931  1.00  0.00     0.074 A 
ATOM     72  C   UNL A   1      43.878  27.210  31.139  1.00  0.00     0.031 C 
ATOM     73  C   UNL A   1      43.222  28.348  33.241  1.00  0.00     0.037 A 
BRANCH  60  74
ATOM     74  C   UNL A   1      39.021  32.169  35.685  1.00  0.00     0.057 A 
ATOM     75  C   UNL A   1      38.207  31.602  36.675  1.00  0.00     0.134 A 
ATOM     76  C   UNL A   1      39.409  33.504  35.858  1.00  0.00     0.134 A 
ATOM     77  F   UNL A   1      37.787  30.332  36.564  1.00  0.00    -0.206 F 
ATOM     78  C   UNL A   1      37.773  32.340  37.777  1.00  0.00     0.040 A 
ATOM     79  C   UNL A   1      39.008  34.244  36.972  1.00  0.00     0.040 A 
ATOM     80  F   UNL A   1      40.190  34.110  34.950  1.00  0.00    -0.206 F 
ATOM     81  C   UNL A   1      38.179  33.663  37.931  1.00  0.00     0.006 A 
ENDBRANCH  60  74
BRANCH  61  82
ATOM     82  C   UNL A   1      41.899  27.336  27.419  1.00  0.00     0.057 A 
ATOM     83  C   UNL A   1      42.639  28.004  26.436  1.00  0.00     0.134 A 
ATOM     84  C   UNL A   1      41.595  25.988  27.189  1.00  0.00     0.134 A 
ATOM     85  F   UNL A   1      42.948  29.300  26.589  1.00  0.00    -0.206 F 
ATOM     86  C   UNL A   1      43.036  27.368  25.259  1.00  0.00     0.040 A 
ATOM     87  C   UNL A   1      42.011  25.331  26.031  1.00  0.00     0.040 A 
ATOM     88  F   UNL A   1      40.900  25.287  28.097  1.00  0.00    -0.206 F 
ATOM     89  C   UNL A   1      42.726  26.024  25.056  1.00  0.00     0.006 A 
ENDBRANCH  61  82
BRANCH  73  90
ATOM     90  C   UNL A   1      44.393  27.693  33.913  1.00  0.00     0.057 A 
ATOM     91  C   UNL A   1      45.645  28.314  34.000  1.00  0.00     0.134 A 
ATOM     92  C   UNL A   1      44.249  26.438  34.520  1.00  0.00     0.134 A 
ATOM     93  F   UNL A   1      45.853  29.510  33.429  1.00  0.00    -0.206 F 
ATOM     94  C   UNL A   1      46.720  27.697  34.642  1.00  0.00     0.040 A 
ATOM     95  C   UNL A   1      45.308  25.827  35.193  1.00  0.00     0.040 A 
ATOM     96  F   UNL A   1      43.074  25.793  34.485  1.00  0.00    -0.206 F 
ATOM     97  C   UNL A   1      46.551  26.454  35.249  1.00  0.00     0.006 A 
ENDBRANCH  73  90
ENDBRANCH  47  48
ENDBRANCH  39  42
ENDBRANCH  37  38
ENDBRANCH  36  37
ENDBRANCH   1  36
TORSDOF 16
ENDMDL
MODEL 2
REMARK VINA RESULT:     -12.6      1.294      2.200
REMARK SMILES N#CCOc1ccc2[nH]cc([C@H](C(=O)NCCCNC(=O)c3ccc(-c4c5nc(c(-c6c(F)cccc6F)c6ccc([nH]6)c(-c6c(F)cccc6F)c6nc(c(-c7c(F)cccc7F)c7ccc4[nH]7)C=C6)C=C5)cc3)[NH+]3CC[NH+]([C@@H]4CCS(=O)(=O)C4)CC3)c2c1
REMARK SMILES IDX 16 1 15 2 13 3 14 4 12 6 11 7 5 8 6 9 90 10 7 11 89 12 8 13
REMARK SMILES IDX 9 14 10 15 4 17 3 18 2 19 1 20 76 21 77 22 88 23 78 25 87 26
REMARK SMILES IDX 79 27 80 29 81 30 86 31 82 32 83 33 84 34 85 35 17 36 18 37
REMARK SMILES IDX 19 38 20 39 21 41 22 42 23 43 75 44 24 45 74 46 25 47 26 48
REMARK SMILES IDX 27 49 68 50 28 51 73 52 67 53 69 54 29 55 72 56 66 57 65 58
REMARK SMILES IDX 30 60 56 61 39 62 55 63 40 64 43 65 54 66 70 67 41 68 42 69
REMARK SMILES IDX 53 71 71 72 44 73 31 74 32 75 37 76 33 77 34 78 36 79 38 80
REMARK SMILES IDX 35 81 57 82 58 83 63 84 59 85 60 86 62 87 64 88 61 89 45 90
REMARK SMILES IDX 46 91 51 92 47 93 48 94 50 95 52 96 49 97
REMARK H PARENT 15 5 9 16 76 24 79 28 19 40 69 59 43 70
REMARK Flexibility Score: inf
ROOT
ATOM      1  C   UNL A   1      31.684  30.209  26.240  1.00  0.00     0.118 C 
ENDROOT
BRANCH   1   2
ATOM      2  N   UNL A   1      32.153  30.035  24.888  1.00  0.00    -0.351 N 
ATOM      3  C   UNL A   1      32.540  28.914  24.228  1.00  0.00     0.283 C 
ATOM      4  O   UNL A   1      33.020  29.130  23.114  1.00  0.00    -0.268 OA
ATOM      5  H   UNL A   1      32.203  30.863  24.358  1.00  0.00     0.163 HD
BRANCH   3   6
ATOM      6  C   UNL A   1      32.260  27.511  24.833  1.00  0.00     0.308 C 
BRANCH   6   7
ATOM      7  C   UNL A   1      30.819  27.107  24.627  1.00  0.00     0.045 A 
ATOM      8  C   UNL A   1      28.958  29.472  22.300  1.00  0.00     0.121 A 
ATOM      9  C   UNL A   1      27.707  28.894  22.535  1.00  0.00     0.048 A 
ATOM     10  C   UNL A   1      30.047  28.825  22.834  1.00  0.00     0.057 A 
ATOM     11  C   UNL A   1      27.523  27.743  23.331  1.00  0.00     0.030 A 
ATOM     12  C   UNL A   1      29.905  27.770  23.753  1.00  0.00     0.013 A 
ATOM     13  C   UNL A   1      28.648  27.224  23.960  1.00  0.00     0.046 A 
ATOM     14  N   UNL A   1      28.802  26.162  24.815  1.00  0.00    -0.361 N 
ATOM     15  C   UNL A   1      30.103  26.098  25.249  1.00  0.00     0.094 A 
ATOM     16  H   UNL A   1      28.087  25.540  25.080  1.00  0.00     0.166 HD
BRANCH   8  17
ATOM     17  O   UNL A   1      29.353  30.569  21.564  1.00  0.00    -0.479 OA
BRANCH  17  18
ATOM     18  C   UNL A   1      28.392  31.551  21.129  1.00  0.00     0.349 C 
BRANCH  18  19
ATOM     19  C   UNL A   1      28.529  32.699  22.116  1.00  0.00     0.104 C 
ATOM     20  N   UNL A   1      28.642  33.651  22.936  1.00  0.00    -0.195 NA
ENDBRANCH  18  19
ENDBRANCH  17  18
ENDBRANCH   8  17
ENDBRANCH   6   7
BRANCH   6  21
ATOM     21  N   UNL A   1      33.168  26.451  24.358  1.00  0.00    -0.312 N 
ATOM     22  C   UNL A   1      33.809  25.597  25.369  1.00  0.00     0.325 C 
ATOM     23  C   UNL A   1      32.594  25.699  23.237  1.00  0.00     0.325 C 
ATOM     24  H   UNL A   1      33.970  26.978  24.012  1.00  0.00     0.349 HD
ATOM     25  C   UNL A   1      33.243  24.178  25.604  1.00  0.00     0.324 C 
ATOM     26  C   UNL A   1      31.967  24.330  23.562  1.00  0.00     0.324 C 
ATOM     27  N   UNL A   1      32.778  23.463  24.408  1.00  0.00    -0.322 N 
ATOM     28  H   UNL A   1      32.123  22.742  24.709  1.00  0.00     0.348 HD
BRANCH  27  29
ATOM     29  C   UNL A   1      33.730  22.542  23.790  1.00  0.00     0.200 C 
ATOM     30  C   UNL A   1      33.360  21.060  23.615  1.00  0.00     0.082 C 
ATOM     31  C   UNL A   1      35.124  22.582  24.433  1.00  0.00     0.201 C 
ATOM     32  C   UNL A   1      33.883  20.237  24.781  1.00  0.00     0.143 C 
ATOM     33  S   UNL A   1      35.259  21.130  25.460  1.00  0.00     0.156 S 
ATOM     34  O   UNL A   1      34.949  21.461  26.835  1.00  0.00    -0.229 OA
ATOM     35  O   UNL A   1      36.480  20.432  25.109  1.00  0.00    -0.229 OA
ENDBRANCH  27  29
ENDBRANCH   6  21
ENDBRANCH   3   6
ENDBRANCH   1   2
BRANCH   1  36
ATOM     36  C   UNL A   1      31.507  31.693  26.517  1.00  0.00     0.042 C 
BRANCH  36  37
ATOM     37  C   UNL A   1      32.737  32.339  27.149  1.00  0.00     0.118 C 
BRANCH  37  38
ATOM     38  N   UNL A   1      32.517  33.734  27.516  1.00  0.00    -0.352 N 
ATOM     39  C   UNL A   1      33.136  34.474  28.491  1.00  0.00     0.251 C 
ATOM     40  H   UNL A   1      31.832  34.209  26.993  1.00  0.00     0.163 HD
ATOM     41  O   UNL A   1      32.720  35.585  28.797  1.00  0.00    -0.269 OA
BRANCH  39  42
ATOM     42  C   UNL A   1      34.297  33.887  29.181  1.00  0.00     0.039 A 
ATOM     43  C   UNL A   1      34.088  32.964  30.203  1.00  0.00     0.014 A 
ATOM     44  C   UNL A   1      35.590  34.205  28.751  1.00  0.00     0.014 A 
ATOM     45  C   UNL A   1      35.183  32.307  30.759  1.00  0.00     0.010 A 
ATOM     46  C   UNL A   1      36.665  33.477  29.235  1.00  0.00     0.010 A 
ATOM     47  C   UNL A   1      36.475  32.531  30.255  1.00  0.00    -0.014 A 
BRANCH  47  48
ATOM     48  C   UNL A   1      37.650  31.809  30.798  1.00  0.00     0.031 A 
ATOM     49  C   UNL A   1      38.173  32.160  32.163  1.00  0.00     0.074 A 
ATOM     50  C   UNL A   1      38.279  30.889  30.042  1.00  0.00     0.049 A 
ATOM     51  N   UNL A   1      39.222  31.695  32.791  1.00  0.00    -0.248 NA
ATOM     52  C   UNL A   1      37.437  33.195  32.908  1.00  0.00     0.031 C 
ATOM     53  C   UNL A   1      37.898  30.501  28.682  1.00  0.00     0.029 A 
ATOM     54  N   UNL A   1      39.381  30.116  30.310  1.00  0.00    -0.354 N 
ATOM     55  C   UNL A   1      39.278  32.391  33.992  1.00  0.00     0.074 A 
ATOM     56  C   UNL A   1      38.201  33.355  33.977  1.00  0.00     0.031 C 
ATOM     57  C   UNL A   1      38.734  29.544  28.247  1.00  0.00     0.029 A 
ATOM     58  C   UNL A   1      39.732  29.280  29.277  1.00  0.00     0.049 A 
ATOM     59  H   UNL A   1      39.874  30.157  31.161  1.00  0.00     0.167 HD
ATOM     60  C   UNL A   1      40.132  32.221  35.028  1.00  0.00     0.037 A 
ATOM     61  C   UNL A   1      40.750  28.405  29.174  1.00  0.00     0.037 A 
ATOM     62  C   UNL A   1      41.188  31.245  35.046  1.00  0.00     0.049 A 
ATOM     63  C   UNL A   1      41.693  28.242  30.335  1.00  0.00     0.074 A 
ATOM     64  C   UNL A   1      42.074  30.952  36.066  1.00  0.00     0.029 A 
ATOM     65  N   UNL A   1      41.502  30.402  33.988  1.00  0.00    -0.354 N 
ATOM     66  N   UNL A   1      41.692  28.854  31.496  1.00  0.00    -0.248 NA
ATOM     67  C   UNL A   1      42.773  27.259  30.178  1.00  0.00     0.031 C 
ATOM     68  C   UNL A   1      42.958  29.971  35.608  1.00  0.00     0.029 A 
ATOM     69  C   UNL A   1      42.583  29.607  34.324  1.00  0.00     0.049 A 
ATOM     70  H   UNL A   1      41.025  30.375  33.127  1.00  0.00     0.167 HD
ATOM     71  C   UNL A   1      42.745  28.307  32.218  1.00  0.00     0.074 A 
ATOM     72  C   UNL A   1      43.354  27.305  31.368  1.00  0.00     0.031 C 
ATOM     73  C   UNL A   1      43.169  28.604  33.470  1.00  0.00     0.037 A 
BRANCH  60  74
ATOM     74  C   UNL A   1      39.955  33.111  36.224  1.00  0.00     0.057 A 
ATOM     75  C   UNL A   1      40.645  34.325  36.355  1.00  0.00     0.134 A 
ATOM     76  C   UNL A   1      39.068  32.763  37.249  1.00  0.00     0.134 A 
ATOM     77  F   UNL A   1      41.522  34.713  35.416  1.00  0.00    -0.206 F 
ATOM     78  C   UNL A   1      40.479  35.144  37.472  1.00  0.00     0.040 A 
ATOM     79  C   UNL A   1      38.869  33.588  38.358  1.00  0.00     0.040 A 
ATOM     80  F   UNL A   1      38.372  31.616  37.189  1.00  0.00    -0.206 F 
ATOM     81  C   UNL A   1      39.583  34.779  38.475  1.00  0.00     0.006 A 
ENDBRANCH  60  74
BRANCH  61  82
ATOM     82  C   UNL A   1      40.921  27.600  27.938  1.00  0.00     0.057 A 
ATOM     83  C   UNL A   1      40.297  26.354  27.795  1.00  0.00     0.134 A 
ATOM     84  C   UNL A   1      41.718  28.046  26.876  1.00  0.00     0.134 A 
ATOM     85  F   UNL A   1      39.534  25.864  28.783  1.00  0.00    -0.206 F 
ATOM     86  C   UNL A   1      40.482  25.569  26.655  1.00  0.00     0.040 A 
ATOM     87  C   UNL A   1      41.888  27.285  25.719  1.00  0.00     0.040 A 
ATOM     88  F   UNL A   1      42.333  29.235  26.945  1.00  0.00    -0.206 F 
ATOM     89  C   UNL A   1      41.276  26.038  25.610  1.00  0.00     0.006 A 
ENDBRANCH  61  82
BRANCH  73  90
ATOM     90  C   UNL A   1      44.313  27.802  34.019  1.00  0.00     0.057 A 
ATOM     91  C   UNL A   1      44.121  26.572  34.660  1.00  0.00     0.134 A 
ATOM     92  C   UNL A   1      45.631  28.251  33.862  1.00  0.00     0.134 A 
ATOM     93  F   UNL A   1      42.884  26.090  34.853  1.00  0.00    -0.206 F 
ATOM     94  C   UNL A   1      45.198  25.831  35.150  1.00  0.00     0.040 A 
ATOM     95  C   UNL A   1      46.717  27.504  34.319  1.00  0.00     0.040 A 
ATOM     96  F   UNL A   1      45.886  29.415  33.246  1.00  0.00    -0.206 F 
ATOM     97  C   UNL A   1      46.501  26.292  34.972  1.00  0.00     0.006 A 
ENDBRANCH  73  90
ENDBRANCH  47  48
ENDBRANCH  39  42
ENDBRANCH  37  38
ENDBRANCH  36  37
ENDBRANCH   1  36
TORSDOF 16
ENDMDL
MODEL 3
REMARK VINA RESULT:     -12.6      0.550      5.948
REMARK SMILES N#CCOc1ccc2[nH]cc([C@H](C(=O)NCCCNC(=O)c3ccc(-c4c5nc(c(-c6c(F)cccc6F)c6ccc([nH]6)c(-c6c(F)cccc6F)c6nc(c(-c7c(F)cccc7F)c7ccc4[nH]7)C=C6)C=C5)cc3)[NH+]3CC[NH+]([C@@H]4CCS(=O)(=O)C4)CC3)c2c1
REMARK SMILES IDX 16 1 15 2 13 3 14 4 12 6 11 7 5 8 6 9 90 10 7 11 89 12 8 13
REMARK SMILES IDX 9 14 10 15 4 17 3 18 2 19 1 20 76 21 77 22 88 23 78 25 87 26
REMARK SMILES IDX 79 27 80 29 81 30 86 31 82 32 83 33 84 34 85 35 17 36 18 37
REMARK SMILES IDX 19 38 20 39 21 41 22 42 23 43 75 44 24 45 74 46 25 47 26 48
REMARK SMILES IDX 27 49 68 50 28 51 73 52 67 53 69 54 29 55 72 56 66 57 65 58
REMARK SMILES IDX 30 60 56 61 39 62 55 63 40 64 43 65 54 66 70 67 41 68 42 69
REMARK SMILES IDX 53 71 71 72 44 73 31 74 32 75 37 76 33 77 34 78 36 79 38 80
REMARK SMILES IDX 35 81 57 82 58 83 63 84 59 85 60 86 62 87 64 88 61 89 45 90
REMARK SMILES IDX 46 91 51 92 47 93 48 94 50 95 52 96 49 97
REMARK H PARENT 15 5 9 16 76 24 79 28 19 40 69 59 43 70
REMARK Flexibility Score: inf
ROOT
ATOM      1  C   UNL A   1      33.237  29.406  24.933  1.00  0.00     0.118 C 
ENDROOT
BRANCH   1   2
ATOM      2  N   UNL A   1      32.964  28.819  23.645  1.00  0.00    -0.351 N 
ATOM      3  C   UNL A   1      32.332  27.662  23.321  1.00  0.00     0.283 C 
ATOM      4  O   UNL A   1      32.384  27.383  22.123  1.00  0.00    -0.268 OA
ATOM      5  H   UNL A   1      33.288  29.341  22.877  1.00  0.00     0.163 HD
BRANCH   3   6
ATOM      6  C   UNL A   1      31.531  26.878  24.397  1.00  0.00     0.308 C 
BRANCH   6   7
ATOM      7  C   UNL A   1      30.060  26.835  24.056  1.00  0.00     0.045 A 
ATOM      8  C   UNL A   1      28.687  30.244  23.077  1.00  0.00     0.121 A 
ATOM      9  C   UNL A   1      27.355  29.821  23.048  1.00  0.00     0.048 A 
ATOM     10  C   UNL A   1      29.642  29.268  23.243  1.00  0.00     0.057 A 
ATOM     11  C   UNL A   1      26.965  28.479  23.244  1.00  0.00     0.030 A 
ATOM     12  C   UNL A   1      29.300  27.950  23.590  1.00  0.00     0.013 A 
ATOM     13  C   UNL A   1      27.967  27.568  23.552  1.00  0.00     0.046 A 
ATOM     14  N   UNL A   1      27.921  26.226  23.835  1.00  0.00    -0.361 N 
ATOM     15  C   UNL A   1      29.174  25.776  24.170  1.00  0.00     0.094 A 
ATOM     16  H   UNL A   1      27.110  25.669  23.804  1.00  0.00     0.166 HD
BRANCH   8  17
ATOM     17  O   UNL A   1      29.275  31.480  22.906  1.00  0.00    -0.479 OA
BRANCH  17  18
ATOM     18  C   UNL A   1      28.476  32.645  22.620  1.00  0.00     0.349 C 
BRANCH  18  19
ATOM     19  C   UNL A   1      28.037  32.475  21.175  1.00  0.00     0.104 C 
ATOM     20  N   UNL A   1      27.673  32.334  19.975  1.00  0.00    -0.195 NA
ENDBRANCH  18  19
ENDBRANCH  17  18
ENDBRANCH   8  17
ENDBRANCH   6   7
BRANCH   6  21
ATOM     21  N   UNL A   1      32.041  25.520  24.664  1.00  0.00    -0.312 N 
ATOM     22  C   UNL A   1      32.730  24.822  23.568  1.00  0.00     0.325 C 
ATOM     23  C   UNL A   1      32.753  25.443  25.944  1.00  0.00     0.325 C 
ATOM     24  H   UNL A   1      31.187  24.967  24.739  1.00  0.00     0.349 HD
ATOM     25  C   UNL A   1      34.275  24.760  23.587  1.00  0.00     0.324 C 
ATOM     26  C   UNL A   1      34.292  25.477  25.891  1.00  0.00     0.324 C 
ATOM     27  N   UNL A   1      34.897  24.586  24.906  1.00  0.00    -0.322 N 
ATOM     28  H   UNL A   1      35.859  24.918  24.844  1.00  0.00     0.348 HD
BRANCH  27  29
ATOM     29  C   UNL A   1      35.240  23.219  25.289  1.00  0.00     0.200 C 
ATOM     30  C   UNL A   1      35.177  22.091  24.245  1.00  0.00     0.082 C 
ATOM     31  C   UNL A   1      34.481  22.723  26.529  1.00  0.00     0.201 C 
ATOM     32  C   UNL A   1      33.835  21.381  24.305  1.00  0.00     0.143 C 
ATOM     33  S   UNL A   1      33.199  21.630  25.944  1.00  0.00     0.156 S 
ATOM     34  O   UNL A   1      31.944  22.346  25.839  1.00  0.00    -0.229 OA
ATOM     35  O   UNL A   1      33.295  20.379  26.672  1.00  0.00    -0.229 OA
ENDBRANCH  27  29
ENDBRANCH   6  21
ENDBRANCH   3   6
ENDBRANCH   1   2
BRANCH   1  36
ATOM     36  C   UNL A   1      32.024  30.202  25.384  1.00  0.00     0.042 C 
BRANCH  36  37
ATOM     37  C   UNL A   1      32.142  30.721  26.815  1.00  0.00     0.118 C 
BRANCH  37  38
ATOM     38  N   UNL A   1      32.023  32.174  26.900  1.00  0.00    -0.352 N 
ATOM     39  C   UNL A   1      32.850  33.067  27.531  1.00  0.00     0.251 C 
ATOM     40  H   UNL A   1      31.245  32.565  26.443  1.00  0.00     0.163 HD
ATOM     41  O   UNL A   1      32.525  34.241  27.664  1.00  0.00    -0.269 OA
BRANCH  39  42
ATOM     42  C   UNL A   1      34.129  32.575  28.070  1.00  0.00     0.039 A 
ATOM     43  C   UNL A   1      35.195  33.461  28.213  1.00  0.00     0.014 A 
ATOM     44  C   UNL A   1      34.233  31.248  28.501  1.00  0.00     0.014 A 
ATOM     45  C   UNL A   1      36.356  33.030  28.851  1.00  0.00     0.010 A 
ATOM     46  C   UNL A   1      35.349  30.854  29.223  1.00  0.00     0.010 A 
ATOM     47  C   UNL A   1      36.428  31.735  29.392  1.00  0.00    -0.014 A 
BRANCH  47  48
ATOM     48  C   UNL A   1      37.634  31.269  30.116  1.00  0.00     0.031 A 
ATOM     49  C   UNL A   1      38.614  30.364  29.423  1.00  0.00     0.074 A 
ATOM     50  C   UNL A   1      37.813  31.606  31.407  1.00  0.00     0.049 A 
ATOM     51  N   UNL A   1      39.692  29.795  29.896  1.00  0.00    -0.248 NA
ATOM     52  C   UNL A   1      38.325  30.027  28.018  1.00  0.00     0.031 C 
ATOM     53  C   UNL A   1      36.904  32.435  32.204  1.00  0.00     0.029 A 
ATOM     54  N   UNL A   1      38.821  31.286  32.282  1.00  0.00    -0.354 N 
ATOM     55  C   UNL A   1      40.198  29.025  28.856  1.00  0.00     0.074 A 
ATOM     56  C   UNL A   1      39.274  29.144  27.750  1.00  0.00     0.031 C 
ATOM     57  C   UNL A   1      37.411  32.581  33.439  1.00  0.00     0.029 A 
ATOM     58  C   UNL A   1      38.655  31.824  33.535  1.00  0.00     0.049 A 
ATOM     59  H   UNL A   1      39.589  30.723  32.035  1.00  0.00     0.167 HD
ATOM     60  C   UNL A   1      41.344  28.307  28.815  1.00  0.00     0.037 A 
ATOM     61  C   UNL A   1      39.419  31.713  34.638  1.00  0.00     0.037 A 
ATOM     62  C   UNL A   1      42.270  28.211  29.911  1.00  0.00     0.049 A 
ATOM     63  C   UNL A   1      40.683  30.901  34.571  1.00  0.00     0.074 A 
ATOM     64  C   UNL A   1      43.487  27.556  29.957  1.00  0.00     0.029 A 
ATOM     65  N   UNL A   1      42.077  28.786  31.160  1.00  0.00    -0.354 N 
ATOM     66  N   UNL A   1      41.189  30.237  33.558  1.00  0.00    -0.248 NA
ATOM     67  C   UNL A   1      41.490  30.830  35.796  1.00  0.00     0.031 C 
ATOM     68  C   UNL A   1      44.005  27.689  31.248  1.00  0.00     0.029 A 
ATOM     69  C   UNL A   1      43.141  28.481  31.989  1.00  0.00     0.049 A 
ATOM     70  H   UNL A   1      41.297  29.330  31.417  1.00  0.00     0.167 HD
ATOM     71  C   UNL A   1      42.387  29.700  34.014  1.00  0.00     0.074 A 
ATOM     72  C   UNL A   1      42.538  30.127  35.389  1.00  0.00     0.031 C 
ATOM     73  C   UNL A   1      43.282  28.926  33.353  1.00  0.00     0.037 A 
BRANCH  60  74
ATOM     74  C   UNL A   1      41.657  27.573  27.543  1.00  0.00     0.057 A 
ATOM     75  C   UNL A   1      42.333  28.187  26.479  1.00  0.00     0.134 A 
ATOM     76  C   UNL A   1      41.299  26.228  27.388  1.00  0.00     0.134 A 
ATOM     77  F   UNL A   1      42.692  29.477  26.556  1.00  0.00    -0.206 F 
ATOM     78  C   UNL A   1      42.615  27.499  25.298  1.00  0.00     0.040 A 
ATOM     79  C   UNL A   1      41.603  25.520  26.224  1.00  0.00     0.040 A 
ATOM     80  F   UNL A   1      40.652  25.577  28.367  1.00  0.00    -0.206 F 
ATOM     81  C   UNL A   1      42.256  26.159  25.171  1.00  0.00     0.006 A 
ENDBRANCH  60  74
BRANCH  61  82
ATOM     82  C   UNL A   1      39.026  32.404  35.893  1.00  0.00     0.057 A 
ATOM     83  C   UNL A   1      39.444  33.713  36.159  1.00  0.00     0.134 A 
ATOM     84  C   UNL A   1      38.234  31.772  36.860  1.00  0.00     0.134 A 
ATOM     85  F   UNL A   1      40.218  34.367  35.279  1.00  0.00    -0.206 F 
ATOM     86  C   UNL A   1      39.115  34.359  37.352  1.00  0.00     0.040 A 
ATOM     87  C   UNL A   1      37.873  32.416  38.044  1.00  0.00     0.040 A 
ATOM     88  F   UNL A   1      37.790  30.523  36.661  1.00  0.00    -0.206 F 
ATOM     89  C   UNL A   1      38.321  33.711  38.297  1.00  0.00     0.006 A 
ENDBRANCH  61  82
BRANCH  73  90
ATOM     90  C   UNL A   1      44.530  28.534  34.090  1.00  0.00     0.057 A 
ATOM     91  C   UNL A   1      44.623  27.341  34.817  1.00  0.00     0.134 A 
ATOM     92  C   UNL A   1      45.670  29.348  34.032  1.00  0.00     0.134 A 
ATOM     93  F   UNL A   1      43.565  26.523  34.921  1.00  0.00    -0.206 F 
ATOM     94  C   UNL A   1      45.796  26.985  35.483  1.00  0.00     0.040 A 
ATOM     95  C   UNL A   1      46.858  28.985  34.668  1.00  0.00     0.040 A 
ATOM     96  F   UNL A   1      45.653  30.498  33.344  1.00  0.00    -0.206 F 
ATOM     97  C   UNL A   1      46.921  27.803  35.403  1.00  0.00     0.006 A 
ENDBRANCH  73  90
ENDBRANCH  47  48
ENDBRANCH  39  42
ENDBRANCH  37  38
ENDBRANCH  36  37
ENDBRANCH   1  36
TORSDOF 16
ENDMDL
