MODEL 1
REMARK VINA RESULT:     -12.0      0.000      0.000
REMARK SMILES C[C@@H]1[C@@H](C(=O)NCCCNC(=O)c2ccc(-c3c4nc(c(-c5c(F)cccc5F)c5ccc([nH]5)c(-c5c(F)cccc5F)c5nc(c(-c6c(F)cccc6F)c6ccc3[nH]6)C=C5)C=C4)cc2)CCN1C(=O)N[C@@H](C)Cc1ccco1
REMARK SMILES IDX 7 1 6 2 4 3 5 4 3 6 1 7 2 8 69 9 67 10 68 11 70 12 71 13
REMARK SMILES IDX 72 14 73 16 74 17 75 18 76 19 77 20 80 21 78 22 79 23 8 24
REMARK SMILES IDX 9 25 10 26 11 27 12 29 13 30 14 31 66 32 15 33 65 34 16 35
REMARK SMILES IDX 17 36 18 37 59 38 19 39 64 40 58 41 60 42 20 43 63 44 57 45
REMARK SMILES IDX 56 46 21 48 47 49 30 50 46 51 31 52 34 53 45 54 61 55 32 56
REMARK SMILES IDX 33 57 44 59 62 60 35 61 22 62 23 63 28 64 24 65 25 66 27 67
REMARK SMILES IDX 29 68 26 69 48 70 49 71 54 72 50 73 51 74 53 75 55 76 52 77
REMARK SMILES IDX 36 78 37 79 42 80 38 81 39 82 41 83 43 84 40 85
REMARK H PARENT 6 5 72 15 10 28 60 47 34 58
REMARK Flexibility Score: inf
ROOT
ATOM      1  C   UNL A   1      36.878  20.968  25.044  1.00  0.00     0.117 C 
ENDROOT
BRANCH   1   2
ATOM      2  N   UNL A   1      35.566  20.370  25.147  1.00  0.00    -0.356 N 
ATOM      3  C   UNL A   1      34.338  20.924  25.007  1.00  0.00     0.225 C 
ATOM      4  O   UNL A   1      33.396  20.252  25.424  1.00  0.00    -0.275 OA
ATOM      5  H   UNL A   1      35.565  19.406  25.349  1.00  0.00     0.163 HD
BRANCH   3   6
ATOM      6  C   UNL A   1      34.184  22.339  24.464  1.00  0.00     0.102 C 
ATOM      7  C   UNL A   1      34.582  24.696  25.280  1.00  0.00     0.032 C 
ATOM      8  C   UNL A   1      33.966  23.337  25.628  1.00  0.00     0.096 C 
ATOM      9  N   UNL A   1      32.505  23.430  25.772  1.00  0.00    -0.321 N 
ATOM     10  C   UNL A   1      32.932  22.572  23.616  1.00  0.00     0.037 C 
ATOM     11  C   UNL A   1      31.848  22.796  24.645  1.00  0.00     0.122 C 
BRANCH   9  12
ATOM     12  C   UNL A   1      31.705  23.874  26.776  1.00  0.00     0.317 C 
ATOM     13  O   UNL A   1      31.336  23.113  27.678  1.00  0.00    -0.249 OA
ATOM     14  N   UNL A   1      31.248  25.129  26.872  1.00  0.00    -0.335 N 
ATOM     15  H   UNL A   1      30.601  25.226  27.609  1.00  0.00     0.165 HD
BRANCH  14  16
ATOM     16  C   UNL A   1      31.459  26.393  26.168  1.00  0.00     0.088 C 
ATOM     17  C   UNL A   1      30.454  26.477  25.019  1.00  0.00     0.031 C 
BRANCH  16  18
ATOM     18  C   UNL A   1      31.307  27.609  27.104  1.00  0.00     0.100 C 
BRANCH  18  19
ATOM     19  C   UNL A   1      32.481  28.521  27.070  1.00  0.00     0.105 A 
ATOM     20  C   UNL A   1      33.833  28.308  26.893  1.00  0.00     0.045 A 
ATOM     21  O   UNL A   1      32.232  29.849  27.230  1.00  0.00    -0.469 OA
ATOM     22  C   UNL A   1      34.443  29.584  26.920  1.00  0.00     0.042 A 
ATOM     23  C   UNL A   1      33.427  30.488  27.120  1.00  0.00     0.195 A 
ENDBRANCH  18  19
ENDBRANCH  16  18
ENDBRANCH  14  16
ENDBRANCH   9  12
ENDBRANCH   3   6
ENDBRANCH   1   2
BRANCH   1  24
ATOM     24  C   UNL A   1      37.971  19.916  24.994  1.00  0.00     0.042 C 
BRANCH  24  25
ATOM     25  C   UNL A   1      39.215  20.280  25.789  1.00  0.00     0.118 C 
BRANCH  25  26
ATOM     26  N   UNL A   1      40.158  19.177  25.910  1.00  0.00    -0.352 N 
ATOM     27  C   UNL A   1      41.517  19.193  26.122  1.00  0.00     0.251 C 
ATOM     28  H   UNL A   1      39.762  18.280  25.825  1.00  0.00     0.163 HD
ATOM     29  O   UNL A   1      42.171  18.166  26.007  1.00  0.00    -0.269 OA
BRANCH  27  30
ATOM     30  C   UNL A   1      42.189  20.468  26.456  1.00  0.00     0.039 A 
ATOM     31  C   UNL A   1      42.721  21.245  25.424  1.00  0.00     0.014 A 
ATOM     32  C   UNL A   1      42.271  20.906  27.776  1.00  0.00     0.014 A 
ATOM     33  C   UNL A   1      43.251  22.503  25.716  1.00  0.00     0.010 A 
ATOM     34  C   UNL A   1      42.682  22.204  28.048  1.00  0.00     0.010 A 
ATOM     35  C   UNL A   1      43.187  23.014  27.022  1.00  0.00    -0.014 A 
BRANCH  35  36
ATOM     36  C   UNL A   1      43.659  24.384  27.346  1.00  0.00     0.031 A 
ATOM     37  C   UNL A   1      42.675  25.433  27.792  1.00  0.00     0.074 A 
ATOM     38  C   UNL A   1      44.956  24.705  27.170  1.00  0.00     0.049 A 
ATOM     39  N   UNL A   1      42.875  26.703  28.041  1.00  0.00    -0.248 NA
ATOM     40  C   UNL A   1      41.274  25.008  27.943  1.00  0.00     0.031 C 
ATOM     41  C   UNL A   1      46.000  23.796  26.692  1.00  0.00     0.029 A 
ATOM     42  N   UNL A   1      45.619  25.890  27.367  1.00  0.00    -0.354 N 
ATOM     43  C   UNL A   1      41.628  27.224  28.361  1.00  0.00     0.074 A 
ATOM     44  C   UNL A   1      40.667  26.154  28.207  1.00  0.00     0.031 C 
ATOM     45  C   UNL A   1      47.174  24.445  26.668  1.00  0.00     0.029 A 
ATOM     46  C   UNL A   1      46.962  25.827  27.081  1.00  0.00     0.049 A 
ATOM     47  H   UNL A   1      45.174  26.710  27.685  1.00  0.00     0.167 HD
ATOM     48  C   UNL A   1      41.313  28.473  28.777  1.00  0.00     0.037 A 
ATOM     49  C   UNL A   1      47.912  26.779  27.140  1.00  0.00     0.037 A 
ATOM     50  C   UNL A   1      42.274  29.528  28.956  1.00  0.00     0.049 A 
ATOM     51  C   UNL A   1      47.535  28.163  27.591  1.00  0.00     0.074 A 
ATOM     52  C   UNL A   1      42.067  30.812  29.427  1.00  0.00     0.029 A 
ATOM     53  N   UNL A   1      43.627  29.419  28.667  1.00  0.00    -0.354 N 
ATOM     54  N   UNL A   1      46.363  28.623  27.958  1.00  0.00    -0.248 NA
ATOM     55  C   UNL A   1      48.613  29.159  27.644  1.00  0.00     0.031 C 
ATOM     56  C   UNL A   1      43.284  31.497  29.375  1.00  0.00     0.029 A 
ATOM     57  C   UNL A   1      44.262  30.622  28.928  1.00  0.00     0.049 A 
ATOM     58  H   UNL A   1      44.069  28.608  28.327  1.00  0.00     0.167 HD
ATOM     59  C   UNL A   1      46.569  29.950  28.314  1.00  0.00     0.074 A 
ATOM     60  C   UNL A   1      47.982  30.216  28.133  1.00  0.00     0.031 C 
ATOM     61  C   UNL A   1      45.671  30.867  28.752  1.00  0.00     0.037 A 
BRANCH  48  62
ATOM     62  C   UNL A   1      39.869  28.760  29.074  1.00  0.00     0.057 A 
ATOM     63  C   UNL A   1      38.986  29.217  28.086  1.00  0.00     0.134 A 
ATOM     64  C   UNL A   1      39.347  28.551  30.357  1.00  0.00     0.134 A 
ATOM     65  F   UNL A   1      39.423  29.452  26.839  1.00  0.00    -0.206 F 
ATOM     66  C   UNL A   1      37.645  29.483  28.369  1.00  0.00     0.040 A 
ATOM     67  C   UNL A   1      38.000  28.784  30.644  1.00  0.00     0.040 A 
ATOM     68  F   UNL A   1      40.134  28.111  31.350  1.00  0.00    -0.206 F 
ATOM     69  C   UNL A   1      37.147  29.259  29.650  1.00  0.00     0.006 A 
ENDBRANCH  48  62
BRANCH  49  70
ATOM     70  C   UNL A   1      49.318  26.454  26.787  1.00  0.00     0.057 A 
ATOM     71  C   UNL A   1      49.809  26.677  25.495  1.00  0.00     0.134 A 
ATOM     72  C   UNL A   1      50.200  25.899  27.723  1.00  0.00     0.134 A 
ATOM     73  F   UNL A   1      49.007  27.190  24.549  1.00  0.00    -0.206 F 
ATOM     74  C   UNL A   1      51.116  26.341  25.139  1.00  0.00     0.040 A 
ATOM     75  C   UNL A   1      51.518  25.585  27.389  1.00  0.00     0.040 A 
ATOM     76  F   UNL A   1      49.797  25.669  28.981  1.00  0.00    -0.206 F 
ATOM     77  C   UNL A   1      51.976  25.797  26.090  1.00  0.00     0.006 A 
ENDBRANCH  49  70
BRANCH  61  78
ATOM     78  C   UNL A   1      46.194  32.228  29.108  1.00  0.00     0.057 A 
ATOM     79  C   UNL A   1      46.273  33.263  28.168  1.00  0.00     0.134 A 
ATOM     80  C   UNL A   1      46.584  32.517  30.422  1.00  0.00     0.134 A 
ATOM     81  F   UNL A   1      45.925  33.050  26.889  1.00  0.00    -0.206 F 
ATOM     82  C   UNL A   1      46.744  34.530  28.516  1.00  0.00     0.040 A 
ATOM     83  C   UNL A   1      47.029  33.787  30.789  1.00  0.00     0.040 A 
ATOM     84  F   UNL A   1      46.525  31.573  31.374  1.00  0.00    -0.206 F 
ATOM     85  C   UNL A   1      47.117  34.796  29.832  1.00  0.00     0.006 A 
ENDBRANCH  61  78
ENDBRANCH  35  36
ENDBRANCH  27  30
ENDBRANCH  25  26
ENDBRANCH  24  25
ENDBRANCH   1  24
TORSDOF 14
ENDMDL
MODEL 2
REMARK VINA RESULT:     -11.8      5.032      9.803
REMARK SMILES C[C@@H]1[C@@H](C(=O)NCCCNC(=O)c2ccc(-c3c4nc(c(-c5c(F)cccc5F)c5ccc([nH]5)c(-c5c(F)cccc5F)c5nc(c(-c6c(F)cccc6F)c6ccc3[nH]6)C=C5)C=C4)cc2)CCN1C(=O)N[C@@H](C)Cc1ccco1
REMARK SMILES IDX 7 1 6 2 4 3 5 4 3 6 1 7 2 8 69 9 67 10 68 11 70 12 71 13
REMARK SMILES IDX 72 14 73 16 74 17 75 18 76 19 77 20 80 21 78 22 79 23 8 24
REMARK SMILES IDX 9 25 10 26 11 27 12 29 13 30 14 31 66 32 15 33 65 34 16 35
REMARK SMILES IDX 17 36 18 37 59 38 19 39 64 40 58 41 60 42 20 43 63 44 57 45
REMARK SMILES IDX 56 46 21 48 47 49 30 50 46 51 31 52 34 53 45 54 61 55 32 56
REMARK SMILES IDX 33 57 44 59 62 60 35 61 22 62 23 63 28 64 24 65 25 66 27 67
REMARK SMILES IDX 29 68 26 69 48 70 49 71 54 72 50 73 51 74 53 75 55 76 52 77
REMARK SMILES IDX 36 78 37 79 42 80 38 81 39 82 41 83 43 84 40 85
REMARK H PARENT 6 5 72 15 10 28 60 47 34 58
REMARK Flexibility Score: inf
ROOT
ATOM      1  C   UNL A   1      31.569  30.727  26.210  1.00  0.00     0.117 C 
ENDROOT
BRANCH   1   2
ATOM      2  N   UNL A   1      31.154  30.416  24.860  1.00  0.00    -0.356 N 
ATOM      3  C   UNL A   1      31.102  29.227  24.213  1.00  0.00     0.225 C 
ATOM      4  O   UNL A   1      30.982  29.287  22.990  1.00  0.00    -0.275 OA
ATOM      5  H   UNL A   1      30.862  31.191  24.327  1.00  0.00     0.163 HD
BRANCH   3   6
ATOM      6  C   UNL A   1      31.295  27.921  24.973  1.00  0.00     0.102 C 
ATOM      7  C   UNL A   1      33.225  26.551  25.854  1.00  0.00     0.032 C 
ATOM      8  C   UNL A   1      32.676  27.307  24.640  1.00  0.00     0.096 C 
ATOM      9  N   UNL A   1      32.418  26.398  23.512  1.00  0.00    -0.321 N 
ATOM     10  C   UNL A   1      30.345  26.792  24.569  1.00  0.00     0.037 C 
ATOM     11  C   UNL A   1      30.991  26.220  23.327  1.00  0.00     0.122 C 
BRANCH   9  12
ATOM     12  C   UNL A   1      33.231  25.821  22.589  1.00  0.00     0.317 C 
ATOM     13  O   UNL A   1      33.655  26.468  21.624  1.00  0.00    -0.249 OA
ATOM     14  N   UNL A   1      33.624  24.542  22.630  1.00  0.00    -0.335 N 
ATOM     15  H   UNL A   1      34.123  24.288  21.819  1.00  0.00     0.165 HD
BRANCH  14  16
ATOM     16  C   UNL A   1      33.507  23.425  23.566  1.00  0.00     0.088 C 
ATOM     17  C   UNL A   1      32.229  22.654  23.236  1.00  0.00     0.031 C 
BRANCH  16  18
ATOM     18  C   UNL A   1      34.731  22.488  23.504  1.00  0.00     0.100 C 
BRANCH  18  19
ATOM     19  C   UNL A   1      35.806  22.871  24.457  1.00  0.00     0.105 A 
ATOM     20  C   UNL A   1      35.924  23.884  25.387  1.00  0.00     0.045 A 
ATOM     21  O   UNL A   1      36.925  22.096  24.464  1.00  0.00    -0.469 OA
ATOM     22  C   UNL A   1      37.175  23.701  26.019  1.00  0.00     0.042 A 
ATOM     23  C   UNL A   1      37.742  22.596  25.429  1.00  0.00     0.195 A 
ENDBRANCH  18  19
ENDBRANCH  16  18
ENDBRANCH  14  16
ENDBRANCH   9  12
ENDBRANCH   3   6
ENDBRANCH   1   2
BRANCH   1  24
ATOM     24  C   UNL A   1      31.405  32.204  26.519  1.00  0.00     0.042 C 
BRANCH  24  25
ATOM     25  C   UNL A   1      32.593  32.818  27.244  1.00  0.00     0.118 C 
BRANCH  25  26
ATOM     26  N   UNL A   1      32.372  34.205  27.628  1.00  0.00    -0.352 N 
ATOM     27  C   UNL A   1      32.982  34.962  28.601  1.00  0.00     0.251 C 
ATOM     28  H   UNL A   1      31.678  34.674  27.111  1.00  0.00     0.163 HD
ATOM     29  O   UNL A   1      32.530  36.058  28.901  1.00  0.00    -0.269 OA
BRANCH  27  30
ATOM     30  C   UNL A   1      34.167  34.428  29.307  1.00  0.00     0.039 A 
ATOM     31  C   UNL A   1      33.989  33.759  30.520  1.00  0.00     0.014 A 
ATOM     32  C   UNL A   1      35.443  34.563  28.762  1.00  0.00     0.014 A 
ATOM     33  C   UNL A   1      35.084  33.148  31.134  1.00  0.00     0.010 A 
ATOM     34  C   UNL A   1      36.503  33.853  29.306  1.00  0.00     0.010 A 
ATOM     35  C   UNL A   1      36.340  33.146  30.505  1.00  0.00    -0.014 A 
BRANCH  35  36
ATOM     36  C   UNL A   1      37.501  32.428  31.088  1.00  0.00     0.031 A 
ATOM     37  C   UNL A   1      38.128  32.923  32.364  1.00  0.00     0.074 A 
ATOM     38  C   UNL A   1      38.037  31.378  30.435  1.00  0.00     0.049 A 
ATOM     39  N   UNL A   1      39.193  32.487  32.987  1.00  0.00    -0.248 NA
ATOM     40  C   UNL A   1      37.494  34.086  33.008  1.00  0.00     0.031 C 
ATOM     41  C   UNL A   1      37.558  30.834  29.162  1.00  0.00     0.029 A 
ATOM     42  N   UNL A   1      39.111  30.583  30.748  1.00  0.00    -0.354 N 
ATOM     43  C   UNL A   1      39.362  33.328  34.080  1.00  0.00     0.074 A 
ATOM     44  C   UNL A   1      38.334  34.342  33.998  1.00  0.00     0.031 C 
ATOM     45  C   UNL A   1      38.310  29.775  28.824  1.00  0.00     0.029 A 
ATOM     46  C   UNL A   1      39.353  29.593  29.827  1.00  0.00     0.049 A 
ATOM     47  H   UNL A   1      39.656  30.710  31.559  1.00  0.00     0.167 HD
ATOM     48  C   UNL A   1      40.271  33.246  35.079  1.00  0.00     0.037 A 
ATOM     49  C   UNL A   1      40.313  28.649  29.792  1.00  0.00     0.037 A 
ATOM     50  C   UNL A   1      41.274  32.221  35.173  1.00  0.00     0.049 A 
ATOM     51  C   UNL A   1      41.320  28.588  30.907  1.00  0.00     0.074 A 
ATOM     52  C   UNL A   1      42.206  32.016  36.174  1.00  0.00     0.029 A 
ATOM     53  N   UNL A   1      41.479  31.228  34.225  1.00  0.00    -0.354 N 
ATOM     54  N   UNL A   1      41.424  29.348  31.970  1.00  0.00    -0.248 NA
ATOM     55  C   UNL A   1      42.339  27.534  30.821  1.00  0.00     0.031 C 
ATOM     56  C   UNL A   1      43.008  30.930  35.809  1.00  0.00     0.029 A 
ATOM     57  C   UNL A   1      42.537  30.423  34.608  1.00  0.00     0.049 A 
ATOM     58  H   UNL A   1      40.949  31.114  33.403  1.00  0.00     0.167 HD
ATOM     59  C   UNL A   1      42.498  28.846  32.694  1.00  0.00     0.074 A 
ATOM     60  C   UNL A   1      43.003  27.706  31.955  1.00  0.00     0.031 C 
ATOM     61  C   UNL A   1      43.020  29.286  33.866  1.00  0.00     0.037 A 
BRANCH  48  62
ATOM     62  C   UNL A   1      40.212  34.293  36.155  1.00  0.00     0.057 A 
ATOM     63  C   UNL A   1      40.944  35.485  36.070  1.00  0.00     0.134 A 
ATOM     64  C   UNL A   1      39.392  34.121  37.278  1.00  0.00     0.134 A 
ATOM     65  F   UNL A   1      41.760  35.709  35.029  1.00  0.00    -0.206 F 
ATOM     66  C   UNL A   1      40.886  36.453  37.074  1.00  0.00     0.040 A 
ATOM     67  C   UNL A   1      39.301  35.095  38.273  1.00  0.00     0.040 A 
ATOM     68  F   UNL A   1      38.659  33.006  37.423  1.00  0.00    -0.206 F 
ATOM     69  C   UNL A   1      40.055  36.263  38.176  1.00  0.00     0.006 A 
ENDBRANCH  48  62
BRANCH  49  70
ATOM     70  C   UNL A   1      40.355  27.668  28.677  1.00  0.00     0.057 A 
ATOM     71  C   UNL A   1      39.650  26.461  28.750  1.00  0.00     0.134 A 
ATOM     72  C   UNL A   1      41.110  27.902  27.521  1.00  0.00     0.134 A 
ATOM     73  F   UNL A   1      38.922  26.170  29.839  1.00  0.00    -0.206 F 
ATOM     74  C   UNL A   1      39.711  25.512  27.728  1.00  0.00     0.040 A 
ATOM     75  C   UNL A   1      41.158  26.976  26.478  1.00  0.00     0.040 A 
ATOM     76  F   UNL A   1      41.802  29.043  27.383  1.00  0.00    -0.206 F 
ATOM     77  C   UNL A   1      40.464  25.772  26.584  1.00  0.00     0.006 A 
ENDBRANCH  49  70
BRANCH  61  78
ATOM     78  C   UNL A   1      44.168  28.509  34.444  1.00  0.00     0.057 A 
ATOM     79  C   UNL A   1      43.969  27.411  35.290  1.00  0.00     0.134 A 
ATOM     80  C   UNL A   1      45.488  28.841  34.113  1.00  0.00     0.134 A 
ATOM     81  F   UNL A   1      42.731  27.047  35.655  1.00  0.00    -0.206 F 
ATOM     82  C   UNL A   1      45.045  26.686  35.806  1.00  0.00     0.040 A 
ATOM     83  C   UNL A   1      46.569  28.106  34.598  1.00  0.00     0.040 A 
ATOM     84  F   UNL A   1      45.748  29.876  33.299  1.00  0.00    -0.206 F 
ATOM     85  C   UNL A   1      46.349  27.029  35.454  1.00  0.00     0.006 A 
ENDBRANCH  61  78
ENDBRANCH  35  36
ENDBRANCH  27  30
ENDBRANCH  25  26
ENDBRANCH  24  25
ENDBRANCH   1  24
TORSDOF 14
ENDMDL
MODEL 3
REMARK VINA RESULT:     -11.8      1.147      6.400
REMARK SMILES C[C@@H]1[C@@H](C(=O)NCCCNC(=O)c2ccc(-c3c4nc(c(-c5c(F)cccc5F)c5ccc([nH]5)c(-c5c(F)cccc5F)c5nc(c(-c6c(F)cccc6F)c6ccc3[nH]6)C=C5)C=C4)cc2)CCN1C(=O)N[C@@H](C)Cc1ccco1
REMARK SMILES IDX 7 1 6 2 4 3 5 4 3 6 1 7 2 8 69 9 67 10 68 11 70 12 71 13
REMARK SMILES IDX 72 14 73 16 74 17 75 18 76 19 77 20 80 21 78 22 79 23 8 24
REMARK SMILES IDX 9 25 10 26 11 27 12 29 13 30 14 31 66 32 15 33 65 34 16 35
REMARK SMILES IDX 17 36 18 37 59 38 19 39 64 40 58 41 60 42 20 43 63 44 57 45
REMARK SMILES IDX 56 46 21 48 47 49 30 50 46 51 31 52 34 53 45 54 61 55 32 56
REMARK SMILES IDX 33 57 44 59 62 60 35 61 22 62 23 63 28 64 24 65 25 66 27 67
REMARK SMILES IDX 29 68 26 69 48 70 49 71 54 72 50 73 51 74 53 75 55 76 52 77
REMARK SMILES IDX 36 78 37 79 42 80 38 81 39 82 41 83 43 84 40 85
REMARK H PARENT 6 5 72 15 10 28 60 47 34 58
REMARK Flexibility Score: inf
ROOT
ATOM      1  C   UNL A   1      36.883  20.773  24.726  1.00  0.00     0.117 C 
ENDROOT
BRANCH   1   2
ATOM      2  N   UNL A   1      35.621  20.492  25.373  1.00  0.00    -0.356 N 
ATOM      3  C   UNL A   1      34.525  21.273  25.533  1.00  0.00     0.225 C 
ATOM      4  O   UNL A   1      33.706  20.885  26.364  1.00  0.00    -0.275 OA
ATOM      5  H   UNL A   1      35.545  19.588  25.759  1.00  0.00     0.163 HD
BRANCH   3   6
ATOM      6  C   UNL A   1      34.406  22.599  24.792  1.00  0.00     0.102 C 
ATOM      7  C   UNL A   1      34.370  25.057  25.374  1.00  0.00     0.032 C 
ATOM      8  C   UNL A   1      33.799  23.678  25.722  1.00  0.00     0.096 C 
ATOM      9  N   UNL A   1      32.351  23.617  25.471  1.00  0.00    -0.321 N 
ATOM     10  C   UNL A   1      33.415  22.600  23.627  1.00  0.00     0.037 C 
ATOM     11  C   UNL A   1      32.078  22.801  24.303  1.00  0.00     0.122 C 
BRANCH   9  12
ATOM     12  C   UNL A   1      31.276  24.066  26.168  1.00  0.00     0.317 C 
ATOM     13  O   UNL A   1      30.945  23.537  27.236  1.00  0.00    -0.249 OA
ATOM     14  N   UNL A   1      30.494  25.078  25.773  1.00  0.00    -0.335 N 
ATOM     15  H   UNL A   1      29.708  25.183  26.359  1.00  0.00     0.165 HD
BRANCH  14  16
ATOM     16  C   UNL A   1      30.503  26.070  24.698  1.00  0.00     0.088 C 
ATOM     17  C   UNL A   1      29.057  26.336  24.278  1.00  0.00     0.031 C 
BRANCH  16  18
ATOM     18  C   UNL A   1      31.188  27.382  25.128  1.00  0.00     0.100 C 
BRANCH  18  19
ATOM     19  C   UNL A   1      32.256  27.817  24.189  1.00  0.00     0.105 A 
ATOM     20  C   UNL A   1      33.134  28.881  24.189  1.00  0.00     0.045 A 
ATOM     21  O   UNL A   1      32.460  27.040  23.090  1.00  0.00    -0.469 OA
ATOM     22  C   UNL A   1      33.941  28.730  23.038  1.00  0.00     0.042 A 
ATOM     23  C   UNL A   1      33.498  27.592  22.407  1.00  0.00     0.195 A 
ENDBRANCH  18  19
ENDBRANCH  16  18
ENDBRANCH  14  16
ENDBRANCH   9  12
ENDBRANCH   3   6
ENDBRANCH   1   2
BRANCH   1  24
ATOM     24  C   UNL A   1      37.889  19.660  24.956  1.00  0.00     0.042 C 
BRANCH  24  25
ATOM     25  C   UNL A   1      39.048  20.053  25.859  1.00  0.00     0.118 C 
BRANCH  25  26
ATOM     26  N   UNL A   1      40.090  19.038  25.924  1.00  0.00    -0.352 N 
ATOM     27  C   UNL A   1      41.450  19.173  26.088  1.00  0.00     0.251 C 
ATOM     28  H   UNL A   1      39.773  18.110  25.838  1.00  0.00     0.163 HD
ATOM     29  O   UNL A   1      42.187  18.211  25.929  1.00  0.00    -0.269 OA
BRANCH  27  30
ATOM     30  C   UNL A   1      42.017  20.498  26.420  1.00  0.00     0.039 A 
ATOM     31  C   UNL A   1      42.413  21.346  25.384  1.00  0.00     0.014 A 
ATOM     32  C   UNL A   1      42.132  20.911  27.746  1.00  0.00     0.014 A 
ATOM     33  C   UNL A   1      42.839  22.642  25.681  1.00  0.00     0.010 A 
ATOM     34  C   UNL A   1      42.435  22.235  28.031  1.00  0.00     0.010 A 
ATOM     35  C   UNL A   1      42.802  23.114  27.003  1.00  0.00    -0.014 A 
BRANCH  35  36
ATOM     36  C   UNL A   1      43.162  24.515  27.339  1.00  0.00     0.031 A 
ATOM     37  C   UNL A   1      44.603  24.950  27.308  1.00  0.00     0.074 A 
ATOM     38  C   UNL A   1      42.205  25.374  27.742  1.00  0.00     0.049 A 
ATOM     39  N   UNL A   1      45.127  26.101  27.646  1.00  0.00    -0.248 NA
ATOM     40  C   UNL A   1      45.590  23.948  26.873  1.00  0.00     0.031 C 
ATOM     41  C   UNL A   1      40.779  25.061  27.868  1.00  0.00     0.029 A 
ATOM     42  N   UNL A   1      42.287  26.688  28.129  1.00  0.00    -0.354 N 
ATOM     43  C   UNL A   1      46.499  25.953  27.479  1.00  0.00     0.074 A 
ATOM     44  C   UNL A   1      46.733  24.583  27.079  1.00  0.00     0.031 C 
ATOM     45  C   UNL A   1      40.120  26.159  28.265  1.00  0.00     0.029 A 
ATOM     46  C   UNL A   1      41.077  27.241  28.470  1.00  0.00     0.049 A 
ATOM     47  H   UNL A   1      43.136  27.188  28.158  1.00  0.00     0.167 HD
ATOM     48  C   UNL A   1      47.474  26.882  27.616  1.00  0.00     0.037 A 
ATOM     49  C   UNL A   1      40.774  28.479  28.904  1.00  0.00     0.037 A 
ATOM     50  C   UNL A   1      47.235  28.250  27.988  1.00  0.00     0.049 A 
ATOM     51  C   UNL A   1      41.877  29.489  29.062  1.00  0.00     0.074 A 
ATOM     52  C   UNL A   1      48.147  29.284  28.099  1.00  0.00     0.029 A 
ATOM     53  N   UNL A   1      45.992  28.774  28.312  1.00  0.00    -0.354 N 
ATOM     54  N   UNL A   1      43.161  29.354  28.833  1.00  0.00    -0.248 NA
ATOM     55  C   UNL A   1      41.489  30.825  29.532  1.00  0.00     0.031 C 
ATOM     56  C   UNL A   1      47.465  30.422  28.540  1.00  0.00     0.029 A 
ATOM     57  C   UNL A   1      46.118  30.112  28.647  1.00  0.00     0.049 A 
ATOM     58  H   UNL A   1      45.147  28.270  28.306  1.00  0.00     0.167 HD
ATOM     59  C   UNL A   1      43.728  30.594  29.101  1.00  0.00     0.074 A 
ATOM     60  C   UNL A   1      42.645  31.472  29.494  1.00  0.00     0.031 C 
ATOM     61  C   UNL A   1      45.028  30.974  29.027  1.00  0.00     0.037 A 
BRANCH  48  62
ATOM     62  C   UNL A   1      48.887  26.445  27.353  1.00  0.00     0.057 A 
ATOM     63  C   UNL A   1      49.720  25.975  28.378  1.00  0.00     0.134 A 
ATOM     64  C   UNL A   1      49.414  26.468  26.055  1.00  0.00     0.134 A 
ATOM     65  F   UNL A   1      49.284  25.941  29.646  1.00  0.00    -0.206 F 
ATOM     66  C   UNL A   1      51.032  25.573  28.127  1.00  0.00     0.040 A 
ATOM     67  C   UNL A   1      50.714  26.038  25.787  1.00  0.00     0.040 A 
ATOM     68  F   UNL A   1      48.671  26.901  25.025  1.00  0.00    -0.206 F 
ATOM     69  C   UNL A   1      51.531  25.595  26.826  1.00  0.00     0.006 A 
ENDBRANCH  48  62
BRANCH  49  70
ATOM     70  C   UNL A   1      39.365  28.844  29.198  1.00  0.00     0.057 A 
ATOM     71  C   UNL A   1      38.552  29.431  28.220  1.00  0.00     0.134 A 
ATOM     72  C   UNL A   1      38.799  28.631  30.461  1.00  0.00     0.134 A 
ATOM     73  F   UNL A   1      39.041  29.677  26.995  1.00  0.00    -0.206 F 
ATOM     74  C   UNL A   1      37.238  29.815  28.493  1.00  0.00     0.040 A 
ATOM     75  C   UNL A   1      37.477  28.983  30.739  1.00  0.00     0.040 A 
ATOM     76  F   UNL A   1      39.519  28.063  31.439  1.00  0.00    -0.206 F 
ATOM     77  C   UNL A   1      36.695  29.585  29.756  1.00  0.00     0.006 A 
ENDBRANCH  49  70
BRANCH  61  78
ATOM     78  C   UNL A   1      45.345  32.409  29.334  1.00  0.00     0.057 A 
ATOM     79  C   UNL A   1      45.722  32.827  30.616  1.00  0.00     0.134 A 
ATOM     80  C   UNL A   1      45.313  33.376  28.321  1.00  0.00     0.134 A 
ATOM     81  F   UNL A   1      45.761  31.954  31.634  1.00  0.00    -0.206 F 
ATOM     82  C   UNL A   1      46.031  34.162  30.885  1.00  0.00     0.040 A 
ATOM     83  C   UNL A   1      45.649  34.706  28.570  1.00  0.00     0.040 A 
ATOM     84  F   UNL A   1      44.969  33.040  27.068  1.00  0.00    -0.206 F 
ATOM     85  C   UNL A   1      46.002  35.104  29.859  1.00  0.00     0.006 A 
ENDBRANCH  61  78
ENDBRANCH  35  36
ENDBRANCH  27  30
ENDBRANCH  25  26
ENDBRANCH  24  25
ENDBRANCH   1  24
TORSDOF 14
ENDMDL
