MODEL 1
REMARK VINA RESULT:     -12.6      0.000      0.000
REMARK SMILES CSc1ccc(-c2cc(C[C@H]3CCCC3=O)ccc2[C@@H](C)C(=O)NCCCNC(=O)c2ccc(-c3c4nc(c(-c5c(F)cccc5F)c5ccc([nH]5)c(-c5c(F)cccc5F)c5nc(c(-c6c(F)cccc6F)c6ccc3[nH]6)C=C5)C=C4)cc2)cc1
REMARK SMILES IDX 25 1 24 2 22 3 23 4 20 6 21 7 19 8 7 9 8 10 9 11 18 12 17 13
REMARK SMILES IDX 6 14 3 15 4 16 86 17 5 18 85 19 2 20 1 21 10 22 11 23 12 24
REMARK SMILES IDX 15 25 13 26 14 27 16 28 26 29 27 30 28 31 29 32 30 34 31 35
REMARK SMILES IDX 32 36 84 37 33 38 83 39 34 40 35 41 36 42 77 43 37 44 82 45
REMARK SMILES IDX 76 46 78 47 38 48 81 49 75 50 74 51 39 53 65 54 48 55 64 56
REMARK SMILES IDX 49 57 52 58 63 59 79 60 50 61 51 62 62 64 80 65 53 66 40 67
REMARK SMILES IDX 41 68 46 69 42 70 43 71 45 72 47 73 44 74 66 75 67 76 72 77
REMARK SMILES IDX 68 78 69 79 71 80 73 81 70 82 54 83 55 84 60 85 56 86 57 87
REMARK SMILES IDX 59 88 61 89 58 90
REMARK H PARENT 24 5 28 33 78 52 52 63
REMARK Flexibility Score: inf
ROOT
ATOM      1  C   UNL A   1      30.903  31.154  25.388  1.00  0.00     0.117 C 
ENDROOT
BRANCH   1   2
ATOM      2  N   UNL A   1      32.111  30.357  25.289  1.00  0.00    -0.356 N 
ATOM      3  C   UNL A   1      32.413  29.083  25.659  1.00  0.00     0.227 C 
ATOM      4  O   UNL A   1      33.598  28.755  25.511  1.00  0.00    -0.274 OA
ATOM      5  H   UNL A   1      32.864  30.834  24.870  1.00  0.00     0.163 HD
BRANCH   3   6
ATOM      6  C   UNL A   1      31.406  28.073  26.240  1.00  0.00     0.106 C 
ATOM      7  C   UNL A   1      31.401  27.940  27.762  1.00  0.00     0.023 C 
BRANCH   6   8
ATOM      8  C   UNL A   1      31.388  26.748  25.480  1.00  0.00    -0.028 A 
ATOM      9  C   UNL A   1      31.076  26.660  24.102  1.00  0.00    -0.014 A 
ATOM     10  C   UNL A   1      31.199  25.413  23.447  1.00  0.00     0.012 A 
ATOM     11  C   UNL A   1      31.527  24.245  24.145  1.00  0.00    -0.047 A 
ATOM     12  C   UNL A   1      31.682  25.557  26.162  1.00  0.00     0.005 A 
ATOM     13  C   UNL A   1      31.781  24.333  25.509  1.00  0.00     0.004 A 
BRANCH   9  14
ATOM     14  C   UNL A   1      30.378  27.736  23.380  1.00  0.00    -0.018 A 
ATOM     15  C   UNL A   1      28.888  29.803  22.139  1.00  0.00     0.007 A 
ATOM     16  C   UNL A   1      28.250  28.855  22.936  1.00  0.00     0.015 A 
ATOM     17  C   UNL A   1      30.278  29.712  21.972  1.00  0.00     0.015 A 
ATOM     18  C   UNL A   1      28.986  27.841  23.545  1.00  0.00     0.010 A 
ATOM     19  C   UNL A   1      31.018  28.682  22.576  1.00  0.00     0.010 A 
BRANCH  15  20
ATOM     20  S   UNL A   1      28.030  31.169  21.366  1.00  0.00    -0.130 SA
ATOM     21  C   UNL A   1      28.611  32.597  22.326  1.00  0.00     0.091 C 
ENDBRANCH  15  20
ENDBRANCH   9  14
BRANCH  11  22
ATOM     22  C   UNL A   1      31.441  22.890  23.488  1.00  0.00     0.047 C 
BRANCH  22  23
ATOM     23  C   UNL A   1      32.785  22.333  22.993  1.00  0.00     0.060 C 
ATOM     24  C   UNL A   1      33.784  23.327  22.381  1.00  0.00     0.012 C 
ATOM     25  C   UNL A   1      33.598  21.739  24.123  1.00  0.00     0.136 C 
ATOM     26  C   UNL A   1      34.752  23.700  23.502  1.00  0.00     0.009 C 
ATOM     27  C   UNL A   1      34.929  22.420  24.301  1.00  0.00     0.076 C 
ATOM     28  O   UNL A   1      33.230  20.786  24.800  1.00  0.00    -0.299 OA
ENDBRANCH  22  23
ENDBRANCH  11  22
ENDBRANCH   6   8
ENDBRANCH   3   6
ENDBRANCH   1   2
BRANCH   1  29
ATOM     29  C   UNL A   1      31.009  32.226  26.472  1.00  0.00     0.042 C 
BRANCH  29  30
ATOM     30  C   UNL A   1      32.435  32.576  26.871  1.00  0.00     0.118 C 
BRANCH  30  31
ATOM     31  N   UNL A   1      32.539  33.930  27.391  1.00  0.00    -0.352 N 
ATOM     32  C   UNL A   1      33.340  34.455  28.375  1.00  0.00     0.251 C 
ATOM     33  H   UNL A   1      31.934  34.579  26.965  1.00  0.00     0.163 HD
ATOM     34  O   UNL A   1      33.091  35.580  28.803  1.00  0.00    -0.269 OA
BRANCH  32  35
ATOM     35  C   UNL A   1      34.487  33.700  28.934  1.00  0.00     0.039 A 
ATOM     36  C   UNL A   1      34.223  32.575  29.724  1.00  0.00     0.014 A 
ATOM     37  C   UNL A   1      35.807  34.123  28.761  1.00  0.00     0.014 A 
ATOM     38  C   UNL A   1      35.276  31.858  30.301  1.00  0.00     0.010 A 
ATOM     39  C   UNL A   1      36.860  33.360  29.265  1.00  0.00     0.010 A 
ATOM     40  C   UNL A   1      36.606  32.231  30.057  1.00  0.00    -0.014 A 
BRANCH  40  41
ATOM     41  C   UNL A   1      37.741  31.482  30.655  1.00  0.00     0.031 A 
ATOM     42  C   UNL A   1      38.141  31.736  32.084  1.00  0.00     0.074 A 
ATOM     43  C   UNL A   1      38.446  30.616  29.902  1.00  0.00     0.049 A 
ATOM     44  N   UNL A   1      39.157  31.258  32.758  1.00  0.00    -0.248 NA
ATOM     45  C   UNL A   1      37.304  32.674  32.850  1.00  0.00     0.031 C 
ATOM     46  C   UNL A   1      38.186  30.311  28.493  1.00  0.00     0.029 A 
ATOM     47  N   UNL A   1      39.536  29.841  30.214  1.00  0.00    -0.354 N 
ATOM     48  C   UNL A   1      39.088  31.846  34.015  1.00  0.00     0.074 A 
ATOM     49  C   UNL A   1      37.964  32.757  33.995  1.00  0.00     0.031 C 
ATOM     50  C   UNL A   1      39.083  29.407  28.067  1.00  0.00     0.029 A 
ATOM     51  C   UNL A   1      40.002  29.095  29.159  1.00  0.00     0.049 A 
ATOM     52  H   UNL A   1      39.944  29.822  31.109  1.00  0.00     0.167 HD
ATOM     53  C   UNL A   1      39.871  31.628  35.099  1.00  0.00     0.037 A 
ATOM     54  C   UNL A   1      41.055  28.262  29.077  1.00  0.00     0.037 A 
ATOM     55  C   UNL A   1      40.972  30.703  35.127  1.00  0.00     0.049 A 
ATOM     56  C   UNL A   1      41.905  28.030  30.296  1.00  0.00     0.074 A 
ATOM     57  C   UNL A   1      41.810  30.389  36.185  1.00  0.00     0.029 A 
ATOM     58  N   UNL A   1      41.385  29.935  34.050  1.00  0.00    -0.354 N 
ATOM     59  N   UNL A   1      41.801  28.563  31.489  1.00  0.00    -0.248 NA
ATOM     60  C   UNL A   1      43.013  27.073  30.160  1.00  0.00     0.031 C 
ATOM     61  C   UNL A   1      42.744  29.449  35.738  1.00  0.00     0.029 A 
ATOM     62  C   UNL A   1      42.465  29.149  34.415  1.00  0.00     0.049 A 
ATOM     63  H   UNL A   1      40.970  29.945  33.156  1.00  0.00     0.167 HD
ATOM     64  C   UNL A   1      42.810  27.988  32.252  1.00  0.00     0.074 A 
ATOM     65  C   UNL A   1      43.505  27.054  31.390  1.00  0.00     0.031 C 
ATOM     66  C   UNL A   1      43.134  28.215  33.547  1.00  0.00     0.037 A 
BRANCH  53  67
ATOM     67  C   UNL A   1      39.551  32.394  36.348  1.00  0.00     0.057 A 
ATOM     68  C   UNL A   1      40.236  33.571  36.682  1.00  0.00     0.134 A 
ATOM     69  C   UNL A   1      38.528  31.978  37.209  1.00  0.00     0.134 A 
ATOM     70  F   UNL A   1      41.236  34.017  35.907  1.00  0.00    -0.206 F 
ATOM     71  C   UNL A   1      39.931  34.291  37.838  1.00  0.00     0.040 A 
ATOM     72  C   UNL A   1      38.197  32.703  38.355  1.00  0.00     0.040 A 
ATOM     73  F   UNL A   1      37.828  30.863  36.945  1.00  0.00    -0.206 F 
ATOM     74  C   UNL A   1      38.904  33.860  38.675  1.00  0.00     0.006 A 
ENDBRANCH  53  67
BRANCH  54  75
ATOM     75  C   UNL A   1      41.362  27.572  27.799  1.00  0.00     0.057 A 
ATOM     76  C   UNL A   1      40.870  26.289  27.532  1.00  0.00     0.134 A 
ATOM     77  C   UNL A   1      42.165  28.172  26.821  1.00  0.00     0.134 A 
ATOM     78  F   UNL A   1      40.110  25.657  28.438  1.00  0.00    -0.206 F 
ATOM     79  C   UNL A   1      41.184  25.616  26.350  1.00  0.00     0.040 A 
ATOM     80  C   UNL A   1      42.466  27.521  25.624  1.00  0.00     0.040 A 
ATOM     81  F   UNL A   1      42.659  29.404  27.011  1.00  0.00    -0.206 F 
ATOM     82  C   UNL A   1      41.982  26.236  25.390  1.00  0.00     0.006 A 
ENDBRANCH  54  75
BRANCH  66  83
ATOM     83  C   UNL A   1      44.262  27.412  34.121  1.00  0.00     0.057 A 
ATOM     84  C   UNL A   1      44.058  26.142  34.675  1.00  0.00     0.134 A 
ATOM     85  C   UNL A   1      45.575  27.900  34.082  1.00  0.00     0.134 A 
ATOM     86  F   UNL A   1      42.822  25.625  34.753  1.00  0.00    -0.206 F 
ATOM     87  C   UNL A   1      45.118  25.395  35.192  1.00  0.00     0.040 A 
ATOM     88  C   UNL A   1      46.645  27.152  34.573  1.00  0.00     0.040 A 
ATOM     89  F   UNL A   1      45.838  29.106  33.555  1.00  0.00    -0.206 F 
ATOM     90  C   UNL A   1      46.416  25.898  35.136  1.00  0.00     0.006 A 
ENDBRANCH  66  83
ENDBRANCH  40  41
ENDBRANCH  32  35
ENDBRANCH  30  31
ENDBRANCH  29  30
ENDBRANCH   1  29
TORSDOF 15
ENDMDL
MODEL 2
REMARK VINA RESULT:     -12.5      1.351      5.948
REMARK SMILES CSc1ccc(-c2cc(C[C@H]3CCCC3=O)ccc2[C@@H](C)C(=O)NCCCNC(=O)c2ccc(-c3c4nc(c(-c5c(F)cccc5F)c5ccc([nH]5)c(-c5c(F)cccc5F)c5nc(c(-c6c(F)cccc6F)c6ccc3[nH]6)C=C5)C=C4)cc2)cc1
REMARK SMILES IDX 25 1 24 2 22 3 23 4 20 6 21 7 19 8 7 9 8 10 9 11 18 12 17 13
REMARK SMILES IDX 6 14 3 15 4 16 86 17 5 18 85 19 2 20 1 21 10 22 11 23 12 24
REMARK SMILES IDX 15 25 13 26 14 27 16 28 26 29 27 30 28 31 29 32 30 34 31 35
REMARK SMILES IDX 32 36 84 37 33 38 83 39 34 40 35 41 36 42 77 43 37 44 82 45
REMARK SMILES IDX 76 46 78 47 38 48 81 49 75 50 74 51 39 53 65 54 48 55 64 56
REMARK SMILES IDX 49 57 52 58 63 59 79 60 50 61 51 62 62 64 80 65 53 66 40 67
REMARK SMILES IDX 41 68 46 69 42 70 43 71 45 72 47 73 44 74 66 75 67 76 72 77
REMARK SMILES IDX 68 78 69 79 71 80 73 81 70 82 54 83 55 84 60 85 56 86 57 87
REMARK SMILES IDX 59 88 61 89 58 90
REMARK H PARENT 24 5 28 33 78 52 52 63
REMARK Flexibility Score: inf
ROOT
ATOM      1  C   UNL A   1      31.019  31.057  25.314  1.00  0.00     0.117 C 
ENDROOT
BRANCH   1   2
ATOM      2  N   UNL A   1      32.194  30.213  25.206  1.00  0.00    -0.356 N 
ATOM      3  C   UNL A   1      32.446  28.926  25.568  1.00  0.00     0.227 C 
ATOM      4  O   UNL A   1      33.617  28.551  25.414  1.00  0.00    -0.274 OA
ATOM      5  H   UNL A   1      32.964  30.661  24.786  1.00  0.00     0.163 HD
BRANCH   3   6
ATOM      6  C   UNL A   1      31.402  27.953  26.148  1.00  0.00     0.106 C 
ATOM      7  C   UNL A   1      31.382  27.832  27.671  1.00  0.00     0.023 C 
BRANCH   6   8
ATOM      8  C   UNL A   1      31.345  26.625  25.397  1.00  0.00    -0.028 A 
ATOM      9  C   UNL A   1      31.002  26.535  24.026  1.00  0.00    -0.014 A 
ATOM     10  C   UNL A   1      31.089  25.282  23.376  1.00  0.00     0.012 A 
ATOM     11  C   UNL A   1      31.412  24.113  24.074  1.00  0.00    -0.047 A 
ATOM     12  C   UNL A   1      31.633  25.433  26.079  1.00  0.00     0.005 A 
ATOM     13  C   UNL A   1      31.697  24.204  25.432  1.00  0.00     0.004 A 
BRANCH   9  14
ATOM     14  C   UNL A   1      30.307  27.618  23.313  1.00  0.00    -0.018 A 
ATOM     15  C   UNL A   1      28.825  29.703  22.091  1.00  0.00     0.007 A 
ATOM     16  C   UNL A   1      28.187  28.764  22.899  1.00  0.00     0.015 A 
ATOM     17  C   UNL A   1      30.211  29.594  21.904  1.00  0.00     0.015 A 
ATOM     18  C   UNL A   1      28.919  27.741  23.499  1.00  0.00     0.010 A 
ATOM     19  C   UNL A   1      30.946  28.555  22.499  1.00  0.00     0.010 A 
BRANCH  15  20
ATOM     20  S   UNL A   1      27.973  31.079  21.329  1.00  0.00    -0.130 SA
ATOM     21  C   UNL A   1      28.609  32.504  22.258  1.00  0.00     0.091 C 
ENDBRANCH  15  20
ENDBRANCH   9  14
BRANCH  11  22
ATOM     22  C   UNL A   1      31.289  22.756  23.427  1.00  0.00     0.047 C 
BRANCH  22  23
ATOM     23  C   UNL A   1      32.615  22.166  22.921  1.00  0.00     0.060 C 
ATOM     24  C   UNL A   1      33.729  23.151  22.533  1.00  0.00     0.012 C 
ATOM     25  C   UNL A   1      33.300  21.331  23.981  1.00  0.00     0.136 C 
ATOM     26  C   UNL A   1      34.645  23.255  23.750  1.00  0.00     0.009 C 
ATOM     27  C   UNL A   1      34.666  21.854  24.339  1.00  0.00     0.076 C 
ATOM     28  O   UNL A   1      32.812  20.320  24.473  1.00  0.00    -0.299 OA
ENDBRANCH  22  23
ENDBRANCH  11  22
ENDBRANCH   6   8
ENDBRANCH   3   6
ENDBRANCH   1   2
BRANCH   1  29
ATOM     29  C   UNL A   1      31.032  31.897  26.591  1.00  0.00     0.042 C 
BRANCH  29  30
ATOM     30  C   UNL A   1      32.401  32.439  26.973  1.00  0.00     0.118 C 
BRANCH  30  31
ATOM     31  N   UNL A   1      32.325  33.794  27.495  1.00  0.00    -0.352 N 
ATOM     32  C   UNL A   1      33.096  34.441  28.429  1.00  0.00     0.251 C 
ATOM     33  H   UNL A   1      31.598  34.339  27.117  1.00  0.00     0.163 HD
ATOM     34  O   UNL A   1      32.703  35.513  28.882  1.00  0.00    -0.269 OA
BRANCH  32  35
ATOM     35  C   UNL A   1      34.383  33.877  28.905  1.00  0.00     0.039 A 
ATOM     36  C   UNL A   1      34.353  32.896  29.902  1.00  0.00     0.014 A 
ATOM     37  C   UNL A   1      35.614  34.352  28.446  1.00  0.00     0.014 A 
ATOM     38  C   UNL A   1      35.545  32.366  30.405  1.00  0.00     0.010 A 
ATOM     39  C   UNL A   1      36.800  33.764  28.886  1.00  0.00     0.010 A 
ATOM     40  C   UNL A   1      36.780  32.780  29.884  1.00  0.00    -0.014 A 
BRANCH  40  41
ATOM     41  C   UNL A   1      38.060  32.228  30.398  1.00  0.00     0.031 A 
ATOM     42  C   UNL A   1      38.614  30.952  29.821  1.00  0.00     0.074 A 
ATOM     43  C   UNL A   1      38.696  32.839  31.415  1.00  0.00     0.049 A 
ATOM     44  N   UNL A   1      39.661  30.260  30.196  1.00  0.00    -0.248 NA
ATOM     45  C   UNL A   1      37.879  30.360  28.692  1.00  0.00     0.031 C 
ATOM     46  C   UNL A   1      38.242  34.058  32.088  1.00  0.00     0.029 A 
ATOM     47  N   UNL A   1      39.855  32.510  32.072  1.00  0.00    -0.354 N 
ATOM     48  C   UNL A   1      39.700  29.149  29.360  1.00  0.00     0.074 A 
ATOM     49  C   UNL A   1      38.542  29.231  28.496  1.00  0.00     0.031 C 
ATOM     50  C   UNL A   1      39.118  34.379  33.053  1.00  0.00     0.029 A 
ATOM     51  C   UNL A   1      40.176  33.373  33.091  1.00  0.00     0.049 A 
ATOM     52  H   UNL A   1      40.406  31.729  31.834  1.00  0.00     0.167 HD
ATOM     53  C   UNL A   1      40.628  28.166  29.298  1.00  0.00     0.037 A 
ATOM     54  C   UNL A   1      41.199  33.350  33.964  1.00  0.00     0.037 A 
ATOM     55  C   UNL A   1      41.793  28.099  30.139  1.00  0.00     0.049 A 
ATOM     56  C   UNL A   1      42.222  32.252  33.870  1.00  0.00     0.074 A 
ATOM     57  C   UNL A   1      42.809  27.156  30.136  1.00  0.00     0.029 A 
ATOM     58  N   UNL A   1      42.103  29.016  31.131  1.00  0.00    -0.354 N 
ATOM     59  N   UNL A   1      42.266  31.233  33.047  1.00  0.00    -0.248 NA
ATOM     60  C   UNL A   1      43.344  32.307  34.819  1.00  0.00     0.031 C 
ATOM     61  C   UNL A   1      43.720  27.493  31.142  1.00  0.00     0.029 A 
ATOM     62  C   UNL A   1      43.292  28.663  31.747  1.00  0.00     0.049 A 
ATOM     63  H   UNL A   1      41.558  29.804  31.362  1.00  0.00     0.167 HD
ATOM     64  C   UNL A   1      43.429  30.541  33.360  1.00  0.00     0.074 A 
ATOM     65  C   UNL A   1      44.070  31.265  34.438  1.00  0.00     0.031 C 
ATOM     66  C   UNL A   1      43.921  29.406  32.807  1.00  0.00     0.037 A 
BRANCH  53  67
ATOM     67  C   UNL A   1      40.427  27.090  28.272  1.00  0.00     0.057 A 
ATOM     68  C   UNL A   1      41.034  27.157  27.010  1.00  0.00     0.134 A 
ATOM     69  C   UNL A   1      39.651  25.959  28.554  1.00  0.00     0.134 A 
ATOM     70  F   UNL A   1      41.779  28.220  26.671  1.00  0.00    -0.206 F 
ATOM     71  C   UNL A   1      40.857  26.151  26.059  1.00  0.00     0.040 A 
ATOM     72  C   UNL A   1      39.487  24.933  27.620  1.00  0.00     0.040 A 
ATOM     73  F   UNL A   1      39.047  25.828  29.745  1.00  0.00    -0.206 F 
ATOM     74  C   UNL A   1      40.086  25.032  26.367  1.00  0.00     0.006 A 
ENDBRANCH  53  67
BRANCH  54  75
ATOM     75  C   UNL A   1      41.320  34.409  34.999  1.00  0.00     0.057 A 
ATOM     76  C   UNL A   1      40.788  34.231  36.281  1.00  0.00     0.134 A 
ATOM     77  C   UNL A   1      41.955  35.626  34.726  1.00  0.00     0.134 A 
ATOM     78  F   UNL A   1      40.152  33.093  36.596  1.00  0.00    -0.206 F 
ATOM     79  C   UNL A   1      40.861  35.235  37.249  1.00  0.00     0.040 A 
ATOM     80  C   UNL A   1      42.058  36.629  35.692  1.00  0.00     0.040 A 
ATOM     81  F   UNL A   1      42.494  35.855  33.520  1.00  0.00    -0.206 F 
ATOM     82  C   UNL A   1      41.502  36.437  36.955  1.00  0.00     0.006 A 
ENDBRANCH  54  75
BRANCH  66  83
ATOM     83  C   UNL A   1      45.232  28.903  33.331  1.00  0.00     0.057 A 
ATOM     84  C   UNL A   1      46.454  29.325  32.792  1.00  0.00     0.134 A 
ATOM     85  C   UNL A   1      45.273  28.015  34.414  1.00  0.00     0.134 A 
ATOM     86  F   UNL A   1      46.482  30.165  31.746  1.00  0.00    -0.206 F 
ATOM     87  C   UNL A   1      47.670  28.864  33.298  1.00  0.00     0.040 A 
ATOM     88  C   UNL A   1      46.483  27.566  34.943  1.00  0.00     0.040 A 
ATOM     89  F   UNL A   1      44.137  27.580  34.981  1.00  0.00    -0.206 F 
ATOM     90  C   UNL A   1      47.686  27.987  34.380  1.00  0.00     0.006 A 
ENDBRANCH  66  83
ENDBRANCH  40  41
ENDBRANCH  32  35
ENDBRANCH  30  31
ENDBRANCH  29  30
ENDBRANCH   1  29
TORSDOF 15
ENDMDL
MODEL 3
REMARK VINA RESULT:     -12.3      4.339      7.859
REMARK SMILES CSc1ccc(-c2cc(C[C@H]3CCCC3=O)ccc2[C@@H](C)C(=O)NCCCNC(=O)c2ccc(-c3c4nc(c(-c5c(F)cccc5F)c5ccc([nH]5)c(-c5c(F)cccc5F)c5nc(c(-c6c(F)cccc6F)c6ccc3[nH]6)C=C5)C=C4)cc2)cc1
REMARK SMILES IDX 25 1 24 2 22 3 23 4 20 6 21 7 19 8 7 9 8 10 9 11 18 12 17 13
REMARK SMILES IDX 6 14 3 15 4 16 86 17 5 18 85 19 2 20 1 21 10 22 11 23 12 24
REMARK SMILES IDX 15 25 13 26 14 27 16 28 26 29 27 30 28 31 29 32 30 34 31 35
REMARK SMILES IDX 32 36 84 37 33 38 83 39 34 40 35 41 36 42 77 43 37 44 82 45
REMARK SMILES IDX 76 46 78 47 38 48 81 49 75 50 74 51 39 53 65 54 48 55 64 56
REMARK SMILES IDX 49 57 52 58 63 59 79 60 50 61 51 62 62 64 80 65 53 66 40 67
REMARK SMILES IDX 41 68 46 69 42 70 43 71 45 72 47 73 44 74 66 75 67 76 72 77
REMARK SMILES IDX 68 78 69 79 71 80 73 81 70 82 54 83 55 84 60 85 56 86 57 87
REMARK SMILES IDX 59 88 61 89 58 90
REMARK H PARENT 24 5 28 33 78 52 52 63
REMARK Flexibility Score: inf
ROOT
ATOM      1  C   UNL A   1      33.128  30.916  27.094  1.00  0.00     0.117 C 
ENDROOT
BRANCH   1   2
ATOM      2  N   UNL A   1      33.631  29.986  26.101  1.00  0.00    -0.356 N 
ATOM      3  C   UNL A   1      33.172  28.794  25.631  1.00  0.00     0.227 C 
ATOM      4  O   UNL A   1      33.925  28.212  24.838  1.00  0.00    -0.274 OA
ATOM      5  H   UNL A   1      34.475  30.275  25.684  1.00  0.00     0.163 HD
BRANCH   3   6
ATOM      6  C   UNL A   1      31.829  28.151  26.025  1.00  0.00     0.106 C 
ATOM      7  C   UNL A   1      31.486  28.188  27.513  1.00  0.00     0.023 C 
BRANCH   6   8
ATOM      8  C   UNL A   1      31.594  26.804  25.345  1.00  0.00    -0.028 A 
ATOM      9  C   UNL A   1      31.040  26.687  24.047  1.00  0.00    -0.014 A 
ATOM     10  C   UNL A   1      30.966  25.411  23.442  1.00  0.00     0.012 A 
ATOM     11  C   UNL A   1      31.337  24.249  24.129  1.00  0.00    -0.047 A 
ATOM     12  C   UNL A   1      31.927  25.621  26.023  1.00  0.00     0.005 A 
ATOM     13  C   UNL A   1      31.832  24.369  25.423  1.00  0.00     0.004 A 
BRANCH   9  14
ATOM     14  C   UNL A   1      30.295  27.782  23.405  1.00  0.00    -0.018 A 
ATOM     15  C   UNL A   1      29.016  29.905  22.029  1.00  0.00     0.007 A 
ATOM     16  C   UNL A   1      30.405  29.787  22.010  1.00  0.00     0.015 A 
ATOM     17  C   UNL A   1      28.273  28.949  22.738  1.00  0.00     0.015 A 
ATOM     18  C   UNL A   1      31.030  28.742  22.687  1.00  0.00     0.010 A 
ATOM     19  C   UNL A   1      28.904  27.903  23.430  1.00  0.00     0.010 A 
BRANCH  15  20
ATOM     20  S   UNL A   1      28.130  31.181  21.144  1.00  0.00    -0.130 SA
ATOM     21  C   UNL A   1      28.456  32.660  22.146  1.00  0.00     0.091 C 
ENDBRANCH  15  20
ENDBRANCH   9  14
BRANCH  11  22
ATOM     22  C   UNL A   1      31.052  22.881  23.564  1.00  0.00     0.047 C 
BRANCH  22  23
ATOM     23  C   UNL A   1      32.275  22.168  22.967  1.00  0.00     0.060 C 
ATOM     24  C   UNL A   1      33.346  23.039  22.292  1.00  0.00     0.012 C 
ATOM     25  C   UNL A   1      33.084  21.455  24.028  1.00  0.00     0.136 C 
ATOM     26  C   UNL A   1      34.431  23.266  23.342  1.00  0.00     0.009 C 
ATOM     27  C   UNL A   1      34.501  21.959  24.115  1.00  0.00     0.076 C 
ATOM     28  O   UNL A   1      32.647  20.543  24.721  1.00  0.00    -0.299 OA
ENDBRANCH  22  23
ENDBRANCH  11  22
ENDBRANCH   6   8
ENDBRANCH   3   6
ENDBRANCH   1   2
BRANCH   1  29
ATOM     29  C   UNL A   1      34.255  31.675  27.793  1.00  0.00     0.042 C 
BRANCH  29  30
ATOM     30  C   UNL A   1      35.391  30.794  28.291  1.00  0.00     0.118 C 
BRANCH  30  31
ATOM     31  N   UNL A   1      35.443  30.740  29.743  1.00  0.00    -0.352 N 
ATOM     32  C   UNL A   1      36.390  30.217  30.590  1.00  0.00     0.251 C 
ATOM     33  H   UNL A   1      34.669  31.147  30.196  1.00  0.00     0.163 HD
ATOM     34  O   UNL A   1      36.111  30.082  31.778  1.00  0.00    -0.269 OA
BRANCH  32  35
ATOM     35  C   UNL A   1      37.731  29.810  30.104  1.00  0.00     0.039 A 
ATOM     36  C   UNL A   1      38.640  29.279  31.025  1.00  0.00     0.014 A 
ATOM     37  C   UNL A   1      38.133  30.016  28.782  1.00  0.00     0.014 A 
ATOM     38  C   UNL A   1      39.928  28.918  30.615  1.00  0.00     0.010 A 
ATOM     39  C   UNL A   1      39.386  29.579  28.355  1.00  0.00     0.010 A 
ATOM     40  C   UNL A   1      40.304  29.043  29.269  1.00  0.00    -0.014 A 
BRANCH  40  41
ATOM     41  C   UNL A   1      41.664  28.662  28.809  1.00  0.00     0.031 A 
ATOM     42  C   UNL A   1      41.942  27.248  28.373  1.00  0.00     0.074 A 
ATOM     43  C   UNL A   1      42.661  29.567  28.833  1.00  0.00     0.049 A 
ATOM     44  N   UNL A   1      43.078  26.695  28.030  1.00  0.00    -0.248 NA
ATOM     45  C   UNL A   1      40.795  26.326  28.345  1.00  0.00     0.031 C 
ATOM     46  C   UNL A   1      42.532  30.958  29.273  1.00  0.00     0.029 A 
ATOM     47  N   UNL A   1      43.985  29.448  28.493  1.00  0.00    -0.354 N 
ATOM     48  C   UNL A   1      42.785  25.363  27.761  1.00  0.00     0.074 A 
ATOM     49  C   UNL A   1      41.375  25.177  28.032  1.00  0.00     0.031 C 
ATOM     50  C   UNL A   1      43.725  31.565  29.165  1.00  0.00     0.029 A 
ATOM     51  C   UNL A   1      44.709  30.600  28.682  1.00  0.00     0.049 A 
ATOM     52  H   UNL A   1      44.379  28.616  28.145  1.00  0.00     0.167 HD
ATOM     53  C   UNL A   1      43.606  24.388  27.302  1.00  0.00     0.037 A 
ATOM     54  C   UNL A   1      46.019  30.849  28.497  1.00  0.00     0.037 A 
ATOM     55  C   UNL A   1      45.001  24.579  27.007  1.00  0.00     0.049 A 
ATOM     56  C   UNL A   1      46.909  29.753  27.980  1.00  0.00     0.074 A 
ATOM     57  C   UNL A   1      45.912  23.661  26.511  1.00  0.00     0.029 A 
ATOM     58  N   UNL A   1      45.685  25.773  27.171  1.00  0.00    -0.354 N 
ATOM     59  N   UNL A   1      46.607  28.510  27.691  1.00  0.00    -0.248 NA
ATOM     60  C   UNL A   1      48.320  30.096  27.752  1.00  0.00     0.031 C 
ATOM     61  C   UNL A   1      47.154  24.296  26.400  1.00  0.00     0.029 A 
ATOM     62  C   UNL A   1      47.007  25.617  26.790  1.00  0.00     0.049 A 
ATOM     63  H   UNL A   1      45.289  26.609  27.509  1.00  0.00     0.167 HD
ATOM     64  C   UNL A   1      47.780  27.932  27.225  1.00  0.00     0.074 A 
ATOM     65  C   UNL A   1      48.796  28.964  27.254  1.00  0.00     0.031 C 
ATOM     66  C   UNL A   1      47.998  26.660  26.812  1.00  0.00     0.037 A 
BRANCH  53  67
ATOM     67  C   UNL A   1      43.009  23.030  27.078  1.00  0.00     0.057 A 
ATOM     68  C   UNL A   1      42.704  22.177  28.147  1.00  0.00     0.134 A 
ATOM     69  C   UNL A   1      42.701  22.581  25.787  1.00  0.00     0.134 A 
ATOM     70  F   UNL A   1      42.986  22.541  29.407  1.00  0.00    -0.206 F 
ATOM     71  C   UNL A   1      42.138  20.918  27.940  1.00  0.00     0.040 A 
ATOM     72  C   UNL A   1      42.111  21.335  25.569  1.00  0.00     0.040 A 
ATOM     73  F   UNL A   1      42.961  23.351  24.719  1.00  0.00    -0.206 F 
ATOM     74  C   UNL A   1      41.834  20.497  26.647  1.00  0.00     0.006 A 
ENDBRANCH  53  67
BRANCH  54  75
ATOM     75  C   UNL A   1      46.570  32.196  28.791  1.00  0.00     0.057 A 
ATOM     76  C   UNL A   1      47.041  32.523  30.067  1.00  0.00     0.134 A 
ATOM     77  C   UNL A   1      46.625  33.191  27.808  1.00  0.00     0.134 A 
ATOM     78  F   UNL A   1      46.997  31.617  31.055  1.00  0.00    -0.206 F 
ATOM     79  C   UNL A   1      47.526  33.799  30.364  1.00  0.00     0.040 A 
ATOM     80  C   UNL A   1      47.131  34.463  28.083  1.00  0.00     0.040 A 
ATOM     81  F   UNL A   1      46.199  32.938  26.561  1.00  0.00    -0.206 F 
ATOM     82  C   UNL A   1      47.574  34.771  29.367  1.00  0.00     0.006 A 
ENDBRANCH  54  75
BRANCH  66  83
ATOM     83  C   UNL A   1      49.376  26.327  26.322  1.00  0.00     0.057 A 
ATOM     84  C   UNL A   1      49.812  26.690  25.042  1.00  0.00     0.134 A 
ATOM     85  C   UNL A   1      50.288  25.670  27.157  1.00  0.00     0.134 A 
ATOM     86  F   UNL A   1      48.980  27.310  24.190  1.00  0.00    -0.206 F 
ATOM     87  C   UNL A   1      51.101  26.390  24.600  1.00  0.00     0.040 A 
ATOM     88  C   UNL A   1      51.588  25.386  26.735  1.00  0.00     0.040 A 
ATOM     89  F   UNL A   1      49.935  25.304  28.398  1.00  0.00    -0.206 F 
ATOM     90  C   UNL A   1      51.995  25.742  25.451  1.00  0.00     0.006 A 
ENDBRANCH  66  83
ENDBRANCH  40  41
ENDBRANCH  32  35
ENDBRANCH  30  31
ENDBRANCH  29  30
ENDBRANCH   1  29
TORSDOF 15
ENDMDL
