MODEL 1
REMARK VINA RESULT:     -12.0      0.000      0.000
REMARK SMILES CC1(C)CCCC[C@@]1(C(=O)NCCCNC(=O)c1ccc(-c2c3nc(c(-c4c(F)cccc4F)c4ccc([nH]4)c(-c4c(F)cccc4F)c4nc(c(-c5c(F)cccc5F)c5ccc2[nH]5)C=C4)C=C3)cc1)[NH+]1CC[NH2+]CC1
REMARK SMILES IDX 13 1 12 2 11 3 9 4 10 5 8 7 1 8 2 9 3 10 4 11 5 12 7 13 6 14
REMARK SMILES IDX 72 15 73 16 77 17 74 19 76 20 75 21 14 24 15 25 16 26 17 28
REMARK SMILES IDX 18 29 19 30 71 31 20 32 70 33 21 34 22 35 23 36 64 37 24 38
REMARK SMILES IDX 69 39 63 40 65 41 25 42 68 43 62 44 61 45 26 47 52 48 35 49
REMARK SMILES IDX 51 50 36 51 39 52 50 53 66 54 37 55 38 56 49 58 67 59 40 60
REMARK SMILES IDX 27 61 28 62 33 63 29 64 30 65 32 66 34 67 31 68 53 69 54 70
REMARK SMILES IDX 59 71 55 72 56 73 58 74 60 75 57 76 41 77 42 78 47 79 43 80
REMARK SMILES IDX 44 81 46 82 48 83 45 84
REMARK H PARENT 11 6 72 18 75 22 75 23 15 27 65 46 39 57
REMARK Flexibility Score: inf
ROOT
ATOM      1  C   UNL A   1      31.125  31.995  26.126  1.00  0.00     0.042 C 
ENDROOT
BRANCH   1   2
ATOM      2  C   UNL A   1      31.080  30.514  25.745  1.00  0.00     0.118 C 
BRANCH   2   3
ATOM      3  N   UNL A   1      32.252  30.077  25.000  1.00  0.00    -0.351 N 
ATOM      4  C   UNL A   1      32.458  29.121  24.049  1.00  0.00     0.281 C 
ATOM      5  O   UNL A   1      33.554  29.223  23.481  1.00  0.00    -0.268 OA
ATOM      6  H   UNL A   1      33.069  30.576  25.232  1.00  0.00     0.163 HD
BRANCH   4   7
ATOM      7  C   UNL A   1      31.419  27.953  23.679  1.00  0.00     0.182 C 
ATOM      8  C   UNL A   1      30.562  25.578  24.571  1.00  0.00     0.018 C 
ATOM      9  C   UNL A   1      31.485  26.810  24.823  1.00  0.00     0.029 C 
ATOM     10  C   UNL A   1      31.138  27.326  26.230  1.00  0.00     0.018 C 
ATOM     11  C   UNL A   1      32.947  26.269  24.911  1.00  0.00     0.013 C 
ATOM     12  C   UNL A   1      33.431  25.625  23.619  1.00  0.00     0.001 C 
ATOM     13  C   UNL A   1      31.924  27.280  22.342  1.00  0.00     0.080 C 
ATOM     14  C   UNL A   1      33.255  26.519  22.408  1.00  0.00     0.007 C 
BRANCH   7  15
ATOM     15  N   UNL A   1      30.097  28.655  23.438  1.00  0.00    -0.313 N 
ATOM     16  C   UNL A   1      28.884  27.836  23.332  1.00  0.00     0.325 C 
ATOM     17  C   UNL A   1      30.133  29.634  22.318  1.00  0.00     0.325 C 
ATOM     18  H   UNL A   1      30.003  29.142  24.330  1.00  0.00     0.349 HD
ATOM     19  C   UNL A   1      27.586  28.664  23.126  1.00  0.00     0.322 C 
ATOM     20  C   UNL A   1      28.834  30.458  22.183  1.00  0.00     0.322 C 
ATOM     21  N   UNL A   1      27.653  29.603  21.998  1.00  0.00    -0.337 N 
ATOM     22  H   UNL A   1      26.810  30.178  21.976  1.00  0.00     0.346 HD
ATOM     23  H   UNL A   1      27.721  29.093  21.118  1.00  0.00     0.346 HD
ENDBRANCH   7  15
ENDBRANCH   4   7
ENDBRANCH   2   3
ENDBRANCH   1   2
BRANCH   1  24
ATOM     24  C   UNL A   1      32.362  32.433  26.901  1.00  0.00     0.118 C 
BRANCH  24  25
ATOM     25  N   UNL A   1      32.264  33.802  27.374  1.00  0.00    -0.352 N 
ATOM     26  C   UNL A   1      32.981  34.446  28.353  1.00  0.00     0.251 C 
ATOM     27  H   UNL A   1      31.582  34.351  26.926  1.00  0.00     0.163 HD
ATOM     28  O   UNL A   1      32.604  35.545  28.751  1.00  0.00    -0.269 OA
BRANCH  26  29
ATOM     29  C   UNL A   1      34.192  33.830  28.953  1.00  0.00     0.039 A 
ATOM     30  C   UNL A   1      34.029  32.722  29.790  1.00  0.00     0.014 A 
ATOM     31  C   UNL A   1      35.471  34.358  28.750  1.00  0.00     0.014 A 
ATOM     32  C   UNL A   1      35.143  32.122  30.382  1.00  0.00     0.010 A 
ATOM     33  C   UNL A   1      36.591  33.713  29.282  1.00  0.00     0.010 A 
ATOM     34  C   UNL A   1      36.439  32.596  30.115  1.00  0.00    -0.014 A 
BRANCH  34  35
ATOM     35  C   UNL A   1      37.624  31.925  30.713  1.00  0.00     0.031 A 
ATOM     36  C   UNL A   1      38.090  32.272  32.102  1.00  0.00     0.074 A 
ATOM     37  C   UNL A   1      38.305  31.014  29.991  1.00  0.00     0.049 A 
ATOM     38  N   UNL A   1      39.073  31.754  32.796  1.00  0.00    -0.248 NA
ATOM     39  C   UNL A   1      37.377  33.356  32.793  1.00  0.00     0.031 C 
ATOM     40  C   UNL A   1      38.009  30.639  28.607  1.00  0.00     0.029 A 
ATOM     41  N   UNL A   1      39.384  30.234  30.323  1.00  0.00    -0.354 N 
ATOM     42  C   UNL A   1      39.105  32.457  33.994  1.00  0.00     0.074 A 
ATOM     43  C   UNL A   1      38.075  33.470  33.912  1.00  0.00     0.031 C 
ATOM     44  C   UNL A   1      38.863  29.678  28.221  1.00  0.00     0.029 A 
ATOM     45  C   UNL A   1      39.776  29.381  29.320  1.00  0.00     0.049 A 
ATOM     46  H   UNL A   1      39.836  30.281  31.196  1.00  0.00     0.167 HD
ATOM     47  C   UNL A   1      39.901  32.263  35.073  1.00  0.00     0.037 A 
ATOM     48  C   UNL A   1      40.750  28.453  29.292  1.00  0.00     0.037 A 
ATOM     49  C   UNL A   1      40.906  31.235  35.170  1.00  0.00     0.049 A 
ATOM     50  C   UNL A   1      41.582  28.215  30.520  1.00  0.00     0.074 A 
ATOM     51  C   UNL A   1      41.707  30.911  36.251  1.00  0.00     0.029 A 
ATOM     52  N   UNL A   1      41.247  30.366  34.145  1.00  0.00    -0.354 N 
ATOM     53  N   UNL A   1      41.537  28.826  31.678  1.00  0.00    -0.248 NA
ATOM     54  C   UNL A   1      42.586  27.146  30.442  1.00  0.00     0.031 C 
ATOM     55  C   UNL A   1      42.558  29.868  35.868  1.00  0.00     0.029 A 
ATOM     56  C   UNL A   1      42.259  29.516  34.562  1.00  0.00     0.049 A 
ATOM     57  H   UNL A   1      40.831  30.355  33.253  1.00  0.00     0.167 HD
ATOM     58  C   UNL A   1      42.491  28.205  32.473  1.00  0.00     0.074 A 
ATOM     59  C   UNL A   1      43.085  27.156  31.670  1.00  0.00     0.031 C 
ATOM     60  C   UNL A   1      42.846  28.480  33.751  1.00  0.00     0.037 A 
BRANCH  47  61
ATOM     61  C   UNL A   1      39.710  33.183  36.244  1.00  0.00     0.057 A 
ATOM     62  C   UNL A   1      40.430  34.379  36.368  1.00  0.00     0.134 A 
ATOM     63  C   UNL A   1      38.778  32.884  37.245  1.00  0.00     0.134 A 
ATOM     64  F   UNL A   1      41.346  34.720  35.449  1.00  0.00    -0.206 F 
ATOM     65  C   UNL A   1      40.248  35.230  37.460  1.00  0.00     0.040 A 
ATOM     66  C   UNL A   1      38.570  33.740  38.328  1.00  0.00     0.040 A 
ATOM     67  F   UNL A   1      38.050  31.759  37.185  1.00  0.00    -0.206 F 
ATOM     68  C   UNL A   1      39.312  34.913  38.442  1.00  0.00     0.006 A 
ENDBRANCH  47  61
BRANCH  48  69
ATOM     69  C   UNL A   1      40.955  27.640  28.068  1.00  0.00     0.057 A 
ATOM     70  C   UNL A   1      41.814  28.071  27.052  1.00  0.00     0.134 A 
ATOM     71  C   UNL A   1      40.310  26.410  27.893  1.00  0.00     0.134 A 
ATOM     72  F   UNL A   1      42.446  29.250  27.157  1.00  0.00    -0.206 F 
ATOM     73  C   UNL A   1      42.015  27.316  25.895  1.00  0.00     0.040 A 
ATOM     74  C   UNL A   1      40.519  25.635  26.752  1.00  0.00     0.040 A 
ATOM     75  F   UNL A   1      39.482  25.940  28.836  1.00  0.00    -0.206 F 
ATOM     76  C   UNL A   1      41.370  26.089  25.747  1.00  0.00     0.006 A 
ENDBRANCH  48  69
BRANCH  60  77
ATOM     77  C   UNL A   1      43.912  27.620  34.363  1.00  0.00     0.057 A 
ATOM     78  C   UNL A   1      45.264  27.986  34.327  1.00  0.00     0.134 A 
ATOM     79  C   UNL A   1      43.583  26.419  35.003  1.00  0.00     0.134 A 
ATOM     80  F   UNL A   1      45.645  29.118  33.718  1.00  0.00    -0.206 F 
ATOM     81  C   UNL A   1      46.254  27.174  34.883  1.00  0.00     0.040 A 
ATOM     82  C   UNL A   1      44.561  25.610  35.583  1.00  0.00     0.040 A 
ATOM     83  F   UNL A   1      42.305  26.015  35.078  1.00  0.00    -0.206 F 
ATOM     84  C   UNL A   1      45.902  25.982  35.516  1.00  0.00     0.006 A 
ENDBRANCH  60  77
ENDBRANCH  34  35
ENDBRANCH  26  29
ENDBRANCH  24  25
ENDBRANCH   1  24
TORSDOF 11
ENDMDL
MODEL 2
REMARK VINA RESULT:     -11.9      1.341      1.831
REMARK SMILES CC1(C)CCCC[C@@]1(C(=O)NCCCNC(=O)c1ccc(-c2c3nc(c(-c4c(F)cccc4F)c4ccc([nH]4)c(-c4c(F)cccc4F)c4nc(c(-c5c(F)cccc5F)c5ccc2[nH]5)C=C4)C=C3)cc1)[NH+]1CC[NH2+]CC1
REMARK SMILES IDX 13 1 12 2 11 3 9 4 10 5 8 7 1 8 2 9 3 10 4 11 5 12 7 13 6 14
REMARK SMILES IDX 72 15 73 16 77 17 74 19 76 20 75 21 14 24 15 25 16 26 17 28
REMARK SMILES IDX 18 29 19 30 71 31 20 32 70 33 21 34 22 35 23 36 64 37 24 38
REMARK SMILES IDX 69 39 63 40 65 41 25 42 68 43 62 44 61 45 26 47 52 48 35 49
REMARK SMILES IDX 51 50 36 51 39 52 50 53 66 54 37 55 38 56 49 58 67 59 40 60
REMARK SMILES IDX 27 61 28 62 33 63 29 64 30 65 32 66 34 67 31 68 53 69 54 70
REMARK SMILES IDX 59 71 55 72 56 73 58 74 60 75 57 76 41 77 42 78 47 79 43 80
REMARK SMILES IDX 44 81 46 82 48 83 45 84
REMARK H PARENT 11 6 72 18 75 22 75 23 15 27 65 46 39 57
REMARK Flexibility Score: inf
ROOT
ATOM      1  C   UNL A   1      31.069  31.986  26.126  1.00  0.00     0.042 C 
ENDROOT
BRANCH   1   2
ATOM      2  C   UNL A   1      31.028  30.511  25.724  1.00  0.00     0.118 C 
BRANCH   2   3
ATOM      3  N   UNL A   1      32.221  30.077  25.013  1.00  0.00    -0.351 N 
ATOM      4  C   UNL A   1      32.455  29.122  24.066  1.00  0.00     0.281 C 
ATOM      5  O   UNL A   1      33.567  29.226  23.530  1.00  0.00    -0.268 OA
ATOM      6  H   UNL A   1      33.030  30.575  25.269  1.00  0.00     0.163 HD
BRANCH   4   7
ATOM      7  C   UNL A   1      31.427  27.954  23.665  1.00  0.00     0.182 C 
ATOM      8  C   UNL A   1      30.582  25.554  24.502  1.00  0.00     0.018 C 
ATOM      9  C   UNL A   1      31.494  26.789  24.786  1.00  0.00     0.029 C 
ATOM     10  C   UNL A   1      31.131  27.274  26.200  1.00  0.00     0.018 C 
ATOM     11  C   UNL A   1      32.959  26.257  24.875  1.00  0.00     0.013 C 
ATOM     12  C   UNL A   1      33.458  25.643  23.575  1.00  0.00     0.001 C 
ATOM     13  C   UNL A   1      31.948  27.312  22.319  1.00  0.00     0.080 C 
ATOM     14  C   UNL A   1      33.285  26.560  22.380  1.00  0.00     0.007 C 
BRANCH   7  15
ATOM     15  N   UNL A   1      30.102  28.650  23.427  1.00  0.00    -0.313 N 
ATOM     16  C   UNL A   1      28.891  27.827  23.329  1.00  0.00     0.325 C 
ATOM     17  C   UNL A   1      30.130  29.625  22.304  1.00  0.00     0.325 C 
ATOM     18  H   UNL A   1      30.011  29.140  24.318  1.00  0.00     0.349 HD
ATOM     19  C   UNL A   1      27.590  28.649  23.126  1.00  0.00     0.322 C 
ATOM     20  C   UNL A   1      28.828  30.445  22.171  1.00  0.00     0.322 C 
ATOM     21  N   UNL A   1      27.649  29.585  21.994  1.00  0.00    -0.337 N 
ATOM     22  H   UNL A   1      26.804  30.157  21.974  1.00  0.00     0.346 HD
ATOM     23  H   UNL A   1      27.715  29.072  21.116  1.00  0.00     0.346 HD
ENDBRANCH   7  15
ENDBRANCH   4   7
ENDBRANCH   2   3
ENDBRANCH   1   2
BRANCH   1  24
ATOM     24  C   UNL A   1      32.318  32.422  26.882  1.00  0.00     0.118 C 
BRANCH  24  25
ATOM     25  N   UNL A   1      32.189  33.755  27.446  1.00  0.00    -0.352 N 
ATOM     26  C   UNL A   1      32.972  34.395  28.376  1.00  0.00     0.251 C 
ATOM     27  H   UNL A   1      31.426  34.278  27.111  1.00  0.00     0.163 HD
ATOM     28  O   UNL A   1      32.574  35.442  28.879  1.00  0.00    -0.269 OA
BRANCH  26  29
ATOM     29  C   UNL A   1      34.280  33.834  28.798  1.00  0.00     0.039 A 
ATOM     30  C   UNL A   1      34.340  33.114  29.995  1.00  0.00     0.014 A 
ATOM     31  C   UNL A   1      35.452  34.054  28.067  1.00  0.00     0.014 A 
ATOM     32  C   UNL A   1      35.555  32.581  30.431  1.00  0.00     0.010 A 
ATOM     33  C   UNL A   1      36.651  33.457  28.465  1.00  0.00     0.010 A 
ATOM     34  C   UNL A   1      36.720  32.727  29.659  1.00  0.00    -0.014 A 
BRANCH  34  35
ATOM     35  C   UNL A   1      38.002  32.119  30.106  1.00  0.00     0.031 A 
ATOM     36  C   UNL A   1      38.829  32.766  31.185  1.00  0.00     0.074 A 
ATOM     37  C   UNL A   1      38.440  30.988  29.520  1.00  0.00     0.049 A 
ATOM     38  N   UNL A   1      39.946  32.350  31.730  1.00  0.00    -0.248 NA
ATOM     39  C   UNL A   1      38.357  34.059  31.702  1.00  0.00     0.031 C 
ATOM     40  C   UNL A   1      37.777  30.298  28.413  1.00  0.00     0.029 A 
ATOM     41  N   UNL A   1      39.546  30.217  29.778  1.00  0.00    -0.354 N 
ATOM     42  C   UNL A   1      40.315  33.334  32.639  1.00  0.00     0.074 A 
ATOM     43  C   UNL A   1      39.330  34.389  32.537  1.00  0.00     0.031 C 
ATOM     44  C   UNL A   1      38.469  29.189  28.109  1.00  0.00     0.029 A 
ATOM     45  C   UNL A   1      39.633  29.097  28.986  1.00  0.00     0.049 A 
ATOM     46  H   UNL A   1      40.214  30.443  30.464  1.00  0.00     0.167 HD
ATOM     47  C   UNL A   1      41.363  33.348  33.498  1.00  0.00     0.037 A 
ATOM     48  C   UNL A   1      40.537  28.101  28.976  1.00  0.00     0.037 A 
ATOM     49  C   UNL A   1      42.327  32.286  33.625  1.00  0.00     0.049 A 
ATOM     50  C   UNL A   1      41.657  28.108  29.977  1.00  0.00     0.074 A 
ATOM     51  C   UNL A   1      43.377  32.174  34.519  1.00  0.00     0.029 A 
ATOM     52  N   UNL A   1      42.359  31.150  32.829  1.00  0.00    -0.354 N 
ATOM     53  N   UNL A   1      41.939  29.001  30.894  1.00  0.00    -0.248 NA
ATOM     54  C   UNL A   1      42.573  26.960  29.952  1.00  0.00     0.031 C 
ATOM     55  C   UNL A   1      44.065  30.988  34.243  1.00  0.00     0.029 A 
ATOM     56  C   UNL A   1      43.420  30.341  33.202  1.00  0.00     0.049 A 
ATOM     57  H   UNL A   1      41.721  30.949  32.107  1.00  0.00     0.167 HD
ATOM     58  C   UNL A   1      43.052  28.515  31.568  1.00  0.00     0.074 A 
ATOM     59  C   UNL A   1      43.380  27.239  30.966  1.00  0.00     0.031 C 
ATOM     60  C   UNL A   1      43.740  29.075  32.591  1.00  0.00     0.037 A 
BRANCH  47  61
ATOM     61  C   UNL A   1      41.516  34.555  34.377  1.00  0.00     0.057 A 
ATOM     62  C   UNL A   1      42.256  35.674  33.973  1.00  0.00     0.134 A 
ATOM     63  C   UNL A   1      40.895  34.611  35.631  1.00  0.00     0.134 A 
ATOM     64  F   UNL A   1      42.885  35.681  32.787  1.00  0.00    -0.206 F 
ATOM     65  C   UNL A   1      42.396  36.794  34.795  1.00  0.00     0.040 A 
ATOM     66  C   UNL A   1      41.007  35.735  36.452  1.00  0.00     0.040 A 
ATOM     67  F   UNL A   1      40.166  33.578  36.078  1.00  0.00    -0.206 F 
ATOM     68  C   UNL A   1      41.766  36.828  36.037  1.00  0.00     0.006 A 
ENDBRANCH  47  61
BRANCH  48  69
ATOM     69  C   UNL A   1      40.386  26.981  28.015  1.00  0.00     0.057 A 
ATOM     70  C   UNL A   1      39.584  25.875  28.316  1.00  0.00     0.134 A 
ATOM     71  C   UNL A   1      41.027  26.996  26.771  1.00  0.00     0.134 A 
ATOM     72  F   UNL A   1      38.959  25.798  29.501  1.00  0.00    -0.206 F 
ATOM     73  C   UNL A   1      39.435  24.815  27.422  1.00  0.00     0.040 A 
ATOM     74  C   UNL A   1      40.870  25.953  25.858  1.00  0.00     0.040 A 
ATOM     75  F   UNL A   1      41.802  28.033  26.422  1.00  0.00    -0.206 F 
ATOM     76  C   UNL A   1      40.075  24.856  26.184  1.00  0.00     0.006 A 
ENDBRANCH  48  69
BRANCH  60  77
ATOM     77  C   UNL A   1      44.905  28.302  33.134  1.00  0.00     0.057 A 
ATOM     78  C   UNL A   1      46.205  28.485  32.643  1.00  0.00     0.134 A 
ATOM     79  C   UNL A   1      44.728  27.371  34.165  1.00  0.00     0.134 A 
ATOM     80  F   UNL A   1      46.438  29.352  31.646  1.00  0.00    -0.206 F 
ATOM     81  C   UNL A   1      47.282  27.750  33.139  1.00  0.00     0.040 A 
ATOM     82  C   UNL A   1      45.802  26.647  34.685  1.00  0.00     0.040 A 
ATOM     83  F   UNL A   1      43.510  27.153  34.685  1.00  0.00    -0.206 F 
ATOM     84  C   UNL A   1      47.082  26.829  34.167  1.00  0.00     0.006 A 
ENDBRANCH  60  77
ENDBRANCH  34  35
ENDBRANCH  26  29
ENDBRANCH  24  25
ENDBRANCH   1  24
TORSDOF 11
ENDMDL
MODEL 3
REMARK VINA RESULT:     -11.8      5.445      9.917
REMARK SMILES CC1(C)CCCC[C@@]1(C(=O)NCCCNC(=O)c1ccc(-c2c3nc(c(-c4c(F)cccc4F)c4ccc([nH]4)c(-c4c(F)cccc4F)c4nc(c(-c5c(F)cccc5F)c5ccc2[nH]5)C=C4)C=C3)cc1)[NH+]1CC[NH2+]CC1
REMARK SMILES IDX 13 1 12 2 11 3 9 4 10 5 8 7 1 8 2 9 3 10 4 11 5 12 7 13 6 14
REMARK SMILES IDX 72 15 73 16 77 17 74 19 76 20 75 21 14 24 15 25 16 26 17 28
REMARK SMILES IDX 18 29 19 30 71 31 20 32 70 33 21 34 22 35 23 36 64 37 24 38
REMARK SMILES IDX 69 39 63 40 65 41 25 42 68 43 62 44 61 45 26 47 52 48 35 49
REMARK SMILES IDX 51 50 36 51 39 52 50 53 66 54 37 55 38 56 49 58 67 59 40 60
REMARK SMILES IDX 27 61 28 62 33 63 29 64 30 65 32 66 34 67 31 68 53 69 54 70
REMARK SMILES IDX 59 71 55 72 56 73 58 74 60 75 57 76 41 77 42 78 47 79 43 80
REMARK SMILES IDX 44 81 46 82 48 83 45 84
REMARK H PARENT 11 6 72 18 75 22 75 23 15 27 65 46 39 57
REMARK Flexibility Score: inf
ROOT
ATOM      1  C   UNL A   1      37.620  19.474  24.990  1.00  0.00     0.042 C 
ENDROOT
BRANCH   1   2
ATOM      2  C   UNL A   1      36.440  20.401  24.697  1.00  0.00     0.118 C 
BRANCH   2   3
ATOM      3  N   UNL A   1      35.907  21.045  25.888  1.00  0.00    -0.351 N 
ATOM      4  C   UNL A   1      34.668  21.502  26.235  1.00  0.00     0.281 C 
ATOM      5  O   UNL A   1      34.565  21.769  27.440  1.00  0.00    -0.268 OA
ATOM      6  H   UNL A   1      36.581  21.182  26.592  1.00  0.00     0.163 HD
BRANCH   4   7
ATOM      7  C   UNL A   1      33.444  21.703  25.215  1.00  0.00     0.182 C 
ATOM      8  C   UNL A   1      32.605  23.350  23.277  1.00  0.00     0.018 C 
ATOM      9  C   UNL A   1      33.739  22.996  24.289  1.00  0.00     0.029 C 
ATOM     10  C   UNL A   1      35.030  22.880  23.462  1.00  0.00     0.018 C 
ATOM     11  C   UNL A   1      33.928  24.244  25.210  1.00  0.00     0.013 C 
ATOM     12  C   UNL A   1      32.696  24.572  26.041  1.00  0.00     0.001 C 
ATOM     13  C   UNL A   1      32.166  22.050  26.077  1.00  0.00     0.080 C 
ATOM     14  C   UNL A   1      32.180  23.386  26.833  1.00  0.00     0.007 C 
BRANCH   7  15
ATOM     15  N   UNL A   1      33.262  20.359  24.538  1.00  0.00    -0.313 N 
ATOM     16  C   UNL A   1      32.378  20.283  23.368  1.00  0.00     0.325 C 
ATOM     17  C   UNL A   1      32.933  19.253  25.478  1.00  0.00     0.325 C 
ATOM     18  H   UNL A   1      34.202  20.235  24.161  1.00  0.00     0.349 HD
ATOM     19  C   UNL A   1      32.300  18.868  22.734  1.00  0.00     0.322 C 
ATOM     20  C   UNL A   1      32.908  17.864  24.805  1.00  0.00     0.322 C 
ATOM     21  N   UNL A   1      31.953  17.807  23.690  1.00  0.00    -0.337 N 
ATOM     22  H   UNL A   1      32.010  16.897  23.231  1.00  0.00     0.346 HD
ATOM     23  H   UNL A   1      31.002  17.938  24.033  1.00  0.00     0.346 HD
ENDBRANCH   7  15
ENDBRANCH   4   7
ENDBRANCH   2   3
ENDBRANCH   1   2
BRANCH   1  24
ATOM     24  C   UNL A   1      38.786  20.116  25.733  1.00  0.00     0.118 C 
BRANCH  24  25
ATOM     25  N   UNL A   1      39.951  19.251  25.790  1.00  0.00    -0.352 N 
ATOM     26  C   UNL A   1      41.256  19.555  26.098  1.00  0.00     0.251 C 
ATOM     27  H   UNL A   1      39.781  18.306  25.576  1.00  0.00     0.163 HD
ATOM     28  O   UNL A   1      42.133  18.723  25.885  1.00  0.00    -0.269 OA
BRANCH  26  29
ATOM     29  C   UNL A   1      41.626  20.876  26.665  1.00  0.00     0.039 A 
ATOM     30  C   UNL A   1      41.955  21.910  25.783  1.00  0.00     0.014 A 
ATOM     31  C   UNL A   1      41.709  21.094  28.044  1.00  0.00     0.014 A 
ATOM     32  C   UNL A   1      42.320  23.164  26.279  1.00  0.00     0.010 A 
ATOM     33  C   UNL A   1      42.000  22.369  28.538  1.00  0.00     0.010 A 
ATOM     34  C   UNL A   1      42.324  23.414  27.662  1.00  0.00    -0.014 A 
BRANCH  34  35
ATOM     35  C   UNL A   1      42.669  24.764  28.182  1.00  0.00     0.031 A 
ATOM     36  C   UNL A   1      44.100  25.140  28.465  1.00  0.00     0.074 A 
ATOM     37  C   UNL A   1      41.687  25.652  28.427  1.00  0.00     0.049 A 
ATOM     38  N   UNL A   1      44.586  26.285  28.877  1.00  0.00    -0.248 NA
ATOM     39  C   UNL A   1      45.112  24.089  28.290  1.00  0.00     0.031 C 
ATOM     40  C   UNL A   1      40.255  25.394  28.270  1.00  0.00     0.029 A 
ATOM     41  N   UNL A   1      41.744  26.954  28.858  1.00  0.00    -0.354 N 
ATOM     42  C   UNL A   1      45.954  26.088  29.021  1.00  0.00     0.074 A 
ATOM     43  C   UNL A   1      46.213  24.700  28.701  1.00  0.00     0.031 C 
ATOM     44  C   UNL A   1      39.572  26.511  28.565  1.00  0.00     0.029 A 
ATOM     45  C   UNL A   1      40.514  27.558  28.949  1.00  0.00     0.049 A 
ATOM     46  H   UNL A   1      42.587  27.413  29.080  1.00  0.00     0.167 HD
ATOM     47  C   UNL A   1      46.911  26.983  29.364  1.00  0.00     0.037 A 
ATOM     48  C   UNL A   1      40.181  28.817  29.288  1.00  0.00     0.037 A 
ATOM     49  C   UNL A   1      46.661  28.372  29.652  1.00  0.00     0.049 A 
ATOM     50  C   UNL A   1      41.263  29.809  29.608  1.00  0.00     0.074 A 
ATOM     51  C   UNL A   1      47.574  29.374  29.933  1.00  0.00     0.029 A 
ATOM     52  N   UNL A   1      45.403  28.955  29.698  1.00  0.00    -0.354 N 
ATOM     53  N   UNL A   1      42.560  29.630  29.649  1.00  0.00    -0.248 NA
ATOM     54  C   UNL A   1      40.834  31.181  29.910  1.00  0.00     0.031 C 
ATOM     55  C   UNL A   1      46.866  30.555  30.183  1.00  0.00     0.029 A 
ATOM     56  C   UNL A   1      45.515  30.298  30.019  1.00  0.00     0.049 A 
ATOM     57  H   UNL A   1      44.556  28.483  29.528  1.00  0.00     0.167 HD
ATOM     58  C   UNL A   1      43.105  30.868  29.963  1.00  0.00     0.074 A 
ATOM     59  C   UNL A   1      41.997  31.794  30.081  1.00  0.00     0.031 C 
ATOM     60  C   UNL A   1      44.404  31.208  30.139  1.00  0.00     0.037 A 
BRANCH  47  61
ATOM     61  C   UNL A   1      48.325  26.485  29.440  1.00  0.00     0.057 A 
ATOM     62  C   UNL A   1      49.192  26.556  28.342  1.00  0.00     0.134 A 
ATOM     63  C   UNL A   1      48.834  25.955  30.632  1.00  0.00     0.134 A 
ATOM     64  F   UNL A   1      48.764  27.044  27.168  1.00  0.00    -0.206 F 
ATOM     65  C   UNL A   1      50.506  26.091  28.418  1.00  0.00     0.040 A 
ATOM     66  C   UNL A   1      50.154  25.509  30.727  1.00  0.00     0.040 A 
ATOM     67  F   UNL A   1      48.061  25.864  31.724  1.00  0.00    -0.206 F 
ATOM     68  C   UNL A   1      50.992  25.569  29.615  1.00  0.00     0.006 A 
ENDBRANCH  47  61
BRANCH  48  69
ATOM     69  C   UNL A   1      38.754  29.225  29.290  1.00  0.00     0.057 A 
ATOM     70  C   UNL A   1      37.984  29.150  30.456  1.00  0.00     0.134 A 
ATOM     71  C   UNL A   1      38.133  29.710  28.133  1.00  0.00     0.134 A 
ATOM     72  F   UNL A   1      38.522  28.677  31.590  1.00  0.00    -0.206 F 
ATOM     73  C   UNL A   1      36.642  29.529  30.470  1.00  0.00     0.040 A 
ATOM     74  C   UNL A   1      36.797  30.113  28.139  1.00  0.00     0.040 A 
ATOM     75  F   UNL A   1      38.821  29.812  26.988  1.00  0.00    -0.206 F 
ATOM     76  C   UNL A   1      36.046  30.019  29.309  1.00  0.00     0.006 A 
ENDBRANCH  48  69
BRANCH  60  77
ATOM     77  C   UNL A   1      44.696  32.644  30.460  1.00  0.00     0.057 A 
ATOM     78  C   UNL A   1      44.779  33.102  31.782  1.00  0.00     0.134 A 
ATOM     79  C   UNL A   1      44.906  33.577  29.437  1.00  0.00     0.134 A 
ATOM     80  F   UNL A   1      44.575  32.260  32.806  1.00  0.00    -0.206 F 
ATOM     81  C   UNL A   1      45.034  34.442  32.074  1.00  0.00     0.040 A 
ATOM     82  C   UNL A   1      45.185  34.916  29.718  1.00  0.00     0.040 A 
ATOM     83  F   UNL A   1      44.847  33.202  28.150  1.00  0.00    -0.206 F 
ATOM     84  C   UNL A   1      45.241  35.353  31.039  1.00  0.00     0.006 A 
ENDBRANCH  60  77
ENDBRANCH  34  35
ENDBRANCH  26  29
ENDBRANCH  24  25
ENDBRANCH   1  24
TORSDOF 11
ENDMDL
