MODEL 1
REMARK VINA RESULT:     -11.1      0.000      0.000
REMARK SMILES CC(C)[NH2+]CC[C@H](c1ccccc1)c1cc(C(=O)NCCCNC(=O)c2ccc(-c3c4nc(c(-c5c(F)cccc5F)c5ccc([nH]5)c(-c5c(F)cccc5F)c5nc(c(-c6c(F)cccc6F)c6ccc3[nH]6)C=C5)C=C4)cc2)ccc1O
REMARK SMILES IDX 17 1 18 2 19 3 16 5 14 6 15 7 82 8 81 9 80 10 7 11 6 12 5 13
REMARK SMILES IDX 4 14 2 17 1 18 3 19 8 20 9 21 13 22 10 23 12 24 11 25 83 26
REMARK SMILES IDX 20 28 21 29 22 30 23 31 24 32 25 34 26 35 27 36 79 37 28 38
REMARK SMILES IDX 78 39 29 40 30 41 31 42 72 43 32 44 77 45 71 46 73 47 33 48
REMARK SMILES IDX 76 49 70 50 69 51 34 53 60 54 43 55 59 56 44 57 47 58 58 59
REMARK SMILES IDX 74 60 45 61 46 62 57 64 75 65 48 66 35 67 36 68 41 69 37 70
REMARK SMILES IDX 38 71 40 72 42 73 39 74 61 75 62 76 67 77 63 78 64 79 66 80
REMARK SMILES IDX 68 81 65 82 49 83 50 84 55 85 51 86 52 87 54 88 56 89 53 90
REMARK H PARENT 19 4 4 15 4 16 83 27 23 33 73 52 47 63
REMARK Flexibility Score: inf
ROOT
ATOM      1  C   UNL A   1      37.167  23.460  25.728  1.00  0.00     0.251 C 
ATOM      2  O   UNL A   1      37.846  24.378  26.181  1.00  0.00    -0.269 OA
ATOM      3  N   UNL A   1      37.767  22.468  24.982  1.00  0.00    -0.352 N 
ATOM      4  H   UNL A   1      38.741  22.563  24.879  1.00  0.00     0.163 HD
ENDROOT
BRANCH   1   5
ATOM      5  C   UNL A   1      35.699  23.458  25.920  1.00  0.00     0.040 A 
ATOM      6  C   UNL A   1      33.512  24.256  25.149  1.00  0.00     0.002 A 
ATOM      7  C   UNL A   1      34.918  24.385  25.216  1.00  0.00     0.022 A 
ATOM      8  C   UNL A   1      32.980  23.098  25.730  1.00  0.00     0.119 A 
ATOM      9  C   UNL A   1      33.727  22.281  26.574  1.00  0.00     0.047 A 
ATOM     10  C   UNL A   1      35.082  22.516  26.735  1.00  0.00     0.017 A 
BRANCH   6  11
ATOM     11  C   UNL A   1      32.684  25.439  24.616  1.00  0.00     0.059 C 
BRANCH  11  12
ATOM     12  C   UNL A   1      32.858  25.931  23.152  1.00  0.00     0.074 C 
BRANCH  12  13
ATOM     13  C   UNL A   1      31.622  26.267  22.280  1.00  0.00     0.261 C 
BRANCH  13  14
ATOM     14  N   UNL A   1      31.358  27.683  21.995  1.00  0.00    -0.344 N 
ATOM     15  H   UNL A   1      32.201  28.215  22.208  1.00  0.00     0.346 HD
ATOM     16  H   UNL A   1      31.095  27.742  21.010  1.00  0.00     0.346 HD
BRANCH  14  17
ATOM     17  C   UNL A   1      30.246  28.250  22.767  1.00  0.00     0.176 C 
ATOM     18  C   UNL A   1      29.549  27.087  23.478  1.00  0.00     0.075 C 
ATOM     19  C   UNL A   1      30.758  29.253  23.804  1.00  0.00     0.075 C 
ENDBRANCH  14  17
ENDBRANCH  13  14
ENDBRANCH  12  13
ENDBRANCH  11  12
BRANCH  11  20
ATOM     20  C   UNL A   1      32.730  26.668  25.537  1.00  0.00    -0.040 A 
ATOM     21  C   UNL A   1      31.773  26.857  26.546  1.00  0.00     0.004 A 
ATOM     22  C   UNL A   1      33.739  27.634  25.372  1.00  0.00     0.004 A 
ATOM     23  C   UNL A   1      31.823  27.988  27.363  1.00  0.00     0.000 A 
ATOM     24  C   UNL A   1      33.784  28.763  26.190  1.00  0.00     0.000 A 
ATOM     25  C   UNL A   1      32.826  28.940  27.184  1.00  0.00     0.000 A 
ENDBRANCH  11  20
ENDBRANCH   6  11
BRANCH   8  26
ATOM     26  O   UNL A   1      31.695  22.700  25.532  1.00  0.00    -0.508 OA
ATOM     27  H   UNL A   1      30.988  23.283  25.725  1.00  0.00     0.293 HD
ENDBRANCH   8  26
ENDBRANCH   1   5
BRANCH   3  28
ATOM     28  C   UNL A   1      37.192  21.301  24.320  1.00  0.00     0.118 C 
BRANCH  28  29
ATOM     29  C   UNL A   1      37.855  19.983  24.674  1.00  0.00     0.042 C 
BRANCH  29  30
ATOM     30  C   UNL A   1      38.660  20.003  25.959  1.00  0.00     0.118 C 
BRANCH  30  31
ATOM     31  N   UNL A   1      39.878  19.207  25.881  1.00  0.00    -0.352 N 
ATOM     32  C   UNL A   1      41.203  19.525  26.048  1.00  0.00     0.251 C 
ATOM     33  H   UNL A   1      39.721  18.260  25.667  1.00  0.00     0.163 HD
ATOM     34  O   UNL A   1      42.050  18.689  25.744  1.00  0.00    -0.269 OA
BRANCH  32  35
ATOM     35  C   UNL A   1      41.638  20.845  26.562  1.00  0.00     0.039 A 
ATOM     36  C   UNL A   1      41.953  21.849  25.638  1.00  0.00     0.014 A 
ATOM     37  C   UNL A   1      41.804  21.096  27.923  1.00  0.00     0.014 A 
ATOM     38  C   UNL A   1      42.375  23.106  26.082  1.00  0.00     0.010 A 
ATOM     39  C   UNL A   1      42.113  22.379  28.369  1.00  0.00     0.010 A 
ATOM     40  C   UNL A   1      42.426  23.392  27.454  1.00  0.00    -0.014 A 
BRANCH  40  41
ATOM     41  C   UNL A   1      42.838  24.730  27.950  1.00  0.00     0.031 A 
ATOM     42  C   UNL A   1      41.801  25.781  28.253  1.00  0.00     0.074 A 
ATOM     43  C   UNL A   1      44.146  25.022  28.075  1.00  0.00     0.049 A 
ATOM     44  N   UNL A   1      41.968  27.021  28.638  1.00  0.00    -0.248 NA
ATOM     45  C   UNL A   1      40.392  25.399  28.063  1.00  0.00     0.031 C 
ATOM     46  C   UNL A   1      45.253  24.119  27.750  1.00  0.00     0.029 A 
ATOM     47  N   UNL A   1      44.769  26.166  28.506  1.00  0.00    -0.354 N 
ATOM     48  C   UNL A   1      40.693  27.571  28.702  1.00  0.00     0.074 A 
ATOM     49  C   UNL A   1      39.767  26.548  28.270  1.00  0.00     0.031 C 
ATOM     50  C   UNL A   1      46.416  24.730  28.028  1.00  0.00     0.029 A 
ATOM     51  C   UNL A   1      46.139  26.075  28.525  1.00  0.00     0.049 A 
ATOM     52  H   UNL A   1      44.279  26.977  28.777  1.00  0.00     0.167 HD
ATOM     53  C   UNL A   1      40.322  28.808  29.110  1.00  0.00     0.037 A 
ATOM     54  C   UNL A   1      47.067  26.970  28.909  1.00  0.00     0.037 A 
ATOM     55  C   UNL A   1      41.235  29.809  29.595  1.00  0.00     0.049 A 
ATOM     56  C   UNL A   1      46.626  28.309  29.427  1.00  0.00     0.074 A 
ATOM     57  C   UNL A   1      40.953  31.068  30.092  1.00  0.00     0.029 A 
ATOM     58  N   UNL A   1      42.610  29.652  29.655  1.00  0.00    -0.354 N 
ATOM     59  N   UNL A   1      45.414  28.794  29.537  1.00  0.00    -0.248 NA
ATOM     60  C   UNL A   1      47.683  29.219  29.889  1.00  0.00     0.031 C 
ATOM     61  C   UNL A   1      42.162  31.683  30.437  1.00  0.00     0.029 A 
ATOM     62  C   UNL A   1      43.193  30.793  30.182  1.00  0.00     0.049 A 
ATOM     63  H   UNL A   1      43.102  28.849  29.367  1.00  0.00     0.167 HD
ATOM     64  C   UNL A   1      45.558  30.053  30.103  1.00  0.00     0.074 A 
ATOM     65  C   UNL A   1      46.976  30.251  30.327  1.00  0.00     0.031 C 
ATOM     66  C   UNL A   1      44.604  30.965  30.408  1.00  0.00     0.037 A 
BRANCH  53  67
ATOM     67  C   UNL A   1      38.858  29.137  29.064  1.00  0.00     0.057 A 
ATOM     68  C   UNL A   1      38.042  29.029  30.199  1.00  0.00     0.134 A 
ATOM     69  C   UNL A   1      38.260  29.580  27.878  1.00  0.00     0.134 A 
ATOM     70  F   UNL A   1      38.550  28.596  31.362  1.00  0.00    -0.206 F 
ATOM     71  C   UNL A   1      36.679  29.322  30.149  1.00  0.00     0.040 A 
ATOM     72  C   UNL A   1      36.903  29.900  27.822  1.00  0.00     0.040 A 
ATOM     73  F   UNL A   1      38.984  29.709  26.757  1.00  0.00    -0.206 F 
ATOM     74  C   UNL A   1      36.106  29.765  28.958  1.00  0.00     0.006 A 
ENDBRANCH  53  67
BRANCH  54  75
ATOM     75  C   UNL A   1      48.504  26.607  28.873  1.00  0.00     0.057 A 
ATOM     76  C   UNL A   1      49.293  26.920  27.759  1.00  0.00     0.134 A 
ATOM     77  C   UNL A   1      49.123  25.949  29.940  1.00  0.00     0.134 A 
ATOM     78  F   UNL A   1      48.750  27.537  26.699  1.00  0.00    -0.206 F 
ATOM     79  C   UNL A   1      50.643  26.573  27.701  1.00  0.00     0.040 A 
ATOM     80  C   UNL A   1      50.477  25.615  29.904  1.00  0.00     0.040 A 
ATOM     81  F   UNL A   1      48.421  25.632  31.038  1.00  0.00    -0.206 F 
ATOM     82  C   UNL A   1      51.240  25.922  28.779  1.00  0.00     0.006 A 
ENDBRANCH  54  75
BRANCH  66  83
ATOM     83  C   UNL A   1      45.062  32.239  31.050  1.00  0.00     0.057 A 
ATOM     84  C   UNL A   1      45.399  33.367  30.291  1.00  0.00     0.134 A 
ATOM     85  C   UNL A   1      45.147  32.344  32.443  1.00  0.00     0.134 A 
ATOM     86  F   UNL A   1      45.351  33.324  28.951  1.00  0.00    -0.206 F 
ATOM     87  C   UNL A   1      45.831  34.547  30.896  1.00  0.00     0.040 A 
ATOM     88  C   UNL A   1      45.556  33.526  33.061  1.00  0.00     0.040 A 
ATOM     89  F   UNL A   1      44.831  31.300  33.226  1.00  0.00    -0.206 F 
ATOM     90  C   UNL A   1      45.905  34.630  32.286  1.00  0.00     0.006 A 
ENDBRANCH  66  83
ENDBRANCH  40  41
ENDBRANCH  32  35
ENDBRANCH  30  31
ENDBRANCH  29  30
ENDBRANCH  28  29
ENDBRANCH   3  28
TORSDOF 17
ENDMDL
MODEL 2
REMARK VINA RESULT:     -11.0      1.432      6.475
REMARK SMILES CC(C)[NH2+]CC[C@H](c1ccccc1)c1cc(C(=O)NCCCNC(=O)c2ccc(-c3c4nc(c(-c5c(F)cccc5F)c5ccc([nH]5)c(-c5c(F)cccc5F)c5nc(c(-c6c(F)cccc6F)c6ccc3[nH]6)C=C5)C=C4)cc2)ccc1O
REMARK SMILES IDX 17 1 18 2 19 3 16 5 14 6 15 7 82 8 81 9 80 10 7 11 6 12 5 13
REMARK SMILES IDX 4 14 2 17 1 18 3 19 8 20 9 21 13 22 10 23 12 24 11 25 83 26
REMARK SMILES IDX 20 28 21 29 22 30 23 31 24 32 25 34 26 35 27 36 79 37 28 38
REMARK SMILES IDX 78 39 29 40 30 41 31 42 72 43 32 44 77 45 71 46 73 47 33 48
REMARK SMILES IDX 76 49 70 50 69 51 34 53 60 54 43 55 59 56 44 57 47 58 58 59
REMARK SMILES IDX 74 60 45 61 46 62 57 64 75 65 48 66 35 67 36 68 41 69 37 70
REMARK SMILES IDX 38 71 40 72 42 73 39 74 61 75 62 76 67 77 63 78 64 79 66 80
REMARK SMILES IDX 68 81 65 82 49 83 50 84 55 85 51 86 52 87 54 88 56 89 53 90
REMARK H PARENT 19 4 4 15 4 16 83 27 23 33 73 52 47 63
REMARK Flexibility Score: inf
ROOT
ATOM      1  C   UNL A   1      37.467  23.329  25.404  1.00  0.00     0.251 C 
ATOM      2  O   UNL A   1      38.124  24.232  25.916  1.00  0.00    -0.269 OA
ATOM      3  N   UNL A   1      38.021  22.074  25.260  1.00  0.00    -0.352 N 
ATOM      4  H   UNL A   1      38.936  21.986  25.611  1.00  0.00     0.163 HD
ENDROOT
BRANCH   1   5
ATOM      5  C   UNL A   1      36.111  23.605  24.875  1.00  0.00     0.040 A 
ATOM      6  C   UNL A   1      33.966  24.751  25.184  1.00  0.00     0.002 A 
ATOM      7  C   UNL A   1      35.168  24.224  25.707  1.00  0.00     0.022 A 
ATOM      8  C   UNL A   1      33.840  24.711  23.790  1.00  0.00     0.119 A 
ATOM      9  C   UNL A   1      34.684  23.944  22.991  1.00  0.00     0.047 A 
ATOM     10  C   UNL A   1      35.781  23.316  23.556  1.00  0.00     0.017 A 
BRANCH   6  11
ATOM     11  C   UNL A   1      32.848  25.158  26.162  1.00  0.00     0.059 C 
BRANCH  11  12
ATOM     12  C   UNL A   1      31.394  24.649  25.955  1.00  0.00     0.074 C 
BRANCH  12  13
ATOM     13  C   UNL A   1      31.122  23.181  25.540  1.00  0.00     0.261 C 
BRANCH  13  14
ATOM     14  N   UNL A   1      31.893  22.131  26.219  1.00  0.00    -0.344 N 
ATOM     15  H   UNL A   1      32.716  22.560  26.640  1.00  0.00     0.346 HD
ATOM     16  H   UNL A   1      31.272  21.710  26.911  1.00  0.00     0.346 HD
BRANCH  14  17
ATOM     17  C   UNL A   1      32.337  21.050  25.333  1.00  0.00     0.176 C 
ATOM     18  C   UNL A   1      32.198  21.556  23.894  1.00  0.00     0.075 C 
ATOM     19  C   UNL A   1      33.799  20.684  25.609  1.00  0.00     0.075 C 
ENDBRANCH  14  17
ENDBRANCH  13  14
ENDBRANCH  12  13
ENDBRANCH  11  12
BRANCH  11  20
ATOM     20  C   UNL A   1      32.789  26.673  26.410  1.00  0.00    -0.040 A 
ATOM     21  C   UNL A   1      31.680  27.264  27.034  1.00  0.00     0.004 A 
ATOM     22  C   UNL A   1      33.855  27.495  26.003  1.00  0.00     0.004 A 
ATOM     23  C   UNL A   1      31.639  28.645  27.239  1.00  0.00     0.000 A 
ATOM     24  C   UNL A   1      33.808  28.874  26.207  1.00  0.00     0.000 A 
ATOM     25  C   UNL A   1      32.699  29.449  26.824  1.00  0.00     0.000 A 
ENDBRANCH  11  20
ENDBRANCH   6  11
BRANCH   8  26
ATOM     26  O   UNL A   1      32.877  25.397  23.118  1.00  0.00    -0.508 OA
ATOM     27  H   UNL A   1      32.030  25.511  23.501  1.00  0.00     0.293 HD
ENDBRANCH   8  26
ENDBRANCH   1   5
BRANCH   3  28
ATOM     28  C   UNL A   1      37.471  20.858  24.671  1.00  0.00     0.118 C 
BRANCH  28  29
ATOM     29  C   UNL A   1      38.311  19.613  24.891  1.00  0.00     0.042 C 
BRANCH  29  30
ATOM     30  C   UNL A   1      39.240  19.678  26.089  1.00  0.00     0.118 C 
BRANCH  30  31
ATOM     31  N   UNL A   1      40.548  19.093  25.828  1.00  0.00    -0.352 N 
ATOM     32  C   UNL A   1      41.821  19.601  25.906  1.00  0.00     0.251 C 
ATOM     33  H   UNL A   1      40.513  18.153  25.540  1.00  0.00     0.163 HD
ATOM     34  O   UNL A   1      42.748  18.935  25.451  1.00  0.00    -0.269 OA
BRANCH  32  35
ATOM     35  C   UNL A   1      42.104  20.928  26.502  1.00  0.00     0.039 A 
ATOM     36  C   UNL A   1      42.375  22.000  25.643  1.00  0.00     0.014 A 
ATOM     37  C   UNL A   1      42.174  21.126  27.880  1.00  0.00     0.014 A 
ATOM     38  C   UNL A   1      42.655  23.266  26.165  1.00  0.00     0.010 A 
ATOM     39  C   UNL A   1      42.340  22.407  28.399  1.00  0.00     0.010 A 
ATOM     40  C   UNL A   1      42.606  23.488  27.549  1.00  0.00    -0.014 A 
BRANCH  40  41
ATOM     41  C   UNL A   1      42.866  24.832  28.127  1.00  0.00     0.031 A 
ATOM     42  C   UNL A   1      44.262  25.224  28.538  1.00  0.00     0.074 A 
ATOM     43  C   UNL A   1      41.842  25.680  28.336  1.00  0.00     0.049 A 
ATOM     44  N   UNL A   1      44.677  26.325  29.112  1.00  0.00    -0.248 NA
ATOM     45  C   UNL A   1      45.326  24.233  28.308  1.00  0.00     0.031 C 
ATOM     46  C   UNL A   1      40.434  25.397  28.046  1.00  0.00     0.029 A 
ATOM     47  N   UNL A   1      41.825  26.953  28.846  1.00  0.00    -0.354 N 
ATOM     48  C   UNL A   1      46.036  26.144  29.339  1.00  0.00     0.074 A 
ATOM     49  C   UNL A   1      46.367  24.811  28.889  1.00  0.00     0.031 C 
ATOM     50  C   UNL A   1      39.697  26.479  28.348  1.00  0.00     0.029 A 
ATOM     51  C   UNL A   1      40.575  27.518  28.876  1.00  0.00     0.049 A 
ATOM     52  H   UNL A   1      42.635  27.418  29.160  1.00  0.00     0.167 HD
ATOM     53  C   UNL A   1      46.935  27.018  29.852  1.00  0.00     0.037 A 
ATOM     54  C   UNL A   1      40.181  28.742  29.275  1.00  0.00     0.037 A 
ATOM     55  C   UNL A   1      46.619  28.365  30.248  1.00  0.00     0.049 A 
ATOM     56  C   UNL A   1      41.208  29.719  29.771  1.00  0.00     0.074 A 
ATOM     57  C   UNL A   1      47.469  29.350  30.718  1.00  0.00     0.029 A 
ATOM     58  N   UNL A   1      45.349  28.919  30.205  1.00  0.00    -0.354 N 
ATOM     59  N   UNL A   1      42.498  29.553  29.926  1.00  0.00    -0.248 NA
ATOM     60  C   UNL A   1      40.725  31.058  30.133  1.00  0.00     0.031 C 
ATOM     61  C   UNL A   1      46.710  30.497  30.977  1.00  0.00     0.029 A 
ATOM     62  C   UNL A   1      45.392  30.233  30.639  1.00  0.00     0.049 A 
ATOM     63  H   UNL A   1      44.536  28.448  29.908  1.00  0.00     0.167 HD
ATOM     64  C   UNL A   1      42.986  30.772  30.379  1.00  0.00     0.074 A 
ATOM     65  C   UNL A   1      41.853  31.671  30.460  1.00  0.00     0.031 C 
ATOM     66  C   UNL A   1      44.256  31.115  30.700  1.00  0.00     0.037 A 
BRANCH  53  67
ATOM     67  C   UNL A   1      48.351  26.544  29.995  1.00  0.00     0.057 A 
ATOM     68  C   UNL A   1      48.784  25.845  31.131  1.00  0.00     0.134 A 
ATOM     69  C   UNL A   1      49.289  26.774  28.981  1.00  0.00     0.134 A 
ATOM     70  F   UNL A   1      47.939  25.606  32.145  1.00  0.00    -0.206 F 
ATOM     71  C   UNL A   1      50.106  25.418  31.266  1.00  0.00     0.040 A 
ATOM     72  C   UNL A   1      50.608  26.329  29.094  1.00  0.00     0.040 A 
ATOM     73  F   UNL A   1      48.941  27.433  27.866  1.00  0.00    -0.206 F 
ATOM     74  C   UNL A   1      51.021  25.656  30.242  1.00  0.00     0.006 A 
ENDBRANCH  53  67
BRANCH  54  75
ATOM     75  C   UNL A   1      38.754  29.131  29.167  1.00  0.00     0.057 A 
ATOM     76  C   UNL A   1      37.917  29.103  30.290  1.00  0.00     0.134 A 
ATOM     77  C   UNL A   1      38.195  29.542  27.953  1.00  0.00     0.134 A 
ATOM     78  F   UNL A   1      38.395  28.703  31.477  1.00  0.00    -0.206 F 
ATOM     79  C   UNL A   1      36.569  29.452  30.204  1.00  0.00     0.040 A 
ATOM     80  C   UNL A   1      36.853  29.914  27.858  1.00  0.00     0.040 A 
ATOM     81  F   UNL A   1      38.949  29.599  26.845  1.00  0.00    -0.206 F 
ATOM     82  C   UNL A   1      36.035  29.863  28.985  1.00  0.00     0.006 A 
ENDBRANCH  54  75
BRANCH  66  83
ATOM     83  C   UNL A   1      44.489  32.531  31.132  1.00  0.00     0.057 A 
ATOM     84  C   UNL A   1      44.429  32.910  32.479  1.00  0.00     0.134 A 
ATOM     85  C   UNL A   1      44.796  33.520  30.191  1.00  0.00     0.134 A 
ATOM     86  F   UNL A   1      44.126  32.009  33.426  1.00  0.00    -0.206 F 
ATOM     87  C   UNL A   1      44.641  34.232  32.872  1.00  0.00     0.040 A 
ATOM     88  C   UNL A   1      45.032  34.841  30.573  1.00  0.00     0.040 A 
ATOM     89  F   UNL A   1      44.875  33.219  28.885  1.00  0.00    -0.206 F 
ATOM     90  C   UNL A   1      44.949  35.201  31.917  1.00  0.00     0.006 A 
ENDBRANCH  66  83
ENDBRANCH  40  41
ENDBRANCH  32  35
ENDBRANCH  30  31
ENDBRANCH  29  30
ENDBRANCH  28  29
ENDBRANCH   3  28
TORSDOF 17
ENDMDL
MODEL 3
REMARK VINA RESULT:     -11.0      0.616      6.106
REMARK SMILES CC(C)[NH2+]CC[C@H](c1ccccc1)c1cc(C(=O)NCCCNC(=O)c2ccc(-c3c4nc(c(-c5c(F)cccc5F)c5ccc([nH]5)c(-c5c(F)cccc5F)c5nc(c(-c6c(F)cccc6F)c6ccc3[nH]6)C=C5)C=C4)cc2)ccc1O
REMARK SMILES IDX 17 1 18 2 19 3 16 5 14 6 15 7 82 8 81 9 80 10 7 11 6 12 5 13
REMARK SMILES IDX 4 14 2 17 1 18 3 19 8 20 9 21 13 22 10 23 12 24 11 25 83 26
REMARK SMILES IDX 20 28 21 29 22 30 23 31 24 32 25 34 26 35 27 36 79 37 28 38
REMARK SMILES IDX 78 39 29 40 30 41 31 42 72 43 32 44 77 45 71 46 73 47 33 48
REMARK SMILES IDX 76 49 70 50 69 51 34 53 60 54 43 55 59 56 44 57 47 58 58 59
REMARK SMILES IDX 74 60 45 61 46 62 57 64 75 65 48 66 35 67 36 68 41 69 37 70
REMARK SMILES IDX 38 71 40 72 42 73 39 74 61 75 62 76 67 77 63 78 64 79 66 80
REMARK SMILES IDX 68 81 65 82 49 83 50 84 55 85 51 86 52 87 54 88 56 89 53 90
REMARK H PARENT 19 4 4 15 4 16 83 27 23 33 73 52 47 63
REMARK Flexibility Score: inf
ROOT
ATOM      1  C   UNL A   1      37.398  23.251  25.738  1.00  0.00     0.251 C 
ATOM      2  O   UNL A   1      38.106  24.182  26.116  1.00  0.00    -0.269 OA
ATOM      3  N   UNL A   1      37.975  22.144  25.153  1.00  0.00    -0.352 N 
ATOM      4  H   UNL A   1      38.957  22.174  25.095  1.00  0.00     0.163 HD
ENDROOT
BRANCH   1   5
ATOM      5  C   UNL A   1      35.924  23.350  25.844  1.00  0.00     0.040 A 
ATOM      6  C   UNL A   1      33.847  24.307  24.958  1.00  0.00     0.002 A 
ATOM      7  C   UNL A   1      35.252  24.336  25.109  1.00  0.00     0.022 A 
ATOM      8  C   UNL A   1      33.203  23.184  25.491  1.00  0.00     0.119 A 
ATOM      9  C   UNL A   1      33.840  22.308  26.366  1.00  0.00     0.047 A 
ATOM     10  C   UNL A   1      35.196  22.446  26.609  1.00  0.00     0.017 A 
BRANCH   6  11
ATOM     11  C   UNL A   1      33.136  25.550  24.394  1.00  0.00     0.059 C 
BRANCH  11  12
ATOM     12  C   UNL A   1      33.660  26.245  23.106  1.00  0.00     0.074 C 
BRANCH  12  13
ATOM     13  C   UNL A   1      32.690  27.010  22.171  1.00  0.00     0.261 C 
BRANCH  13  14
ATOM     14  N   UNL A   1      31.275  26.619  22.196  1.00  0.00    -0.344 N 
ATOM     15  H   UNL A   1      31.017  26.290  21.266  1.00  0.00     0.346 HD
ATOM     16  H   UNL A   1      31.181  25.895  22.909  1.00  0.00     0.346 HD
BRANCH  14  17
ATOM     17  C   UNL A   1      30.362  27.706  22.570  1.00  0.00     0.176 C 
ATOM     18  C   UNL A   1      29.417  27.154  23.641  1.00  0.00     0.075 C 
ATOM     19  C   UNL A   1      31.138  28.899  23.136  1.00  0.00     0.075 C 
ENDBRANCH  14  17
ENDBRANCH  13  14
ENDBRANCH  12  13
ENDBRANCH  11  12
BRANCH  11  20
ATOM     20  C   UNL A   1      32.893  26.636  25.453  1.00  0.00    -0.040 A 
ATOM     21  C   UNL A   1      31.757  26.608  26.275  1.00  0.00     0.004 A 
ATOM     22  C   UNL A   1      33.815  27.687  25.607  1.00  0.00     0.004 A 
ATOM     23  C   UNL A   1      31.547  27.612  27.223  1.00  0.00     0.000 A 
ATOM     24  C   UNL A   1      33.600  28.689  26.554  1.00  0.00     0.000 A 
ATOM     25  C   UNL A   1      32.466  28.652  27.360  1.00  0.00     0.000 A 
ENDBRANCH  11  20
ENDBRANCH   6  11
BRANCH   8  26
ATOM     26  O   UNL A   1      31.907  22.878  25.213  1.00  0.00    -0.508 OA
ATOM     27  H   UNL A   1      31.222  23.461  25.474  1.00  0.00     0.293 HD
ENDBRANCH   8  26
ENDBRANCH   1   5
BRANCH   3  28
ATOM     28  C   UNL A   1      37.366  20.937  24.604  1.00  0.00     0.118 C 
BRANCH  28  29
ATOM     29  C   UNL A   1      38.149  19.663  24.859  1.00  0.00     0.042 C 
BRANCH  29  30
ATOM     30  C   UNL A   1      39.067  19.712  26.065  1.00  0.00     0.118 C 
BRANCH  30  31
ATOM     31  N   UNL A   1      40.370  19.109  25.815  1.00  0.00    -0.352 N 
ATOM     32  C   UNL A   1      41.649  19.600  25.903  1.00  0.00     0.251 C 
ATOM     33  H   UNL A   1      40.324  18.170  25.528  1.00  0.00     0.163 HD
ATOM     34  O   UNL A   1      42.570  18.921  25.455  1.00  0.00    -0.269 OA
BRANCH  32  35
ATOM     35  C   UNL A   1      41.945  20.923  26.500  1.00  0.00     0.039 A 
ATOM     36  C   UNL A   1      42.392  21.949  25.658  1.00  0.00     0.014 A 
ATOM     37  C   UNL A   1      41.857  21.159  27.871  1.00  0.00     0.014 A 
ATOM     38  C   UNL A   1      42.690  23.210  26.183  1.00  0.00     0.010 A 
ATOM     39  C   UNL A   1      42.043  22.442  28.378  1.00  0.00     0.010 A 
ATOM     40  C   UNL A   1      42.485  23.477  27.544  1.00  0.00    -0.014 A 
BRANCH  40  41
ATOM     41  C   UNL A   1      42.762  24.818  28.119  1.00  0.00     0.031 A 
ATOM     42  C   UNL A   1      44.164  25.196  28.524  1.00  0.00     0.074 A 
ATOM     43  C   UNL A   1      41.747  25.677  28.332  1.00  0.00     0.049 A 
ATOM     44  N   UNL A   1      44.592  26.293  29.096  1.00  0.00    -0.248 NA
ATOM     45  C   UNL A   1      45.216  24.194  28.291  1.00  0.00     0.031 C 
ATOM     46  C   UNL A   1      40.335  25.409  28.049  1.00  0.00     0.029 A 
ATOM     47  N   UNL A   1      41.746  26.951  28.841  1.00  0.00    -0.354 N 
ATOM     48  C   UNL A   1      45.950  26.098  29.317  1.00  0.00     0.074 A 
ATOM     49  C   UNL A   1      46.266  24.761  28.866  1.00  0.00     0.031 C 
ATOM     50  C   UNL A   1      39.611  26.499  28.353  1.00  0.00     0.029 A 
ATOM     51  C   UNL A   1      40.502  27.529  28.877  1.00  0.00     0.049 A 
ATOM     52  H   UNL A   1      42.563  27.407  29.151  1.00  0.00     0.167 HD
ATOM     53  C   UNL A   1      46.861  26.963  29.826  1.00  0.00     0.037 A 
ATOM     54  C   UNL A   1      40.123  28.757  29.277  1.00  0.00     0.037 A 
ATOM     55  C   UNL A   1      46.561  28.313  30.222  1.00  0.00     0.049 A 
ATOM     56  C   UNL A   1      41.162  29.724  29.767  1.00  0.00     0.074 A 
ATOM     57  C   UNL A   1      47.424  29.290  30.687  1.00  0.00     0.029 A 
ATOM     58  N   UNL A   1      45.297  28.880  30.184  1.00  0.00    -0.354 N 
ATOM     59  N   UNL A   1      42.452  29.544  29.917  1.00  0.00    -0.248 NA
ATOM     60  C   UNL A   1      40.695  31.068  30.131  1.00  0.00     0.031 C 
ATOM     61  C   UNL A   1      46.677  30.444  30.949  1.00  0.00     0.029 A 
ATOM     62  C   UNL A   1      45.355  30.194  30.617  1.00  0.00     0.049 A 
ATOM     63  H   UNL A   1      44.478  28.418  29.891  1.00  0.00     0.167 HD
ATOM     64  C   UNL A   1      42.954  30.758  30.366  1.00  0.00     0.074 A 
ATOM     65  C   UNL A   1      41.831  31.670  30.451  1.00  0.00     0.031 C 
ATOM     66  C   UNL A   1      44.229  31.088  30.682  1.00  0.00     0.037 A 
BRANCH  53  67
ATOM     67  C   UNL A   1      48.272  26.474  29.963  1.00  0.00     0.057 A 
ATOM     68  C   UNL A   1      48.714  25.808  31.115  1.00  0.00     0.134 A 
ATOM     69  C   UNL A   1      49.197  26.656  28.927  1.00  0.00     0.134 A 
ATOM     70  F   UNL A   1      47.882  25.616  32.149  1.00  0.00    -0.206 F 
ATOM     71  C   UNL A   1      50.032  25.368  31.244  1.00  0.00     0.040 A 
ATOM     72  C   UNL A   1      50.511  26.197  29.034  1.00  0.00     0.040 A 
ATOM     73  F   UNL A   1      48.840  27.281  27.796  1.00  0.00    -0.206 F 
ATOM     74  C   UNL A   1      50.934  25.557  30.198  1.00  0.00     0.006 A 
ENDBRANCH  53  67
BRANCH  54  75
ATOM     75  C   UNL A   1      38.700  29.162  29.174  1.00  0.00     0.057 A 
ATOM     76  C   UNL A   1      37.861  29.118  30.295  1.00  0.00     0.134 A 
ATOM     77  C   UNL A   1      38.147  29.603  27.968  1.00  0.00     0.134 A 
ATOM     78  F   UNL A   1      38.333  28.689  31.474  1.00  0.00    -0.206 F 
ATOM     79  C   UNL A   1      36.516  29.480  30.214  1.00  0.00     0.040 A 
ATOM     80  C   UNL A   1      36.808  29.988  27.879  1.00  0.00     0.040 A 
ATOM     81  F   UNL A   1      38.903  29.676  26.863  1.00  0.00    -0.206 F 
ATOM     82  C   UNL A   1      35.988  29.922  29.003  1.00  0.00     0.006 A 
ENDBRANCH  54  75
BRANCH  66  83
ATOM     83  C   UNL A   1      44.479  32.502  31.112  1.00  0.00     0.057 A 
ATOM     84  C   UNL A   1      44.779  33.511  30.188  1.00  0.00     0.134 A 
ATOM     85  C   UNL A   1      44.396  32.860  32.462  1.00  0.00     0.134 A 
ATOM     86  F   UNL A   1      44.884  33.226  28.881  1.00  0.00    -0.206 F 
ATOM     87  C   UNL A   1      45.016  34.823  30.597  1.00  0.00     0.040 A 
ATOM     88  C   UNL A   1      44.609  34.174  32.881  1.00  0.00     0.040 A 
ATOM     89  F   UNL A   1      44.106  31.941  33.395  1.00  0.00    -0.206 F 
ATOM     90  C   UNL A   1      44.926  35.159  31.947  1.00  0.00     0.006 A 
ENDBRANCH  66  83
ENDBRANCH  40  41
ENDBRANCH  32  35
ENDBRANCH  30  31
ENDBRANCH  29  30
ENDBRANCH  28  29
ENDBRANCH   3  28
TORSDOF 17
ENDMDL
