MODEL 1
REMARK VINA RESULT:     -12.7      0.000      0.000
REMARK SMILES O=C(NCCCNC(=O)c1nccnc1C(=O)Nc1ccc2c(c1)OCO2)c1ccc(-c2c3nc(c(-c4c(F)cccc4F)c4ccc([nH]4)c(-c4c(F)cccc4F)c4nc(c(-c5c(F)cccc5F)c5ccc2[nH]5)C=C4)C=C3)cc1
REMARK SMILES IDX 5 1 4 2 3 3 1 4 2 5 28 7 29 8 81 9 30 10 80 11 31 12 32 13
REMARK SMILES IDX 33 14 74 15 34 16 79 17 73 18 75 19 35 20 78 21 72 22 71 23
REMARK SMILES IDX 36 25 62 26 45 27 61 28 46 29 49 30 60 31 76 32 47 33 48 34
REMARK SMILES IDX 59 36 77 37 50 38 37 39 38 40 43 41 39 42 40 43 42 44 44 45
REMARK SMILES IDX 41 46 63 47 64 48 69 49 65 50 66 51 68 52 70 53 67 54 51 55
REMARK SMILES IDX 52 56 57 57 53 58 54 59 56 60 58 61 55 62 6 63 7 64 8 65
REMARK SMILES IDX 9 67 10 68 11 69 15 70 12 71 14 72 13 73 16 74 17 75 18 76
REMARK SMILES IDX 19 78 20 79 24 80 21 81 23 82 22 83 25 84 27 85 26 86
REMARK H PARENT 3 6 75 24 49 35 7 66 18 77
REMARK Flexibility Score: inf
ROOT
ATOM      1  C   UNL A   1      37.920  19.589  25.020  1.00  0.00     0.042 C 
ENDROOT
BRANCH   1   2
ATOM      2  C   UNL A   1      39.173  20.013  25.773  1.00  0.00     0.118 C 
BRANCH   2   3
ATOM      3  N   UNL A   1      40.220  19.002  25.806  1.00  0.00    -0.352 N 
ATOM      4  O   UNL A   1      42.332  18.210  25.995  1.00  0.00    -0.269 OA
ATOM      5  C   UNL A   1      41.555  19.158  26.091  1.00  0.00     0.251 C 
ATOM      6  H   UNL A   1      39.933  18.084  25.597  1.00  0.00     0.163 HD
BRANCH   5   7
ATOM      7  C   UNL A   1      42.061  20.489  26.478  1.00  0.00     0.039 A 
ATOM      8  C   UNL A   1      42.092  20.868  27.823  1.00  0.00     0.014 A 
ATOM      9  C   UNL A   1      42.470  21.376  25.479  1.00  0.00     0.014 A 
ATOM     10  C   UNL A   1      42.412  22.180  28.157  1.00  0.00     0.010 A 
ATOM     11  C   UNL A   1      42.854  22.674  25.825  1.00  0.00     0.010 A 
ATOM     12  C   UNL A   1      42.797  23.095  27.163  1.00  0.00    -0.014 A 
BRANCH  12  13
ATOM     13  C   UNL A   1      43.186  24.476  27.546  1.00  0.00     0.031 A 
ATOM     14  C   UNL A   1      44.624  24.914  27.526  1.00  0.00     0.074 A 
ATOM     15  C   UNL A   1      42.220  25.345  27.897  1.00  0.00     0.049 A 
ATOM     16  N   UNL A   1      45.133  26.082  27.831  1.00  0.00    -0.248 NA
ATOM     17  C   UNL A   1      45.622  23.914  27.118  1.00  0.00     0.031 C 
ATOM     18  C   UNL A   1      40.790  25.034  27.956  1.00  0.00     0.029 A 
ATOM     19  N   UNL A   1      42.288  26.666  28.258  1.00  0.00    -0.354 N 
ATOM     20  C   UNL A   1      46.507  25.957  27.662  1.00  0.00     0.074 A 
ATOM     21  C   UNL A   1      46.755  24.589  27.256  1.00  0.00     0.031 C 
ATOM     22  C   UNL A   1      40.114  26.140  28.296  1.00  0.00     0.029 A 
ATOM     23  C   UNL A   1      41.063  27.221  28.534  1.00  0.00     0.049 A 
ATOM     24  H   UNL A   1      43.134  27.166  28.315  1.00  0.00     0.167 HD
ATOM     25  C   UNL A   1      47.467  26.899  27.822  1.00  0.00     0.037 A 
ATOM     26  C   UNL A   1      40.740  28.459  28.951  1.00  0.00     0.037 A 
ATOM     27  C   UNL A   1      47.213  28.260  28.222  1.00  0.00     0.049 A 
ATOM     28  C   UNL A   1      41.830  29.468  29.163  1.00  0.00     0.074 A 
ATOM     29  C   UNL A   1      48.119  29.295  28.386  1.00  0.00     0.029 A 
ATOM     30  N   UNL A   1      45.962  28.776  28.527  1.00  0.00    -0.354 N 
ATOM     31  N   UNL A   1      43.120  29.343  28.972  1.00  0.00    -0.248 NA
ATOM     32  C   UNL A   1      41.419  30.790  29.655  1.00  0.00     0.031 C 
ATOM     33  C   UNL A   1      47.422  30.422  28.834  1.00  0.00     0.029 A 
ATOM     34  C   UNL A   1      46.075  30.106  28.901  1.00  0.00     0.049 A 
ATOM     35  H   UNL A   1      45.117  28.271  28.485  1.00  0.00     0.167 HD
ATOM     36  C   UNL A   1      43.673  30.573  29.298  1.00  0.00     0.074 A 
ATOM     37  C   UNL A   1      42.575  31.435  29.683  1.00  0.00     0.031 C 
ATOM     38  C   UNL A   1      44.974  30.953  29.281  1.00  0.00     0.037 A 
BRANCH  25  39
ATOM     39  C   UNL A   1      48.892  26.491  27.579  1.00  0.00     0.057 A 
ATOM     40  C   UNL A   1      49.703  25.988  28.606  1.00  0.00     0.134 A 
ATOM     41  C   UNL A   1      49.444  26.547  26.293  1.00  0.00     0.134 A 
ATOM     42  F   UNL A   1      49.240  25.915  29.863  1.00  0.00    -0.206 F 
ATOM     43  C   UNL A   1      51.014  25.572  28.365  1.00  0.00     0.040 A 
ATOM     44  C   UNL A   1      50.746  26.112  26.034  1.00  0.00     0.040 A 
ATOM     45  F   UNL A   1      48.722  27.009  25.261  1.00  0.00    -0.206 F 
ATOM     46  C   UNL A   1      51.537  25.627  27.074  1.00  0.00     0.006 A 
ENDBRANCH  25  39
BRANCH  26  47
ATOM     47  C   UNL A   1      39.318  28.805  29.194  1.00  0.00     0.057 A 
ATOM     48  C   UNL A   1      38.733  28.611  30.449  1.00  0.00     0.134 A 
ATOM     49  C   UNL A   1      38.516  29.345  28.182  1.00  0.00     0.134 A 
ATOM     50  F   UNL A   1      39.447  28.081  31.453  1.00  0.00    -0.206 F 
ATOM     51  C   UNL A   1      37.395  28.930  30.687  1.00  0.00     0.040 A 
ATOM     52  C   UNL A   1      37.186  29.695  28.413  1.00  0.00     0.040 A 
ATOM     53  F   UNL A   1      39.023  29.562  26.959  1.00  0.00    -0.206 F 
ATOM     54  C   UNL A   1      36.620  29.481  29.668  1.00  0.00     0.006 A 
ENDBRANCH  26  47
BRANCH  38  55
ATOM     55  C   UNL A   1      45.273  32.373  29.661  1.00  0.00     0.057 A 
ATOM     56  C   UNL A   1      45.593  32.735  30.976  1.00  0.00     0.134 A 
ATOM     57  C   UNL A   1      45.264  33.387  28.695  1.00  0.00     0.134 A 
ATOM     58  F   UNL A   1      45.603  31.813  31.951  1.00  0.00    -0.206 F 
ATOM     59  C   UNL A   1      45.868  34.059  31.321  1.00  0.00     0.040 A 
ATOM     60  C   UNL A   1      45.563  34.710  29.022  1.00  0.00     0.040 A 
ATOM     61  F   UNL A   1      44.973  33.106  27.416  1.00  0.00    -0.206 F 
ATOM     62  C   UNL A   1      45.860  35.050  30.341  1.00  0.00     0.006 A 
ENDBRANCH  38  55
ENDBRANCH  12  13
ENDBRANCH   5   7
ENDBRANCH   2   3
ENDBRANCH   1   2
BRANCH   1  63
ATOM     63  C   UNL A   1      36.838  20.647  24.845  1.00  0.00     0.118 C 
BRANCH  63  64
ATOM     64  N   UNL A   1      36.280  21.172  26.076  1.00  0.00    -0.351 N 
ATOM     65  C   UNL A   1      35.018  21.701  26.242  1.00  0.00     0.272 C 
ATOM     66  H   UNL A   1      36.859  21.147  26.871  1.00  0.00     0.163 HD
ATOM     67  O   UNL A   1      34.374  21.456  27.259  1.00  0.00    -0.267 OA
BRANCH  65  68
ATOM     68  C   UNL A   1      34.415  22.522  25.186  1.00  0.00     0.159 A 
ATOM     69  N   UNL A   1      35.241  23.532  24.757  1.00  0.00    -0.247 NA
ATOM     70  C   UNL A   1      33.154  22.291  24.644  1.00  0.00     0.159 A 
ATOM     71  C   UNL A   1      34.767  24.297  23.756  1.00  0.00     0.132 A 
ATOM     72  N   UNL A   1      32.694  23.106  23.637  1.00  0.00    -0.247 NA
ATOM     73  C   UNL A   1      33.518  24.089  23.208  1.00  0.00     0.132 A 
BRANCH  70  74
ATOM     74  C   UNL A   1      32.144  21.231  25.027  1.00  0.00     0.276 C 
ATOM     75  O   UNL A   1      31.166  21.539  25.711  1.00  0.00    -0.267 OA
ATOM     76  N   UNL A   1      32.154  20.029  24.353  1.00  0.00    -0.320 N 
ATOM     77  H   UNL A   1      31.592  19.965  23.548  1.00  0.00     0.170 HD
BRANCH  76  78
ATOM     78  C   UNL A   1      32.893  18.888  24.709  1.00  0.00     0.045 A 
ATOM     79  C   UNL A   1      34.223  18.690  24.286  1.00  0.00     0.030 A 
ATOM     80  C   UNL A   1      32.214  17.890  25.417  1.00  0.00     0.076 A 
ATOM     81  C   UNL A   1      34.841  17.447  24.462  1.00  0.00     0.053 A 
ATOM     82  C   UNL A   1      32.822  16.657  25.506  1.00  0.00     0.167 A 
ATOM     83  C   UNL A   1      34.091  16.437  25.024  1.00  0.00     0.165 A 
ATOM     84  O   UNL A   1      32.245  15.519  25.979  1.00  0.00    -0.454 OA
ATOM     85  O   UNL A   1      34.461  15.131  25.123  1.00  0.00    -0.454 OA
ATOM     86  C   UNL A   1      33.215  14.540  25.554  1.00  0.00     0.468 C 
ENDBRANCH  76  78
ENDBRANCH  70  74
ENDBRANCH  65  68
ENDBRANCH  63  64
ENDBRANCH   1  63
TORSDOF 12
ENDMDL
MODEL 2
REMARK VINA RESULT:     -12.7      0.372      6.241
REMARK SMILES O=C(NCCCNC(=O)c1nccnc1C(=O)Nc1ccc2c(c1)OCO2)c1ccc(-c2c3nc(c(-c4c(F)cccc4F)c4ccc([nH]4)c(-c4c(F)cccc4F)c4nc(c(-c5c(F)cccc5F)c5ccc2[nH]5)C=C4)C=C3)cc1
REMARK SMILES IDX 5 1 4 2 3 3 1 4 2 5 28 7 29 8 81 9 30 10 80 11 31 12 32 13
REMARK SMILES IDX 33 14 74 15 34 16 79 17 73 18 75 19 35 20 78 21 72 22 71 23
REMARK SMILES IDX 36 25 62 26 45 27 61 28 46 29 49 30 60 31 76 32 47 33 48 34
REMARK SMILES IDX 59 36 77 37 50 38 37 39 38 40 43 41 39 42 40 43 42 44 44 45
REMARK SMILES IDX 41 46 63 47 64 48 69 49 65 50 66 51 68 52 70 53 67 54 51 55
REMARK SMILES IDX 52 56 57 57 53 58 54 59 56 60 58 61 55 62 6 63 7 64 8 65
REMARK SMILES IDX 9 67 10 68 11 69 15 70 12 71 14 72 13 73 16 74 17 75 18 76
REMARK SMILES IDX 19 78 20 79 24 80 21 81 23 82 22 83 25 84 27 85 26 86
REMARK H PARENT 3 6 75 24 49 35 7 66 18 77
REMARK Flexibility Score: inf
ROOT
ATOM      1  C   UNL A   1      37.966  19.709  25.008  1.00  0.00     0.042 C 
ENDROOT
BRANCH   1   2
ATOM      2  C   UNL A   1      39.211  20.100  25.792  1.00  0.00     0.118 C 
BRANCH   2   3
ATOM      3  N   UNL A   1      40.226  19.059  25.856  1.00  0.00    -0.352 N 
ATOM      4  O   UNL A   1      42.314  18.209  26.068  1.00  0.00    -0.269 OA
ATOM      5  C   UNL A   1      41.567  19.183  26.133  1.00  0.00     0.251 C 
ATOM      6  H   UNL A   1      39.910  18.144  25.680  1.00  0.00     0.163 HD
BRANCH   5   7
ATOM      7  C   UNL A   1      42.114  20.511  26.472  1.00  0.00     0.039 A 
ATOM      8  C   UNL A   1      42.183  20.926  27.805  1.00  0.00     0.014 A 
ATOM      9  C   UNL A   1      42.525  21.359  25.441  1.00  0.00     0.014 A 
ATOM     10  C   UNL A   1      42.543  22.237  28.096  1.00  0.00     0.010 A 
ATOM     11  C   UNL A   1      42.949  22.656  25.742  1.00  0.00     0.010 A 
ATOM     12  C   UNL A   1      42.931  23.115  27.069  1.00  0.00    -0.014 A 
BRANCH  12  13
ATOM     13  C   UNL A   1      43.363  24.495  27.406  1.00  0.00     0.031 A 
ATOM     14  C   UNL A   1      42.373  25.534  27.852  1.00  0.00     0.074 A 
ATOM     15  C   UNL A   1      44.671  24.801  27.322  1.00  0.00     0.049 A 
ATOM     16  N   UNL A   1      42.583  26.783  28.184  1.00  0.00    -0.248 NA
ATOM     17  C   UNL A   1      40.963  25.122  27.934  1.00  0.00     0.031 C 
ATOM     18  C   UNL A   1      45.725  23.877  26.898  1.00  0.00     0.029 A 
ATOM     19  N   UNL A   1      45.340  25.965  27.599  1.00  0.00    -0.354 N 
ATOM     20  C   UNL A   1      41.337  27.310  28.503  1.00  0.00     0.074 A 
ATOM     21  C   UNL A   1      40.371  26.251  28.296  1.00  0.00     0.031 C 
ATOM     22  C   UNL A   1      46.911  24.498  26.977  1.00  0.00     0.029 A 
ATOM     23  C   UNL A   1      46.696  25.877  27.400  1.00  0.00     0.049 A 
ATOM     24  H   UNL A   1      44.891  26.785  27.908  1.00  0.00     0.167 HD
ATOM     25  C   UNL A   1      41.032  28.557  28.936  1.00  0.00     0.037 A 
ATOM     26  C   UNL A   1      47.659  26.807  27.528  1.00  0.00     0.037 A 
ATOM     27  C   UNL A   1      42.000  29.605  29.143  1.00  0.00     0.049 A 
ATOM     28  C   UNL A   1      47.285  28.193  27.965  1.00  0.00     0.074 A 
ATOM     29  C   UNL A   1      41.789  30.895  29.605  1.00  0.00     0.029 A 
ATOM     30  N   UNL A   1      43.359  29.488  28.897  1.00  0.00    -0.354 N 
ATOM     31  N   UNL A   1      46.108  28.667  28.290  1.00  0.00    -0.248 NA
ATOM     32  C   UNL A   1      48.374  29.175  28.049  1.00  0.00     0.031 C 
ATOM     33  C   UNL A   1      43.014  31.570  29.594  1.00  0.00     0.029 A 
ATOM     34  C   UNL A   1      43.997  30.687  29.175  1.00  0.00     0.049 A 
ATOM     35  H   UNL A   1      43.807  28.673  28.572  1.00  0.00     0.167 HD
ATOM     36  C   UNL A   1      46.315  29.995  28.637  1.00  0.00     0.074 A 
ATOM     37  C   UNL A   1      47.736  30.244  28.499  1.00  0.00     0.031 C 
ATOM     38  C   UNL A   1      45.411  30.922  29.033  1.00  0.00     0.037 A 
BRANCH  25  39
ATOM     39  C   UNL A   1      39.587  28.869  29.203  1.00  0.00     0.057 A 
ATOM     40  C   UNL A   1      38.725  29.305  28.188  1.00  0.00     0.134 A 
ATOM     41  C   UNL A   1      39.037  28.678  30.477  1.00  0.00     0.134 A 
ATOM     42  F   UNL A   1      39.188  29.517  26.947  1.00  0.00    -0.206 F 
ATOM     43  C   UNL A   1      37.372  29.555  28.434  1.00  0.00     0.040 A 
ATOM     44  C   UNL A   1      37.682  28.901  30.730  1.00  0.00     0.040 A 
ATOM     45  F   UNL A   1      39.803  28.254  31.493  1.00  0.00    -0.206 F 
ATOM     46  C   UNL A   1      36.846  29.345  29.708  1.00  0.00     0.006 A 
ENDBRANCH  25  39
BRANCH  26  47
ATOM     47  C   UNL A   1      49.069  26.452  27.233  1.00  0.00     0.057 A 
ATOM     48  C   UNL A   1      49.919  25.983  28.240  1.00  0.00     0.134 A 
ATOM     49  C   UNL A   1      49.594  26.562  25.940  1.00  0.00     0.134 A 
ATOM     50  F   UNL A   1      49.478  25.872  29.501  1.00  0.00    -0.206 F 
ATOM     51  C   UNL A   1      51.249  25.648  27.973  1.00  0.00     0.040 A 
ATOM     52  C   UNL A   1      50.911  26.204  25.655  1.00  0.00     0.040 A 
ATOM     53  F   UNL A   1      48.824  26.997  24.932  1.00  0.00    -0.206 F 
ATOM     54  C   UNL A   1      51.744  25.752  26.675  1.00  0.00     0.006 A 
ENDBRANCH  26  47
BRANCH  38  55
ATOM     55  C   UNL A   1      45.938  32.285  29.375  1.00  0.00     0.057 A 
ATOM     56  C   UNL A   1      46.015  33.309  28.423  1.00  0.00     0.134 A 
ATOM     57  C   UNL A   1      46.353  32.583  30.680  1.00  0.00     0.134 A 
ATOM     58  F   UNL A   1      45.648  33.083  27.152  1.00  0.00    -0.206 F 
ATOM     59  C   UNL A   1      46.509  34.573  28.749  1.00  0.00     0.040 A 
ATOM     60  C   UNL A   1      46.824  33.849  31.025  1.00  0.00     0.040 A 
ATOM     61  F   UNL A   1      46.299  31.648  31.641  1.00  0.00    -0.206 F 
ATOM     62  C   UNL A   1      46.909  34.847  30.055  1.00  0.00     0.006 A 
ENDBRANCH  38  55
ENDBRANCH  12  13
ENDBRANCH   5   7
ENDBRANCH   2   3
ENDBRANCH   1   2
BRANCH   1  63
ATOM     63  C   UNL A   1      36.892  20.778  24.854  1.00  0.00     0.118 C 
BRANCH  63  64
ATOM     64  N   UNL A   1      36.301  21.245  26.093  1.00  0.00    -0.351 N 
ATOM     65  C   UNL A   1      35.020  21.727  26.258  1.00  0.00     0.272 C 
ATOM     66  H   UNL A   1      36.871  21.215  26.895  1.00  0.00     0.163 HD
ATOM     67  O   UNL A   1      34.372  21.429  27.258  1.00  0.00    -0.267 OA
BRANCH  65  68
ATOM     68  C   UNL A   1      34.402  22.559  25.220  1.00  0.00     0.159 A 
ATOM     69  N   UNL A   1      35.220  23.579  24.796  1.00  0.00    -0.247 NA
ATOM     70  C   UNL A   1      33.137  22.329  24.687  1.00  0.00     0.159 A 
ATOM     71  C   UNL A   1      34.733  24.355  23.811  1.00  0.00     0.132 A 
ATOM     72  N   UNL A   1      32.663  23.156  23.696  1.00  0.00    -0.247 NA
ATOM     73  C   UNL A   1      33.479  24.149  23.273  1.00  0.00     0.132 A 
BRANCH  70  74
ATOM     74  C   UNL A   1      32.136  21.260  25.066  1.00  0.00     0.276 C 
ATOM     75  O   UNL A   1      31.159  21.556  25.756  1.00  0.00    -0.267 OA
ATOM     76  N   UNL A   1      32.152  20.064  24.382  1.00  0.00    -0.320 N 
ATOM     77  H   UNL A   1      31.587  20.002  23.578  1.00  0.00     0.170 HD
BRANCH  76  78
ATOM     78  C   UNL A   1      32.900  18.924  24.726  1.00  0.00     0.045 A 
ATOM     79  C   UNL A   1      34.227  18.737  24.292  1.00  0.00     0.030 A 
ATOM     80  C   UNL A   1      32.230  17.918  25.431  1.00  0.00     0.076 A 
ATOM     81  C   UNL A   1      34.854  17.497  24.457  1.00  0.00     0.053 A 
ATOM     82  C   UNL A   1      32.847  16.688  25.508  1.00  0.00     0.167 A 
ATOM     83  C   UNL A   1      34.114  16.478  25.016  1.00  0.00     0.165 A 
ATOM     84  O   UNL A   1      32.279  15.543  25.977  1.00  0.00    -0.454 OA
ATOM     85  O   UNL A   1      34.492  15.174  25.104  1.00  0.00    -0.454 OA
ATOM     86  C   UNL A   1      33.253  14.573  25.539  1.00  0.00     0.468 C 
ENDBRANCH  76  78
ENDBRANCH  70  74
ENDBRANCH  65  68
ENDBRANCH  63  64
ENDBRANCH   1  63
TORSDOF 12
ENDMDL
MODEL 3
REMARK VINA RESULT:     -12.6      6.378     10.794
REMARK SMILES O=C(NCCCNC(=O)c1nccnc1C(=O)Nc1ccc2c(c1)OCO2)c1ccc(-c2c3nc(c(-c4c(F)cccc4F)c4ccc([nH]4)c(-c4c(F)cccc4F)c4nc(c(-c5c(F)cccc5F)c5ccc2[nH]5)C=C4)C=C3)cc1
REMARK SMILES IDX 5 1 4 2 3 3 1 4 2 5 28 7 29 8 81 9 30 10 80 11 31 12 32 13
REMARK SMILES IDX 33 14 74 15 34 16 79 17 73 18 75 19 35 20 78 21 72 22 71 23
REMARK SMILES IDX 36 25 62 26 45 27 61 28 46 29 49 30 60 31 76 32 47 33 48 34
REMARK SMILES IDX 59 36 77 37 50 38 37 39 38 40 43 41 39 42 40 43 42 44 44 45
REMARK SMILES IDX 41 46 63 47 64 48 69 49 65 50 66 51 68 52 70 53 67 54 51 55
REMARK SMILES IDX 52 56 57 57 53 58 54 59 56 60 58 61 55 62 6 63 7 64 8 65
REMARK SMILES IDX 9 67 10 68 11 69 15 70 12 71 14 72 13 73 16 74 17 75 18 76
REMARK SMILES IDX 19 78 20 79 24 80 21 81 23 82 22 83 25 84 27 85 26 86
REMARK H PARENT 3 6 75 24 49 35 7 66 18 77
REMARK Flexibility Score: inf
ROOT
ATOM      1  C   UNL A   1      31.474  32.082  26.513  1.00  0.00     0.042 C 
ENDROOT
BRANCH   1   2
ATOM      2  C   UNL A   1      32.629  32.801  27.196  1.00  0.00     0.118 C 
BRANCH   2   3
ATOM      3  N   UNL A   1      32.336  34.176  27.574  1.00  0.00    -0.352 N 
ATOM      4  O   UNL A   1      32.535  36.083  28.778  1.00  0.00    -0.269 OA
ATOM      5  C   UNL A   1      32.958  34.958  28.517  1.00  0.00     0.251 C 
ATOM      6  H   UNL A   1      31.594  34.603  27.088  1.00  0.00     0.163 HD
BRANCH   5   7
ATOM      7  C   UNL A   1      34.121  34.421  29.249  1.00  0.00     0.039 A 
ATOM      8  C   UNL A   1      35.402  34.507  28.698  1.00  0.00     0.014 A 
ATOM      9  C   UNL A   1      33.917  33.791  30.479  1.00  0.00     0.014 A 
ATOM     10  C   UNL A   1      36.460  33.851  29.318  1.00  0.00     0.010 A 
ATOM     11  C   UNL A   1      34.995  33.188  31.132  1.00  0.00     0.010 A 
ATOM     12  C   UNL A   1      36.268  33.186  30.541  1.00  0.00    -0.014 A 
BRANCH  12  13
ATOM     13  C   UNL A   1      37.421  32.536  31.213  1.00  0.00     0.031 A 
ATOM     14  C   UNL A   1      38.123  31.360  30.594  1.00  0.00     0.074 A 
ATOM     15  C   UNL A   1      37.847  33.033  32.390  1.00  0.00     0.049 A 
ATOM     16  N   UNL A   1      39.144  30.677  31.048  1.00  0.00    -0.248 NA
ATOM     17  C   UNL A   1      37.610  30.882  29.301  1.00  0.00     0.031 C 
ATOM     18  C   UNL A   1      37.245  34.170  33.089  1.00  0.00     0.029 A 
ATOM     19  N   UNL A   1      38.888  32.658  33.199  1.00  0.00    -0.354 N 
ATOM     20  C   UNL A   1      39.391  29.685  30.106  1.00  0.00     0.074 A 
ATOM     21  C   UNL A   1      38.393  29.837  29.068  1.00  0.00     0.031 C 
ATOM     22  C   UNL A   1      37.947  34.422  34.204  1.00  0.00     0.029 A 
ATOM     23  C   UNL A   1      39.011  33.432  34.326  1.00  0.00     0.049 A 
ATOM     24  H   UNL A   1      39.488  31.905  32.992  1.00  0.00     0.167 HD
ATOM     25  C   UNL A   1      40.366  28.745  30.105  1.00  0.00     0.037 A 
ATOM     26  C   UNL A   1      39.873  33.345  35.356  1.00  0.00     0.037 A 
ATOM     27  C   UNL A   1      41.359  28.602  31.140  1.00  0.00     0.049 A 
ATOM     28  C   UNL A   1      40.913  32.263  35.349  1.00  0.00     0.074 A 
ATOM     29  C   UNL A   1      42.404  27.694  31.215  1.00  0.00     0.029 A 
ATOM     30  N   UNL A   1      41.430  29.382  32.285  1.00  0.00    -0.354 N 
ATOM     31  N   UNL A   1      41.152  31.352  34.439  1.00  0.00    -0.248 NA
ATOM     32  C   UNL A   1      41.801  32.195  36.518  1.00  0.00     0.031 C 
ATOM     33  C   UNL A   1      43.076  27.897  32.425  1.00  0.00     0.029 A 
ATOM     34  C   UNL A   1      42.483  28.963  33.081  1.00  0.00     0.049 A 
ATOM     35  H   UNL A   1      40.819  30.125  32.500  1.00  0.00     0.167 HD
ATOM     36  C   UNL A   1      42.230  30.616  34.911  1.00  0.00     0.074 A 
ATOM     37  C   UNL A   1      42.608  31.200  36.182  1.00  0.00     0.031 C 
ATOM     38  C   UNL A   1      42.849  29.553  34.344  1.00  0.00     0.037 A 
BRANCH  25  39
ATOM     39  C   UNL A   1      40.403  27.779  28.956  1.00  0.00     0.057 A 
ATOM     40  C   UNL A   1      39.646  26.599  28.956  1.00  0.00     0.134 A 
ATOM     41  C   UNL A   1      41.158  28.058  27.810  1.00  0.00     0.134 A 
ATOM     42  F   UNL A   1      38.907  26.266  30.025  1.00  0.00    -0.206 F 
ATOM     43  C   UNL A   1      39.654  25.725  27.867  1.00  0.00     0.040 A 
ATOM     44  C   UNL A   1      41.156  27.204  26.705  1.00  0.00     0.040 A 
ATOM     45  F   UNL A   1      41.899  29.174  27.738  1.00  0.00    -0.206 F 
ATOM     46  C   UNL A   1      40.405  26.031  26.733  1.00  0.00     0.006 A 
ENDBRANCH  25  39
BRANCH  26  47
ATOM     47  C   UNL A   1      39.782  34.313  36.475  1.00  0.00     0.057 A 
ATOM     48  C   UNL A   1      39.041  34.018  37.625  1.00  0.00     0.134 A 
ATOM     49  C   UNL A   1      40.439  35.548  36.427  1.00  0.00     0.134 A 
ATOM     50  F   UNL A   1      38.376  32.858  37.721  1.00  0.00    -0.206 F 
ATOM     51  C   UNL A   1      38.947  34.924  38.683  1.00  0.00     0.040 A 
ATOM     52  C   UNL A   1      40.376  36.450  37.488  1.00  0.00     0.040 A 
ATOM     53  F   UNL A   1      41.171  35.884  35.355  1.00  0.00    -0.206 F 
ATOM     54  C   UNL A   1      39.622  36.142  38.618  1.00  0.00     0.006 A 
ENDBRANCH  26  47
BRANCH  38  55
ATOM     55  C   UNL A   1      44.019  28.973  35.082  1.00  0.00     0.057 A 
ATOM     56  C   UNL A   1      43.863  27.964  36.041  1.00  0.00     0.134 A 
ATOM     57  C   UNL A   1      45.322  29.414  34.813  1.00  0.00     0.134 A 
ATOM     58  F   UNL A   1      42.641  27.509  36.356  1.00  0.00    -0.206 F 
ATOM     59  C   UNL A   1      44.958  27.431  36.724  1.00  0.00     0.040 A 
ATOM     60  C   UNL A   1      46.426  28.871  35.470  1.00  0.00     0.040 A 
ATOM     61  F   UNL A   1      45.541  30.373  33.901  1.00  0.00    -0.206 F 
ATOM     62  C   UNL A   1      46.244  27.881  36.434  1.00  0.00     0.006 A 
ENDBRANCH  38  55
ENDBRANCH  12  13
ENDBRANCH   5   7
ENDBRANCH   2   3
ENDBRANCH   1   2
BRANCH   1  63
ATOM     63  C   UNL A   1      31.640  30.585  26.288  1.00  0.00     0.118 C 
BRANCH  63  64
ATOM     64  N   UNL A   1      32.703  30.210  25.376  1.00  0.00    -0.351 N 
ATOM     65  C   UNL A   1      32.693  29.144  24.501  1.00  0.00     0.272 C 
ATOM     66  H   UNL A   1      33.511  30.772  25.381  1.00  0.00     0.163 HD
ATOM     67  O   UNL A   1      33.163  29.266  23.373  1.00  0.00    -0.267 OA
BRANCH  65  68
ATOM     68  C   UNL A   1      32.078  27.871  24.893  1.00  0.00     0.159 A 
ATOM     69  N   UNL A   1      32.462  27.455  26.145  1.00  0.00    -0.247 NA
ATOM     70  C   UNL A   1      31.174  27.166  24.104  1.00  0.00     0.159 A 
ATOM     71  C   UNL A   1      31.900  26.316  26.587  1.00  0.00     0.132 A 
ATOM     72  N   UNL A   1      30.637  25.994  24.579  1.00  0.00    -0.247 NA
ATOM     73  C   UNL A   1      31.007  25.598  25.819  1.00  0.00     0.132 A 
BRANCH  70  74
ATOM     74  C   UNL A   1      30.678  27.500  22.714  1.00  0.00     0.276 C 
ATOM     75  O   UNL A   1      31.163  26.924  21.739  1.00  0.00    -0.267 OA
ATOM     76  N   UNL A   1      29.493  28.189  22.580  1.00  0.00    -0.320 N 
ATOM     77  H   UNL A   1      28.670  27.653  22.510  1.00  0.00     0.170 HD
BRANCH  76  78
ATOM     78  C   UNL A   1      29.349  29.587  22.535  1.00  0.00     0.045 A 
ATOM     79  C   UNL A   1      29.317  30.378  23.701  1.00  0.00     0.030 A 
ATOM     80  C   UNL A   1      29.125  30.160  21.278  1.00  0.00     0.076 A 
ATOM     81  C   UNL A   1      28.943  31.724  23.630  1.00  0.00     0.053 A 
ATOM     82  C   UNL A   1      28.686  31.465  21.251  1.00  0.00     0.167 A 
ATOM     83  C   UNL A   1      28.578  32.219  22.397  1.00  0.00     0.165 A 
ATOM     84  O   UNL A   1      28.234  32.129  20.153  1.00  0.00    -0.454 OA
ATOM     85  O   UNL A   1      28.032  33.443  22.159  1.00  0.00    -0.454 OA
ATOM     86  C   UNL A   1      27.652  33.293  20.774  1.00  0.00     0.468 C 
ENDBRANCH  76  78
ENDBRANCH  70  74
ENDBRANCH  65  68
ENDBRANCH  63  64
ENDBRANCH   1  63
TORSDOF 12
ENDMDL
