MODEL 1
REMARK VINA RESULT:      -9.8      0.000      0.000
REMARK SMILES O=C(Cc1cccn(C(F)F)c1=O)NCCCNC(=O)c1ccc(-c2c3nc(c(-c4c(F)cccc4F)c4ccc([nH]4)c(-c4c(F)cccc4F)c4nc(c(-c5c(F)cccc5F)c5ccc2[nH]5)C=C4)C=C3)cc1
REMARK SMILES IDX 16 1 15 2 14 3 1 4 2 5 3 7 4 8 5 9 12 10 6 11 8 12 13 13
REMARK SMILES IDX 7 14 9 15 10 16 11 17 17 18 18 19 19 20 20 22 21 23 22 24
REMARK SMILES IDX 74 25 23 26 73 27 24 28 25 29 26 30 67 31 27 32 72 33 66 34
REMARK SMILES IDX 68 35 28 36 71 37 65 38 64 39 29 41 55 42 38 43 54 44 39 45
REMARK SMILES IDX 42 46 53 47 69 48 40 49 41 50 52 52 70 53 43 54 30 55 31 56
REMARK SMILES IDX 36 57 32 58 33 59 35 60 37 61 34 62 56 63 57 64 62 65 58 66
REMARK SMILES IDX 59 67 61 68 63 69 60 70 44 71 45 72 50 73 46 74 47 75 49 76
REMARK SMILES IDX 51 77 48 78
REMARK H PARENT 14 6 18 21 68 40 42 51
REMARK Flexibility Score: inf
ROOT
ATOM      1  C   UNL A   1      32.868  36.366  31.715  1.00  0.00     0.042 C 
ENDROOT
BRANCH   1   2
ATOM      2  C   UNL A   1      33.743  36.617  32.933  1.00  0.00     0.117 C 
BRANCH   2   3
ATOM      3  N   UNL A   1      34.080  35.406  33.653  1.00  0.00    -0.356 N 
ATOM      4  O   UNL A   1      36.276  35.397  32.982  1.00  0.00    -0.275 OA
ATOM      5  C   UNL A   1      35.376  34.926  33.670  1.00  0.00     0.224 C 
ATOM      6  H   UNL A   1      33.376  34.919  34.139  1.00  0.00     0.163 HD
BRANCH   5   7
ATOM      7  C   UNL A   1      35.612  33.822  34.689  1.00  0.00     0.141 C 
BRANCH   7   8
ATOM      8  C   UNL A   1      36.331  32.648  34.071  1.00  0.00     0.027 A 
ATOM      9  C   UNL A   1      35.897  31.926  33.020  1.00  0.00     0.011 A 
ATOM     10  C   UNL A   1      37.637  32.262  34.708  1.00  0.00     0.258 A 
ATOM     11  C   UNL A   1      36.638  30.802  32.513  1.00  0.00     0.019 A 
ATOM     12  N   UNL A   1      38.265  31.141  34.191  1.00  0.00    -0.258 N 
ATOM     13  O   UNL A   1      38.096  32.932  35.630  1.00  0.00    -0.269 OA
ATOM     14  C   UNL A   1      37.775  30.437  33.109  1.00  0.00     0.095 A 
BRANCH  12  15
ATOM     15  C   UNL A   1      39.491  30.712  34.812  1.00  0.00     0.451 C 
ATOM     16  F   UNL A   1      39.222  30.214  36.050  1.00  0.00    -0.185 F 
ATOM     17  F   UNL A   1      40.024  29.682  34.100  1.00  0.00    -0.185 F 
ENDBRANCH  12  15
ENDBRANCH   7   8
ENDBRANCH   5   7
ENDBRANCH   2   3
ENDBRANCH   1   2
BRANCH   1  18
ATOM     18  C   UNL A   1      33.622  36.032  30.434  1.00  0.00     0.118 C 
BRANCH  18  19
ATOM     19  N   UNL A   1      32.790  35.490  29.370  1.00  0.00    -0.352 N 
ATOM     20  C   UNL A   1      33.062  34.455  28.500  1.00  0.00     0.251 C 
ATOM     21  H   UNL A   1      31.912  35.921  29.255  1.00  0.00     0.163 HD
ATOM     22  O   UNL A   1      32.270  34.177  27.606  1.00  0.00    -0.269 OA
BRANCH  20  23
ATOM     23  C   UNL A   1      34.339  33.713  28.615  1.00  0.00     0.039 A 
ATOM     24  C   UNL A   1      34.410  32.514  29.324  1.00  0.00     0.014 A 
ATOM     25  C   UNL A   1      35.496  34.256  28.047  1.00  0.00     0.014 A 
ATOM     26  C   UNL A   1      35.651  31.969  29.634  1.00  0.00     0.010 A 
ATOM     27  C   UNL A   1      36.737  33.653  28.282  1.00  0.00     0.010 A 
ATOM     28  C   UNL A   1      36.833  32.540  29.131  1.00  0.00    -0.014 A 
BRANCH  28  29
ATOM     29  C   UNL A   1      38.144  31.967  29.538  1.00  0.00     0.031 A 
ATOM     30  C   UNL A   1      39.016  32.664  30.551  1.00  0.00     0.074 A 
ATOM     31  C   UNL A   1      38.519  30.767  29.051  1.00  0.00     0.049 A 
ATOM     32  N   UNL A   1      40.152  32.271  31.074  1.00  0.00    -0.248 NA
ATOM     33  C   UNL A   1      38.559  33.974  31.039  1.00  0.00     0.031 C 
ATOM     34  C   UNL A   1      37.769  29.986  28.065  1.00  0.00     0.029 A 
ATOM     35  N   UNL A   1      39.603  29.980  29.344  1.00  0.00    -0.354 N 
ATOM     36  C   UNL A   1      40.550  33.287  31.935  1.00  0.00     0.074 A 
ATOM     37  C   UNL A   1      39.553  34.331  31.840  1.00  0.00     0.031 C 
ATOM     38  C   UNL A   1      38.382  28.808  27.880  1.00  0.00     0.029 A 
ATOM     39  C   UNL A   1      39.594  28.771  28.691  1.00  0.00     0.049 A 
ATOM     40  H   UNL A   1      40.319  30.253  29.962  1.00  0.00     0.167 HD
ATOM     41  C   UNL A   1      41.637  33.342  32.744  1.00  0.00     0.037 A 
ATOM     42  C   UNL A   1      40.466  27.747  28.734  1.00  0.00     0.037 A 
ATOM     43  C   UNL A   1      42.623  32.299  32.857  1.00  0.00     0.049 A 
ATOM     44  C   UNL A   1      41.679  27.850  29.613  1.00  0.00     0.074 A 
ATOM     45  C   UNL A   1      43.743  32.252  33.671  1.00  0.00     0.029 A 
ATOM     46  N   UNL A   1      42.610  31.116  32.133  1.00  0.00    -0.354 N 
ATOM     47  N   UNL A   1      42.025  28.807  30.438  1.00  0.00    -0.248 NA
ATOM     48  C   UNL A   1      42.628  26.729  29.557  1.00  0.00     0.031 C 
ATOM     49  C   UNL A   1      44.427  31.059  33.412  1.00  0.00     0.029 A 
ATOM     50  C   UNL A   1      43.711  30.344  32.465  1.00  0.00     0.049 A 
ATOM     51  H   UNL A   1      41.918  30.862  31.480  1.00  0.00     0.167 HD
ATOM     52  C   UNL A   1      43.226  28.402  31.005  1.00  0.00     0.074 A 
ATOM     53  C   UNL A   1      43.532  27.098  30.453  1.00  0.00     0.031 C 
ATOM     54  C   UNL A   1      44.008  29.054  31.899  1.00  0.00     0.037 A 
BRANCH  41  55
ATOM     55  C   UNL A   1      41.824  34.586  33.564  1.00  0.00     0.057 A 
ATOM     56  C   UNL A   1      41.264  34.690  34.843  1.00  0.00     0.134 A 
ATOM     57  C   UNL A   1      42.532  35.693  33.078  1.00  0.00     0.134 A 
ATOM     58  F   UNL A   1      40.567  33.669  35.367  1.00  0.00    -0.206 F 
ATOM     59  C   UNL A   1      41.403  35.847  35.611  1.00  0.00     0.040 A 
ATOM     60  C   UNL A   1      42.698  36.848  33.846  1.00  0.00     0.040 A 
ATOM     61  F   UNL A   1      43.104  35.655  31.865  1.00  0.00    -0.206 F 
ATOM     62  C   UNL A   1      42.127  36.929  35.114  1.00  0.00     0.006 A 
ENDBRANCH  41  55
BRANCH  42  63
ATOM     63  C   UNL A   1      40.228  26.533  27.915  1.00  0.00     0.057 A 
ATOM     64  C   UNL A   1      40.788  26.395  26.639  1.00  0.00     0.134 A 
ATOM     65  C   UNL A   1      39.449  25.476  28.398  1.00  0.00     0.134 A 
ATOM     66  F   UNL A   1      41.541  27.376  26.120  1.00  0.00    -0.206 F 
ATOM     67  C   UNL A   1      40.574  25.253  25.868  1.00  0.00     0.040 A 
ATOM     68  C   UNL A   1      39.248  24.317  27.648  1.00  0.00     0.040 A 
ATOM     69  F   UNL A   1      38.904  25.544  29.622  1.00  0.00    -0.206 F 
ATOM     70  C   UNL A   1      39.808  24.205  26.376  1.00  0.00     0.006 A 
ENDBRANCH  42  63
BRANCH  54  71
ATOM     71  C   UNL A   1      45.262  28.354  32.333  1.00  0.00     0.057 A 
ATOM     72  C   UNL A   1      46.471  28.566  31.661  1.00  0.00     0.134 A 
ATOM     73  C   UNL A   1      45.272  27.473  33.422  1.00  0.00     0.134 A 
ATOM     74  F   UNL A   1      46.529  29.394  30.607  1.00  0.00    -0.206 F 
ATOM     75  C   UNL A   1      47.647  27.930  32.059  1.00  0.00     0.040 A 
ATOM     76  C   UNL A   1      46.447  26.849  33.845  1.00  0.00     0.040 A 
ATOM     77  F   UNL A   1      44.149  27.241  34.120  1.00  0.00    -0.206 F 
ATOM     78  C   UNL A   1      47.639  27.075  33.159  1.00  0.00     0.006 A 
ENDBRANCH  54  71
ENDBRANCH  28  29
ENDBRANCH  20  23
ENDBRANCH  18  19
ENDBRANCH   1  18
TORSDOF 12
ENDMDL
MODEL 2
REMARK VINA RESULT:      -9.4      5.943     11.378
REMARK SMILES O=C(Cc1cccn(C(F)F)c1=O)NCCCNC(=O)c1ccc(-c2c3nc(c(-c4c(F)cccc4F)c4ccc([nH]4)c(-c4c(F)cccc4F)c4nc(c(-c5c(F)cccc5F)c5ccc2[nH]5)C=C4)C=C3)cc1
REMARK SMILES IDX 16 1 15 2 14 3 1 4 2 5 3 7 4 8 5 9 12 10 6 11 8 12 13 13
REMARK SMILES IDX 7 14 9 15 10 16 11 17 17 18 18 19 19 20 20 22 21 23 22 24
REMARK SMILES IDX 74 25 23 26 73 27 24 28 25 29 26 30 67 31 27 32 72 33 66 34
REMARK SMILES IDX 68 35 28 36 71 37 65 38 64 39 29 41 55 42 38 43 54 44 39 45
REMARK SMILES IDX 42 46 53 47 69 48 40 49 41 50 52 52 70 53 43 54 30 55 31 56
REMARK SMILES IDX 36 57 32 58 33 59 35 60 37 61 34 62 56 63 57 64 62 65 58 66
REMARK SMILES IDX 59 67 61 68 63 69 60 70 44 71 45 72 50 73 46 74 47 75 49 76
REMARK SMILES IDX 51 77 48 78
REMARK H PARENT 14 6 18 21 68 40 42 51
REMARK Flexibility Score: inf
ROOT
ATOM      1  C   UNL A   1      36.924  20.826  25.117  1.00  0.00     0.042 C 
ENDROOT
BRANCH   1   2
ATOM      2  C   UNL A   1      35.894  21.843  25.580  1.00  0.00     0.117 C 
BRANCH   2   3
ATOM      3  N   UNL A   1      34.562  21.287  25.713  1.00  0.00    -0.356 N 
ATOM      4  O   UNL A   1      33.592  22.785  24.268  1.00  0.00    -0.275 OA
ATOM      5  C   UNL A   1      33.508  21.781  24.967  1.00  0.00     0.224 C 
ATOM      6  H   UNL A   1      34.406  20.546  26.343  1.00  0.00     0.163 HD
BRANCH   5   7
ATOM      7  C   UNL A   1      32.259  20.914  25.016  1.00  0.00     0.141 C 
BRANCH   7   8
ATOM      8  C   UNL A   1      32.490  19.578  24.355  1.00  0.00     0.027 A 
ATOM      9  C   UNL A   1      32.429  19.336  23.030  1.00  0.00     0.011 A 
ATOM     10  C   UNL A   1      32.802  18.429  25.273  1.00  0.00     0.258 A 
ATOM     11  C   UNL A   1      32.637  18.020  22.489  1.00  0.00     0.019 A 
ATOM     12  N   UNL A   1      32.944  17.188  24.678  1.00  0.00    -0.258 N 
ATOM     13  O   UNL A   1      32.926  18.621  26.481  1.00  0.00    -0.269 OA
ATOM     14  C   UNL A   1      32.872  16.996  23.312  1.00  0.00     0.095 A 
BRANCH  12  15
ATOM     15  C   UNL A   1      33.191  16.057  25.534  1.00  0.00     0.451 C 
ATOM     16  F   UNL A   1      32.609  14.947  24.999  1.00  0.00    -0.185 F 
ATOM     17  F   UNL A   1      34.527  15.800  25.571  1.00  0.00    -0.185 F 
ENDBRANCH  12  15
ENDBRANCH   7   8
ENDBRANCH   5   7
ENDBRANCH   2   3
ENDBRANCH   1   2
BRANCH   1  18
ATOM     18  C   UNL A   1      38.357  21.112  25.550  1.00  0.00     0.118 C 
BRANCH  18  19
ATOM     19  N   UNL A   1      39.229  19.948  25.552  1.00  0.00    -0.352 N 
ATOM     20  C   UNL A   1      40.538  19.847  25.974  1.00  0.00     0.251 C 
ATOM     21  H   UNL A   1      38.830  19.116  25.206  1.00  0.00     0.163 HD
ATOM     22  O   UNL A   1      41.153  18.795  25.833  1.00  0.00    -0.269 OA
BRANCH  20  23
ATOM     23  C   UNL A   1      41.219  21.030  26.550  1.00  0.00     0.039 A 
ATOM     24  C   UNL A   1      41.151  21.301  27.917  1.00  0.00     0.014 A 
ATOM     25  C   UNL A   1      41.892  21.911  25.698  1.00  0.00     0.014 A 
ATOM     26  C   UNL A   1      41.574  22.536  28.397  1.00  0.00     0.010 A 
ATOM     27  C   UNL A   1      42.402  23.115  26.201  1.00  0.00     0.010 A 
ATOM     28  C   UNL A   1      42.190  23.466  27.542  1.00  0.00    -0.014 A 
BRANCH  28  29
ATOM     29  C   UNL A   1      42.571  24.801  28.079  1.00  0.00     0.031 A 
ATOM     30  C   UNL A   1      41.531  25.866  28.320  1.00  0.00     0.074 A 
ATOM     31  C   UNL A   1      43.852  25.031  28.427  1.00  0.00     0.049 A 
ATOM     32  N   UNL A   1      41.675  27.056  28.851  1.00  0.00    -0.248 NA
ATOM     33  C   UNL A   1      40.152  25.560  27.912  1.00  0.00     0.031 C 
ATOM     34  C   UNL A   1      44.957  24.087  28.246  1.00  0.00     0.029 A 
ATOM     35  N   UNL A   1      44.436  26.113  29.036  1.00  0.00    -0.354 N 
ATOM     36  C   UNL A   1      40.415  27.643  28.823  1.00  0.00     0.074 A 
ATOM     37  C   UNL A   1      39.524  26.692  28.194  1.00  0.00     0.031 C 
ATOM     38  C   UNL A   1      46.069  24.604  28.787  1.00  0.00     0.029 A 
ATOM     39  C   UNL A   1      45.771  25.936  29.303  1.00  0.00     0.049 A 
ATOM     40  H   UNL A   1      43.945  26.936  29.260  1.00  0.00     0.167 HD
ATOM     41  C   UNL A   1      40.029  28.855  29.292  1.00  0.00     0.037 A 
ATOM     42  C   UNL A   1      46.661  26.755  29.893  1.00  0.00     0.037 A 
ATOM     43  C   UNL A   1      40.907  29.798  29.937  1.00  0.00     0.049 A 
ATOM     44  C   UNL A   1      46.213  28.105  30.373  1.00  0.00     0.074 A 
ATOM     45  C   UNL A   1      40.600  31.038  30.472  1.00  0.00     0.029 A 
ATOM     46  N   UNL A   1      42.266  29.605  30.134  1.00  0.00    -0.354 N 
ATOM     47  N   UNL A   1      45.013  28.632  30.361  1.00  0.00    -0.248 NA
ATOM     48  C   UNL A   1      47.250  28.978  30.941  1.00  0.00     0.031 C 
ATOM     49  C   UNL A   1      41.781  31.612  30.957  1.00  0.00     0.029 A 
ATOM     50  C   UNL A   1      42.815  30.712  30.761  1.00  0.00     0.049 A 
ATOM     51  H   UNL A   1      42.766  28.800  29.867  1.00  0.00     0.167 HD
ATOM     52  C   UNL A   1      45.148  29.893  30.926  1.00  0.00     0.074 A 
ATOM     53  C   UNL A   1      46.541  30.039  31.297  1.00  0.00     0.031 C 
ATOM     54  C   UNL A   1      44.205  30.847  31.114  1.00  0.00     0.037 A 
BRANCH  41  55
ATOM     55  C   UNL A   1      38.588  29.237  29.112  1.00  0.00     0.057 A 
ATOM     56  C   UNL A   1      38.113  29.670  27.868  1.00  0.00     0.134 A 
ATOM     57  C   UNL A   1      37.676  29.207  30.175  1.00  0.00     0.134 A 
ATOM     58  F   UNL A   1      38.935  29.730  26.808  1.00  0.00    -0.206 F 
ATOM     59  C   UNL A   1      36.784  30.055  27.686  1.00  0.00     0.040 A 
ATOM     60  C   UNL A   1      36.338  29.568  30.001  1.00  0.00     0.040 A 
ATOM     61  F   UNL A   1      38.064  28.790  31.391  1.00  0.00    -0.206 F 
ATOM     62  C   UNL A   1      35.891  29.999  28.754  1.00  0.00     0.006 A 
ENDBRANCH  41  55
BRANCH  42  63
ATOM     63  C   UNL A   1      48.071  26.324  30.061  1.00  0.00     0.057 A 
ATOM     64  C   UNL A   1      48.506  25.698  31.235  1.00  0.00     0.134 A 
ATOM     65  C   UNL A   1      49.011  26.515  29.041  1.00  0.00     0.134 A 
ATOM     66  F   UNL A   1      47.652  25.491  32.248  1.00  0.00    -0.206 F 
ATOM     67  C   UNL A   1      49.828  25.284  31.394  1.00  0.00     0.040 A 
ATOM     68  C   UNL A   1      50.331  26.082  29.178  1.00  0.00     0.040 A 
ATOM     69  F   UNL A   1      48.647  27.091  27.887  1.00  0.00    -0.206 F 
ATOM     70  C   UNL A   1      50.743  25.469  30.359  1.00  0.00     0.006 A 
ENDBRANCH  42  63
BRANCH  54  71
ATOM     71  C   UNL A   1      44.657  32.125  31.758  1.00  0.00     0.057 A 
ATOM     72  C   UNL A   1      44.650  32.268  33.150  1.00  0.00     0.134 A 
ATOM     73  C   UNL A   1      45.102  33.214  30.997  1.00  0.00     0.134 A 
ATOM     74  F   UNL A   1      44.231  31.264  33.936  1.00  0.00    -0.206 F 
ATOM     75  C   UNL A   1      45.076  33.446  33.764  1.00  0.00     0.040 A 
ATOM     76  C   UNL A   1      45.553  34.389  31.601  1.00  0.00     0.040 A 
ATOM     77  F   UNL A   1      45.150  33.134  29.658  1.00  0.00    -0.206 F 
ATOM     78  C   UNL A   1      45.537  34.508  32.988  1.00  0.00     0.006 A 
ENDBRANCH  54  71
ENDBRANCH  28  29
ENDBRANCH  20  23
ENDBRANCH  18  19
ENDBRANCH   1  18
TORSDOF 12
ENDMDL
MODEL 3
REMARK VINA RESULT:      -9.4      6.017     11.459
REMARK SMILES O=C(Cc1cccn(C(F)F)c1=O)NCCCNC(=O)c1ccc(-c2c3nc(c(-c4c(F)cccc4F)c4ccc([nH]4)c(-c4c(F)cccc4F)c4nc(c(-c5c(F)cccc5F)c5ccc2[nH]5)C=C4)C=C3)cc1
REMARK SMILES IDX 16 1 15 2 14 3 1 4 2 5 3 7 4 8 5 9 12 10 6 11 8 12 13 13
REMARK SMILES IDX 7 14 9 15 10 16 11 17 17 18 18 19 19 20 20 22 21 23 22 24
REMARK SMILES IDX 74 25 23 26 73 27 24 28 25 29 26 30 67 31 27 32 72 33 66 34
REMARK SMILES IDX 68 35 28 36 71 37 65 38 64 39 29 41 55 42 38 43 54 44 39 45
REMARK SMILES IDX 42 46 53 47 69 48 40 49 41 50 52 52 70 53 43 54 30 55 31 56
REMARK SMILES IDX 36 57 32 58 33 59 35 60 37 61 34 62 56 63 57 64 62 65 58 66
REMARK SMILES IDX 59 67 61 68 63 69 60 70 44 71 45 72 50 73 46 74 47 75 49 76
REMARK SMILES IDX 51 77 48 78
REMARK H PARENT 14 6 18 21 68 40 42 51
REMARK Flexibility Score: inf
ROOT
ATOM      1  C   UNL A   1      36.955  20.683  25.000  1.00  0.00     0.042 C 
ENDROOT
BRANCH   1   2
ATOM      2  C   UNL A   1      35.886  21.650  25.482  1.00  0.00     0.117 C 
BRANCH   2   3
ATOM      3  N   UNL A   1      34.566  21.055  25.549  1.00  0.00    -0.356 N 
ATOM      4  O   UNL A   1      33.480  22.925  24.777  1.00  0.00    -0.275 OA
ATOM      5  C   UNL A   1      33.452  21.745  25.111  1.00  0.00     0.224 C 
ATOM      6  H   UNL A   1      34.462  20.145  25.911  1.00  0.00     0.163 HD
BRANCH   5   7
ATOM      7  C   UNL A   1      32.203  20.886  24.989  1.00  0.00     0.141 C 
BRANCH   7   8
ATOM      8  C   UNL A   1      32.516  19.543  24.379  1.00  0.00     0.027 A 
ATOM      9  C   UNL A   1      32.524  19.261  23.061  1.00  0.00     0.011 A 
ATOM     10  C   UNL A   1      32.832  18.434  25.345  1.00  0.00     0.258 A 
ATOM     11  C   UNL A   1      32.809  17.940  22.569  1.00  0.00     0.019 A 
ATOM     12  N   UNL A   1      33.049  17.183  24.793  1.00  0.00    -0.258 N 
ATOM     13  O   UNL A   1      32.893  18.665  26.550  1.00  0.00    -0.269 OA
ATOM     14  C   UNL A   1      33.047  16.950  23.432  1.00  0.00     0.095 A 
BRANCH  12  15
ATOM     15  C   UNL A   1      33.302  16.088  25.693  1.00  0.00     0.451 C 
ATOM     16  F   UNL A   1      32.118  15.582  26.136  1.00  0.00    -0.185 F 
ATOM     17  F   UNL A   1      33.913  15.077  25.017  1.00  0.00    -0.185 F 
ENDBRANCH  12  15
ENDBRANCH   7   8
ENDBRANCH   5   7
ENDBRANCH   2   3
ENDBRANCH   1   2
BRANCH   1  18
ATOM     18  C   UNL A   1      38.364  20.975  25.499  1.00  0.00     0.118 C 
BRANCH  18  19
ATOM     19  N   UNL A   1      39.264  19.832  25.468  1.00  0.00    -0.352 N 
ATOM     20  C   UNL A   1      40.570  19.745  25.903  1.00  0.00     0.251 C 
ATOM     21  H   UNL A   1      38.889  19.006  25.083  1.00  0.00     0.163 HD
ATOM     22  O   UNL A   1      41.210  18.713  25.729  1.00  0.00    -0.269 OA
BRANCH  20  23
ATOM     23  C   UNL A   1      41.216  20.919  26.535  1.00  0.00     0.039 A 
ATOM     24  C   UNL A   1      41.112  21.140  27.908  1.00  0.00     0.014 A 
ATOM     25  C   UNL A   1      41.890  21.841  25.729  1.00  0.00     0.014 A 
ATOM     26  C   UNL A   1      41.502  22.366  28.439  1.00  0.00     0.010 A 
ATOM     27  C   UNL A   1      42.366  23.035  26.283  1.00  0.00     0.010 A 
ATOM     28  C   UNL A   1      42.119  23.336  27.631  1.00  0.00    -0.014 A 
BRANCH  28  29
ATOM     29  C   UNL A   1      42.463  24.658  28.221  1.00  0.00     0.031 A 
ATOM     30  C   UNL A   1      43.893  25.025  28.523  1.00  0.00     0.074 A 
ATOM     31  C   UNL A   1      41.487  25.568  28.413  1.00  0.00     0.049 A 
ATOM     32  N   UNL A   1      44.380  26.159  28.968  1.00  0.00    -0.248 NA
ATOM     33  C   UNL A   1      44.912  23.988  28.300  1.00  0.00     0.031 C 
ATOM     34  C   UNL A   1      40.062  25.341  28.164  1.00  0.00     0.029 A 
ATOM     35  N   UNL A   1      41.548  26.873  28.829  1.00  0.00    -0.354 N 
ATOM     36  C   UNL A   1      45.750  25.965  29.093  1.00  0.00     0.074 A 
ATOM     37  C   UNL A   1      46.017  24.596  28.710  1.00  0.00     0.031 C 
ATOM     38  C   UNL A   1      39.393  26.484  28.371  1.00  0.00     0.029 A 
ATOM     39  C   UNL A   1      40.330  27.508  28.821  1.00  0.00     0.049 A 
ATOM     40  H   UNL A   1      42.384  27.314  29.106  1.00  0.00     0.167 HD
ATOM     41  C   UNL A   1      46.704  26.849  29.477  1.00  0.00     0.037 A 
ATOM     42  C   UNL A   1      40.000  28.772  29.144  1.00  0.00     0.037 A 
ATOM     43  C   UNL A   1      46.448  28.219  29.841  1.00  0.00     0.049 A 
ATOM     44  C   UNL A   1      41.072  29.719  29.599  1.00  0.00     0.074 A 
ATOM     45  C   UNL A   1      47.354  29.198  30.215  1.00  0.00     0.029 A 
ATOM     46  N   UNL A   1      45.192  28.806  29.879  1.00  0.00    -0.354 N 
ATOM     47  N   UNL A   1      42.365  29.526  29.687  1.00  0.00    -0.248 NA
ATOM     48  C   UNL A   1      40.633  31.061  30.007  1.00  0.00     0.031 C 
ATOM     49  C   UNL A   1      46.641  30.365  30.516  1.00  0.00     0.029 A 
ATOM     50  C   UNL A   1      45.296  30.124  30.290  1.00  0.00     0.049 A 
ATOM     51  H   UNL A   1      44.350  28.351  29.646  1.00  0.00     0.167 HD
ATOM     52  C   UNL A   1      42.895  30.721  30.153  1.00  0.00     0.074 A 
ATOM     53  C   UNL A   1      41.787  31.643  30.298  1.00  0.00     0.031 C 
ATOM     54  C   UNL A   1      44.183  31.026  30.441  1.00  0.00     0.037 A 
BRANCH  41  55
ATOM     55  C   UNL A   1      48.120  26.354  29.536  1.00  0.00     0.057 A 
ATOM     56  C   UNL A   1      48.628  25.776  30.707  1.00  0.00     0.134 A 
ATOM     57  C   UNL A   1      48.992  26.473  28.445  1.00  0.00     0.134 A 
ATOM     58  F   UNL A   1      47.850  25.638  31.791  1.00  0.00    -0.206 F 
ATOM     59  C   UNL A   1      49.949  25.334  30.790  1.00  0.00     0.040 A 
ATOM     60  C   UNL A   1      50.309  26.013  28.508  1.00  0.00     0.040 A 
ATOM     61  F   UNL A   1      48.564  27.005  27.290  1.00  0.00    -0.206 F 
ATOM     62  C   UNL A   1      50.792  25.447  29.686  1.00  0.00     0.006 A 
ENDBRANCH  41  55
BRANCH  42  63
ATOM     63  C   UNL A   1      38.587  29.217  29.056  1.00  0.00     0.057 A 
ATOM     64  C   UNL A   1      38.044  29.681  27.852  1.00  0.00     0.134 A 
ATOM     65  C   UNL A   1      37.744  29.171  30.171  1.00  0.00     0.134 A 
ATOM     66  F   UNL A   1      38.805  29.750  26.749  1.00  0.00    -0.206 F 
ATOM     67  C   UNL A   1      36.716  30.093  27.761  1.00  0.00     0.040 A 
ATOM     68  C   UNL A   1      36.405  29.556  30.089  1.00  0.00     0.040 A 
ATOM     69  F   UNL A   1      38.203  28.717  31.347  1.00  0.00    -0.206 F 
ATOM     70  C   UNL A   1      35.889  30.023  28.881  1.00  0.00     0.006 A 
ENDBRANCH  42  63
BRANCH  54  71
ATOM     71  C   UNL A   1      44.454  32.418  30.932  1.00  0.00     0.057 A 
ATOM     72  C   UNL A   1      44.452  32.708  32.301  1.00  0.00     0.134 A 
ATOM     73  C   UNL A   1      44.718  33.471  30.046  1.00  0.00     0.134 A 
ATOM     74  F   UNL A   1      44.201  31.746  33.201  1.00  0.00    -0.206 F 
ATOM     75  C   UNL A   1      44.710  33.995  32.773  1.00  0.00     0.040 A 
ATOM     76  C   UNL A   1      45.002  34.757  30.508  1.00  0.00     0.040 A 
ATOM     77  F   UNL A   1      44.751  33.254  28.722  1.00  0.00    -0.206 F 
ATOM     78  C   UNL A   1      44.994  35.023  31.875  1.00  0.00     0.006 A 
ENDBRANCH  54  71
ENDBRANCH  28  29
ENDBRANCH  20  23
ENDBRANCH  18  19
ENDBRANCH   1  18
TORSDOF 12
ENDMDL
