MODEL 1
REMARK VINA RESULT:     -10.6      0.000      0.000
REMARK SMILES O=C(CCOc1cccc(/C=C2/SC(=S)N(c3ccc(Cl)c(Cl)c3)C2=O)c1)NCCCNC(=O)c1ccc(-c2c3nc(c(-c4c(F)cccc4F)c4ccc([nH]4)c(-c4c(F)cccc4F)c4nc(c(-c5c(F)cccc5F)c5ccc2[nH]5)C=C4)C=C3)cc1
REMARK SMILES IDX 1 1 2 2 28 3 3 5 4 6 5 7 6 8 7 9 27 10 8 11 10 12 9 13 11 14
REMARK SMILES IDX 12 15 13 16 25 17 14 18 16 19 26 20 15 21 17 22 18 23 24 24
REMARK SMILES IDX 19 25 22 26 20 27 23 28 21 29 29 30 30 31 31 32 32 33 33 34
REMARK SMILES IDX 34 36 35 37 36 38 88 39 37 40 87 41 38 42 39 43 40 44 81 45
REMARK SMILES IDX 41 46 86 47 80 48 82 49 42 50 85 51 79 52 78 53 43 55 69 56
REMARK SMILES IDX 52 57 68 58 53 59 56 60 67 61 83 62 54 63 55 64 66 66 84 67
REMARK SMILES IDX 57 68 44 69 45 70 50 71 46 72 47 73 49 74 51 75 48 76 70 77
REMARK SMILES IDX 71 78 76 79 72 80 73 81 75 82 77 83 74 84 58 85 59 86 64 87
REMARK SMILES IDX 60 88 61 89 63 90 65 91 62 92
REMARK H PARENT 28 4 32 35 82 54 56 65
REMARK Flexibility Score: inf
ROOT
ATOM      1  O   UNL A   1      35.151  35.851  33.283  1.00  0.00    -0.275 OA
ATOM      2  C   UNL A   1      34.450  34.838  33.314  1.00  0.00     0.223 C 
ATOM      3  N   UNL A   1      33.188  34.818  32.743  1.00  0.00    -0.356 N 
ATOM      4  H   UNL A   1      32.703  33.962  32.759  1.00  0.00     0.163 HD
ENDROOT
BRANCH   2   5
ATOM      5  C   UNL A   1      35.038  33.526  33.892  1.00  0.00     0.141 C 
BRANCH   5   6
ATOM      6  C   UNL A   1      36.119  33.599  34.991  1.00  0.00     0.239 C 
BRANCH   6   7
ATOM      7  O   UNL A   1      37.497  33.469  34.538  1.00  0.00    -0.493 OA
BRANCH   7   8
ATOM      8  C   UNL A   1      37.833  32.142  34.457  1.00  0.00     0.119 A 
ATOM      9  C   UNL A   1      37.458  31.389  33.348  1.00  0.00     0.046 A 
ATOM     10  C   UNL A   1      38.795  31.709  35.360  1.00  0.00     0.054 A 
ATOM     11  C   UNL A   1      38.188  30.248  33.049  1.00  0.00     0.004 A 
ATOM     12  C   UNL A   1      39.672  30.728  34.931  1.00  0.00    -0.021 A 
ATOM     13  C   UNL A   1      39.321  29.949  33.815  1.00  0.00     0.008 A 
BRANCH  12  14
ATOM     14  C   UNL A   1      41.094  30.963  35.246  1.00  0.00     0.029 C 
ATOM     15  C   UNL A   1      42.035  30.229  35.830  1.00  0.00     0.081 C 
ATOM     16  S   UNL A   1      43.633  30.782  36.172  1.00  0.00    -0.054 SA
ATOM     17  C   UNL A   1      41.884  28.824  36.178  1.00  0.00     0.270 C 
ATOM     18  C   UNL A   1      44.204  29.153  36.535  1.00  0.00     0.152 C 
ATOM     19  N   UNL A   1      43.138  28.285  36.422  1.00  0.00    -0.261 N 
ATOM     20  O   UNL A   1      40.804  28.251  36.236  1.00  0.00    -0.268 OA
ATOM     21  S   UNL A   1      45.802  28.818  36.864  1.00  0.00    -0.051 S 
BRANCH  19  22
ATOM     22  C   UNL A   1      43.170  26.889  36.560  1.00  0.00     0.052 A 
ATOM     23  C   UNL A   1      43.627  26.396  37.791  1.00  0.00     0.028 A 
ATOM     24  C   UNL A   1      43.218  26.101  35.411  1.00  0.00     0.048 A 
ATOM     25  C   UNL A   1      44.243  25.154  37.855  1.00  0.00     0.024 A 
ATOM     26  C   UNL A   1      43.845  24.855  35.479  1.00  0.00     0.061 A 
ATOM     27  C   UNL A   1      44.384  24.397  36.692  1.00  0.00     0.059 A 
ATOM     28  Cl  UNL A   1      44.027  23.982  34.000  1.00  0.00    -0.083 Cl
ATOM     29  Cl  UNL A   1      45.308  22.944  36.805  1.00  0.00    -0.083 Cl
ENDBRANCH  19  22
ENDBRANCH  12  14
ENDBRANCH   7   8
ENDBRANCH   6   7
ENDBRANCH   5   6
ENDBRANCH   2   5
BRANCH   3  30
ATOM     30  C   UNL A   1      32.509  35.968  32.113  1.00  0.00     0.117 C 
BRANCH  30  31
ATOM     31  C   UNL A   1      33.257  37.007  31.203  1.00  0.00     0.042 C 
BRANCH  31  32
ATOM     32  C   UNL A   1      33.499  36.962  29.661  1.00  0.00     0.118 C 
BRANCH  32  33
ATOM     33  N   UNL A   1      32.726  36.053  28.843  1.00  0.00    -0.352 N 
ATOM     34  C   UNL A   1      32.996  34.726  28.535  1.00  0.00     0.251 C 
ATOM     35  H   UNL A   1      31.900  36.423  28.455  1.00  0.00     0.163 HD
ATOM     36  O   UNL A   1      32.169  34.085  27.889  1.00  0.00    -0.269 OA
BRANCH  34  37
ATOM     37  C   UNL A   1      34.269  34.044  28.915  1.00  0.00     0.039 A 
ATOM     38  C   UNL A   1      35.342  34.131  28.020  1.00  0.00     0.014 A 
ATOM     39  C   UNL A   1      34.389  33.197  30.024  1.00  0.00     0.014 A 
ATOM     40  C   UNL A   1      36.548  33.454  28.270  1.00  0.00     0.010 A 
ATOM     41  C   UNL A   1      35.611  32.532  30.285  1.00  0.00     0.010 A 
ATOM     42  C   UNL A   1      36.716  32.674  29.427  1.00  0.00    -0.014 A 
BRANCH  42  43
ATOM     43  C   UNL A   1      38.070  32.130  29.776  1.00  0.00     0.031 A 
ATOM     44  C   UNL A   1      38.562  30.789  29.290  1.00  0.00     0.074 A 
ATOM     45  C   UNL A   1      38.880  32.868  30.565  1.00  0.00     0.049 A 
ATOM     46  N   UNL A   1      39.716  30.201  29.512  1.00  0.00    -0.248 NA
ATOM     47  C   UNL A   1      37.643  30.004  28.460  1.00  0.00     0.031 C 
ATOM     48  C   UNL A   1      38.534  34.175  31.126  1.00  0.00     0.029 A 
ATOM     49  N   UNL A   1      40.151  32.634  31.036  1.00  0.00    -0.354 N 
ATOM     50  C   UNL A   1      39.663  28.978  28.849  1.00  0.00     0.074 A 
ATOM     51  C   UNL A   1      38.346  28.898  28.246  1.00  0.00     0.031 C 
ATOM     52  C   UNL A   1      39.568  34.634  31.847  1.00  0.00     0.029 A 
ATOM     53  C   UNL A   1      40.640  33.643  31.834  1.00  0.00     0.049 A 
ATOM     54  H   UNL A   1      40.664  31.821  30.822  1.00  0.00     0.167 HD
ATOM     55  C   UNL A   1      40.620  28.020  28.743  1.00  0.00     0.037 A 
ATOM     56  C   UNL A   1      41.811  33.764  32.491  1.00  0.00     0.037 A 
ATOM     57  C   UNL A   1      41.934  28.098  29.336  1.00  0.00     0.049 A 
ATOM     58  C   UNL A   1      42.842  32.677  32.382  1.00  0.00     0.074 A 
ATOM     59  C   UNL A   1      42.981  27.193  29.240  1.00  0.00     0.029 A 
ATOM     60  N   UNL A   1      42.382  29.133  30.143  1.00  0.00    -0.354 N 
ATOM     61  N   UNL A   1      42.793  31.560  31.699  1.00  0.00    -0.248 NA
ATOM     62  C   UNL A   1      44.095  32.867  33.131  1.00  0.00     0.031 C 
ATOM     63  C   UNL A   1      44.042  27.657  30.027  1.00  0.00     0.029 A 
ATOM     64  C   UNL A   1      43.676  28.876  30.573  1.00  0.00     0.049 A 
ATOM     65  H   UNL A   1      41.859  29.933  30.378  1.00  0.00     0.167 HD
ATOM     66  C   UNL A   1      44.013  30.929  31.912  1.00  0.00     0.074 A 
ATOM     67  C   UNL A   1      44.787  31.793  32.779  1.00  0.00     0.031 C 
ATOM     68  C   UNL A   1      44.449  29.741  31.429  1.00  0.00     0.037 A 
BRANCH  55  69
ATOM     69  C   UNL A   1      40.286  26.782  27.954  1.00  0.00     0.057 A 
ATOM     70  C   UNL A   1      40.791  26.568  26.665  1.00  0.00     0.134 A 
ATOM     71  C   UNL A   1      39.503  25.762  28.514  1.00  0.00     0.134 A 
ATOM     72  F   UNL A   1      41.552  27.500  26.071  1.00  0.00    -0.206 F 
ATOM     73  C   UNL A   1      40.503  25.403  25.949  1.00  0.00     0.040 A 
ATOM     74  C   UNL A   1      39.229  24.583  27.819  1.00  0.00     0.040 A 
ATOM     75  F   UNL A   1      39.005  25.889  29.753  1.00  0.00    -0.206 F 
ATOM     76  C   UNL A   1      39.723  24.404  26.528  1.00  0.00     0.006 A 
ENDBRANCH  55  69
BRANCH  56  77
ATOM     77  C   UNL A   1      42.077  34.975  33.312  1.00  0.00     0.057 A 
ATOM     78  C   UNL A   1      41.525  35.121  34.590  1.00  0.00     0.134 A 
ATOM     79  C   UNL A   1      42.888  36.014  32.839  1.00  0.00     0.134 A 
ATOM     80  F   UNL A   1      40.722  34.170  35.091  1.00  0.00    -0.206 F 
ATOM     81  C   UNL A   1      41.758  36.260  35.362  1.00  0.00     0.040 A 
ATOM     82  C   UNL A   1      43.150  37.147  33.610  1.00  0.00     0.040 A 
ATOM     83  F   UNL A   1      43.451  35.933  31.624  1.00  0.00    -0.206 F 
ATOM     84  C   UNL A   1      42.579  37.276  34.874  1.00  0.00     0.006 A 
ENDBRANCH  56  77
BRANCH  68  85
ATOM     85  C   UNL A   1      45.840  29.312  31.797  1.00  0.00     0.057 A 
ATOM     86  C   UNL A   1      46.964  29.764  31.095  1.00  0.00     0.134 A 
ATOM     87  C   UNL A   1      46.060  28.471  32.896  1.00  0.00     0.134 A 
ATOM     88  F   UNL A   1      46.823  30.558  30.023  1.00  0.00    -0.206 F 
ATOM     89  C   UNL A   1      48.257  29.385  31.464  1.00  0.00     0.040 A 
ATOM     90  C   UNL A   1      47.348  28.105  33.289  1.00  0.00     0.040 A 
ATOM     91  F   UNL A   1      45.028  28.006  33.615  1.00  0.00    -0.206 F 
ATOM     92  C   UNL A   1      48.452  28.560  32.571  1.00  0.00     0.006 A 
ENDBRANCH  68  85
ENDBRANCH  42  43
ENDBRANCH  34  37
ENDBRANCH  32  33
ENDBRANCH  31  32
ENDBRANCH  30  31
ENDBRANCH   3  30
TORSDOF 15
ENDMDL
MODEL 2
REMARK VINA RESULT:     -10.6      5.616     11.532
REMARK SMILES O=C(CCOc1cccc(/C=C2/SC(=S)N(c3ccc(Cl)c(Cl)c3)C2=O)c1)NCCCNC(=O)c1ccc(-c2c3nc(c(-c4c(F)cccc4F)c4ccc([nH]4)c(-c4c(F)cccc4F)c4nc(c(-c5c(F)cccc5F)c5ccc2[nH]5)C=C4)C=C3)cc1
REMARK SMILES IDX 1 1 2 2 28 3 3 5 4 6 5 7 6 8 7 9 27 10 8 11 10 12 9 13 11 14
REMARK SMILES IDX 12 15 13 16 25 17 14 18 16 19 26 20 15 21 17 22 18 23 24 24
REMARK SMILES IDX 19 25 22 26 20 27 23 28 21 29 29 30 30 31 31 32 32 33 33 34
REMARK SMILES IDX 34 36 35 37 36 38 88 39 37 40 87 41 38 42 39 43 40 44 81 45
REMARK SMILES IDX 41 46 86 47 80 48 82 49 42 50 85 51 79 52 78 53 43 55 69 56
REMARK SMILES IDX 52 57 68 58 53 59 56 60 67 61 83 62 54 63 55 64 66 66 84 67
REMARK SMILES IDX 57 68 44 69 45 70 50 71 46 72 47 73 49 74 51 75 48 76 70 77
REMARK SMILES IDX 71 78 76 79 72 80 73 81 75 82 77 83 74 84 58 85 59 86 64 87
REMARK SMILES IDX 60 88 61 89 63 90 65 91 62 92
REMARK H PARENT 28 4 32 35 82 54 56 65
REMARK Flexibility Score: inf
ROOT
ATOM      1  O   UNL A   1      45.929  22.007  26.151  1.00  0.00    -0.275 OA
ATOM      2  C   UNL A   1      46.213  22.091  24.955  1.00  0.00     0.223 C 
ATOM      3  N   UNL A   1      46.216  20.974  24.136  1.00  0.00    -0.356 N 
ATOM      4  H   UNL A   1      46.401  21.119  23.180  1.00  0.00     0.163 HD
ENDROOT
BRANCH   2   5
ATOM      5  C   UNL A   1      46.447  23.487  24.326  1.00  0.00     0.141 C 
BRANCH   5   6
ATOM      6  C   UNL A   1      45.748  24.720  24.936  1.00  0.00     0.239 C 
BRANCH   6   7
ATOM      7  O   UNL A   1      46.417  25.998  24.732  1.00  0.00    -0.493 OA
BRANCH   7   8
ATOM      8  C   UNL A   1      45.573  27.021  25.080  1.00  0.00     0.119 A 
ATOM      9  C   UNL A   1      44.272  26.750  25.492  1.00  0.00     0.046 A 
ATOM     10  C   UNL A   1      46.177  28.255  25.286  1.00  0.00     0.054 A 
ATOM     11  C   UNL A   1      43.621  27.688  26.280  1.00  0.00     0.004 A 
ATOM     12  C   UNL A   1      45.637  29.070  26.265  1.00  0.00    -0.021 A 
ATOM     13  C   UNL A   1      44.324  28.823  26.702  1.00  0.00     0.008 A 
BRANCH  12  14
ATOM     14  C   UNL A   1      46.610  29.698  27.179  1.00  0.00     0.029 C 
ATOM     15  C   UNL A   1      47.062  30.940  27.323  1.00  0.00     0.081 C 
ATOM     16  S   UNL A   1      48.297  31.407  28.433  1.00  0.00    -0.054 SA
ATOM     17  C   UNL A   1      46.514  32.099  26.634  1.00  0.00     0.270 C 
ATOM     18  C   UNL A   1      47.957  33.124  28.210  1.00  0.00     0.152 C 
ATOM     19  N   UNL A   1      46.955  33.248  27.271  1.00  0.00    -0.261 N 
ATOM     20  O   UNL A   1      45.786  32.024  25.653  1.00  0.00    -0.268 OA
ATOM     21  S   UNL A   1      48.717  34.309  29.100  1.00  0.00    -0.051 S 
BRANCH  19  22
ATOM     22  C   UNL A   1      46.337  34.437  26.850  1.00  0.00     0.052 A 
ATOM     23  C   UNL A   1      47.092  35.265  26.007  1.00  0.00     0.028 A 
ATOM     24  C   UNL A   1      45.287  34.952  27.608  1.00  0.00     0.048 A 
ATOM     25  C   UNL A   1      46.876  36.635  26.006  1.00  0.00     0.024 A 
ATOM     26  C   UNL A   1      45.077  36.333  27.609  1.00  0.00     0.061 A 
ATOM     27  C   UNL A   1      45.890  37.175  26.834  1.00  0.00     0.059 A 
ATOM     28  Cl  UNL A   1      43.874  36.947  28.684  1.00  0.00    -0.083 Cl
ATOM     29  Cl  UNL A   1      45.787  38.896  26.916  1.00  0.00    -0.083 Cl
ENDBRANCH  19  22
ENDBRANCH  12  14
ENDBRANCH   7   8
ENDBRANCH   6   7
ENDBRANCH   5   6
ENDBRANCH   2   5
BRANCH   3  30
ATOM     30  C   UNL A   1      45.965  19.585  24.572  1.00  0.00     0.117 C 
BRANCH  30  31
ATOM     31  C   UNL A   1      44.526  18.961  24.649  1.00  0.00     0.042 C 
BRANCH  31  32
ATOM     32  C   UNL A   1      43.705  18.544  25.910  1.00  0.00     0.118 C 
BRANCH  32  33
ATOM     33  N   UNL A   1      42.270  18.388  25.807  1.00  0.00    -0.352 N 
ATOM     34  C   UNL A   1      41.282  19.346  25.996  1.00  0.00     0.251 C 
ATOM     35  H   UNL A   1      41.952  17.487  25.572  1.00  0.00     0.163 HD
ATOM     36  O   UNL A   1      40.110  19.043  25.779  1.00  0.00    -0.269 OA
BRANCH  34  37
ATOM     37  C   UNL A   1      41.568  20.724  26.495  1.00  0.00     0.039 A 
ATOM     38  C   UNL A   1      41.210  21.022  27.816  1.00  0.00     0.014 A 
ATOM     39  C   UNL A   1      42.015  21.765  25.673  1.00  0.00     0.014 A 
ATOM     40  C   UNL A   1      41.377  22.317  28.335  1.00  0.00     0.010 A 
ATOM     41  C   UNL A   1      42.201  23.064  26.202  1.00  0.00     0.010 A 
ATOM     42  C   UNL A   1      41.912  23.351  27.549  1.00  0.00    -0.014 A 
BRANCH  42  43
ATOM     43  C   UNL A   1      42.270  24.664  28.178  1.00  0.00     0.031 A 
ATOM     44  C   UNL A   1      41.266  25.769  28.395  1.00  0.00     0.074 A 
ATOM     45  C   UNL A   1      43.549  24.871  28.559  1.00  0.00     0.049 A 
ATOM     46  N   UNL A   1      41.441  26.953  28.935  1.00  0.00    -0.248 NA
ATOM     47  C   UNL A   1      39.894  25.518  27.941  1.00  0.00     0.031 C 
ATOM     48  C   UNL A   1      44.635  23.904  28.397  1.00  0.00     0.029 A 
ATOM     49  N   UNL A   1      44.158  25.951  29.157  1.00  0.00    -0.354 N 
ATOM     50  C   UNL A   1      40.205  27.590  28.887  1.00  0.00     0.074 A 
ATOM     51  C   UNL A   1      39.297  26.669  28.232  1.00  0.00     0.031 C 
ATOM     52  C   UNL A   1      45.768  24.422  28.895  1.00  0.00     0.029 A 
ATOM     53  C   UNL A   1      45.504  25.773  29.381  1.00  0.00     0.049 A 
ATOM     54  H   UNL A   1      43.676  26.773  29.400  1.00  0.00     0.167 HD
ATOM     55  C   UNL A   1      39.856  28.817  29.352  1.00  0.00     0.037 A 
ATOM     56  C   UNL A   1      46.430  26.598  29.909  1.00  0.00     0.037 A 
ATOM     57  C   UNL A   1      40.755  29.736  30.011  1.00  0.00     0.049 A 
ATOM     58  C   UNL A   1      46.025  27.963  30.390  1.00  0.00     0.074 A 
ATOM     59  C   UNL A   1      40.473  30.981  30.555  1.00  0.00     0.029 A 
ATOM     60  N   UNL A   1      42.110  29.519  30.209  1.00  0.00    -0.354 N 
ATOM     61  N   UNL A   1      44.838  28.517  30.391  1.00  0.00    -0.248 NA
ATOM     62  C   UNL A   1      47.086  28.816  30.948  1.00  0.00     0.031 C 
ATOM     63  C   UNL A   1      41.665  31.535  31.036  1.00  0.00     0.029 A 
ATOM     64  C   UNL A   1      42.681  30.615  30.839  1.00  0.00     0.049 A 
ATOM     65  H   UNL A   1      42.596  28.706  29.940  1.00  0.00     0.167 HD
ATOM     66  C   UNL A   1      45.002  29.768  30.972  1.00  0.00     0.074 A 
ATOM     67  C   UNL A   1      46.402  29.889  31.322  1.00  0.00     0.031 C 
ATOM     68  C   UNL A   1      44.073  30.729  31.194  1.00  0.00     0.037 A 
BRANCH  55  69
ATOM     69  C   UNL A   1      38.429  29.257  29.164  1.00  0.00     0.057 A 
ATOM     70  C   UNL A   1      37.516  29.283  30.226  1.00  0.00     0.134 A 
ATOM     71  C   UNL A   1      37.978  29.722  27.920  1.00  0.00     0.134 A 
ATOM     72  F   UNL A   1      37.882  28.857  31.445  1.00  0.00    -0.206 F 
ATOM     73  C   UNL A   1      36.200  29.720  30.053  1.00  0.00     0.040 A 
ATOM     74  C   UNL A   1      36.673  30.186  27.739  1.00  0.00     0.040 A 
ATOM     75  F   UNL A   1      38.803  29.748  26.863  1.00  0.00    -0.206 F 
ATOM     76  C   UNL A   1      35.777  30.178  28.807  1.00  0.00     0.006 A 
ENDBRANCH  55  69
BRANCH  56  77
ATOM     77  C   UNL A   1      47.844  26.150  30.020  1.00  0.00     0.057 A 
ATOM     78  C   UNL A   1      48.366  25.690  31.234  1.00  0.00     0.134 A 
ATOM     79  C   UNL A   1      48.704  26.170  28.916  1.00  0.00     0.134 A 
ATOM     80  F   UNL A   1      47.598  25.667  32.334  1.00  0.00    -0.206 F 
ATOM     81  C   UNL A   1      49.696  25.281  31.351  1.00  0.00     0.040 A 
ATOM     82  C   UNL A   1      50.028  25.739  29.012  1.00  0.00     0.040 A 
ATOM     83  F   UNL A   1      48.264  26.594  27.722  1.00  0.00    -0.206 F 
ATOM     84  C   UNL A   1      50.530  25.298  30.234  1.00  0.00     0.006 A 
ENDBRANCH  56  77
BRANCH  68  85
ATOM     85  C   UNL A   1      44.527  31.987  31.878  1.00  0.00     0.057 A 
ATOM     86  C   UNL A   1      44.490  32.128  33.270  1.00  0.00     0.134 A 
ATOM     87  C   UNL A   1      45.051  33.053  31.135  1.00  0.00     0.134 A 
ATOM     88  F   UNL A   1      43.986  31.151  34.040  1.00  0.00    -0.206 F 
ATOM     89  C   UNL A   1      44.943  33.289  33.900  1.00  0.00     0.040 A 
ATOM     90  C   UNL A   1      45.529  34.209  31.753  1.00  0.00     0.040 A 
ATOM     91  F   UNL A   1      45.120  32.982  29.797  1.00  0.00    -0.206 F 
ATOM     92  C   UNL A   1      45.474  34.331  33.140  1.00  0.00     0.006 A 
ENDBRANCH  68  85
ENDBRANCH  42  43
ENDBRANCH  34  37
ENDBRANCH  32  33
ENDBRANCH  31  32
ENDBRANCH  30  31
ENDBRANCH   3  30
TORSDOF 15
ENDMDL
MODEL 3
REMARK VINA RESULT:     -10.5      5.601     11.526
REMARK SMILES O=C(CCOc1cccc(/C=C2/SC(=S)N(c3ccc(Cl)c(Cl)c3)C2=O)c1)NCCCNC(=O)c1ccc(-c2c3nc(c(-c4c(F)cccc4F)c4ccc([nH]4)c(-c4c(F)cccc4F)c4nc(c(-c5c(F)cccc5F)c5ccc2[nH]5)C=C4)C=C3)cc1
REMARK SMILES IDX 1 1 2 2 28 3 3 5 4 6 5 7 6 8 7 9 27 10 8 11 10 12 9 13 11 14
REMARK SMILES IDX 12 15 13 16 25 17 14 18 16 19 26 20 15 21 17 22 18 23 24 24
REMARK SMILES IDX 19 25 22 26 20 27 23 28 21 29 29 30 30 31 31 32 32 33 33 34
REMARK SMILES IDX 34 36 35 37 36 38 88 39 37 40 87 41 38 42 39 43 40 44 81 45
REMARK SMILES IDX 41 46 86 47 80 48 82 49 42 50 85 51 79 52 78 53 43 55 69 56
REMARK SMILES IDX 52 57 68 58 53 59 56 60 67 61 83 62 54 63 55 64 66 66 84 67
REMARK SMILES IDX 57 68 44 69 45 70 50 71 46 72 47 73 49 74 51 75 48 76 70 77
REMARK SMILES IDX 71 78 76 79 72 80 73 81 75 82 77 83 74 84 58 85 59 86 64 87
REMARK SMILES IDX 60 88 61 89 63 90 65 91 62 92
REMARK H PARENT 28 4 32 35 82 54 56 65
REMARK Flexibility Score: inf
ROOT
ATOM      1  O   UNL A   1      45.510  21.722  26.125  1.00  0.00    -0.275 OA
ATOM      2  C   UNL A   1      45.990  21.799  24.992  1.00  0.00     0.223 C 
ATOM      3  N   UNL A   1      46.257  20.665  24.244  1.00  0.00    -0.356 N 
ATOM      4  H   UNL A   1      46.592  20.800  23.328  1.00  0.00     0.163 HD
ENDROOT
BRANCH   2   5
ATOM      5  C   UNL A   1      46.182  23.193  24.342  1.00  0.00     0.141 C 
BRANCH   5   6
ATOM      6  C   UNL A   1      45.595  24.440  25.038  1.00  0.00     0.239 C 
BRANCH   6   7
ATOM      7  O   UNL A   1      46.276  25.699  24.767  1.00  0.00    -0.493 OA
BRANCH   7   8
ATOM      8  C   UNL A   1      45.441  26.747  25.060  1.00  0.00     0.119 A 
ATOM      9  C   UNL A   1      44.122  26.512  25.433  1.00  0.00     0.046 A 
ATOM     10  C   UNL A   1      46.063  27.973  25.258  1.00  0.00     0.054 A 
ATOM     11  C   UNL A   1      43.463  27.482  26.174  1.00  0.00     0.004 A 
ATOM     12  C   UNL A   1      45.506  28.823  26.198  1.00  0.00    -0.021 A 
ATOM     13  C   UNL A   1      44.173  28.612  26.593  1.00  0.00     0.008 A 
BRANCH  12  14
ATOM     14  C   UNL A   1      46.459  29.455  27.130  1.00  0.00     0.029 C 
ATOM     15  C   UNL A   1      46.925  30.692  27.264  1.00  0.00     0.081 C 
ATOM     16  S   UNL A   1      48.132  31.163  28.403  1.00  0.00    -0.054 SA
ATOM     17  C   UNL A   1      46.418  31.845  26.536  1.00  0.00     0.270 C 
ATOM     18  C   UNL A   1      47.826  32.879  28.137  1.00  0.00     0.152 C 
ATOM     19  N   UNL A   1      46.857  33.000  27.163  1.00  0.00    -0.261 N 
ATOM     20  O   UNL A   1      45.720  31.762  25.533  1.00  0.00    -0.268 OA
ATOM     21  S   UNL A   1      48.576  34.070  29.027  1.00  0.00    -0.051 S 
BRANCH  19  22
ATOM     22  C   UNL A   1      46.270  34.189  26.700  1.00  0.00     0.052 A 
ATOM     23  C   UNL A   1      47.091  35.028  25.931  1.00  0.00     0.028 A 
ATOM     24  C   UNL A   1      45.157  34.694  27.369  1.00  0.00     0.048 A 
ATOM     25  C   UNL A   1      46.868  36.397  25.923  1.00  0.00     0.024 A 
ATOM     26  C   UNL A   1      44.940  36.074  27.362  1.00  0.00     0.061 A 
ATOM     27  C   UNL A   1      45.812  36.926  26.667  1.00  0.00     0.059 A 
ATOM     28  Cl  UNL A   1      43.645  36.674  28.335  1.00  0.00    -0.083 Cl
ATOM     29  Cl  UNL A   1      45.693  38.645  26.753  1.00  0.00    -0.083 Cl
ENDBRANCH  19  22
ENDBRANCH  12  14
ENDBRANCH   7   8
ENDBRANCH   6   7
ENDBRANCH   5   6
ENDBRANCH   2   5
BRANCH   3  30
ATOM     30  C   UNL A   1      46.084  19.272  24.701  1.00  0.00     0.117 C 
BRANCH  30  31
ATOM     31  C   UNL A   1      44.676  18.590  24.845  1.00  0.00     0.042 C 
BRANCH  31  32
ATOM     32  C   UNL A   1      43.731  18.547  26.088  1.00  0.00     0.118 C 
BRANCH  32  33
ATOM     33  N   UNL A   1      42.302  18.433  25.893  1.00  0.00    -0.352 N 
ATOM     34  C   UNL A   1      41.332  19.419  26.018  1.00  0.00     0.251 C 
ATOM     35  H   UNL A   1      41.974  17.540  25.638  1.00  0.00     0.163 HD
ATOM     36  O   UNL A   1      40.168  19.149  25.726  1.00  0.00    -0.269 OA
BRANCH  34  37
ATOM     37  C   UNL A   1      41.624  20.789  26.534  1.00  0.00     0.039 A 
ATOM     38  C   UNL A   1      41.280  21.068  27.862  1.00  0.00     0.014 A 
ATOM     39  C   UNL A   1      42.066  21.842  25.722  1.00  0.00     0.014 A 
ATOM     40  C   UNL A   1      41.453  22.356  28.398  1.00  0.00     0.010 A 
ATOM     41  C   UNL A   1      42.259  23.132  26.269  1.00  0.00     0.010 A 
ATOM     42  C   UNL A   1      41.983  23.400  27.622  1.00  0.00    -0.014 A 
BRANCH  42  43
ATOM     43  C   UNL A   1      42.350  24.704  28.266  1.00  0.00     0.031 A 
ATOM     44  C   UNL A   1      43.738  25.002  28.777  1.00  0.00     0.074 A 
ATOM     45  C   UNL A   1      41.394  25.649  28.403  1.00  0.00     0.049 A 
ATOM     46  N   UNL A   1      44.192  26.094  29.349  1.00  0.00    -0.248 NA
ATOM     47  C   UNL A   1      44.740  23.940  28.638  1.00  0.00     0.031 C 
ATOM     48  C   UNL A   1      40.004  25.498  27.973  1.00  0.00     0.029 A 
ATOM     49  N   UNL A   1      41.438  26.916  28.936  1.00  0.00    -0.354 N 
ATOM     50  C   UNL A   1      45.532  25.852  29.639  1.00  0.00     0.074 A 
ATOM     51  C   UNL A   1      45.804  24.495  29.208  1.00  0.00     0.031 C 
ATOM     52  C   UNL A   1      39.332  26.627  28.244  1.00  0.00     0.029 A 
ATOM     53  C   UNL A   1      40.230  27.574  28.898  1.00  0.00     0.049 A 
ATOM     54  H   UNL A   1      42.256  27.315  29.311  1.00  0.00     0.167 HD
ATOM     55  C   UNL A   1      46.449  26.683  30.199  1.00  0.00     0.037 A 
ATOM     56  C   UNL A   1      39.873  28.797  29.341  1.00  0.00     0.037 A 
ATOM     57  C   UNL A   1      46.185  28.038  30.624  1.00  0.00     0.049 A 
ATOM     58  C   UNL A   1      40.899  29.685  29.983  1.00  0.00     0.074 A 
ATOM     59  C   UNL A   1      47.068  28.964  31.158  1.00  0.00     0.029 A 
ATOM     60  N   UNL A   1      44.947  28.659  30.574  1.00  0.00    -0.354 N 
ATOM     61  N   UNL A   1      42.173  29.458  30.188  1.00  0.00    -0.248 NA
ATOM     62  C   UNL A   1      40.441  31.003  30.453  1.00  0.00     0.031 C 
ATOM     63  C   UNL A   1      46.355  30.125  31.476  1.00  0.00     0.029 A 
ATOM     64  C   UNL A   1      45.037  29.943  31.092  1.00  0.00     0.049 A 
ATOM     65  H   UNL A   1      44.123  28.250  30.223  1.00  0.00     0.167 HD
ATOM     66  C   UNL A   1      42.674  30.610  30.783  1.00  0.00     0.074 A 
ATOM     67  C   UNL A   1      41.570  31.539  30.896  1.00  0.00     0.031 C 
ATOM     68  C   UNL A   1      43.938  30.870  31.196  1.00  0.00     0.037 A 
BRANCH  55  69
ATOM     69  C   UNL A   1      47.844  26.153  30.396  1.00  0.00     0.057 A 
ATOM     70  C   UNL A   1      48.266  25.617  31.620  1.00  0.00     0.134 A 
ATOM     71  C   UNL A   1      48.757  26.118  29.333  1.00  0.00     0.134 A 
ATOM     72  F   UNL A   1      47.441  25.614  32.679  1.00  0.00    -0.206 F 
ATOM     73  C   UNL A   1      49.552  25.099  31.790  1.00  0.00     0.040 A 
ATOM     74  C   UNL A   1      50.038  25.579  29.482  1.00  0.00     0.040 A 
ATOM     75  F   UNL A   1      48.415  26.591  28.126  1.00  0.00    -0.206 F 
ATOM     76  C   UNL A   1      50.441  25.074  30.717  1.00  0.00     0.006 A 
ENDBRANCH  55  69
BRANCH  56  77
ATOM     77  C   UNL A   1      38.468  29.259  29.184  1.00  0.00     0.057 A 
ATOM     78  C   UNL A   1      37.993  29.730  27.954  1.00  0.00     0.134 A 
ATOM     79  C   UNL A   1      37.570  29.242  30.257  1.00  0.00     0.134 A 
ATOM     80  F   UNL A   1      38.811  29.792  26.893  1.00  0.00    -0.206 F 
ATOM     81  C   UNL A   1      36.680  30.180  27.801  1.00  0.00     0.040 A 
ATOM     82  C   UNL A   1      36.247  29.664  30.112  1.00  0.00     0.040 A 
ATOM     83  F   UNL A   1      37.961  28.798  31.461  1.00  0.00    -0.206 F 
ATOM     84  C   UNL A   1      35.800  30.141  28.882  1.00  0.00     0.006 A 
ENDBRANCH  56  77
BRANCH  68  85
ATOM     85  C   UNL A   1      44.211  32.226  31.781  1.00  0.00     0.057 A 
ATOM     86  C   UNL A   1      44.059  32.487  33.148  1.00  0.00     0.134 A 
ATOM     87  C   UNL A   1      44.675  33.271  30.972  1.00  0.00     0.134 A 
ATOM     88  F   UNL A   1      43.603  31.535  33.976  1.00  0.00    -0.206 F 
ATOM     89  C   UNL A   1      44.345  33.742  33.689  1.00  0.00     0.040 A 
ATOM     90  C   UNL A   1      44.988  34.523  31.504  1.00  0.00     0.040 A 
ATOM     91  F   UNL A   1      44.848  33.088  29.654  1.00  0.00    -0.206 F 
ATOM     92  C   UNL A   1      44.821  34.763  32.866  1.00  0.00     0.006 A 
ENDBRANCH  68  85
ENDBRANCH  42  43
ENDBRANCH  34  37
ENDBRANCH  32  33
ENDBRANCH  31  32
ENDBRANCH  30  31
ENDBRANCH   3  30
TORSDOF 15
ENDMDL
