MODEL 1
REMARK VINA RESULT:     -14.1      0.000      0.000
REMARK SMILES Cc1ccc(-c2nc(C)cc(N3CCCC[C@H]3C(=O)NCCCNC(=O)c3ccc(-c4c5nc(c(-c6c(F)cccc6F)c6ccc([nH]6)c(-c6c(F)cccc6F)c6nc(c(-c7c(F)cccc7F)c7ccc4[nH]7)C=C6)C=C5)cc3)n2)cc1
REMARK SMILES IDX 22 1 21 2 20 3 18 4 19 5 17 7 12 8 13 9 14 10 16 11 15 12
REMARK SMILES IDX 11 13 6 14 7 15 81 16 8 17 9 18 10 19 5 20 1 21 2 22 3 23
REMARK SMILES IDX 83 24 4 25 82 26 23 27 24 28 25 29 26 31 27 32 28 33 80 34
REMARK SMILES IDX 29 35 79 36 30 37 31 38 32 39 73 40 33 41 78 42 72 43 74 44
REMARK SMILES IDX 34 45 77 46 71 47 70 48 35 50 61 51 44 52 60 53 45 54 48 55
REMARK SMILES IDX 59 56 75 57 46 58 47 59 58 61 76 62 49 63 36 64 37 65 42 66
REMARK SMILES IDX 38 67 39 68 41 69 43 70 40 71 62 72 63 73 68 74 64 75 65 76
REMARK SMILES IDX 67 77 69 78 66 79 50 80 51 81 56 82 52 83 53 84 55 85 57 86
REMARK SMILES IDX 54 87
REMARK H PARENT 20 6 24 30 74 49 48 60
REMARK Flexibility Score: inf
ROOT
ATOM      1  C   UNL A   1      39.282  21.570  25.772  1.00  0.00     0.042 C 
ENDROOT
BRANCH   1   2
ATOM      2  C   UNL A   1      37.821  21.184  25.574  1.00  0.00     0.117 C 
BRANCH   2   3
ATOM      3  N   UNL A   1      37.205  21.980  24.527  1.00  0.00    -0.354 N 
ATOM      4  C   UNL A   1      35.929  22.295  24.190  1.00  0.00     0.242 C 
ATOM      5  O   UNL A   1      35.849  22.992  23.165  1.00  0.00    -0.273 OA
ATOM      6  H   UNL A   1      37.866  22.384  23.920  1.00  0.00     0.163 HD
BRANCH   4   7
ATOM      7  C   UNL A   1      34.628  21.960  24.999  1.00  0.00     0.173 C 
ATOM      8  N   UNL A   1      33.478  22.627  24.340  1.00  0.00    -0.344 N 
ATOM      9  C   UNL A   1      32.903  21.975  23.169  1.00  0.00     0.119 C 
ATOM     10  C   UNL A   1      32.431  20.566  23.507  1.00  0.00     0.022 C 
ATOM     11  C   UNL A   1      34.196  20.524  25.331  1.00  0.00     0.035 C 
ATOM     12  C   UNL A   1      33.540  19.766  24.177  1.00  0.00     0.004 C 
BRANCH   8  13
ATOM     13  C   UNL A   1      32.617  23.366  25.137  1.00  0.00     0.133 A 
ATOM     14  C   UNL A   1      32.093  25.312  26.230  1.00  0.00     0.161 A 
ATOM     15  N   UNL A   1      30.999  24.798  26.817  1.00  0.00    -0.233 NA
ATOM     16  N   UNL A   1      32.917  24.645  25.405  1.00  0.00    -0.211 NA
ATOM     17  C   UNL A   1      30.708  23.517  26.517  1.00  0.00     0.043 A 
ATOM     18  C   UNL A   1      29.497  22.933  27.177  1.00  0.00     0.067 C 
ATOM     19  C   UNL A   1      31.492  22.763  25.666  1.00  0.00     0.070 A 
BRANCH  14  20
ATOM     20  C   UNL A   1      32.404  26.719  26.491  1.00  0.00     0.019 A 
ATOM     21  C   UNL A   1      33.314  30.887  27.238  1.00  0.00     0.044 C 
ATOM     22  C   UNL A   1      33.007  29.443  26.972  1.00  0.00    -0.051 A 
ATOM     23  C   UNL A   1      31.752  28.921  27.310  1.00  0.00     0.004 A 
ATOM     24  C   UNL A   1      33.963  28.596  26.405  1.00  0.00     0.004 A 
ATOM     25  C   UNL A   1      31.453  27.578  27.062  1.00  0.00     0.012 A 
ATOM     26  C   UNL A   1      33.667  27.248  26.175  1.00  0.00     0.012 A 
ENDBRANCH  14  20
ENDBRANCH   8  13
ENDBRANCH   4   7
ENDBRANCH   2   3
ENDBRANCH   1   2
BRANCH   1  27
ATOM     27  C   UNL A   1      39.486  22.919  26.450  1.00  0.00     0.118 C 
BRANCH  27  28
ATOM     28  N   UNL A   1      40.890  23.296  26.609  1.00  0.00    -0.352 N 
ATOM     29  C   UNL A   1      41.420  24.560  26.844  1.00  0.00     0.251 C 
ATOM     30  H   UNL A   1      41.542  22.562  26.543  1.00  0.00     0.163 HD
ATOM     31  O   UNL A   1      42.602  24.719  27.069  1.00  0.00    -0.269 OA
BRANCH  29  32
ATOM     32  C   UNL A   1      40.469  25.693  26.947  1.00  0.00     0.039 A 
ATOM     33  C   UNL A   1      40.842  26.889  26.331  1.00  0.00     0.014 A 
ATOM     34  C   UNL A   1      39.469  25.662  27.915  1.00  0.00     0.014 A 
ATOM     35  C   UNL A   1      40.432  28.087  26.902  1.00  0.00     0.010 A 
ATOM     36  C   UNL A   1      39.139  26.849  28.542  1.00  0.00     0.010 A 
ATOM     37  C   UNL A   1      39.698  28.049  28.088  1.00  0.00    -0.014 A 
BRANCH  37  38
ATOM     38  C   UNL A   1      39.638  29.199  28.987  1.00  0.00     0.031 A 
ATOM     39  C   UNL A   1      38.593  30.227  28.819  1.00  0.00     0.074 A 
ATOM     40  C   UNL A   1      40.553  29.328  29.976  1.00  0.00     0.049 A 
ATOM     41  N   UNL A   1      38.740  31.473  29.124  1.00  0.00    -0.248 NA
ATOM     42  C   UNL A   1      37.295  29.924  28.234  1.00  0.00     0.031 C 
ATOM     43  C   UNL A   1      40.546  30.299  31.066  1.00  0.00     0.029 A 
ATOM     44  N   UNL A   1      41.813  28.714  30.062  1.00  0.00    -0.354 N 
ATOM     45  C   UNL A   1      37.506  32.078  29.026  1.00  0.00     0.074 A 
ATOM     46  C   UNL A   1      36.659  31.086  28.404  1.00  0.00     0.031 C 
ATOM     47  C   UNL A   1      41.798  30.437  31.528  1.00  0.00     0.029 A 
ATOM     48  C   UNL A   1      42.671  29.654  30.670  1.00  0.00     0.049 A 
ATOM     49  H   UNL A   1      42.051  27.807  29.759  1.00  0.00     0.167 HD
ATOM     50  C   UNL A   1      37.307  33.300  29.606  1.00  0.00     0.037 A 
ATOM     51  C   UNL A   1      43.777  30.133  30.032  1.00  0.00     0.037 A 
ATOM     52  C   UNL A   1      38.543  33.814  30.195  1.00  0.00     0.049 A 
ATOM     53  C   UNL A   1      43.763  31.627  29.808  1.00  0.00     0.074 A 
ATOM     54  C   UNL A   1      39.036  33.793  31.491  1.00  0.00     0.029 A 
ATOM     55  N   UNL A   1      39.607  34.178  29.378  1.00  0.00    -0.354 N 
ATOM     56  N   UNL A   1      42.702  32.371  29.943  1.00  0.00    -0.248 NA
ATOM     57  C   UNL A   1      44.926  32.390  29.356  1.00  0.00     0.031 C 
ATOM     58  C   UNL A   1      40.420  34.082  31.441  1.00  0.00     0.029 A 
ATOM     59  C   UNL A   1      40.767  34.299  30.120  1.00  0.00     0.049 A 
ATOM     60  H   UNL A   1      39.542  34.330  28.407  1.00  0.00     0.167 HD
ATOM     61  C   UNL A   1      42.990  33.650  29.545  1.00  0.00     0.074 A 
ATOM     62  C   UNL A   1      44.403  33.622  29.222  1.00  0.00     0.031 C 
ATOM     63  C   UNL A   1      42.033  34.620  29.481  1.00  0.00     0.037 A 
BRANCH  50  64
ATOM     64  C   UNL A   1      35.933  33.860  29.927  1.00  0.00     0.057 A 
ATOM     65  C   UNL A   1      35.084  34.327  28.904  1.00  0.00     0.134 A 
ATOM     66  C   UNL A   1      35.415  34.038  31.221  1.00  0.00     0.134 A 
ATOM     67  F   UNL A   1      35.346  34.103  27.610  1.00  0.00    -0.206 F 
ATOM     68  C   UNL A   1      33.907  35.049  29.153  1.00  0.00     0.040 A 
ATOM     69  C   UNL A   1      34.271  34.807  31.491  1.00  0.00     0.040 A 
ATOM     70  F   UNL A   1      35.953  33.423  32.281  1.00  0.00    -0.206 F 
ATOM     71  C   UNL A   1      33.522  35.335  30.452  1.00  0.00     0.006 A 
ENDBRANCH  50  64
BRANCH  51  72
ATOM     72  C   UNL A   1      44.420  29.150  29.126  1.00  0.00     0.057 A 
ATOM     73  C   UNL A   1      45.223  28.141  29.682  1.00  0.00     0.134 A 
ATOM     74  C   UNL A   1      43.996  28.974  27.807  1.00  0.00     0.134 A 
ATOM     75  F   UNL A   1      45.665  28.250  30.945  1.00  0.00    -0.206 F 
ATOM     76  C   UNL A   1      45.510  26.960  28.993  1.00  0.00     0.040 A 
ATOM     77  C   UNL A   1      44.281  27.796  27.104  1.00  0.00     0.040 A 
ATOM     78  F   UNL A   1      43.211  29.883  27.214  1.00  0.00    -0.206 F 
ATOM     79  C   UNL A   1      45.008  26.772  27.710  1.00  0.00     0.006 A 
ENDBRANCH  51  72
BRANCH  63  80
ATOM     80  C   UNL A   1      42.225  35.979  28.870  1.00  0.00     0.057 A 
ATOM     81  C   UNL A   1      42.952  37.012  29.479  1.00  0.00     0.134 A 
ATOM     82  C   UNL A   1      41.793  36.233  27.552  1.00  0.00     0.134 A 
ATOM     83  F   UNL A   1      43.498  36.858  30.694  1.00  0.00    -0.206 F 
ATOM     84  C   UNL A   1      43.193  38.234  28.839  1.00  0.00     0.040 A 
ATOM     85  C   UNL A   1      42.067  37.431  26.886  1.00  0.00     0.040 A 
ATOM     86  F   UNL A   1      41.104  35.319  26.854  1.00  0.00    -0.206 F 
ATOM     87  C   UNL A   1      42.760  38.443  27.534  1.00  0.00     0.006 A 
ENDBRANCH  63  80
ENDBRANCH  37  38
ENDBRANCH  29  32
ENDBRANCH  27  28
ENDBRANCH   1  27
TORSDOF 12
ENDMDL
MODEL 2
REMARK VINA RESULT:     -13.7      2.444      4.105
REMARK SMILES Cc1ccc(-c2nc(C)cc(N3CCCC[C@H]3C(=O)NCCCNC(=O)c3ccc(-c4c5nc(c(-c6c(F)cccc6F)c6ccc([nH]6)c(-c6c(F)cccc6F)c6nc(c(-c7c(F)cccc7F)c7ccc4[nH]7)C=C6)C=C5)cc3)n2)cc1
REMARK SMILES IDX 22 1 21 2 20 3 18 4 19 5 17 7 12 8 13 9 14 10 16 11 15 12
REMARK SMILES IDX 11 13 6 14 7 15 81 16 8 17 9 18 10 19 5 20 1 21 2 22 3 23
REMARK SMILES IDX 83 24 4 25 82 26 23 27 24 28 25 29 26 31 27 32 28 33 80 34
REMARK SMILES IDX 29 35 79 36 30 37 31 38 32 39 73 40 33 41 78 42 72 43 74 44
REMARK SMILES IDX 34 45 77 46 71 47 70 48 35 50 61 51 44 52 60 53 45 54 48 55
REMARK SMILES IDX 59 56 75 57 46 58 47 59 58 61 76 62 49 63 36 64 37 65 42 66
REMARK SMILES IDX 38 67 39 68 41 69 43 70 40 71 62 72 63 73 68 74 64 75 65 76
REMARK SMILES IDX 67 77 69 78 66 79 50 80 51 81 56 82 52 83 53 84 55 85 57 86
REMARK SMILES IDX 54 87
REMARK H PARENT 20 6 24 30 74 49 48 60
REMARK Flexibility Score: inf
ROOT
ATOM      1  C   UNL A   1      38.481  22.679  26.219  1.00  0.00     0.042 C 
ENDROOT
BRANCH   1   2
ATOM      2  C   UNL A   1      38.028  21.686  25.154  1.00  0.00     0.117 C 
BRANCH   2   3
ATOM      3  N   UNL A   1      37.221  22.338  24.139  1.00  0.00    -0.354 N 
ATOM      4  C   UNL A   1      35.889  22.518  23.946  1.00  0.00     0.242 C 
ATOM      5  O   UNL A   1      35.623  23.117  22.890  1.00  0.00    -0.273 OA
ATOM      6  H   UNL A   1      37.764  22.743  23.425  1.00  0.00     0.163 HD
BRANCH   4   7
ATOM      7  C   UNL A   1      34.732  22.147  24.935  1.00  0.00     0.173 C 
ATOM      8  N   UNL A   1      33.444  22.584  24.341  1.00  0.00    -0.344 N 
ATOM      9  C   UNL A   1      32.842  21.720  23.333  1.00  0.00     0.119 C 
ATOM     10  C   UNL A   1      32.592  20.324  23.891  1.00  0.00     0.022 C 
ATOM     11  C   UNL A   1      34.524  20.729  25.486  1.00  0.00     0.035 C 
ATOM     12  C   UNL A   1      33.858  19.753  24.516  1.00  0.00     0.004 C 
BRANCH   8  13
ATOM     13  C   UNL A   1      32.581  23.319  25.139  1.00  0.00     0.133 A 
ATOM     14  C   UNL A   1      32.045  25.266  26.225  1.00  0.00     0.161 A 
ATOM     15  N   UNL A   1      30.959  24.745  26.821  1.00  0.00    -0.233 NA
ATOM     16  N   UNL A   1      32.870  24.602  25.398  1.00  0.00    -0.211 NA
ATOM     17  C   UNL A   1      30.679  23.460  26.530  1.00  0.00     0.043 A 
ATOM     18  C   UNL A   1      29.477  22.867  27.200  1.00  0.00     0.067 C 
ATOM     19  C   UNL A   1      31.465  22.709  25.678  1.00  0.00     0.070 A 
BRANCH  14  20
ATOM     20  C   UNL A   1      32.344  26.677  26.477  1.00  0.00     0.019 A 
ATOM     21  C   UNL A   1      33.242  30.844  27.244  1.00  0.00     0.044 C 
ATOM     22  C   UNL A   1      32.924  29.401  26.986  1.00  0.00    -0.051 A 
ATOM     23  C   UNL A   1      33.872  28.575  26.371  1.00  0.00     0.004 A 
ATOM     24  C   UNL A   1      31.680  28.865  27.333  1.00  0.00     0.004 A 
ATOM     25  C   UNL A   1      33.588  27.227  26.130  1.00  0.00     0.012 A 
ATOM     26  C   UNL A   1      31.393  27.520  27.074  1.00  0.00     0.012 A 
ENDBRANCH  14  20
ENDBRANCH   8  13
ENDBRANCH   4   7
ENDBRANCH   2   3
ENDBRANCH   1   2
BRANCH   1  27
ATOM     27  C   UNL A   1      39.951  22.562  26.599  1.00  0.00     0.118 C 
BRANCH  27  28
ATOM     28  N   UNL A   1      40.661  21.492  25.899  1.00  0.00    -0.352 N 
ATOM     29  C   UNL A   1      42.014  21.175  25.960  1.00  0.00     0.251 C 
ATOM     30  H   UNL A   1      40.113  20.925  25.311  1.00  0.00     0.163 HD
ATOM     31  O   UNL A   1      42.457  20.186  25.412  1.00  0.00    -0.269 OA
BRANCH  29  32
ATOM     32  C   UNL A   1      42.875  22.008  26.833  1.00  0.00     0.039 A 
ATOM     33  C   UNL A   1      42.728  21.840  28.210  1.00  0.00     0.014 A 
ATOM     34  C   UNL A   1      43.493  23.139  26.307  1.00  0.00     0.014 A 
ATOM     35  C   UNL A   1      42.922  22.938  29.039  1.00  0.00     0.010 A 
ATOM     36  C   UNL A   1      43.593  24.257  27.115  1.00  0.00     0.010 A 
ATOM     37  C   UNL A   1      43.217  24.173  28.460  1.00  0.00    -0.014 A 
BRANCH  37  38
ATOM     38  C   UNL A   1      42.971  25.427  29.168  1.00  0.00     0.031 A 
ATOM     39  C   UNL A   1      41.777  26.238  28.860  1.00  0.00     0.074 A 
ATOM     40  C   UNL A   1      43.847  25.853  30.107  1.00  0.00     0.049 A 
ATOM     41  N   UNL A   1      41.724  27.524  28.961  1.00  0.00    -0.248 NA
ATOM     42  C   UNL A   1      40.548  25.646  28.353  1.00  0.00     0.031 C 
ATOM     43  C   UNL A   1      43.679  26.970  31.031  1.00  0.00     0.029 A 
ATOM     44  N   UNL A   1      45.187  25.465  30.266  1.00  0.00    -0.354 N 
ATOM     45  C   UNL A   1      40.410  27.905  28.792  1.00  0.00     0.074 A 
ATOM     46  C   UNL A   1      39.735  26.706  28.349  1.00  0.00     0.031 C 
ATOM     47  C   UNL A   1      44.890  27.375  31.443  1.00  0.00     0.029 A 
ATOM     48  C   UNL A   1      45.882  26.613  30.703  1.00  0.00     0.049 A 
ATOM     49  H   UNL A   1      45.567  24.571  30.105  1.00  0.00     0.167 HD
ATOM     50  C   UNL A   1      40.016  29.156  29.176  1.00  0.00     0.037 A 
ATOM     51  C   UNL A   1      46.903  27.152  29.978  1.00  0.00     0.037 A 
ATOM     52  C   UNL A   1      41.152  29.944  29.655  1.00  0.00     0.049 A 
ATOM     53  C   UNL A   1      46.655  28.571  29.521  1.00  0.00     0.074 A 
ATOM     54  C   UNL A   1      41.633  30.206  30.928  1.00  0.00     0.029 A 
ATOM     55  N   UNL A   1      42.151  30.337  28.770  1.00  0.00    -0.354 N 
ATOM     56  N   UNL A   1      45.488  29.151  29.556  1.00  0.00    -0.248 NA
ATOM     57  C   UNL A   1      47.685  29.426  28.934  1.00  0.00     0.031 C 
ATOM     58  C   UNL A   1      42.955  30.698  30.808  1.00  0.00     0.029 A 
ATOM     59  C   UNL A   1      43.272  30.754  29.463  1.00  0.00     0.049 A 
ATOM     60  H   UNL A   1      42.069  30.321  27.789  1.00  0.00     0.167 HD
ATOM     61  C   UNL A   1      45.574  30.380  28.958  1.00  0.00     0.074 A 
ATOM     62  C   UNL A   1      46.976  30.523  28.617  1.00  0.00     0.031 C 
ATOM     63  C   UNL A   1      44.476  31.165  28.759  1.00  0.00     0.037 A 
BRANCH  50  64
ATOM     64  C   UNL A   1      38.570  29.537  29.430  1.00  0.00     0.057 A 
ATOM     65  C   UNL A   1      37.737  29.964  28.376  1.00  0.00     0.134 A 
ATOM     66  C   UNL A   1      37.954  29.580  30.693  1.00  0.00     0.134 A 
ATOM     67  F   UNL A   1      38.104  29.847  27.093  1.00  0.00    -0.206 F 
ATOM     68  C   UNL A   1      36.471  30.532  28.580  1.00  0.00     0.040 A 
ATOM     69  C   UNL A   1      36.714  30.197  30.922  1.00  0.00     0.040 A 
ATOM     70  F   UNL A   1      38.493  28.968  31.755  1.00  0.00    -0.206 F 
ATOM     71  C   UNL A   1      35.975  30.697  29.862  1.00  0.00     0.006 A 
ENDBRANCH  50  64
BRANCH  51  72
ATOM     72  C   UNL A   1      47.699  26.152  29.225  1.00  0.00     0.057 A 
ATOM     73  C   UNL A   1      47.403  25.933  27.870  1.00  0.00     0.134 A 
ATOM     74  C   UNL A   1      48.926  25.679  29.695  1.00  0.00     0.134 A 
ATOM     75  F   UNL A   1      46.240  26.361  27.355  1.00  0.00    -0.206 F 
ATOM     76  C   UNL A   1      48.329  25.358  26.995  1.00  0.00     0.040 A 
ATOM     77  C   UNL A   1      49.861  25.097  28.829  1.00  0.00     0.040 A 
ATOM     78  F   UNL A   1      49.288  25.869  30.972  1.00  0.00    -0.206 F 
ATOM     79  C   UNL A   1      49.577  24.970  27.469  1.00  0.00     0.006 A 
ENDBRANCH  51  72
BRANCH  63  80
ATOM     80  C   UNL A   1      44.455  32.423  27.938  1.00  0.00     0.057 A 
ATOM     81  C   UNL A   1      44.651  32.453  26.550  1.00  0.00     0.134 A 
ATOM     82  C   UNL A   1      44.081  33.649  28.527  1.00  0.00     0.134 A 
ATOM     83  F   UNL A   1      44.917  31.335  25.859  1.00  0.00    -0.206 F 
ATOM     84  C   UNL A   1      44.529  33.631  25.803  1.00  0.00     0.040 A 
ATOM     85  C   UNL A   1      43.911  34.821  27.785  1.00  0.00     0.040 A 
ATOM     86  F   UNL A   1      43.848  33.749  29.843  1.00  0.00    -0.206 F 
ATOM     87  C   UNL A   1      44.146  34.818  26.418  1.00  0.00     0.006 A 
ENDBRANCH  63  80
ENDBRANCH  37  38
ENDBRANCH  29  32
ENDBRANCH  27  28
ENDBRANCH   1  27
TORSDOF 12
ENDMDL
MODEL 3
REMARK VINA RESULT:     -13.6      3.632      9.078
REMARK SMILES Cc1ccc(-c2nc(C)cc(N3CCCC[C@H]3C(=O)NCCCNC(=O)c3ccc(-c4c5nc(c(-c6c(F)cccc6F)c6ccc([nH]6)c(-c6c(F)cccc6F)c6nc(c(-c7c(F)cccc7F)c7ccc4[nH]7)C=C6)C=C5)cc3)n2)cc1
REMARK SMILES IDX 22 1 21 2 20 3 18 4 19 5 17 7 12 8 13 9 14 10 16 11 15 12
REMARK SMILES IDX 11 13 6 14 7 15 81 16 8 17 9 18 10 19 5 20 1 21 2 22 3 23
REMARK SMILES IDX 83 24 4 25 82 26 23 27 24 28 25 29 26 31 27 32 28 33 80 34
REMARK SMILES IDX 29 35 79 36 30 37 31 38 32 39 73 40 33 41 78 42 72 43 74 44
REMARK SMILES IDX 34 45 77 46 71 47 70 48 35 50 61 51 44 52 60 53 45 54 48 55
REMARK SMILES IDX 59 56 75 57 46 58 47 59 58 61 76 62 49 63 36 64 37 65 42 66
REMARK SMILES IDX 38 67 39 68 41 69 43 70 40 71 62 72 63 73 68 74 64 75 65 76
REMARK SMILES IDX 67 77 69 78 66 79 50 80 51 81 56 82 52 83 53 84 55 85 57 86
REMARK SMILES IDX 54 87
REMARK H PARENT 20 6 24 30 74 49 48 60
REMARK Flexibility Score: inf
ROOT
ATOM      1  C   UNL A   1      33.245  30.578  27.570  1.00  0.00     0.042 C 
ENDROOT
BRANCH   1   2
ATOM      2  C   UNL A   1      33.683  29.171  27.180  1.00  0.00     0.117 C 
BRANCH   2   3
ATOM      3  N   UNL A   1      32.563  28.246  27.210  1.00  0.00    -0.354 N 
ATOM      4  C   UNL A   1      32.122  27.252  26.398  1.00  0.00     0.242 C 
ATOM      5  O   UNL A   1      31.067  26.728  26.793  1.00  0.00    -0.273 OA
ATOM      6  H   UNL A   1      31.992  28.369  28.002  1.00  0.00     0.163 HD
BRANCH   4   7
ATOM      7  C   UNL A   1      32.845  26.674  25.133  1.00  0.00     0.173 C 
ATOM      8  N   UNL A   1      31.996  25.606  24.551  1.00  0.00    -0.344 N 
ATOM      9  C   UNL A   1      30.879  26.018  23.710  1.00  0.00     0.119 C 
ATOM     10  C   UNL A   1      31.365  26.853  22.531  1.00  0.00     0.022 C 
ATOM     11  C   UNL A   1      33.332  27.554  23.973  1.00  0.00     0.035 C 
ATOM     12  C   UNL A   1      32.239  28.006  23.004  1.00  0.00     0.004 C 
BRANCH   8  13
ATOM     13  C   UNL A   1      32.599  24.393  24.252  1.00  0.00     0.133 A 
ATOM     14  C   UNL A   1      34.421  23.004  24.324  1.00  0.00     0.161 A 
ATOM     15  N   UNL A   1      33.850  22.061  23.554  1.00  0.00    -0.233 NA
ATOM     16  N   UNL A   1      33.846  24.163  24.685  1.00  0.00    -0.211 NA
ATOM     17  C   UNL A   1      32.590  22.307  23.147  1.00  0.00     0.043 A 
ATOM     18  C   UNL A   1      31.951  21.267  22.279  1.00  0.00     0.067 C 
ATOM     19  C   UNL A   1      31.919  23.466  23.485  1.00  0.00     0.070 A 
BRANCH  14  20
ATOM     20  C   UNL A   1      35.770  22.741  24.829  1.00  0.00     0.019 A 
ATOM     21  C   UNL A   1      39.748  21.953  26.349  1.00  0.00     0.044 C 
ATOM     22  C   UNL A   1      38.369  22.234  25.830  1.00  0.00    -0.051 A 
ATOM     23  C   UNL A   1      37.656  21.232  25.160  1.00  0.00     0.004 A 
ATOM     24  C   UNL A   1      37.784  23.494  25.986  1.00  0.00     0.004 A 
ATOM     25  C   UNL A   1      36.368  21.481  24.676  1.00  0.00     0.012 A 
ATOM     26  C   UNL A   1      36.502  23.745  25.484  1.00  0.00     0.012 A 
ENDBRANCH  14  20
ENDBRANCH   8  13
ENDBRANCH   4   7
ENDBRANCH   2   3
ENDBRANCH   1   2
BRANCH   1  27
ATOM     27  C   UNL A   1      34.366  31.608  27.558  1.00  0.00     0.118 C 
BRANCH  27  28
ATOM     28  N   UNL A   1      34.772  32.058  28.889  1.00  0.00    -0.352 N 
ATOM     29  C   UNL A   1      35.739  31.509  29.725  1.00  0.00     0.251 C 
ATOM     30  H   UNL A   1      34.302  32.850  29.237  1.00  0.00     0.163 HD
ATOM     31  O   UNL A   1      36.057  32.049  30.764  1.00  0.00    -0.269 OA
BRANCH  29  32
ATOM     32  C   UNL A   1      36.466  30.313  29.237  1.00  0.00     0.039 A 
ATOM     33  C   UNL A   1      36.744  29.317  30.174  1.00  0.00     0.014 A 
ATOM     34  C   UNL A   1      37.150  30.374  28.026  1.00  0.00     0.014 A 
ATOM     35  C   UNL A   1      37.909  28.575  30.031  1.00  0.00     0.010 A 
ATOM     36  C   UNL A   1      38.358  29.707  27.931  1.00  0.00     0.010 A 
ATOM     37  C   UNL A   1      38.775  28.880  28.980  1.00  0.00    -0.014 A 
BRANCH  37  38
ATOM     38  C   UNL A   1      40.188  28.509  29.021  1.00  0.00     0.031 A 
ATOM     39  C   UNL A   1      40.630  27.191  28.525  1.00  0.00     0.074 A 
ATOM     40  C   UNL A   1      41.096  29.376  29.525  1.00  0.00     0.049 A 
ATOM     41  N   UNL A   1      41.649  26.545  28.984  1.00  0.00    -0.248 NA
ATOM     42  C   UNL A   1      39.906  26.471  27.488  1.00  0.00     0.031 C 
ATOM     43  C   UNL A   1      42.550  29.256  29.483  1.00  0.00     0.029 A 
ATOM     44  N   UNL A   1      40.858  30.464  30.380  1.00  0.00    -0.354 N 
ATOM     45  C   UNL A   1      41.873  25.469  28.152  1.00  0.00     0.074 A 
ATOM     46  C   UNL A   1      40.720  25.433  27.281  1.00  0.00     0.031 C 
ATOM     47  C   UNL A   1      43.073  30.007  30.465  1.00  0.00     0.029 A 
ATOM     48  C   UNL A   1      41.969  30.535  31.248  1.00  0.00     0.049 A 
ATOM     49  H   UNL A   1      40.074  31.060  30.375  1.00  0.00     0.167 HD
ATOM     50  C   UNL A   1      43.072  24.814  28.205  1.00  0.00     0.037 A 
ATOM     51  C   UNL A   1      41.833  30.404  32.598  1.00  0.00     0.037 A 
ATOM     52  C   UNL A   1      43.926  25.359  29.261  1.00  0.00     0.049 A 
ATOM     53  C   UNL A   1      42.582  29.230  33.184  1.00  0.00     0.074 A 
ATOM     54  C   UNL A   1      44.956  26.286  29.239  1.00  0.00     0.029 A 
ATOM     55  N   UNL A   1      43.575  25.195  30.596  1.00  0.00    -0.354 N 
ATOM     56  N   UNL A   1      43.085  28.261  32.472  1.00  0.00    -0.248 NA
ATOM     57  C   UNL A   1      42.770  29.023  34.619  1.00  0.00     0.031 C 
ATOM     58  C   UNL A   1      45.180  26.728  30.564  1.00  0.00     0.029 A 
ATOM     59  C   UNL A   1      44.301  26.058  31.395  1.00  0.00     0.049 A 
ATOM     60  H   UNL A   1      42.906  24.552  30.925  1.00  0.00     0.167 HD
ATOM     61  C   UNL A   1      43.583  27.296  33.305  1.00  0.00     0.074 A 
ATOM     62  C   UNL A   1      43.397  27.834  34.639  1.00  0.00     0.031 C 
ATOM     63  C   UNL A   1      44.075  26.115  32.831  1.00  0.00     0.037 A 
BRANCH  50  64
ATOM     64  C   UNL A   1      43.587  23.921  27.092  1.00  0.00     0.057 A 
ATOM     65  C   UNL A   1      44.297  24.461  26.000  1.00  0.00     0.134 A 
ATOM     66  C   UNL A   1      43.359  22.538  26.993  1.00  0.00     0.134 A 
ATOM     67  F   UNL A   1      44.733  25.727  25.997  1.00  0.00    -0.206 F 
ATOM     68  C   UNL A   1      44.604  23.726  24.846  1.00  0.00     0.040 A 
ATOM     69  C   UNL A   1      43.607  21.801  25.825  1.00  0.00     0.040 A 
ATOM     70  F   UNL A   1      42.945  21.820  28.044  1.00  0.00    -0.206 F 
ATOM     71  C   UNL A   1      44.214  22.402  24.734  1.00  0.00     0.006 A 
ENDBRANCH  50  64
BRANCH  51  72
ATOM     72  C   UNL A   1      40.553  30.937  33.127  1.00  0.00     0.057 A 
ATOM     73  C   UNL A   1      39.500  30.041  33.378  1.00  0.00     0.134 A 
ATOM     74  C   UNL A   1      40.462  32.206  33.702  1.00  0.00     0.134 A 
ATOM     75  F   UNL A   1      39.526  28.806  32.854  1.00  0.00    -0.206 F 
ATOM     76  C   UNL A   1      38.451  30.358  34.244  1.00  0.00     0.040 A 
ATOM     77  C   UNL A   1      39.413  32.538  34.568  1.00  0.00     0.040 A 
ATOM     78  F   UNL A   1      41.437  33.108  33.524  1.00  0.00    -0.206 F 
ATOM     79  C   UNL A   1      38.425  31.600  34.870  1.00  0.00     0.006 A 
ENDBRANCH  51  72
BRANCH  63  80
ATOM     80  C   UNL A   1      44.451  24.936  33.682  1.00  0.00     0.057 A 
ATOM     81  C   UNL A   1      43.536  24.212  34.460  1.00  0.00     0.134 A 
ATOM     82  C   UNL A   1      45.754  24.399  33.617  1.00  0.00     0.134 A 
ATOM     83  F   UNL A   1      42.244  24.566  34.526  1.00  0.00    -0.206 F 
ATOM     84  C   UNL A   1      43.902  23.059  35.165  1.00  0.00     0.040 A 
ATOM     85  C   UNL A   1      46.119  23.223  34.279  1.00  0.00     0.040 A 
ATOM     86  F   UNL A   1      46.716  24.987  32.893  1.00  0.00    -0.206 F 
ATOM     87  C   UNL A   1      45.194  22.554  35.067  1.00  0.00     0.006 A 
ENDBRANCH  63  80
ENDBRANCH  37  38
ENDBRANCH  29  32
ENDBRANCH  27  28
ENDBRANCH   1  27
TORSDOF 12
ENDMDL
