MODEL 1
REMARK VINA RESULT:     -12.8      0.000      0.000
REMARK SMILES C[N@@H+]1CC[C@H]2CN(C(=O)c3csc(-c4ccncc4)n3)C[C@@]2(C(=O)NCCCNC(=O)c2ccc(-c3c4nc(c(-c5c(F)cccc5F)c5ccc([nH]5)c(-c5c(F)cccc5F)c5nc(c(-c6c(F)cccc6F)c6ccc3[nH]6)C=C5)C=C4)cc2)C1
REMARK SMILES IDX 26 1 25 2 23 3 24 4 22 6 1 7 2 8 3 9 86 10 4 12 5 13 21 14
REMARK SMILES IDX 6 15 7 16 8 17 9 18 10 19 11 20 20 21 12 22 13 23 14 24
REMARK SMILES IDX 15 25 19 26 16 27 18 28 17 29 27 30 28 31 29 32 30 33 31 35
REMARK SMILES IDX 32 36 33 37 85 38 34 39 84 40 35 41 36 42 37 43 78 44 38 45
REMARK SMILES IDX 83 46 77 47 79 48 39 49 82 50 76 51 75 52 40 54 66 55 49 56
REMARK SMILES IDX 65 57 50 58 53 59 64 60 80 61 51 62 52 63 63 65 81 66 54 67
REMARK SMILES IDX 41 68 42 69 47 70 43 71 44 72 46 73 48 74 45 75 67 76 68 77
REMARK SMILES IDX 73 78 69 79 70 80 72 81 74 82 71 83 55 84 56 85 61 86 57 87
REMARK SMILES IDX 58 88 60 89 62 90 59 91
REMARK H PARENT 25 5 2 11 29 34 79 53 53 64
REMARK Flexibility Score: inf
ROOT
ATOM      1  C   UNL A   1      33.932  26.617  25.745  1.00  0.00     0.117 C 
ENDROOT
BRANCH   1   2
ATOM      2  N   UNL A   1      32.649  25.958  25.990  1.00  0.00    -0.355 N 
ATOM      3  C   UNL A   1      32.245  24.646  25.993  1.00  0.00     0.234 C 
ATOM      4  O   UNL A   1      31.327  24.382  26.777  1.00  0.00    -0.274 OA
ATOM      5  H   UNL A   1      31.922  26.589  26.197  1.00  0.00     0.163 HD
BRANCH   3   6
ATOM      6  C   UNL A   1      32.740  23.602  24.973  1.00  0.00     0.120 C 
ATOM      7  C   UNL A   1      33.033  22.174  27.998  1.00  0.00     0.332 C 
ATOM      8  N   UNL A   1      33.402  21.752  26.646  1.00  0.00    -0.336 N 
ATOM      9  C   UNL A   1      34.818  22.046  26.398  1.00  0.00     0.262 C 
ATOM     10  C   UNL A   1      32.475  22.209  25.593  1.00  0.00     0.281 C 
ATOM     11  H   UNL A   1      33.294  20.739  26.594  1.00  0.00     0.347 HD
ATOM     12  C   UNL A   1      35.093  22.473  24.967  1.00  0.00     0.068 C 
ATOM     13  C   UNL A   1      34.274  23.719  24.613  1.00  0.00     0.037 C 
ATOM     14  C   UNL A   1      32.062  23.836  23.616  1.00  0.00     0.143 C 
ATOM     15  C   UNL A   1      34.361  23.975  23.107  1.00  0.00     0.125 C 
ATOM     16  N   UNL A   1      33.059  24.463  22.772  1.00  0.00    -0.336 N 
BRANCH  16  17
ATOM     17  C   UNL A   1      32.856  25.323  21.709  1.00  0.00     0.273 C 
ATOM     18  O   UNL A   1      33.103  25.000  20.550  1.00  0.00    -0.267 OA
BRANCH  17  19
ATOM     19  C   UNL A   1      32.376  26.671  22.035  1.00  0.00     0.139 A 
ATOM     20  C   UNL A   1      33.189  27.694  22.484  1.00  0.00     0.101 A 
ATOM     21  N   UNL A   1      31.014  26.989  22.010  1.00  0.00    -0.231 NA
ATOM     22  S   UNL A   1      32.251  29.079  22.855  1.00  0.00    -0.122 S 
ATOM     23  C   UNL A   1      30.821  28.205  22.475  1.00  0.00     0.124 A 
BRANCH  23  24
ATOM     24  C   UNL A   1      29.510  28.805  22.716  1.00  0.00     0.013 A 
ATOM     25  C   UNL A   1      28.437  27.994  23.094  1.00  0.00     0.031 A 
ATOM     26  C   UNL A   1      29.299  30.176  22.559  1.00  0.00     0.031 A 
ATOM     27  C   UNL A   1      27.208  28.590  23.319  1.00  0.00     0.111 A 
ATOM     28  C   UNL A   1      28.029  30.675  22.799  1.00  0.00     0.111 A 
ATOM     29  N   UNL A   1      26.983  29.912  23.179  1.00  0.00    -0.265 NA
ENDBRANCH  23  24
ENDBRANCH  17  19
ENDBRANCH  16  17
ENDBRANCH   3   6
ENDBRANCH   1   2
BRANCH   1  30
ATOM     30  C   UNL A   1      34.050  28.112  26.054  1.00  0.00     0.042 C 
BRANCH  30  31
ATOM     31  C   UNL A   1      33.550  28.513  27.444  1.00  0.00     0.118 C 
BRANCH  31  32
ATOM     32  N   UNL A   1      33.713  29.943  27.681  1.00  0.00    -0.352 N 
ATOM     33  C   UNL A   1      34.685  30.654  28.336  1.00  0.00     0.251 C 
ATOM     34  H   UNL A   1      32.994  30.499  27.303  1.00  0.00     0.163 HD
ATOM     35  O   UNL A   1      34.400  31.768  28.769  1.00  0.00    -0.269 OA
BRANCH  33  36
ATOM     36  C   UNL A   1      36.068  30.142  28.506  1.00  0.00     0.039 A 
ATOM     37  C   UNL A   1      36.466  29.699  29.775  1.00  0.00     0.014 A 
ATOM     38  C   UNL A   1      37.015  30.220  27.483  1.00  0.00     0.014 A 
ATOM     39  C   UNL A   1      37.791  29.310  30.007  1.00  0.00     0.010 A 
ATOM     40  C   UNL A   1      38.322  29.773  27.697  1.00  0.00     0.010 A 
ATOM     41  C   UNL A   1      38.727  29.324  28.963  1.00  0.00    -0.014 A 
BRANCH  41  42
ATOM     42  C   UNL A   1      40.131  28.880  29.176  1.00  0.00     0.031 A 
ATOM     43  C   UNL A   1      41.149  29.816  29.768  1.00  0.00     0.074 A 
ATOM     44  C   UNL A   1      40.507  27.651  28.772  1.00  0.00     0.049 A 
ATOM     45  N   UNL A   1      42.437  29.644  29.933  1.00  0.00    -0.248 NA
ATOM     46  C   UNL A   1      40.660  31.131  30.212  1.00  0.00     0.031 C 
ATOM     47  C   UNL A   1      39.626  26.658  28.155  1.00  0.00     0.029 A 
ATOM     48  N   UNL A   1      41.732  27.034  28.805  1.00  0.00    -0.354 N 
ATOM     49  C   UNL A   1      42.914  30.831  30.477  1.00  0.00     0.074 A 
ATOM     50  C   UNL A   1      41.784  31.729  30.580  1.00  0.00     0.031 C 
ATOM     51  C   UNL A   1      40.337  25.554  27.878  1.00  0.00     0.029 A 
ATOM     52  C   UNL A   1      41.729  25.773  28.260  1.00  0.00     0.049 A 
ATOM     53  H   UNL A   1      42.538  27.456  29.183  1.00  0.00     0.167 HD
ATOM     54  C   UNL A   1      44.174  31.137  30.869  1.00  0.00     0.037 A 
ATOM     55  C   UNL A   1      42.733  24.897  28.076  1.00  0.00     0.037 A 
ATOM     56  C   UNL A   1      45.292  30.232  30.795  1.00  0.00     0.049 A 
ATOM     57  C   UNL A   1      44.122  25.261  28.518  1.00  0.00     0.074 A 
ATOM     58  C   UNL A   1      46.594  30.432  31.224  1.00  0.00     0.029 A 
ATOM     59  N   UNL A   1      45.241  28.955  30.257  1.00  0.00    -0.354 N 
ATOM     60  N   UNL A   1      44.547  26.368  29.078  1.00  0.00    -0.248 NA
ATOM     61  C   UNL A   1      45.171  24.253  28.306  1.00  0.00     0.031 C 
ATOM     62  C   UNL A   1      47.338  29.289  30.911  1.00  0.00     0.029 A 
ATOM     63  C   UNL A   1      46.491  28.363  30.327  1.00  0.00     0.049 A 
ATOM     64  H   UNL A   1      44.435  28.533  29.881  1.00  0.00     0.167 HD
ATOM     65  C   UNL A   1      45.903  26.180  29.309  1.00  0.00     0.074 A 
ATOM     66  C   UNL A   1      46.228  24.850  28.839  1.00  0.00     0.031 C 
ATOM     67  C   UNL A   1      46.799  27.034  29.861  1.00  0.00     0.037 A 
BRANCH  54  68
ATOM     68  C   UNL A   1      44.414  32.515  31.419  1.00  0.00     0.057 A 
ATOM     69  C   UNL A   1      44.757  33.591  30.590  1.00  0.00     0.134 A 
ATOM     70  C   UNL A   1      44.260  32.776  32.787  1.00  0.00     0.134 A 
ATOM     71  F   UNL A   1      44.930  33.406  29.273  1.00  0.00    -0.206 F 
ATOM     72  C   UNL A   1      44.965  34.872  31.105  1.00  0.00     0.040 A 
ATOM     73  C   UNL A   1      44.439  34.058  33.310  1.00  0.00     0.040 A 
ATOM     74  F   UNL A   1      43.922  31.794  33.635  1.00  0.00    -0.206 F 
ATOM     75  C   UNL A   1      44.800  35.110  32.468  1.00  0.00     0.006 A 
ENDBRANCH  54  68
BRANCH  55  76
ATOM     76  C   UNL A   1      42.458  23.576  27.457  1.00  0.00     0.057 A 
ATOM     77  C   UNL A   1      42.541  23.400  26.071  1.00  0.00     0.134 A 
ATOM     78  C   UNL A   1      42.109  22.463  28.230  1.00  0.00     0.134 A 
ATOM     79  F   UNL A   1      42.853  24.435  25.278  1.00  0.00    -0.206 F 
ATOM     80  C   UNL A   1      42.269  22.170  25.473  1.00  0.00     0.040 A 
ATOM     81  C   UNL A   1      41.859  21.219  27.648  1.00  0.00     0.040 A 
ATOM     82  F   UNL A   1      42.023  22.564  29.565  1.00  0.00    -0.206 F 
ATOM     83  C   UNL A   1      41.932  21.072  26.264  1.00  0.00     0.006 A 
ENDBRANCH  55  76
BRANCH  67  84
ATOM     84  C   UNL A   1      48.208  26.543  30.019  1.00  0.00     0.057 A 
ATOM     85  C   UNL A   1      49.181  26.764  29.038  1.00  0.00     0.134 A 
ATOM     86  C   UNL A   1      48.600  25.869  31.182  1.00  0.00     0.134 A 
ATOM     87  F   UNL A   1      48.864  27.391  27.894  1.00  0.00    -0.206 F 
ATOM     88  C   UNL A   1      50.493  26.315  29.198  1.00  0.00     0.040 A 
ATOM     89  C   UNL A   1      49.914  25.436  31.365  1.00  0.00     0.040 A 
ATOM     90  F   UNL A   1      47.716  25.630  32.163  1.00  0.00    -0.206 F 
ATOM     91  C   UNL A   1      50.864  25.654  30.369  1.00  0.00     0.006 A 
ENDBRANCH  67  84
ENDBRANCH  41  42
ENDBRANCH  33  36
ENDBRANCH  31  32
ENDBRANCH  30  31
ENDBRANCH   1  30
TORSDOF 13
ENDMDL
MODEL 2
REMARK VINA RESULT:     -12.7      3.134      6.614
REMARK SMILES C[N@@H+]1CC[C@H]2CN(C(=O)c3csc(-c4ccncc4)n3)C[C@@]2(C(=O)NCCCNC(=O)c2ccc(-c3c4nc(c(-c5c(F)cccc5F)c5ccc([nH]5)c(-c5c(F)cccc5F)c5nc(c(-c6c(F)cccc6F)c6ccc3[nH]6)C=C5)C=C4)cc2)C1
REMARK SMILES IDX 26 1 25 2 23 3 24 4 22 6 1 7 2 8 3 9 86 10 4 12 5 13 21 14
REMARK SMILES IDX 6 15 7 16 8 17 9 18 10 19 11 20 20 21 12 22 13 23 14 24
REMARK SMILES IDX 15 25 19 26 16 27 18 28 17 29 27 30 28 31 29 32 30 33 31 35
REMARK SMILES IDX 32 36 33 37 85 38 34 39 84 40 35 41 36 42 37 43 78 44 38 45
REMARK SMILES IDX 83 46 77 47 79 48 39 49 82 50 76 51 75 52 40 54 66 55 49 56
REMARK SMILES IDX 65 57 50 58 53 59 64 60 80 61 51 62 52 63 63 65 81 66 54 67
REMARK SMILES IDX 41 68 42 69 47 70 43 71 44 72 46 73 48 74 45 75 67 76 68 77
REMARK SMILES IDX 73 78 69 79 70 80 72 81 74 82 71 83 55 84 56 85 61 86 57 87
REMARK SMILES IDX 58 88 60 89 62 90 59 91
REMARK H PARENT 25 5 2 11 29 34 79 53 53 64
REMARK Flexibility Score: inf
ROOT
ATOM      1  C   UNL A   1      32.230  26.962  26.498  1.00  0.00     0.117 C 
ENDROOT
BRANCH   1   2
ATOM      2  N   UNL A   1      31.377  25.775  26.575  1.00  0.00    -0.355 N 
ATOM      3  C   UNL A   1      31.597  24.437  26.361  1.00  0.00     0.234 C 
ATOM      4  O   UNL A   1      30.908  23.675  27.048  1.00  0.00    -0.274 OA
ATOM      5  H   UNL A   1      30.450  25.980  26.838  1.00  0.00     0.163 HD
BRANCH   3   6
ATOM      6  C   UNL A   1      32.480  23.893  25.221  1.00  0.00     0.120 C 
ATOM      7  C   UNL A   1      33.464  22.309  28.014  1.00  0.00     0.332 C 
ATOM      8  N   UNL A   1      33.948  22.307  26.632  1.00  0.00    -0.336 N 
ATOM      9  C   UNL A   1      35.073  23.239  26.494  1.00  0.00     0.262 C 
ATOM     10  C   UNL A   1      32.887  22.453  25.617  1.00  0.00     0.281 C 
ATOM     11  H   UNL A   1      34.306  21.374  26.427  1.00  0.00     0.347 HD
ATOM     12  C   UNL A   1      35.089  23.954  25.154  1.00  0.00     0.068 C 
ATOM     13  C   UNL A   1      33.788  24.738  24.951  1.00  0.00     0.037 C 
ATOM     14  C   UNL A   1      31.734  24.000  23.884  1.00  0.00     0.143 C 
ATOM     15  C   UNL A   1      33.711  25.231  23.504  1.00  0.00     0.125 C 
ATOM     16  N   UNL A   1      32.320  25.127  23.187  1.00  0.00    -0.336 N 
BRANCH  16  17
ATOM     17  C   UNL A   1      31.724  25.955  22.254  1.00  0.00     0.273 C 
ATOM     18  O   UNL A   1      32.110  26.011  21.089  1.00  0.00    -0.267 OA
BRANCH  17  19
ATOM     19  C   UNL A   1      30.632  26.809  22.734  1.00  0.00     0.139 A 
ATOM     20  C   UNL A   1      29.546  26.345  23.452  1.00  0.00     0.101 A 
ATOM     21  N   UNL A   1      30.563  28.166  22.401  1.00  0.00    -0.231 NA
ATOM     22  S   UNL A   1      28.437  27.619  23.741  1.00  0.00    -0.122 S 
ATOM     23  C   UNL A   1      29.428  28.682  22.825  1.00  0.00     0.124 A 
BRANCH  23  24
ATOM     24  C   UNL A   1      28.971  30.038  22.529  1.00  0.00     0.013 A 
ATOM     25  C   UNL A   1      28.978  31.007  23.537  1.00  0.00     0.031 A 
ATOM     26  C   UNL A   1      28.507  30.387  21.260  1.00  0.00     0.031 A 
ATOM     27  C   UNL A   1      28.542  32.283  23.226  1.00  0.00     0.111 A 
ATOM     28  C   UNL A   1      28.083  31.689  21.052  1.00  0.00     0.111 A 
ATOM     29  N   UNL A   1      28.095  32.644  22.006  1.00  0.00    -0.265 NA
ENDBRANCH  23  24
ENDBRANCH  17  19
ENDBRANCH  16  17
ENDBRANCH   3   6
ENDBRANCH   1   2
BRANCH   1  30
ATOM     30  C   UNL A   1      31.620  28.258  25.958  1.00  0.00     0.042 C 
BRANCH  30  31
ATOM     31  C   UNL A   1      32.638  29.244  25.379  1.00  0.00     0.118 C 
BRANCH  31  32
ATOM     32  N   UNL A   1      32.301  30.622  25.715  1.00  0.00    -0.352 N 
ATOM     33  C   UNL A   1      32.651  31.414  26.778  1.00  0.00     0.251 C 
ATOM     34  H   UNL A   1      31.715  31.065  25.059  1.00  0.00     0.163 HD
ATOM     35  O   UNL A   1      31.923  32.363  27.062  1.00  0.00    -0.269 OA
BRANCH  33  36
ATOM     36  C   UNL A   1      33.886  31.185  27.568  1.00  0.00     0.039 A 
ATOM     37  C   UNL A   1      34.724  32.279  27.829  1.00  0.00     0.014 A 
ATOM     38  C   UNL A   1      34.303  29.904  27.933  1.00  0.00     0.014 A 
ATOM     39  C   UNL A   1      35.952  32.091  28.477  1.00  0.00     0.010 A 
ATOM     40  C   UNL A   1      35.498  29.725  28.635  1.00  0.00     0.010 A 
ATOM     41  C   UNL A   1      36.341  30.814  28.904  1.00  0.00    -0.014 A 
BRANCH  41  42
ATOM     42  C   UNL A   1      37.622  30.596  29.627  1.00  0.00     0.031 A 
ATOM     43  C   UNL A   1      38.733  29.800  28.995  1.00  0.00     0.074 A 
ATOM     44  C   UNL A   1      37.763  31.058  30.885  1.00  0.00     0.049 A 
ATOM     45  N   UNL A   1      39.876  29.419  29.508  1.00  0.00    -0.248 NA
ATOM     46  C   UNL A   1      38.519  29.352  27.609  1.00  0.00     0.031 C 
ATOM     47  C   UNL A   1      36.752  31.815  31.624  1.00  0.00     0.029 A 
ATOM     48  N   UNL A   1      38.805  30.943  31.769  1.00  0.00    -0.354 N 
ATOM     49  C   UNL A   1      40.506  28.671  28.521  1.00  0.00     0.074 A 
ATOM     50  C   UNL A   1      39.603  28.620  27.392  1.00  0.00     0.031 C 
ATOM     51  C   UNL A   1      37.228  32.107  32.844  1.00  0.00     0.029 A 
ATOM     52  C   UNL A   1      38.559  31.524  32.989  1.00  0.00     0.049 A 
ATOM     53  H   UNL A   1      39.650  30.486  31.550  1.00  0.00     0.167 HD
ATOM     54  C   UNL A   1      41.732  28.094  28.548  1.00  0.00     0.037 A 
ATOM     55  C   UNL A   1      39.312  31.573  34.103  1.00  0.00     0.037 A 
ATOM     56  C   UNL A   1      42.643  28.170  29.661  1.00  0.00     0.049 A 
ATOM     57  C   UNL A   1      40.667  30.924  34.108  1.00  0.00     0.074 A 
ATOM     58  C   UNL A   1      43.930  27.669  29.758  1.00  0.00     0.029 A 
ATOM     59  N   UNL A   1      42.363  28.789  30.870  1.00  0.00    -0.354 N 
ATOM     60  N   UNL A   1      41.271  30.264  33.149  1.00  0.00    -0.248 NA
ATOM     61  C   UNL A   1      41.448  31.028  35.349  1.00  0.00     0.031 C 
ATOM     62  C   UNL A   1      44.415  27.951  31.039  1.00  0.00     0.029 A 
ATOM     63  C   UNL A   1      43.446  28.666  31.725  1.00  0.00     0.049 A 
ATOM     64  H   UNL A   1      41.520  29.247  31.087  1.00  0.00     0.167 HD
ATOM     65  C   UNL A   1      42.508  29.899  33.660  1.00  0.00     0.074 A 
ATOM     66  C   UNL A   1      42.575  30.419  35.010  1.00  0.00     0.031 C 
ATOM     67  C   UNL A   1      43.501  29.195  33.064  1.00  0.00     0.037 A 
BRANCH  54  68
ATOM     68  C   UNL A   1      42.164  27.325  27.331  1.00  0.00     0.057 A 
ATOM     69  C   UNL A   1      42.802  27.949  26.252  1.00  0.00     0.134 A 
ATOM     70  C   UNL A   1      41.975  25.939  27.257  1.00  0.00     0.134 A 
ATOM     71  F   UNL A   1      43.004  29.275  26.256  1.00  0.00    -0.206 F 
ATOM     72  C   UNL A   1      43.213  27.227  25.130  1.00  0.00     0.040 A 
ATOM     73  C   UNL A   1      42.406  25.202  26.152  1.00  0.00     0.040 A 
ATOM     74  F   UNL A   1      41.380  25.276  28.260  1.00  0.00    -0.206 F 
ATOM     75  C   UNL A   1      43.022  25.847  25.081  1.00  0.00     0.006 A 
ENDBRANCH  54  68
BRANCH  55  76
ATOM     76  C   UNL A   1      38.808  32.280  35.306  1.00  0.00     0.057 A 
ATOM     77  C   UNL A   1      38.938  33.668  35.432  1.00  0.00     0.134 A 
ATOM     78  C   UNL A   1      38.187  31.592  36.355  1.00  0.00     0.134 A 
ATOM     79  F   UNL A   1      39.540  34.379  34.468  1.00  0.00    -0.206 F 
ATOM     80  C   UNL A   1      38.484  34.345  36.564  1.00  0.00     0.040 A 
ATOM     81  C   UNL A   1      37.706  32.259  37.483  1.00  0.00     0.040 A 
ATOM     82  F   UNL A   1      38.025  30.262  36.291  1.00  0.00    -0.206 F 
ATOM     83  C   UNL A   1      37.860  33.640  37.592  1.00  0.00     0.006 A 
ENDBRANCH  55  76
BRANCH  67  84
ATOM     84  C   UNL A   1      44.758  28.977  33.855  1.00  0.00     0.057 A 
ATOM     85  C   UNL A   1      44.949  27.831  34.636  1.00  0.00     0.134 A 
ATOM     86  C   UNL A   1      45.801  29.911  33.806  1.00  0.00     0.134 A 
ATOM     87  F   UNL A   1      43.982  26.906  34.736  1.00  0.00    -0.206 F 
ATOM     88  C   UNL A   1      46.127  27.631  35.359  1.00  0.00     0.040 A 
ATOM     89  C   UNL A   1      46.992  29.710  34.505  1.00  0.00     0.040 A 
ATOM     90  F   UNL A   1      45.682  31.027  33.071  1.00  0.00    -0.206 F 
ATOM     91  C   UNL A   1      47.155  28.569  35.288  1.00  0.00     0.006 A 
ENDBRANCH  67  84
ENDBRANCH  41  42
ENDBRANCH  33  36
ENDBRANCH  31  32
ENDBRANCH  30  31
ENDBRANCH   1  30
TORSDOF 13
ENDMDL
MODEL 3
REMARK VINA RESULT:     -12.6      3.158      8.287
REMARK SMILES C[N@@H+]1CC[C@H]2CN(C(=O)c3csc(-c4ccncc4)n3)C[C@@]2(C(=O)NCCCNC(=O)c2ccc(-c3c4nc(c(-c5c(F)cccc5F)c5ccc([nH]5)c(-c5c(F)cccc5F)c5nc(c(-c6c(F)cccc6F)c6ccc3[nH]6)C=C5)C=C4)cc2)C1
REMARK SMILES IDX 26 1 25 2 23 3 24 4 22 6 1 7 2 8 3 9 86 10 4 12 5 13 21 14
REMARK SMILES IDX 6 15 7 16 8 17 9 18 10 19 11 20 20 21 12 22 13 23 14 24
REMARK SMILES IDX 15 25 19 26 16 27 18 28 17 29 27 30 28 31 29 32 30 33 31 35
REMARK SMILES IDX 32 36 33 37 85 38 34 39 84 40 35 41 36 42 37 43 78 44 38 45
REMARK SMILES IDX 83 46 77 47 79 48 39 49 82 50 76 51 75 52 40 54 66 55 49 56
REMARK SMILES IDX 65 57 50 58 53 59 64 60 80 61 51 62 52 63 63 65 81 66 54 67
REMARK SMILES IDX 41 68 42 69 47 70 43 71 44 72 46 73 48 74 45 75 67 76 68 77
REMARK SMILES IDX 73 78 69 79 70 80 72 81 74 82 71 83 55 84 56 85 61 86 57 87
REMARK SMILES IDX 58 88 60 89 62 90 59 91
REMARK H PARENT 25 5 2 11 29 34 79 53 53 64
REMARK Flexibility Score: inf
ROOT
ATOM      1  C   UNL A   1      35.062  24.819  25.382  1.00  0.00     0.117 C 
ENDROOT
BRANCH   1   2
ATOM      2  N   UNL A   1      34.411  24.682  24.079  1.00  0.00    -0.355 N 
ATOM      3  C   UNL A   1      33.502  25.447  23.391  1.00  0.00     0.234 C 
ATOM      4  O   UNL A   1      33.603  25.401  22.160  1.00  0.00    -0.274 OA
ATOM      5  H   UNL A   1      34.683  23.870  23.592  1.00  0.00     0.163 HD
BRANCH   3   6
ATOM      6  C   UNL A   1      32.312  26.160  24.062  1.00  0.00     0.120 C 
ATOM      7  C   UNL A   1      33.957  28.510  22.316  1.00  0.00     0.332 C 
ATOM      8  N   UNL A   1      32.809  28.550  23.224  1.00  0.00    -0.336 N 
ATOM      9  C   UNL A   1      33.250  28.922  24.573  1.00  0.00     0.262 C 
ATOM     10  C   UNL A   1      31.940  27.359  23.157  1.00  0.00     0.281 C 
ATOM     11  H   UNL A   1      32.180  29.286  22.902  1.00  0.00     0.347 HD
ATOM     12  C   UNL A   1      32.474  28.212  25.668  1.00  0.00     0.068 C 
ATOM     13  C   UNL A   1      32.609  26.692  25.520  1.00  0.00     0.037 C 
ATOM     14  C   UNL A   1      31.170  25.162  24.299  1.00  0.00     0.143 C 
ATOM     15  C   UNL A   1      31.619  25.999  26.459  1.00  0.00     0.125 C 
ATOM     16  N   UNL A   1      31.195  24.854  25.715  1.00  0.00    -0.336 N 
BRANCH  16  17
ATOM     17  C   UNL A   1      30.780  23.693  26.341  1.00  0.00     0.273 C 
ATOM     18  O   UNL A   1      29.725  23.631  26.968  1.00  0.00    -0.267 OA
BRANCH  17  19
ATOM     19  C   UNL A   1      31.687  22.543  26.265  1.00  0.00     0.139 A 
ATOM     20  C   UNL A   1      32.872  22.445  26.970  1.00  0.00     0.101 A 
ATOM     21  N   UNL A   1      31.460  21.488  25.375  1.00  0.00    -0.231 NA
ATOM     22  S   UNL A   1      33.701  21.008  26.541  1.00  0.00    -0.122 S 
ATOM     23  C   UNL A   1      32.477  20.652  25.389  1.00  0.00     0.124 A 
BRANCH  23  24
ATOM     24  C   UNL A   1      32.631  19.516  24.484  1.00  0.00     0.013 A 
ATOM     25  C   UNL A   1      33.235  18.341  24.943  1.00  0.00     0.031 A 
ATOM     26  C   UNL A   1      32.202  19.580  23.157  1.00  0.00     0.031 A 
ATOM     27  C   UNL A   1      33.364  17.280  24.064  1.00  0.00     0.111 A 
ATOM     28  C   UNL A   1      32.385  18.467  22.354  1.00  0.00     0.111 A 
ATOM     29  N   UNL A   1      32.952  17.319  22.780  1.00  0.00    -0.265 NA
ENDBRANCH  23  24
ENDBRANCH  17  19
ENDBRANCH  16  17
ENDBRANCH   3   6
ENDBRANCH   1   2
BRANCH   1  30
ATOM     30  C   UNL A   1      36.074  23.749  25.802  1.00  0.00     0.042 C 
BRANCH  30  31
ATOM     31  C   UNL A   1      37.274  23.607  24.862  1.00  0.00     0.118 C 
BRANCH  31  32
ATOM     32  N   UNL A   1      38.293  22.728  25.422  1.00  0.00    -0.352 N 
ATOM     33  C   UNL A   1      39.466  22.995  26.080  1.00  0.00     0.251 C 
ATOM     34  H   UNL A   1      38.107  21.769  25.306  1.00  0.00     0.163 HD
ATOM     35  O   UNL A   1      40.345  22.135  26.076  1.00  0.00    -0.269 OA
BRANCH  33  36
ATOM     36  C   UNL A   1      39.694  24.260  26.821  1.00  0.00     0.039 A 
ATOM     37  C   UNL A   1      40.572  25.207  26.274  1.00  0.00     0.014 A 
ATOM     38  C   UNL A   1      39.175  24.471  28.100  1.00  0.00     0.014 A 
ATOM     39  C   UNL A   1      40.900  26.365  26.988  1.00  0.00     0.010 A 
ATOM     40  C   UNL A   1      39.452  25.656  28.787  1.00  0.00     0.010 A 
ATOM     41  C   UNL A   1      40.326  26.611  28.244  1.00  0.00    -0.014 A 
BRANCH  41  42
ATOM     42  C   UNL A   1      40.630  27.852  29.006  1.00  0.00     0.031 A 
ATOM     43  C   UNL A   1      41.931  27.996  29.748  1.00  0.00     0.074 A 
ATOM     44  C   UNL A   1      39.703  28.826  29.085  1.00  0.00     0.049 A 
ATOM     45  N   UNL A   1      42.328  28.955  30.546  1.00  0.00    -0.248 NA
ATOM     46  C   UNL A   1      42.907  26.905  29.591  1.00  0.00     0.031 C 
ATOM     47  C   UNL A   1      38.390  28.797  28.440  1.00  0.00     0.029 A 
ATOM     48  N   UNL A   1      39.717  30.022  29.758  1.00  0.00    -0.354 N 
ATOM     49  C   UNL A   1      43.585  28.576  31.003  1.00  0.00     0.074 A 
ATOM     50  C   UNL A   1      43.869  27.281  30.422  1.00  0.00     0.031 C 
ATOM     51  C   UNL A   1      37.729  29.927  28.738  1.00  0.00     0.029 A 
ATOM     52  C   UNL A   1      38.554  30.742  29.626  1.00  0.00     0.049 A 
ATOM     53  H   UNL A   1      40.488  30.335  30.285  1.00  0.00     0.167 HD
ATOM     54  C   UNL A   1      44.431  29.251  31.818  1.00  0.00     0.037 A 
ATOM     55  C   UNL A   1      38.186  31.917  30.168  1.00  0.00     0.037 A 
ATOM     56  C   UNL A   1      44.161  30.554  32.371  1.00  0.00     0.049 A 
ATOM     57  C   UNL A   1      39.142  32.646  31.070  1.00  0.00     0.074 A 
ATOM     58  C   UNL A   1      44.982  31.343  33.158  1.00  0.00     0.029 A 
ATOM     59  N   UNL A   1      42.980  31.257  32.194  1.00  0.00    -0.354 N 
ATOM     60  N   UNL A   1      40.347  32.298  31.451  1.00  0.00    -0.248 NA
ATOM     61  C   UNL A   1      38.688  33.934  31.615  1.00  0.00     0.031 C 
ATOM     62  C   UNL A   1      44.283  32.509  33.489  1.00  0.00     0.029 A 
ATOM     63  C   UNL A   1      43.043  32.464  32.872  1.00  0.00     0.049 A 
ATOM     64  H   UNL A   1      42.210  30.945  31.665  1.00  0.00     0.167 HD
ATOM     65  C   UNL A   1      40.804  33.332  32.256  1.00  0.00     0.074 A 
ATOM     66  C   UNL A   1      39.752  34.326  32.300  1.00  0.00     0.031 C 
ATOM     67  C   UNL A   1      41.990  33.448  32.901  1.00  0.00     0.037 A 
BRANCH  54  68
ATOM     68  C   UNL A   1      45.736  28.592  32.162  1.00  0.00     0.057 A 
ATOM     69  C   UNL A   1      46.895  28.810  31.406  1.00  0.00     0.134 A 
ATOM     70  C   UNL A   1      45.845  27.764  33.287  1.00  0.00     0.134 A 
ATOM     71  F   UNL A   1      46.857  29.585  30.311  1.00  0.00    -0.206 F 
ATOM     72  C   UNL A   1      48.109  28.206  31.739  1.00  0.00     0.040 A 
ATOM     73  C   UNL A   1      47.059  27.176  33.646  1.00  0.00     0.040 A 
ATOM     74  F   UNL A   1      44.777  27.522  34.062  1.00  0.00    -0.206 F 
ATOM     75  C   UNL A   1      48.195  27.391  32.867  1.00  0.00     0.006 A 
ENDBRANCH  54  68
BRANCH  55  76
ATOM     76  C   UNL A   1      36.853  32.490  29.857  1.00  0.00     0.057 A 
ATOM     77  C   UNL A   1      35.729  32.151  30.618  1.00  0.00     0.134 A 
ATOM     78  C   UNL A   1      36.670  33.386  28.798  1.00  0.00     0.134 A 
ATOM     79  F   UNL A   1      35.840  31.283  31.634  1.00  0.00    -0.206 F 
ATOM     80  C   UNL A   1      34.466  32.668  30.328  1.00  0.00     0.040 A 
ATOM     81  C   UNL A   1      35.417  33.931  28.511  1.00  0.00     0.040 A 
ATOM     82  F   UNL A   1      37.709  33.758  28.036  1.00  0.00    -0.206 F 
ATOM     83  C   UNL A   1      34.309  33.567  29.274  1.00  0.00     0.006 A 
ENDBRANCH  55  76
BRANCH  67  84
ATOM     84  C   UNL A   1      42.226  34.707  33.682  1.00  0.00     0.057 A 
ATOM     85  C   UNL A   1      42.833  35.830  33.107  1.00  0.00     0.134 A 
ATOM     86  C   UNL A   1      41.809  34.806  35.016  1.00  0.00     0.134 A 
ATOM     87  F   UNL A   1      43.268  35.793  31.838  1.00  0.00    -0.206 F 
ATOM     88  C   UNL A   1      43.037  37.002  33.837  1.00  0.00     0.040 A 
ATOM     89  C   UNL A   1      41.985  35.980  35.749  1.00  0.00     0.040 A 
ATOM     90  F   UNL A   1      41.215  33.768  35.623  1.00  0.00    -0.206 F 
ATOM     91  C   UNL A   1      42.606  37.081  35.161  1.00  0.00     0.006 A 
ENDBRANCH  67  84
ENDBRANCH  41  42
ENDBRANCH  33  36
ENDBRANCH  31  32
ENDBRANCH  30  31
ENDBRANCH   1  30
TORSDOF 13
ENDMDL
