MODEL 1
REMARK VINA RESULT:     -12.0      0.000      0.000
REMARK SMILES C[C@H](Oc1ccnc2c(F)cc(F)cc12)C(=O)NCCCNC(=O)c1ccc(-c2c3nc(c(-c4c(F)cccc4F)c4ccc([nH]4)c(-c4c(F)cccc4F)c4nc(c(-c5c(F)cccc5F)c5ccc2[nH]5)C=C4)C=C3)cc1
REMARK SMILES IDX 20 1 19 2 18 3 16 4 17 5 2 7 1 8 3 9 4 10 5 11 15 12 6 13
REMARK SMILES IDX 8 14 14 15 7 16 9 17 12 18 10 19 11 20 13 21 21 22 22 23
REMARK SMILES IDX 23 24 24 26 25 27 26 28 78 29 27 30 77 31 28 32 29 33 30 34
REMARK SMILES IDX 71 35 31 36 76 37 70 38 72 39 32 40 75 41 69 42 68 43 33 45
REMARK SMILES IDX 59 46 42 47 58 48 43 49 46 50 57 51 73 52 44 53 45 54 56 56
REMARK SMILES IDX 74 57 47 58 34 59 35 60 40 61 36 62 37 63 39 64 41 65 38 66
REMARK SMILES IDX 60 67 61 68 66 69 62 70 63 71 65 72 67 73 64 74 48 75 49 76
REMARK SMILES IDX 54 77 50 78 51 79 53 80 55 81 52 82
REMARK H PARENT 18 6 22 25 72 44 46 55
REMARK Flexibility Score: inf
ROOT
ATOM      1  C   UNL A   1      37.751  19.659  25.002  1.00  0.00     0.042 C 
ENDROOT
BRANCH   1   2
ATOM      2  C   UNL A   1      36.616  20.673  24.947  1.00  0.00     0.118 C 
BRANCH   2   3
ATOM      3  N   UNL A   1      35.312  20.055  25.119  1.00  0.00    -0.353 N 
ATOM      4  C   UNL A   1      34.160  20.578  25.630  1.00  0.00     0.260 C 
ATOM      5  O   UNL A   1      33.171  19.843  25.702  1.00  0.00    -0.271 OA
ATOM      6  H   UNL A   1      35.251  19.119  24.821  1.00  0.00     0.163 HD
BRANCH   4   7
ATOM      7  C   UNL A   1      34.090  22.040  26.099  1.00  0.00     0.258 C 
ATOM      8  C   UNL A   1      34.041  22.143  27.625  1.00  0.00     0.064 C 
BRANCH   7   9
ATOM      9  O   UNL A   1      32.960  22.713  25.542  1.00  0.00    -0.480 OA
BRANCH   9  10
ATOM     10  C   UNL A   1      33.087  23.369  24.341  1.00  0.00     0.131 A 
ATOM     11  C   UNL A   1      33.071  22.750  23.095  1.00  0.00     0.067 A 
ATOM     12  C   UNL A   1      33.277  24.771  24.413  1.00  0.00     0.048 A 
ATOM     13  C   UNL A   1      33.283  23.528  21.975  1.00  0.00     0.115 A 
ATOM     14  C   UNL A   1      33.484  25.477  23.206  1.00  0.00     0.110 A 
ATOM     15  C   UNL A   1      33.258  25.487  25.633  1.00  0.00     0.053 A 
ATOM     16  N   UNL A   1      33.496  24.856  22.011  1.00  0.00    -0.253 NA
ATOM     17  C   UNL A   1      33.677  26.860  23.279  1.00  0.00     0.152 A 
ATOM     18  C   UNL A   1      33.435  26.865  25.650  1.00  0.00     0.127 A 
ATOM     19  F   UNL A   1      33.892  27.563  22.154  1.00  0.00    -0.204 F 
ATOM     20  C   UNL A   1      33.651  27.563  24.479  1.00  0.00     0.080 A 
ATOM     21  F   UNL A   1      33.392  27.522  26.815  1.00  0.00    -0.207 F 
ENDBRANCH   9  10
ENDBRANCH   7   9
ENDBRANCH   4   7
ENDBRANCH   2   3
ENDBRANCH   1   2
BRANCH   1  22
ATOM     22  C   UNL A   1      38.978  20.147  25.763  1.00  0.00     0.118 C 
BRANCH  22  23
ATOM     23  N   UNL A   1      40.048  19.158  25.795  1.00  0.00    -0.352 N 
ATOM     24  C   UNL A   1      41.398  19.329  25.949  1.00  0.00     0.251 C 
ATOM     25  H   UNL A   1      39.754  18.224  25.688  1.00  0.00     0.163 HD
ATOM     26  O   UNL A   1      42.163  18.382  25.751  1.00  0.00    -0.269 OA
BRANCH  24  27
ATOM     27  C   UNL A   1      41.946  20.640  26.345  1.00  0.00     0.039 A 
ATOM     28  C   UNL A   1      42.105  20.930  27.703  1.00  0.00     0.014 A 
ATOM     29  C   UNL A   1      42.259  21.600  25.379  1.00  0.00     0.014 A 
ATOM     30  C   UNL A   1      42.625  22.167  28.094  1.00  0.00     0.010 A 
ATOM     31  C   UNL A   1      42.835  22.806  25.764  1.00  0.00     0.010 A 
ATOM     32  C   UNL A   1      43.008  23.105  27.125  1.00  0.00    -0.014 A 
BRANCH  32  33
ATOM     33  C   UNL A   1      43.508  24.449  27.499  1.00  0.00     0.031 A 
ATOM     34  C   UNL A   1      42.523  25.502  27.916  1.00  0.00     0.074 A 
ATOM     35  C   UNL A   1      44.818  24.740  27.401  1.00  0.00     0.049 A 
ATOM     36  N   UNL A   1      42.719  26.772  28.162  1.00  0.00    -0.248 NA
ATOM     37  C   UNL A   1      41.123  25.069  28.056  1.00  0.00     0.031 C 
ATOM     38  C   UNL A   1      45.870  23.802  27.009  1.00  0.00     0.029 A 
ATOM     39  N   UNL A   1      45.482  25.924  27.604  1.00  0.00    -0.354 N 
ATOM     40  C   UNL A   1      41.469  27.289  28.476  1.00  0.00     0.074 A 
ATOM     41  C   UNL A   1      40.515  26.210  28.341  1.00  0.00     0.031 C 
ATOM     42  C   UNL A   1      47.048  24.447  26.999  1.00  0.00     0.029 A 
ATOM     43  C   UNL A   1      46.829  25.850  27.344  1.00  0.00     0.049 A 
ATOM     44  H   UNL A   1      45.037  26.746  27.908  1.00  0.00     0.167 HD
ATOM     45  C   UNL A   1      41.148  28.547  28.863  1.00  0.00     0.037 A 
ATOM     46  C   UNL A   1      47.770  26.813  27.361  1.00  0.00     0.037 A 
ATOM     47  C   UNL A   1      42.099  29.617  28.992  1.00  0.00     0.049 A 
ATOM     48  C   UNL A   1      47.375  28.222  27.720  1.00  0.00     0.074 A 
ATOM     49  C   UNL A   1      41.880  30.922  29.395  1.00  0.00     0.029 A 
ATOM     50  N   UNL A   1      43.453  29.504  28.715  1.00  0.00    -0.354 N 
ATOM     51  N   UNL A   1      46.198  28.692  28.055  1.00  0.00    -0.248 NA
ATOM     52  C   UNL A   1      48.441  29.234  27.701  1.00  0.00     0.031 C 
ATOM     53  C   UNL A   1      43.094  31.612  29.312  1.00  0.00     0.029 A 
ATOM     54  C   UNL A   1      44.078  30.722  28.915  1.00  0.00     0.049 A 
ATOM     55  H   UNL A   1      43.902  28.680  28.419  1.00  0.00     0.167 HD
ATOM     56  C   UNL A   1      46.390  30.041  28.329  1.00  0.00     0.074 A 
ATOM     57  C   UNL A   1      47.797  30.314  28.120  1.00  0.00     0.031 C 
ATOM     58  C   UNL A   1      45.486  30.968  28.726  1.00  0.00     0.037 A 
BRANCH  45  59
ATOM     59  C   UNL A   1      39.702  28.825  29.157  1.00  0.00     0.057 A 
ATOM     60  C   UNL A   1      38.832  29.237  28.140  1.00  0.00     0.134 A 
ATOM     61  C   UNL A   1      39.173  28.693  30.448  1.00  0.00     0.134 A 
ATOM     62  F   UNL A   1      39.274  29.387  26.883  1.00  0.00    -0.206 F 
ATOM     63  C   UNL A   1      37.487  29.503  28.397  1.00  0.00     0.040 A 
ATOM     64  C   UNL A   1      37.823  28.929  30.710  1.00  0.00     0.040 A 
ATOM     65  F   UNL A   1      39.950  28.289  31.464  1.00  0.00    -0.206 F 
ATOM     66  C   UNL A   1      36.976  29.340  29.683  1.00  0.00     0.006 A 
ENDBRANCH  45  59
BRANCH  46  67
ATOM     67  C   UNL A   1      49.183  26.490  27.035  1.00  0.00     0.057 A 
ATOM     68  C   UNL A   1      50.108  26.152  28.031  1.00  0.00     0.134 A 
ATOM     69  C   UNL A   1      49.629  26.474  25.709  1.00  0.00     0.134 A 
ATOM     70  F   UNL A   1      49.744  26.153  29.321  1.00  0.00    -0.206 F 
ATOM     71  C   UNL A   1      51.424  25.806  27.719  1.00  0.00     0.040 A 
ATOM     72  C   UNL A   1      50.935  26.104  25.380  1.00  0.00     0.040 A 
ATOM     73  F   UNL A   1      48.786  26.768  24.709  1.00  0.00    -0.206 F 
ATOM     74  C   UNL A   1      51.838  25.771  26.388  1.00  0.00     0.006 A 
ENDBRANCH  46  67
BRANCH  58  75
ATOM     75  C   UNL A   1      45.993  32.349  29.026  1.00  0.00     0.057 A 
ATOM     76  C   UNL A   1      46.404  32.683  30.324  1.00  0.00     0.134 A 
ATOM     77  C   UNL A   1      46.020  33.361  28.059  1.00  0.00     0.134 A 
ATOM     78  F   UNL A   1      46.395  31.761  31.300  1.00  0.00    -0.206 F 
ATOM     79  C   UNL A   1      46.811  33.976  30.651  1.00  0.00     0.040 A 
ATOM     80  C   UNL A   1      46.452  34.652  28.368  1.00  0.00     0.040 A 
ATOM     81  F   UNL A   1      45.652  33.103  26.795  1.00  0.00    -0.206 F 
ATOM     82  C   UNL A   1      46.839  34.965  29.670  1.00  0.00     0.006 A 
ENDBRANCH  58  75
ENDBRANCH  32  33
ENDBRANCH  24  27
ENDBRANCH  22  23
ENDBRANCH   1  22
TORSDOF 12
ENDMDL
MODEL 2
REMARK VINA RESULT:     -11.9      4.309      9.165
REMARK SMILES C[C@H](Oc1ccnc2c(F)cc(F)cc12)C(=O)NCCCNC(=O)c1ccc(-c2c3nc(c(-c4c(F)cccc4F)c4ccc([nH]4)c(-c4c(F)cccc4F)c4nc(c(-c5c(F)cccc5F)c5ccc2[nH]5)C=C4)C=C3)cc1
REMARK SMILES IDX 20 1 19 2 18 3 16 4 17 5 2 7 1 8 3 9 4 10 5 11 15 12 6 13
REMARK SMILES IDX 8 14 14 15 7 16 9 17 12 18 10 19 11 20 13 21 21 22 22 23
REMARK SMILES IDX 23 24 24 26 25 27 26 28 78 29 27 30 77 31 28 32 29 33 30 34
REMARK SMILES IDX 71 35 31 36 76 37 70 38 72 39 32 40 75 41 69 42 68 43 33 45
REMARK SMILES IDX 59 46 42 47 58 48 43 49 46 50 57 51 73 52 44 53 45 54 56 56
REMARK SMILES IDX 74 57 47 58 34 59 35 60 40 61 36 62 37 63 39 64 41 65 38 66
REMARK SMILES IDX 60 67 61 68 66 69 62 70 63 71 65 72 67 73 64 74 48 75 49 76
REMARK SMILES IDX 54 77 50 78 51 79 53 80 55 81 52 82
REMARK H PARENT 18 6 22 25 72 44 46 55
REMARK Flexibility Score: inf
ROOT
ATOM      1  C   UNL A   1      45.004  20.531  24.075  1.00  0.00     0.042 C 
ENDROOT
BRANCH   1   2
ATOM      2  C   UNL A   1      45.137  22.031  24.304  1.00  0.00     0.118 C 
BRANCH   2   3
ATOM      3  N   UNL A   1      45.883  22.344  25.510  1.00  0.00    -0.353 N 
ATOM      4  C   UNL A   1      46.394  23.535  25.936  1.00  0.00     0.260 C 
ATOM      5  O   UNL A   1      47.024  23.551  26.997  1.00  0.00    -0.271 OA
ATOM      6  H   UNL A   1      46.044  21.581  26.112  1.00  0.00     0.163 HD
BRANCH   4   7
ATOM      7  C   UNL A   1      46.189  24.824  25.124  1.00  0.00     0.258 C 
ATOM      8  C   UNL A   1      47.333  25.057  24.135  1.00  0.00     0.064 C 
BRANCH   7   9
ATOM      9  O   UNL A   1      46.059  25.963  25.975  1.00  0.00    -0.480 OA
BRANCH   9  10
ATOM     10  C   UNL A   1      44.859  26.633  26.031  1.00  0.00     0.131 A 
ATOM     11  C   UNL A   1      43.745  26.329  25.255  1.00  0.00     0.067 A 
ATOM     12  C   UNL A   1      44.798  27.725  26.932  1.00  0.00     0.048 A 
ATOM     13  C   UNL A   1      42.631  27.136  25.366  1.00  0.00     0.115 A 
ATOM     14  C   UNL A   1      43.608  28.488  26.971  1.00  0.00     0.110 A 
ATOM     15  C   UNL A   1      45.864  28.072  27.793  1.00  0.00     0.053 A 
ATOM     16  N   UNL A   1      42.550  28.198  26.189  1.00  0.00    -0.253 NA
ATOM     17  C   UNL A   1      43.550  29.568  27.856  1.00  0.00     0.152 A 
ATOM     18  C   UNL A   1      45.750  29.144  28.669  1.00  0.00     0.127 A 
ATOM     19  F   UNL A   1      42.441  30.327  27.910  1.00  0.00    -0.204 F 
ATOM     20  C   UNL A   1      44.598  29.904  28.706  1.00  0.00     0.080 A 
ATOM     21  F   UNL A   1      46.766  29.440  29.488  1.00  0.00    -0.207 F 
ENDBRANCH   9  10
ENDBRANCH   7   9
ENDBRANCH   4   7
ENDBRANCH   2   3
ENDBRANCH   1   2
BRANCH   1  22
ATOM     22  C   UNL A   1      44.537  19.758  25.302  1.00  0.00     0.118 C 
BRANCH  22  23
ATOM     23  N   UNL A   1      43.138  19.357  25.213  1.00  0.00    -0.352 N 
ATOM     24  C   UNL A   1      42.030  19.897  25.811  1.00  0.00     0.251 C 
ATOM     25  H   UNL A   1      42.964  18.579  24.636  1.00  0.00     0.163 HD
ATOM     26  O   UNL A   1      40.955  19.295  25.769  1.00  0.00    -0.269 OA
BRANCH  24  27
ATOM     27  C   UNL A   1      42.114  21.193  26.512  1.00  0.00     0.039 A 
ATOM     28  C   UNL A   1      42.225  22.367  25.762  1.00  0.00     0.014 A 
ATOM     29  C   UNL A   1      42.131  21.245  27.908  1.00  0.00     0.014 A 
ATOM     30  C   UNL A   1      42.302  23.602  26.411  1.00  0.00     0.010 A 
ATOM     31  C   UNL A   1      42.145  22.477  28.554  1.00  0.00     0.010 A 
ATOM     32  C   UNL A   1      42.247  23.664  27.811  1.00  0.00    -0.014 A 
BRANCH  32  33
ATOM     33  C   UNL A   1      42.385  24.947  28.538  1.00  0.00     0.031 A 
ATOM     34  C   UNL A   1      43.626  25.195  29.347  1.00  0.00     0.074 A 
ATOM     35  C   UNL A   1      41.385  25.848  28.529  1.00  0.00     0.049 A 
ATOM     36  N   UNL A   1      43.905  26.183  30.158  1.00  0.00    -0.248 NA
ATOM     37  C   UNL A   1      44.689  24.183  29.241  1.00  0.00     0.031 C 
ATOM     38  C   UNL A   1      40.134  25.720  27.782  1.00  0.00     0.029 A 
ATOM     39  N   UNL A   1      41.260  27.043  29.192  1.00  0.00    -0.354 N 
ATOM     40  C   UNL A   1      45.168  25.906  30.664  1.00  0.00     0.074 A 
ATOM     41  C   UNL A   1      45.580  24.636  30.109  1.00  0.00     0.031 C 
ATOM     42  C   UNL A   1      39.367  26.794  28.029  1.00  0.00     0.029 A 
ATOM     43  C   UNL A   1      40.053  27.664  28.981  1.00  0.00     0.049 A 
ATOM     44  H   UNL A   1      41.967  27.419  29.763  1.00  0.00     0.167 HD
ATOM     45  C   UNL A   1      45.926  26.654  31.501  1.00  0.00     0.037 A 
ATOM     46  C   UNL A   1      39.555  28.795  29.516  1.00  0.00     0.037 A 
ATOM     47  C   UNL A   1      45.510  27.915  32.053  1.00  0.00     0.049 A 
ATOM     48  C   UNL A   1      40.386  29.571  30.504  1.00  0.00     0.074 A 
ATOM     49  C   UNL A   1      46.210  28.760  32.896  1.00  0.00     0.029 A 
ATOM     50  N   UNL A   1      44.279  28.509  31.820  1.00  0.00    -0.354 N 
ATOM     51  N   UNL A   1      41.595  29.322  30.945  1.00  0.00    -0.248 NA
ATOM     52  C   UNL A   1      39.781  30.785  31.071  1.00  0.00     0.031 C 
ATOM     53  C   UNL A   1      45.382  29.842  33.212  1.00  0.00     0.029 A 
ATOM     54  C   UNL A   1      44.189  29.698  32.521  1.00  0.00     0.049 A 
ATOM     55  H   UNL A   1      43.574  28.138  31.242  1.00  0.00     0.167 HD
ATOM     56  C   UNL A   1      41.912  30.368  31.803  1.00  0.00     0.074 A 
ATOM     57  C   UNL A   1      40.766  31.255  31.822  1.00  0.00     0.031 C 
ATOM     58  C   UNL A   1      43.050  30.581  32.506  1.00  0.00     0.037 A 
BRANCH  45  59
ATOM     59  C   UNL A   1      47.274  26.110  31.875  1.00  0.00     0.057 A 
ATOM     60  C   UNL A   1      47.451  25.392  33.064  1.00  0.00     0.134 A 
ATOM     61  C   UNL A   1      48.399  26.304  31.063  1.00  0.00     0.134 A 
ATOM     62  F   UNL A   1      46.417  25.173  33.890  1.00  0.00    -0.206 F 
ATOM     63  C   UNL A   1      48.697  24.882  33.429  1.00  0.00     0.040 A 
ATOM     64  C   UNL A   1      49.644  25.774  31.403  1.00  0.00     0.040 A 
ATOM     65  F   UNL A   1      48.295  26.971  29.903  1.00  0.00    -0.206 F 
ATOM     66  C   UNL A   1      49.798  25.064  32.593  1.00  0.00     0.006 A 
ENDBRANCH  45  59
BRANCH  46  67
ATOM     67  C   UNL A   1      38.203  29.276  29.133  1.00  0.00     0.057 A 
ATOM     68  C   UNL A   1      37.938  29.780  27.853  1.00  0.00     0.134 A 
ATOM     69  C   UNL A   1      37.131  29.202  30.030  1.00  0.00     0.134 A 
ATOM     70  F   UNL A   1      38.922  29.882  26.948  1.00  0.00    -0.206 F 
ATOM     71  C   UNL A   1      36.657  30.191  27.480  1.00  0.00     0.040 A 
ATOM     72  C   UNL A   1      35.840  29.584  29.662  1.00  0.00     0.040 A 
ATOM     73  F   UNL A   1      37.317  28.708  31.263  1.00  0.00    -0.206 F 
ATOM     74  C   UNL A   1      35.601  30.083  28.383  1.00  0.00     0.006 A 
ENDBRANCH  46  67
BRANCH  58  75
ATOM     75  C   UNL A   1      43.147  31.849  33.303  1.00  0.00     0.057 A 
ATOM     76  C   UNL A   1      43.736  32.991  32.743  1.00  0.00     0.134 A 
ATOM     77  C   UNL A   1      42.719  31.929  34.634  1.00  0.00     0.134 A 
ATOM     78  F   UNL A   1      44.175  32.979  31.475  1.00  0.00    -0.206 F 
ATOM     79  C   UNL A   1      43.907  34.162  33.482  1.00  0.00     0.040 A 
ATOM     80  C   UNL A   1      42.859  33.104  35.375  1.00  0.00     0.040 A 
ATOM     81  F   UNL A   1      42.135  30.875  35.225  1.00  0.00    -0.206 F 
ATOM     82  C   UNL A   1      43.464  34.221  34.802  1.00  0.00     0.006 A 
ENDBRANCH  58  75
ENDBRANCH  32  33
ENDBRANCH  24  27
ENDBRANCH  22  23
ENDBRANCH   1  22
TORSDOF 12
ENDMDL
MODEL 3
REMARK VINA RESULT:     -11.8      5.655     10.492
REMARK SMILES C[C@H](Oc1ccnc2c(F)cc(F)cc12)C(=O)NCCCNC(=O)c1ccc(-c2c3nc(c(-c4c(F)cccc4F)c4ccc([nH]4)c(-c4c(F)cccc4F)c4nc(c(-c5c(F)cccc5F)c5ccc2[nH]5)C=C4)C=C3)cc1
REMARK SMILES IDX 20 1 19 2 18 3 16 4 17 5 2 7 1 8 3 9 4 10 5 11 15 12 6 13
REMARK SMILES IDX 8 14 14 15 7 16 9 17 12 18 10 19 11 20 13 21 21 22 22 23
REMARK SMILES IDX 23 24 24 26 25 27 26 28 78 29 27 30 77 31 28 32 29 33 30 34
REMARK SMILES IDX 71 35 31 36 76 37 70 38 72 39 32 40 75 41 69 42 68 43 33 45
REMARK SMILES IDX 59 46 42 47 58 48 43 49 46 50 57 51 73 52 44 53 45 54 56 56
REMARK SMILES IDX 74 57 47 58 34 59 35 60 40 61 36 62 37 63 39 64 41 65 38 66
REMARK SMILES IDX 60 67 61 68 66 69 62 70 63 71 65 72 67 73 64 74 48 75 49 76
REMARK SMILES IDX 54 77 50 78 51 79 53 80 55 81 52 82
REMARK H PARENT 18 6 22 25 72 44 46 55
REMARK Flexibility Score: inf
ROOT
ATOM      1  C   UNL A   1      31.426  32.265  26.813  1.00  0.00     0.042 C 
ENDROOT
BRANCH   1   2
ATOM      2  C   UNL A   1      31.644  30.791  26.496  1.00  0.00     0.118 C 
BRANCH   2   3
ATOM      3  N   UNL A   1      32.909  30.294  27.008  1.00  0.00    -0.353 N 
ATOM      4  C   UNL A   1      33.479  29.061  26.877  1.00  0.00     0.260 C 
ATOM      5  O   UNL A   1      34.563  28.861  27.430  1.00  0.00    -0.271 OA
ATOM      6  H   UNL A   1      33.435  30.945  27.527  1.00  0.00     0.163 HD
BRANCH   4   7
ATOM      7  C   UNL A   1      32.797  27.953  26.059  1.00  0.00     0.258 C 
ATOM      8  C   UNL A   1      31.736  27.216  26.880  1.00  0.00     0.064 C 
BRANCH   7   9
ATOM      9  O   UNL A   1      33.747  27.011  25.560  1.00  0.00    -0.480 OA
BRANCH   9  10
ATOM     10  C   UNL A   1      33.688  26.624  24.242  1.00  0.00     0.131 A 
ATOM     11  C   UNL A   1      33.647  27.499  23.161  1.00  0.00     0.067 A 
ATOM     12  C   UNL A   1      33.637  25.228  24.004  1.00  0.00     0.048 A 
ATOM     13  C   UNL A   1      33.515  26.967  21.894  1.00  0.00     0.115 A 
ATOM     14  C   UNL A   1      33.504  24.786  22.668  1.00  0.00     0.110 A 
ATOM     15  C   UNL A   1      33.725  24.269  25.039  1.00  0.00     0.053 A 
ATOM     16  N   UNL A   1      33.434  25.648  21.636  1.00  0.00    -0.253 NA
ATOM     17  C   UNL A   1      33.449  23.408  22.435  1.00  0.00     0.152 A 
ATOM     18  C   UNL A   1      33.684  22.910  24.754  1.00  0.00     0.127 A 
ATOM     19  F   UNL A   1      33.307  22.950  21.179  1.00  0.00    -0.204 F 
ATOM     20  C   UNL A   1      33.541  22.467  23.454  1.00  0.00     0.080 A 
ATOM     21  F   UNL A   1      33.789  22.022  25.749  1.00  0.00    -0.207 F 
ENDBRANCH   9  10
ENDBRANCH   7   9
ENDBRANCH   4   7
ENDBRANCH   2   3
ENDBRANCH   1   2
BRANCH   1  22
ATOM     22  C   UNL A   1      32.708  33.022  27.141  1.00  0.00     0.118 C 
BRANCH  22  23
ATOM     23  N   UNL A   1      32.452  34.362  27.653  1.00  0.00    -0.352 N 
ATOM     24  C   UNL A   1      33.012  35.017  28.718  1.00  0.00     0.251 C 
ATOM     25  H   UNL A   1      31.772  34.873  27.158  1.00  0.00     0.163 HD
ATOM     26  O   UNL A   1      32.521  36.076  29.114  1.00  0.00    -0.269 OA
BRANCH  24  27
ATOM     27  C   UNL A   1      34.196  34.461  29.401  1.00  0.00     0.039 A 
ATOM     28  C   UNL A   1      35.460  34.655  28.839  1.00  0.00     0.014 A 
ATOM     29  C   UNL A   1      34.053  33.708  30.570  1.00  0.00     0.014 A 
ATOM     30  C   UNL A   1      36.591  34.137  29.476  1.00  0.00     0.010 A 
ATOM     31  C   UNL A   1      35.182  33.245  31.237  1.00  0.00     0.010 A 
ATOM     32  C   UNL A   1      36.459  33.443  30.687  1.00  0.00    -0.014 A 
BRANCH  32  33
ATOM     33  C   UNL A   1      37.626  32.828  31.362  1.00  0.00     0.031 A 
ATOM     34  C   UNL A   1      38.281  31.631  30.735  1.00  0.00     0.074 A 
ATOM     35  C   UNL A   1      38.048  33.293  32.551  1.00  0.00     0.049 A 
ATOM     36  N   UNL A   1      39.227  30.860  31.207  1.00  0.00    -0.248 NA
ATOM     37  C   UNL A   1      37.790  31.238  29.405  1.00  0.00     0.031 C 
ATOM     38  C   UNL A   1      37.493  34.447  33.258  1.00  0.00     0.029 A 
ATOM     39  N   UNL A   1      39.035  32.830  33.386  1.00  0.00    -0.354 N 
ATOM     40  C   UNL A   1      39.437  29.889  30.237  1.00  0.00     0.074 A 
ATOM     41  C   UNL A   1      38.488  30.137  29.174  1.00  0.00     0.031 C 
ATOM     42  C   UNL A   1      38.147  34.603  34.421  1.00  0.00     0.029 A 
ATOM     43  C   UNL A   1      39.137  33.537  34.560  1.00  0.00     0.049 A 
ATOM     44  H   UNL A   1      39.613  32.066  33.165  1.00  0.00     0.167 HD
ATOM     45  C   UNL A   1      40.353  28.892  30.224  1.00  0.00     0.037 A 
ATOM     46  C   UNL A   1      39.926  33.329  35.631  1.00  0.00     0.037 A 
ATOM     47  C   UNL A   1      41.293  28.648  31.284  1.00  0.00     0.049 A 
ATOM     48  C   UNL A   1      40.884  32.167  35.626  1.00  0.00     0.074 A 
ATOM     49  C   UNL A   1      42.274  27.676  31.361  1.00  0.00     0.029 A 
ATOM     50  N   UNL A   1      41.362  29.382  32.459  1.00  0.00    -0.354 N 
ATOM     51  N   UNL A   1      41.104  31.279  34.687  1.00  0.00    -0.248 NA
ATOM     52  C   UNL A   1      41.703  31.978  36.831  1.00  0.00     0.031 C 
ATOM     53  C   UNL A   1      42.904  27.791  32.604  1.00  0.00     0.029 A 
ATOM     54  C   UNL A   1      42.354  28.870  33.277  1.00  0.00     0.049 A 
ATOM     55  H   UNL A   1      40.789  30.152  32.678  1.00  0.00     0.167 HD
ATOM     56  C   UNL A   1      42.115  30.456  35.169  1.00  0.00     0.074 A 
ATOM     57  C   UNL A   1      42.464  30.949  36.485  1.00  0.00     0.031 C 
ATOM     58  C   UNL A   1      42.705  29.392  34.573  1.00  0.00     0.037 A 
BRANCH  45  59
ATOM     59  C   UNL A   1      40.364  27.988  29.026  1.00  0.00     0.057 A 
ATOM     60  C   UNL A   1      41.114  28.315  27.889  1.00  0.00     0.134 A 
ATOM     61  C   UNL A   1      39.627  26.797  28.993  1.00  0.00     0.134 A 
ATOM     62  F   UNL A   1      41.840  29.442  27.851  1.00  0.00    -0.206 F 
ATOM     63  C   UNL A   1      41.133  27.488  26.765  1.00  0.00     0.040 A 
ATOM     64  C   UNL A   1      39.661  25.948  27.887  1.00  0.00     0.040 A 
ATOM     65  F   UNL A   1      38.899  26.418  30.055  1.00  0.00    -0.206 F 
ATOM     66  C   UNL A   1      40.412  26.295  26.765  1.00  0.00     0.006 A 
ENDBRANCH  45  59
BRANCH  46  67
ATOM     67  C   UNL A   1      39.856  34.238  36.804  1.00  0.00     0.057 A 
ATOM     68  C   UNL A   1      40.595  35.427  36.857  1.00  0.00     0.134 A 
ATOM     69  C   UNL A   1      39.012  33.956  37.884  1.00  0.00     0.134 A 
ATOM     70  F   UNL A   1      41.425  35.753  35.857  1.00  0.00    -0.206 F 
ATOM     71  C   UNL A   1      40.495  36.302  37.940  1.00  0.00     0.040 A 
ATOM     72  C   UNL A   1      38.882  34.834  38.962  1.00  0.00     0.040 A 
ATOM     73  F   UNL A   1      38.263  32.844  37.883  1.00  0.00    -0.206 F 
ATOM     74  C   UNL A   1      39.628  36.011  38.992  1.00  0.00     0.006 A 
ENDBRANCH  46  67
BRANCH  58  75
ATOM     75  C   UNL A   1      43.836  28.727  35.303  1.00  0.00     0.057 A 
ATOM     76  C   UNL A   1      43.573  27.732  36.254  1.00  0.00     0.134 A 
ATOM     77  C   UNL A   1      45.170  29.108  35.117  1.00  0.00     0.134 A 
ATOM     78  F   UNL A   1      42.315  27.327  36.487  1.00  0.00    -0.206 F 
ATOM     79  C   UNL A   1      44.595  27.147  37.001  1.00  0.00     0.040 A 
ATOM     80  C   UNL A   1      46.205  28.510  35.839  1.00  0.00     0.040 A 
ATOM     81  F   UNL A   1      45.491  30.045  34.212  1.00  0.00    -0.206 F 
ATOM     82  C   UNL A   1      45.918  27.535  36.792  1.00  0.00     0.006 A 
ENDBRANCH  58  75
ENDBRANCH  32  33
ENDBRANCH  24  27
ENDBRANCH  22  23
ENDBRANCH   1  22
TORSDOF 12
ENDMDL
