MODEL 1
REMARK VINA RESULT:     -11.9      0.000      0.000
REMARK SMILES CN1C(=O)CC[C@H]([NH2+]Cc2ccc(C(=O)NCCCNC(=O)c3ccc(-c4c5nc(c(-c6c(F)cccc6F)c6ccc([nH]6)c(-c6c(F)cccc6F)c6nc(c(-c7c(F)cccc7F)c7ccc4[nH]7)C=C6)C=C5)cc3)cn2)C1=O
REMARK SMILES IDX 17 1 16 2 14 3 15 4 13 6 10 7 11 8 78 9 12 10 77 11 9 12
REMARK SMILES IDX 8 13 7 16 1 17 2 18 3 19 79 20 4 21 5 22 80 23 6 24 18 25
REMARK SMILES IDX 19 26 20 27 21 28 22 30 23 31 24 32 76 33 25 34 75 35 26 36
REMARK SMILES IDX 27 37 28 38 69 39 29 40 74 41 68 42 70 43 30 44 73 45 67 46
REMARK SMILES IDX 66 47 31 49 57 50 40 51 56 52 41 53 44 54 55 55 71 56 42 57
REMARK SMILES IDX 43 58 54 60 72 61 45 62 32 63 33 64 38 65 34 66 35 67 37 68
REMARK SMILES IDX 39 69 36 70 58 71 59 72 64 73 60 74 61 75 63 76 65 77 62 78
REMARK SMILES IDX 46 79 47 80 52 81 48 82 49 83 51 84 53 85 50 86
REMARK H PARENT 16 5 8 14 8 15 20 29 70 48 44 59
REMARK Flexibility Score: inf
ROOT
ATOM      1  C   UNL A   1      36.042  20.241  25.001  1.00  0.00     0.118 C 
ENDROOT
BRANCH   1   2
ATOM      2  N   UNL A   1      34.997  19.234  25.006  1.00  0.00    -0.352 N 
ATOM      3  C   UNL A   1      33.651  19.304  24.756  1.00  0.00     0.252 C 
ATOM      4  O   UNL A   1      33.023  18.246  24.729  1.00  0.00    -0.269 OA
ATOM      5  H   UNL A   1      35.315  18.329  25.232  1.00  0.00     0.163 HD
BRANCH   3   6
ATOM      6  C   UNL A   1      32.927  20.571  24.498  1.00  0.00     0.058 A 
ATOM      7  C   UNL A   1      31.479  22.819  23.751  1.00  0.00     0.094 A 
ATOM      8  C   UNL A   1      31.843  22.651  25.084  1.00  0.00     0.030 A 
ATOM      9  N   UNL A   1      31.802  21.906  22.803  1.00  0.00    -0.255 NA
ATOM     10  C   UNL A   1      32.555  21.508  25.458  1.00  0.00     0.017 A 
ATOM     11  C   UNL A   1      32.512  20.816  23.193  1.00  0.00     0.125 A 
BRANCH   7  12
ATOM     12  C   UNL A   1      30.621  24.005  23.336  1.00  0.00     0.318 C 
BRANCH  12  13
ATOM     13  N   UNL A   1      30.279  24.882  24.465  1.00  0.00    -0.331 N 
ATOM     14  H   UNL A   1      29.291  25.125  24.390  1.00  0.00     0.347 HD
ATOM     15  H   UNL A   1      30.501  24.361  25.312  1.00  0.00     0.347 HD
BRANCH  13  16
ATOM     16  C   UNL A   1      31.057  26.136  24.533  1.00  0.00     0.274 C 
ATOM     17  C   UNL A   1      31.720  28.365  27.587  1.00  0.00     0.156 C 
ATOM     18  N   UNL A   1      31.481  27.928  26.222  1.00  0.00    -0.281 N 
ATOM     19  C   UNL A   1      31.444  28.933  25.257  1.00  0.00     0.229 C 
ATOM     20  C   UNL A   1      31.352  26.558  25.985  1.00  0.00     0.287 C 
ATOM     21  O   UNL A   1      31.588  30.127  25.523  1.00  0.00    -0.274 OA
ATOM     22  C   UNL A   1      31.301  28.487  23.823  1.00  0.00     0.107 C 
ATOM     23  O   UNL A   1      31.504  25.707  26.867  1.00  0.00    -0.267 OA
ATOM     24  C   UNL A   1      30.419  27.260  23.726  1.00  0.00     0.085 C 
ENDBRANCH  13  16
ENDBRANCH  12  13
ENDBRANCH   7  12
ENDBRANCH   3   6
ENDBRANCH   1   2
BRANCH   1  25
ATOM     25  C   UNL A   1      37.409  19.633  24.690  1.00  0.00     0.042 C 
BRANCH  25  26
ATOM     26  C   UNL A   1      38.553  20.244  25.495  1.00  0.00     0.118 C 
BRANCH  26  27
ATOM     27  N   UNL A   1      39.661  19.317  25.661  1.00  0.00    -0.352 N 
ATOM     28  C   UNL A   1      40.960  19.543  26.045  1.00  0.00     0.251 C 
ATOM     29  H   UNL A   1      39.446  18.376  25.468  1.00  0.00     0.163 HD
ATOM     30  O   UNL A   1      41.790  18.649  25.908  1.00  0.00    -0.269 OA
BRANCH  28  31
ATOM     31  C   UNL A   1      41.375  20.846  26.612  1.00  0.00     0.039 A 
ATOM     32  C   UNL A   1      41.849  21.832  25.739  1.00  0.00     0.014 A 
ATOM     33  C   UNL A   1      41.370  21.080  27.989  1.00  0.00     0.014 A 
ATOM     34  C   UNL A   1      42.275  23.064  26.243  1.00  0.00     0.010 A 
ATOM     35  C   UNL A   1      41.732  22.332  28.485  1.00  0.00     0.010 A 
ATOM     36  C   UNL A   1      42.198  23.332  27.618  1.00  0.00    -0.014 A 
BRANCH  36  37
ATOM     37  C   UNL A   1      42.606  24.650  28.165  1.00  0.00     0.031 A 
ATOM     38  C   UNL A   1      41.582  25.726  28.401  1.00  0.00     0.074 A 
ATOM     39  C   UNL A   1      43.911  24.903  28.380  1.00  0.00     0.049 A 
ATOM     40  N   UNL A   1      41.756  26.956  28.813  1.00  0.00    -0.248 NA
ATOM     41  C   UNL A   1      40.183  25.382  28.106  1.00  0.00     0.031 C 
ATOM     42  C   UNL A   1      45.004  23.963  28.130  1.00  0.00     0.029 A 
ATOM     43  N   UNL A   1      44.537  26.033  28.841  1.00  0.00    -0.354 N 
ATOM     44  C   UNL A   1      40.496  27.540  28.800  1.00  0.00     0.074 A 
ATOM     45  C   UNL A   1      39.574  26.543  28.301  1.00  0.00     0.031 C 
ATOM     46  C   UNL A   1      46.168  24.552  28.447  1.00  0.00     0.029 A 
ATOM     47  C   UNL A   1      45.906  25.916  28.895  1.00  0.00     0.049 A 
ATOM     48  H   UNL A   1      44.055  26.848  29.105  1.00  0.00     0.167 HD
ATOM     49  C   UNL A   1      40.137  28.789  29.185  1.00  0.00     0.037 A 
ATOM     50  C   UNL A   1      46.843  26.810  29.259  1.00  0.00     0.037 A 
ATOM     51  C   UNL A   1      41.052  29.768  29.713  1.00  0.00     0.049 A 
ATOM     52  C   UNL A   1      46.421  28.175  29.721  1.00  0.00     0.074 A 
ATOM     53  C   UNL A   1      40.774  31.025  30.221  1.00  0.00     0.029 A 
ATOM     54  N   UNL A   1      42.427  29.598  29.796  1.00  0.00    -0.354 N 
ATOM     55  N   UNL A   1      45.215  28.685  29.789  1.00  0.00    -0.248 NA
ATOM     56  C   UNL A   1      47.485  29.084  30.168  1.00  0.00     0.031 C 
ATOM     57  C   UNL A   1      41.985  31.631  30.573  1.00  0.00     0.029 A 
ATOM     58  C   UNL A   1      43.014  30.737  30.323  1.00  0.00     0.049 A 
ATOM     59  H   UNL A   1      42.912  28.787  29.521  1.00  0.00     0.167 HD
ATOM     60  C   UNL A   1      45.372  29.967  30.300  1.00  0.00     0.074 A 
ATOM     61  C   UNL A   1      46.789  30.149  30.539  1.00  0.00     0.031 C 
ATOM     62  C   UNL A   1      44.427  30.907  30.547  1.00  0.00     0.037 A 
BRANCH  49  63
ATOM     63  C   UNL A   1      38.691  29.166  29.040  1.00  0.00     0.057 A 
ATOM     64  C   UNL A   1      37.793  29.094  30.113  1.00  0.00     0.134 A 
ATOM     65  C   UNL A   1      38.193  29.622  27.812  1.00  0.00     0.134 A 
ATOM     66  F   UNL A   1      38.203  28.657  31.313  1.00  0.00    -0.206 F 
ATOM     67  C   UNL A   1      36.446  29.427  29.963  1.00  0.00     0.040 A 
ATOM     68  C   UNL A   1      36.853  29.983  27.656  1.00  0.00     0.040 A 
ATOM     69  F   UNL A   1      38.999  29.724  26.745  1.00  0.00    -0.206 F 
ATOM     70  C   UNL A   1      35.974  29.876  28.731  1.00  0.00     0.006 A 
ENDBRANCH  49  63
BRANCH  50  71
ATOM     71  C   UNL A   1      48.274  26.422  29.221  1.00  0.00     0.057 A 
ATOM     72  C   UNL A   1      49.072  26.718  28.111  1.00  0.00     0.134 A 
ATOM     73  C   UNL A   1      48.885  25.783  30.306  1.00  0.00     0.134 A 
ATOM     74  F   UNL A   1      48.538  27.317  27.036  1.00  0.00    -0.206 F 
ATOM     75  C   UNL A   1      50.427  26.384  28.076  1.00  0.00     0.040 A 
ATOM     76  C   UNL A   1      50.243  25.461  30.294  1.00  0.00     0.040 A 
ATOM     77  F   UNL A   1      48.175  25.483  31.403  1.00  0.00    -0.206 F 
ATOM     78  C   UNL A   1      51.017  25.760  29.174  1.00  0.00     0.006 A 
ENDBRANCH  50  71
BRANCH  62  79
ATOM     79  C   UNL A   1      44.896  32.213  31.116  1.00  0.00     0.057 A 
ATOM     80  C   UNL A   1      45.228  33.297  30.293  1.00  0.00     0.134 A 
ATOM     81  C   UNL A   1      44.982  32.400  32.501  1.00  0.00     0.134 A 
ATOM     82  F   UNL A   1      45.180  33.177  28.958  1.00  0.00    -0.206 F 
ATOM     83  C   UNL A   1      45.649  34.515  30.828  1.00  0.00     0.040 A 
ATOM     84  C   UNL A   1      45.379  33.620  33.048  1.00  0.00     0.040 A 
ATOM     85  F   UNL A   1      44.671  31.403  33.343  1.00  0.00    -0.206 F 
ATOM     86  C   UNL A   1      45.719  34.681  32.211  1.00  0.00     0.006 A 
ENDBRANCH  62  79
ENDBRANCH  36  37
ENDBRANCH  28  31
ENDBRANCH  26  27
ENDBRANCH  25  26
ENDBRANCH   1  25
TORSDOF 13
ENDMDL
MODEL 2
REMARK VINA RESULT:     -11.8      1.690      6.635
REMARK SMILES CN1C(=O)CC[C@H]([NH2+]Cc2ccc(C(=O)NCCCNC(=O)c3ccc(-c4c5nc(c(-c6c(F)cccc6F)c6ccc([nH]6)c(-c6c(F)cccc6F)c6nc(c(-c7c(F)cccc7F)c7ccc4[nH]7)C=C6)C=C5)cc3)cn2)C1=O
REMARK SMILES IDX 17 1 16 2 14 3 15 4 13 6 10 7 11 8 78 9 12 10 77 11 9 12
REMARK SMILES IDX 8 13 7 16 1 17 2 18 3 19 79 20 4 21 5 22 80 23 6 24 18 25
REMARK SMILES IDX 19 26 20 27 21 28 22 30 23 31 24 32 76 33 25 34 75 35 26 36
REMARK SMILES IDX 27 37 28 38 69 39 29 40 74 41 68 42 70 43 30 44 73 45 67 46
REMARK SMILES IDX 66 47 31 49 57 50 40 51 56 52 41 53 44 54 55 55 71 56 42 57
REMARK SMILES IDX 43 58 54 60 72 61 45 62 32 63 33 64 38 65 34 66 35 67 37 68
REMARK SMILES IDX 39 69 36 70 58 71 59 72 64 73 60 74 61 75 63 76 65 77 62 78
REMARK SMILES IDX 46 79 47 80 52 81 48 82 49 83 51 84 53 85 50 86
REMARK H PARENT 16 5 8 14 8 15 20 29 70 48 44 59
REMARK Flexibility Score: inf
ROOT
ATOM      1  C   UNL A   1      37.399  20.560  24.779  1.00  0.00     0.118 C 
ENDROOT
BRANCH   1   2
ATOM      2  N   UNL A   1      37.890  21.872  25.157  1.00  0.00    -0.352 N 
ATOM      3  C   UNL A   1      37.280  23.098  25.222  1.00  0.00     0.252 C 
ATOM      4  O   UNL A   1      37.932  24.031  25.690  1.00  0.00    -0.269 OA
ATOM      5  H   UNL A   1      38.841  21.885  25.413  1.00  0.00     0.163 HD
BRANCH   3   6
ATOM      6  C   UNL A   1      35.886  23.348  24.787  1.00  0.00     0.058 A 
ATOM      7  C   UNL A   1      33.351  23.684  23.707  1.00  0.00     0.094 A 
ATOM      8  C   UNL A   1      33.523  23.766  25.086  1.00  0.00     0.030 A 
ATOM      9  N   UNL A   1      34.387  23.432  22.872  1.00  0.00    -0.255 NA
ATOM     10  C   UNL A   1      34.799  23.576  25.626  1.00  0.00     0.017 A 
ATOM     11  C   UNL A   1      35.618  23.273  23.425  1.00  0.00     0.125 A 
BRANCH   7  12
ATOM     12  C   UNL A   1      31.958  23.791  23.103  1.00  0.00     0.318 C 
BRANCH  12  13
ATOM     13  N   UNL A   1      31.925  24.622  21.891  1.00  0.00    -0.331 N 
ATOM     14  H   UNL A   1      32.852  24.601  21.466  1.00  0.00     0.347 HD
ATOM     15  H   UNL A   1      31.199  24.229  21.293  1.00  0.00     0.347 HD
BRANCH  13  16
ATOM     16  C   UNL A   1      31.556  26.034  22.119  1.00  0.00     0.274 C 
ATOM     17  C   UNL A   1      33.832  28.958  23.125  1.00  0.00     0.156 C 
ATOM     18  N   UNL A   1      32.674  28.090  22.996  1.00  0.00    -0.281 N 
ATOM     19  C   UNL A   1      31.521  28.509  23.660  1.00  0.00     0.229 C 
ATOM     20  C   UNL A   1      32.792  26.951  22.197  1.00  0.00     0.287 C 
ATOM     21  O   UNL A   1      31.469  29.538  24.333  1.00  0.00    -0.274 OA
ATOM     22  C   UNL A   1      30.281  27.675  23.450  1.00  0.00     0.107 C 
ATOM     23  O   UNL A   1      33.808  26.692  21.545  1.00  0.00    -0.267 OA
ATOM     24  C   UNL A   1      30.635  26.208  23.319  1.00  0.00     0.085 C 
ENDBRANCH  13  16
ENDBRANCH  12  13
ENDBRANCH   7  12
ENDBRANCH   3   6
ENDBRANCH   1   2
BRANCH   1  25
ATOM     25  C   UNL A   1      38.487  19.494  24.906  1.00  0.00     0.042 C 
BRANCH  25  26
ATOM     26  C   UNL A   1      39.426  19.710  26.090  1.00  0.00     0.118 C 
BRANCH  26  27
ATOM     27  N   UNL A   1      40.716  19.070  25.890  1.00  0.00    -0.352 N 
ATOM     28  C   UNL A   1      41.984  19.596  25.917  1.00  0.00     0.251 C 
ATOM     29  H   UNL A   1      40.675  18.104  25.705  1.00  0.00     0.163 HD
ATOM     30  O   UNL A   1      42.922  18.921  25.504  1.00  0.00    -0.269 OA
BRANCH  28  31
ATOM     31  C   UNL A   1      42.235  20.963  26.428  1.00  0.00     0.039 A 
ATOM     32  C   UNL A   1      42.135  21.189  27.805  1.00  0.00     0.014 A 
ATOM     33  C   UNL A   1      42.497  22.030  25.565  1.00  0.00     0.014 A 
ATOM     34  C   UNL A   1      42.339  22.473  28.319  1.00  0.00     0.010 A 
ATOM     35  C   UNL A   1      42.766  23.296  26.084  1.00  0.00     0.010 A 
ATOM     36  C   UNL A   1      42.679  23.532  27.464  1.00  0.00    -0.014 A 
BRANCH  36  37
ATOM     37  C   UNL A   1      42.941  24.892  27.998  1.00  0.00     0.031 A 
ATOM     38  C   UNL A   1      44.326  25.286  28.431  1.00  0.00     0.074 A 
ATOM     39  C   UNL A   1      41.915  25.749  28.160  1.00  0.00     0.049 A 
ATOM     40  N   UNL A   1      44.735  26.402  28.978  1.00  0.00    -0.248 NA
ATOM     41  C   UNL A   1      45.384  24.279  28.256  1.00  0.00     0.031 C 
ATOM     42  C   UNL A   1      40.518  25.462  27.836  1.00  0.00     0.029 A 
ATOM     43  N   UNL A   1      41.890  27.028  28.655  1.00  0.00    -0.354 N 
ATOM     44  C   UNL A   1      46.088  26.223  29.236  1.00  0.00     0.074 A 
ATOM     45  C   UNL A   1      46.421  24.877  28.824  1.00  0.00     0.031 C 
ATOM     46  C   UNL A   1      39.770  26.537  28.134  1.00  0.00     0.029 A 
ATOM     47  C   UNL A   1      40.630  27.575  28.694  1.00  0.00     0.049 A 
ATOM     48  H   UNL A   1      42.695  27.507  28.955  1.00  0.00     0.167 HD
ATOM     49  C   UNL A   1      46.976  27.107  29.753  1.00  0.00     0.037 A 
ATOM     50  C   UNL A   1      40.214  28.776  29.136  1.00  0.00     0.037 A 
ATOM     51  C   UNL A   1      46.648  28.457  30.131  1.00  0.00     0.049 A 
ATOM     52  C   UNL A   1      41.220  29.755  29.668  1.00  0.00     0.074 A 
ATOM     53  C   UNL A   1      47.493  29.459  30.573  1.00  0.00     0.029 A 
ATOM     54  N   UNL A   1      45.368  28.992  30.113  1.00  0.00    -0.354 N 
ATOM     55  N   UNL A   1      42.513  29.605  29.823  1.00  0.00    -0.248 NA
ATOM     56  C   UNL A   1      40.714  31.072  30.075  1.00  0.00     0.031 C 
ATOM     57  C   UNL A   1      46.718  30.588  30.863  1.00  0.00     0.029 A 
ATOM     58  C   UNL A   1      45.396  30.302  30.562  1.00  0.00     0.049 A 
ATOM     59  H   UNL A   1      44.559  28.510  29.824  1.00  0.00     0.167 HD
ATOM     60  C   UNL A   1      42.979  30.811  30.331  1.00  0.00     0.074 A 
ATOM     61  C   UNL A   1      41.831  31.687  30.441  1.00  0.00     0.031 C 
ATOM     62  C   UNL A   1      44.243  31.159  30.674  1.00  0.00     0.037 A 
BRANCH  49  63
ATOM     63  C   UNL A   1      48.387  26.632  29.948  1.00  0.00     0.057 A 
ATOM     64  C   UNL A   1      49.381  26.840  28.982  1.00  0.00     0.134 A 
ATOM     65  C   UNL A   1      48.761  25.969  31.124  1.00  0.00     0.134 A 
ATOM     66  F   UNL A   1      49.087  27.460  27.829  1.00  0.00    -0.206 F 
ATOM     67  C   UNL A   1      50.685  26.376  29.163  1.00  0.00     0.040 A 
ATOM     68  C   UNL A   1      50.068  25.523  31.328  1.00  0.00     0.040 A 
ATOM     69  F   UNL A   1      47.861  25.742  32.094  1.00  0.00    -0.206 F 
ATOM     70  C   UNL A   1      51.032  25.718  30.341  1.00  0.00     0.006 A 
ENDBRANCH  49  63
BRANCH  50  71
ATOM     71  C   UNL A   1      38.773  29.119  29.068  1.00  0.00     0.057 A 
ATOM     72  C   UNL A   1      37.954  29.026  30.198  1.00  0.00     0.134 A 
ATOM     73  C   UNL A   1      38.190  29.582  27.882  1.00  0.00     0.134 A 
ATOM     74  F   UNL A   1      38.454  28.575  31.358  1.00  0.00    -0.206 F 
ATOM     75  C   UNL A   1      36.603  29.374  30.152  1.00  0.00     0.040 A 
ATOM     76  C   UNL A   1      36.846  29.953  27.826  1.00  0.00     0.040 A 
ATOM     77  F   UNL A   1      38.925  29.702  26.768  1.00  0.00    -0.206 F 
ATOM     78  C   UNL A   1      36.047  29.846  28.964  1.00  0.00     0.006 A 
ENDBRANCH  50  71
BRANCH  62  79
ATOM     79  C   UNL A   1      44.450  32.552  31.191  1.00  0.00     0.057 A 
ATOM     80  C   UNL A   1      44.416  32.842  32.561  1.00  0.00     0.134 A 
ATOM     81  C   UNL A   1      44.722  33.608  30.312  1.00  0.00     0.134 A 
ATOM     82  F   UNL A   1      44.146  31.877  33.453  1.00  0.00    -0.206 F 
ATOM     83  C   UNL A   1      44.625  34.136  33.037  1.00  0.00     0.040 A 
ATOM     84  C   UNL A   1      44.957  34.901  30.777  1.00  0.00     0.040 A 
ATOM     85  F   UNL A   1      44.777  33.395  28.988  1.00  0.00    -0.206 F 
ATOM     86  C   UNL A   1      44.904  35.170  32.144  1.00  0.00     0.006 A 
ENDBRANCH  62  79
ENDBRANCH  36  37
ENDBRANCH  28  31
ENDBRANCH  26  27
ENDBRANCH  25  26
ENDBRANCH   1  25
TORSDOF 13
ENDMDL
MODEL 3
REMARK VINA RESULT:     -11.7      2.066      2.902
REMARK SMILES CN1C(=O)CC[C@H]([NH2+]Cc2ccc(C(=O)NCCCNC(=O)c3ccc(-c4c5nc(c(-c6c(F)cccc6F)c6ccc([nH]6)c(-c6c(F)cccc6F)c6nc(c(-c7c(F)cccc7F)c7ccc4[nH]7)C=C6)C=C5)cc3)cn2)C1=O
REMARK SMILES IDX 17 1 16 2 14 3 15 4 13 6 10 7 11 8 78 9 12 10 77 11 9 12
REMARK SMILES IDX 8 13 7 16 1 17 2 18 3 19 79 20 4 21 5 22 80 23 6 24 18 25
REMARK SMILES IDX 19 26 20 27 21 28 22 30 23 31 24 32 76 33 25 34 75 35 26 36
REMARK SMILES IDX 27 37 28 38 69 39 29 40 74 41 68 42 70 43 30 44 73 45 67 46
REMARK SMILES IDX 66 47 31 49 57 50 40 51 56 52 41 53 44 54 55 55 71 56 42 57
REMARK SMILES IDX 43 58 54 60 72 61 45 62 32 63 33 64 38 65 34 66 35 67 37 68
REMARK SMILES IDX 39 69 36 70 58 71 59 72 64 73 60 74 61 75 63 76 65 77 62 78
REMARK SMILES IDX 46 79 47 80 52 81 48 82 49 83 51 84 53 85 50 86
REMARK H PARENT 16 5 8 14 8 15 20 29 70 48 44 59
REMARK Flexibility Score: inf
ROOT
ATOM      1  C   UNL A   1      37.429  20.611  24.577  1.00  0.00     0.118 C 
ENDROOT
BRANCH   1   2
ATOM      2  N   UNL A   1      37.884  21.902  25.058  1.00  0.00    -0.352 N 
ATOM      3  C   UNL A   1      37.243  23.104  25.213  1.00  0.00     0.252 C 
ATOM      4  O   UNL A   1      37.869  24.015  25.755  1.00  0.00    -0.269 OA
ATOM      5  H   UNL A   1      38.834  21.919  25.320  1.00  0.00     0.163 HD
BRANCH   3   6
ATOM      6  C   UNL A   1      35.844  23.351  24.790  1.00  0.00     0.058 A 
ATOM      7  C   UNL A   1      33.305  23.702  23.726  1.00  0.00     0.094 A 
ATOM      8  C   UNL A   1      33.473  23.696  25.108  1.00  0.00     0.030 A 
ATOM      9  N   UNL A   1      34.349  23.528  22.879  1.00  0.00    -0.255 NA
ATOM     10  C   UNL A   1      34.751  23.500  25.639  1.00  0.00     0.017 A 
ATOM     11  C   UNL A   1      35.581  23.360  23.425  1.00  0.00     0.125 A 
BRANCH   7  12
ATOM     12  C   UNL A   1      31.911  23.818  23.125  1.00  0.00     0.318 C 
BRANCH  12  13
ATOM     13  N   UNL A   1      31.884  24.636  21.905  1.00  0.00    -0.331 N 
ATOM     14  H   UNL A   1      32.809  24.601  21.478  1.00  0.00     0.347 HD
ATOM     15  H   UNL A   1      31.153  24.243  21.312  1.00  0.00     0.347 HD
BRANCH  13  16
ATOM     16  C   UNL A   1      31.528  26.054  22.118  1.00  0.00     0.274 C 
ATOM     17  C   UNL A   1      33.825  28.958  23.135  1.00  0.00     0.156 C 
ATOM     18  N   UNL A   1      32.658  28.102  22.996  1.00  0.00    -0.281 N 
ATOM     19  C   UNL A   1      31.501  28.539  23.641  1.00  0.00     0.229 C 
ATOM     20  C   UNL A   1      32.774  26.957  22.206  1.00  0.00     0.287 C 
ATOM     21  O   UNL A   1      31.452  29.574  24.307  1.00  0.00    -0.274 OA
ATOM     22  C   UNL A   1      30.255  27.718  23.420  1.00  0.00     0.107 C 
ATOM     23  O   UNL A   1      33.795  26.682  21.570  1.00  0.00    -0.267 OA
ATOM     24  C   UNL A   1      30.593  26.247  23.304  1.00  0.00     0.085 C 
ENDBRANCH  13  16
ENDBRANCH  12  13
ENDBRANCH   7  12
ENDBRANCH   3   6
ENDBRANCH   1   2
BRANCH   1  25
ATOM     25  C   UNL A   1      38.407  19.496  24.946  1.00  0.00     0.042 C 
BRANCH  25  26
ATOM     26  C   UNL A   1      39.385  19.877  26.055  1.00  0.00     0.118 C 
BRANCH  26  27
ATOM     27  N   UNL A   1      40.606  19.089  26.002  1.00  0.00    -0.352 N 
ATOM     28  C   UNL A   1      41.921  19.483  26.028  1.00  0.00     0.251 C 
ATOM     29  H   UNL A   1      40.468  18.116  25.937  1.00  0.00     0.163 HD
ATOM     30  O   UNL A   1      42.797  18.669  25.751  1.00  0.00    -0.269 OA
BRANCH  28  31
ATOM     31  C   UNL A   1      42.297  20.872  26.377  1.00  0.00     0.039 A 
ATOM     32  C   UNL A   1      42.445  21.203  27.728  1.00  0.00     0.014 A 
ATOM     33  C   UNL A   1      42.436  21.860  25.400  1.00  0.00     0.014 A 
ATOM     34  C   UNL A   1      42.773  22.511  28.095  1.00  0.00     0.010 A 
ATOM     35  C   UNL A   1      42.829  23.148  25.762  1.00  0.00     0.010 A 
ATOM     36  C   UNL A   1      42.990  23.488  27.113  1.00  0.00    -0.014 A 
BRANCH  36  37
ATOM     37  C   UNL A   1      43.381  24.872  27.483  1.00  0.00     0.031 A 
ATOM     38  C   UNL A   1      42.351  25.848  27.977  1.00  0.00     0.074 A 
ATOM     39  C   UNL A   1      44.655  25.270  27.303  1.00  0.00     0.049 A 
ATOM     40  N   UNL A   1      42.491  27.112  28.287  1.00  0.00    -0.248 NA
ATOM     41  C   UNL A   1      40.975  25.345  28.110  1.00  0.00     0.031 C 
ATOM     42  C   UNL A   1      45.733  24.436  26.771  1.00  0.00     0.029 A 
ATOM     43  N   UNL A   1      45.252  26.484  27.531  1.00  0.00    -0.354 N 
ATOM     44  C   UNL A   1      41.220  27.561  28.626  1.00  0.00     0.074 A 
ATOM     45  C   UNL A   1      40.317  26.446  28.443  1.00  0.00     0.031 C 
ATOM     46  C   UNL A   1      46.862  25.159  26.720  1.00  0.00     0.029 A 
ATOM     47  C   UNL A   1      46.583  26.513  27.189  1.00  0.00     0.049 A 
ATOM     48  H   UNL A   1      44.773  27.259  27.903  1.00  0.00     0.167 HD
ATOM     49  C   UNL A   1      40.844  28.787  29.065  1.00  0.00     0.037 A 
ATOM     50  C   UNL A   1      47.475  27.519  27.242  1.00  0.00     0.037 A 
ATOM     51  C   UNL A   1      41.752  29.884  29.278  1.00  0.00     0.049 A 
ATOM     52  C   UNL A   1      47.047  28.857  27.770  1.00  0.00     0.074 A 
ATOM     53  C   UNL A   1      41.487  31.133  29.811  1.00  0.00     0.029 A 
ATOM     54  N   UNL A   1      43.103  29.862  28.963  1.00  0.00    -0.354 N 
ATOM     55  N   UNL A   1      45.859  29.243  28.172  1.00  0.00    -0.248 NA
ATOM     56  C   UNL A   1      48.081  29.896  27.864  1.00  0.00     0.031 C 
ATOM     57  C   UNL A   1      42.669  31.881  29.780  1.00  0.00     0.029 A 
ATOM     58  C   UNL A   1      43.680  31.085  29.266  1.00  0.00     0.049 A 
ATOM     59  H   UNL A   1      43.581  29.091  28.581  1.00  0.00     0.167 HD
ATOM     60  C   UNL A   1      46.006  30.563  28.580  1.00  0.00     0.074 A 
ATOM     61  C   UNL A   1      47.401  30.904  28.393  1.00  0.00     0.031 C 
ATOM     62  C   UNL A   1      45.068  31.413  29.066  1.00  0.00     0.037 A 
BRANCH  49  63
ATOM     63  C   UNL A   1      39.383  29.003  29.335  1.00  0.00     0.057 A 
ATOM     64  C   UNL A   1      38.503  29.455  28.343  1.00  0.00     0.134 A 
ATOM     65  C   UNL A   1      38.846  28.742  30.603  1.00  0.00     0.134 A 
ATOM     66  F   UNL A   1      38.955  29.734  27.111  1.00  0.00    -0.206 F 
ATOM     67  C   UNL A   1      37.151  29.674  28.610  1.00  0.00     0.040 A 
ATOM     68  C   UNL A   1      37.490  28.931  30.875  1.00  0.00     0.040 A 
ATOM     69  F   UNL A   1      39.630  28.299  31.597  1.00  0.00    -0.206 F 
ATOM     70  C   UNL A   1      36.640  29.408  29.878  1.00  0.00     0.006 A 
ENDBRANCH  49  63
BRANCH  50  71
ATOM     71  C   UNL A   1      48.870  27.280  26.800  1.00  0.00     0.057 A 
ATOM     72  C   UNL A   1      49.854  26.870  27.706  1.00  0.00     0.134 A 
ATOM     73  C   UNL A   1      49.243  27.419  25.457  1.00  0.00     0.134 A 
ATOM     74  F   UNL A   1      49.558  26.734  29.007  1.00  0.00    -0.206 F 
ATOM     75  C   UNL A   1      51.163  26.614  27.295  1.00  0.00     0.040 A 
ATOM     76  C   UNL A   1      50.542  27.146  25.029  1.00  0.00     0.040 A 
ATOM     77  F   UNL A   1      48.341  27.798  24.540  1.00  0.00    -0.206 F 
ATOM     78  C   UNL A   1      51.508  26.745  25.950  1.00  0.00     0.006 A 
ENDBRANCH  50  71
BRANCH  62  79
ATOM     79  C   UNL A   1      45.526  32.791  29.439  1.00  0.00     0.057 A 
ATOM     80  C   UNL A   1      46.033  33.079  30.713  1.00  0.00     0.134 A 
ATOM     81  C   UNL A   1      45.493  33.834  28.504  1.00  0.00     0.134 A 
ATOM     82  F   UNL A   1      46.077  32.127  31.657  1.00  0.00    -0.206 F 
ATOM     83  C   UNL A   1      46.472  34.359  31.050  1.00  0.00     0.040 A 
ATOM     84  C   UNL A   1      45.952  35.112  28.821  1.00  0.00     0.040 A 
ATOM     85  F   UNL A   1      45.026  33.622  27.264  1.00  0.00    -0.206 F 
ATOM     86  C   UNL A   1      46.438  35.380  30.100  1.00  0.00     0.006 A 
ENDBRANCH  62  79
ENDBRANCH  36  37
ENDBRANCH  28  31
ENDBRANCH  26  27
ENDBRANCH  25  26
ENDBRANCH   1  25
TORSDOF 13
ENDMDL
