MODEL 1
REMARK VINA RESULT:     -11.3      0.000      0.000
REMARK SMILES Cc1cc(C(=O)NCCCNC(=O)c2ccc(-c3c4nc(c(-c5c(F)cccc5F)c5ccc([nH]5)c(-c5c(F)cccc5F)c5nc(c(-c6c(F)cccc6F)c6ccc3[nH]6)C=C5)C=C4)cc2)cc(C)c1OC[C@H]1C[N@@H+](C)CCO1
REMARK SMILES IDX 8 1 7 2 5 3 6 4 4 6 1 7 2 8 3 9 71 10 69 11 68 12 70 13
REMARK SMILES IDX 72 14 73 15 74 16 75 17 80 18 76 19 79 20 77 21 78 22 9 24
REMARK SMILES IDX 10 25 11 26 12 27 13 29 14 30 15 31 67 32 16 33 66 34 17 35
REMARK SMILES IDX 18 36 19 37 60 38 20 39 65 40 59 41 61 42 21 43 64 44 58 45
REMARK SMILES IDX 57 46 22 48 48 49 31 50 47 51 32 52 35 53 46 54 62 55 33 56
REMARK SMILES IDX 34 57 45 59 63 60 36 61 23 62 24 63 29 64 25 65 26 66 28 67
REMARK SMILES IDX 30 68 27 69 49 70 50 71 55 72 51 73 52 74 54 75 56 76 53 77
REMARK SMILES IDX 37 78 38 79 43 80 39 81 40 82 42 83 44 84 41 85
REMARK H PARENT 7 5 76 23 11 28 61 47 35 58
REMARK Flexibility Score: inf
ROOT
ATOM      1  C   UNL A   1      37.424  20.748  24.606  1.00  0.00     0.118 C 
ENDROOT
BRANCH   1   2
ATOM      2  N   UNL A   1      37.948  21.997  25.135  1.00  0.00    -0.352 N 
ATOM      3  C   UNL A   1      37.338  23.166  25.507  1.00  0.00     0.251 C 
ATOM      4  O   UNL A   1      38.053  24.122  25.811  1.00  0.00    -0.269 OA
ATOM      5  H   UNL A   1      38.926  22.004  25.247  1.00  0.00     0.163 HD
BRANCH   3   6
ATOM      6  C   UNL A   1      35.865  23.335  25.508  1.00  0.00     0.040 A 
ATOM      7  C   UNL A   1      33.400  24.246  22.819  1.00  0.00     0.048 C 
ATOM      8  C   UNL A   1      33.861  23.885  24.198  1.00  0.00    -0.008 A 
ATOM      9  C   UNL A   1      35.262  23.757  24.324  1.00  0.00     0.021 A 
ATOM     10  C   UNL A   1      33.049  23.623  25.315  1.00  0.00     0.125 A 
ATOM     11  C   UNL A   1      33.658  23.165  26.507  1.00  0.00    -0.008 A 
ATOM     12  C   UNL A   1      35.059  23.093  26.612  1.00  0.00     0.021 A 
ATOM     13  C   UNL A   1      32.856  22.600  27.654  1.00  0.00     0.048 C 
BRANCH  10  14
ATOM     14  O   UNL A   1      31.685  23.678  25.375  1.00  0.00    -0.490 OA
BRANCH  14  15
ATOM     15  C   UNL A   1      30.956  24.905  25.552  1.00  0.00     0.267 C 
BRANCH  15  16
ATOM     16  C   UNL A   1      31.753  26.151  25.989  1.00  0.00     0.210 C 
ATOM     17  C   UNL A   1      31.852  27.157  24.824  1.00  0.00     0.298 C 
ATOM     18  O   UNL A   1      31.062  26.836  27.067  1.00  0.00    -0.363 OA
ATOM     19  N   UNL A   1      32.789  28.218  25.221  1.00  0.00    -0.333 N 
ATOM     20  C   UNL A   1      31.808  27.997  27.493  1.00  0.00     0.222 C 
ATOM     21  C   UNL A   1      33.152  29.068  24.097  1.00  0.00     0.332 C 
ATOM     22  C   UNL A   1      32.173  28.956  26.335  1.00  0.00     0.290 C 
ATOM     23  H   UNL A   1      33.674  27.820  25.534  1.00  0.00     0.348 HD
ENDBRANCH  15  16
ENDBRANCH  14  15
ENDBRANCH  10  14
ENDBRANCH   3   6
ENDBRANCH   1   2
BRANCH   1  24
ATOM     24  C   UNL A   1      38.276  19.540  24.966  1.00  0.00     0.042 C 
BRANCH  24  25
ATOM     25  C   UNL A   1      39.266  19.780  26.094  1.00  0.00     0.118 C 
BRANCH  25  26
ATOM     26  N   UNL A   1      40.546  19.116  25.875  1.00  0.00    -0.352 N 
ATOM     27  C   UNL A   1      41.827  19.594  25.925  1.00  0.00     0.251 C 
ATOM     28  H   UNL A   1      40.476  18.159  25.654  1.00  0.00     0.163 HD
ATOM     29  O   UNL A   1      42.750  18.893  25.488  1.00  0.00    -0.269 OA
BRANCH  27  30
ATOM     30  C   UNL A   1      42.131  20.932  26.470  1.00  0.00     0.039 A 
ATOM     31  C   UNL A   1      42.461  21.969  25.591  1.00  0.00     0.014 A 
ATOM     32  C   UNL A   1      42.138  21.165  27.846  1.00  0.00     0.014 A 
ATOM     33  C   UNL A   1      42.731  23.245  26.090  1.00  0.00     0.010 A 
ATOM     34  C   UNL A   1      42.296  22.458  28.334  1.00  0.00     0.010 A 
ATOM     35  C   UNL A   1      42.616  23.509  27.465  1.00  0.00    -0.014 A 
BRANCH  35  36
ATOM     36  C   UNL A   1      42.867  24.861  28.024  1.00  0.00     0.031 A 
ATOM     37  C   UNL A   1      44.260  25.252  28.446  1.00  0.00     0.074 A 
ATOM     38  C   UNL A   1      41.839  25.708  28.220  1.00  0.00     0.049 A 
ATOM     39  N   UNL A   1      44.670  26.345  29.038  1.00  0.00    -0.248 NA
ATOM     40  C   UNL A   1      45.328  24.266  28.205  1.00  0.00     0.031 C 
ATOM     41  C   UNL A   1      40.435  25.425  27.909  1.00  0.00     0.029 A 
ATOM     42  N   UNL A   1      41.813  26.977  28.739  1.00  0.00    -0.354 N 
ATOM     43  C   UNL A   1      46.029  26.163  29.264  1.00  0.00     0.074 A 
ATOM     44  C   UNL A   1      46.363  24.835  28.803  1.00  0.00     0.031 C 
ATOM     45  C   UNL A   1      39.692  26.501  28.214  1.00  0.00     0.029 A 
ATOM     46  C   UNL A   1      40.558  27.532  28.775  1.00  0.00     0.049 A 
ATOM     47  H   UNL A   1      42.619  27.446  29.054  1.00  0.00     0.167 HD
ATOM     48  C   UNL A   1      46.927  27.036  29.781  1.00  0.00     0.037 A 
ATOM     49  C   UNL A   1      40.151  28.739  29.213  1.00  0.00     0.037 A 
ATOM     50  C   UNL A   1      46.600  28.373  30.197  1.00  0.00     0.049 A 
ATOM     51  C   UNL A   1      41.171  29.702  29.754  1.00  0.00     0.074 A 
ATOM     52  C   UNL A   1      47.445  29.361  30.672  1.00  0.00     0.029 A 
ATOM     53  N   UNL A   1      45.323  28.913  30.178  1.00  0.00    -0.354 N 
ATOM     54  N   UNL A   1      42.464  29.541  29.903  1.00  0.00    -0.248 NA
ATOM     55  C   UNL A   1      40.676  31.018  30.180  1.00  0.00     0.031 C 
ATOM     56  C   UNL A   1      46.672  30.487  30.975  1.00  0.00     0.029 A 
ATOM     57  C   UNL A   1      45.354  30.216  30.646  1.00  0.00     0.049 A 
ATOM     58  H   UNL A   1      44.513  28.440  29.879  1.00  0.00     0.167 HD
ATOM     59  C   UNL A   1      42.941  30.742  30.410  1.00  0.00     0.074 A 
ATOM     60  C   UNL A   1      41.800  31.627  30.530  1.00  0.00     0.031 C 
ATOM     61  C   UNL A   1      44.209  31.083  30.747  1.00  0.00     0.037 A 
BRANCH  48  62
ATOM     62  C   UNL A   1      48.349  26.570  29.911  1.00  0.00     0.057 A 
ATOM     63  C   UNL A   1      48.800  25.877  31.043  1.00  0.00     0.134 A 
ATOM     64  C   UNL A   1      49.274  26.798  28.885  1.00  0.00     0.134 A 
ATOM     65  F   UNL A   1      47.969  25.637  32.069  1.00  0.00    -0.206 F 
ATOM     66  C   UNL A   1      50.125  25.456  31.164  1.00  0.00     0.040 A 
ATOM     67  C   UNL A   1      50.596  26.357  28.982  1.00  0.00     0.040 A 
ATOM     68  F   UNL A   1      48.911  27.451  27.771  1.00  0.00    -0.206 F 
ATOM     69  C   UNL A   1      51.026  25.690  30.128  1.00  0.00     0.006 A 
ENDBRANCH  48  62
BRANCH  49  70
ATOM     70  C   UNL A   1      38.719  29.120  29.120  1.00  0.00     0.057 A 
ATOM     71  C   UNL A   1      38.179  29.601  27.921  1.00  0.00     0.134 A 
ATOM     72  C   UNL A   1      37.860  29.020  30.220  1.00  0.00     0.134 A 
ATOM     73  F   UNL A   1      38.958  29.734  26.836  1.00  0.00    -0.206 F 
ATOM     74  C   UNL A   1      36.841  29.987  27.823  1.00  0.00     0.040 A 
ATOM     75  C   UNL A   1      36.514  29.379  30.129  1.00  0.00     0.040 A 
ATOM     76  F   UNL A   1      38.313  28.559  31.394  1.00  0.00    -0.206 F 
ATOM     77  C   UNL A   1      36.003  29.872  28.930  1.00  0.00     0.006 A 
ENDBRANCH  49  70
BRANCH  61  78
ATOM     78  C   UNL A   1      44.431  32.483  31.236  1.00  0.00     0.057 A 
ATOM     79  C   UNL A   1      44.698  33.541  30.359  1.00  0.00     0.134 A 
ATOM     80  C   UNL A   1      44.346  32.780  32.603  1.00  0.00     0.134 A 
ATOM     81  F   UNL A   1      44.804  33.320  29.040  1.00  0.00    -0.206 F 
ATOM     82  C   UNL A   1      44.898  34.842  30.826  1.00  0.00     0.040 A 
ATOM     83  C   UNL A   1      44.517  34.080  33.079  1.00  0.00     0.040 A 
ATOM     84  F   UNL A   1      44.083  31.813  33.496  1.00  0.00    -0.206 F 
ATOM     85  C   UNL A   1      44.801  35.114  32.190  1.00  0.00     0.006 A 
ENDBRANCH  61  78
ENDBRANCH  35  36
ENDBRANCH  27  30
ENDBRANCH  25  26
ENDBRANCH  24  25
ENDBRANCH   1  24
TORSDOF 13
ENDMDL
MODEL 2
REMARK VINA RESULT:     -11.2      3.964      8.968
REMARK SMILES Cc1cc(C(=O)NCCCNC(=O)c2ccc(-c3c4nc(c(-c5c(F)cccc5F)c5ccc([nH]5)c(-c5c(F)cccc5F)c5nc(c(-c6c(F)cccc6F)c6ccc3[nH]6)C=C5)C=C4)cc2)cc(C)c1OC[C@H]1C[N@@H+](C)CCO1
REMARK SMILES IDX 8 1 7 2 5 3 6 4 4 6 1 7 2 8 3 9 71 10 69 11 68 12 70 13
REMARK SMILES IDX 72 14 73 15 74 16 75 17 80 18 76 19 79 20 77 21 78 22 9 24
REMARK SMILES IDX 10 25 11 26 12 27 13 29 14 30 15 31 67 32 16 33 66 34 17 35
REMARK SMILES IDX 18 36 19 37 60 38 20 39 65 40 59 41 61 42 21 43 64 44 58 45
REMARK SMILES IDX 57 46 22 48 48 49 31 50 47 51 32 52 35 53 46 54 62 55 33 56
REMARK SMILES IDX 34 57 45 59 63 60 36 61 23 62 24 63 29 64 25 65 26 66 28 67
REMARK SMILES IDX 30 68 27 69 49 70 50 71 55 72 51 73 52 74 54 75 56 76 53 77
REMARK SMILES IDX 37 78 38 79 43 80 39 81 40 82 42 83 44 84 41 85
REMARK H PARENT 7 5 76 23 11 28 61 47 35 58
REMARK Flexibility Score: inf
ROOT
ATOM      1  C   UNL A   1      31.783  30.554  27.066  1.00  0.00     0.118 C 
ENDROOT
BRANCH   1   2
ATOM      2  N   UNL A   1      33.164  30.284  27.434  1.00  0.00    -0.352 N 
ATOM      3  C   UNL A   1      34.043  29.305  27.050  1.00  0.00     0.251 C 
ATOM      4  O   UNL A   1      35.131  29.246  27.626  1.00  0.00    -0.269 OA
ATOM      5  H   UNL A   1      33.537  30.924  28.081  1.00  0.00     0.163 HD
BRANCH   3   6
ATOM      6  C   UNL A   1      33.717  28.297  26.014  1.00  0.00     0.040 A 
ATOM      7  C   UNL A   1      31.947  24.982  26.148  1.00  0.00     0.048 C 
ATOM      8  C   UNL A   1      32.686  26.123  25.517  1.00  0.00    -0.008 A 
ATOM      9  C   UNL A   1      33.100  27.118  26.431  1.00  0.00     0.021 A 
ATOM     10  C   UNL A   1      32.945  26.303  24.149  1.00  0.00     0.125 A 
ATOM     11  C   UNL A   1      33.543  27.512  23.722  1.00  0.00    -0.008 A 
ATOM     12  C   UNL A   1      33.983  28.462  24.662  1.00  0.00     0.021 A 
ATOM     13  C   UNL A   1      33.606  27.909  22.267  1.00  0.00     0.048 C 
BRANCH  10  14
ATOM     14  O   UNL A   1      32.607  25.462  23.126  1.00  0.00    -0.490 OA
BRANCH  14  15
ATOM     15  C   UNL A   1      33.519  24.503  22.564  1.00  0.00     0.267 C 
BRANCH  15  16
ATOM     16  C   UNL A   1      34.521  23.826  23.521  1.00  0.00     0.210 C 
ATOM     17  C   UNL A   1      33.880  22.584  24.173  1.00  0.00     0.298 C 
ATOM     18  O   UNL A   1      35.679  23.352  22.783  1.00  0.00    -0.363 OA
ATOM     19  N   UNL A   1      34.790  22.103  25.223  1.00  0.00    -0.333 N 
ATOM     20  C   UNL A   1      36.630  22.729  23.674  1.00  0.00     0.222 C 
ATOM     21  C   UNL A   1      34.159  21.102  26.069  1.00  0.00     0.332 C 
ATOM     22  C   UNL A   1      36.011  21.620  24.559  1.00  0.00     0.290 C 
ATOM     23  H   UNL A   1      35.034  22.858  25.863  1.00  0.00     0.348 HD
ENDBRANCH  15  16
ENDBRANCH  14  15
ENDBRANCH  10  14
ENDBRANCH   3   6
ENDBRANCH   1   2
BRANCH   1  24
ATOM     24  C   UNL A   1      31.494  32.034  26.869  1.00  0.00     0.042 C 
BRANCH  24  25
ATOM     25  C   UNL A   1      32.728  32.920  26.838  1.00  0.00     0.118 C 
BRANCH  25  26
ATOM     26  N   UNL A   1      32.556  34.160  27.587  1.00  0.00    -0.352 N 
ATOM     27  C   UNL A   1      33.164  34.615  28.725  1.00  0.00     0.251 C 
ATOM     28  H   UNL A   1      31.887  34.775  27.207  1.00  0.00     0.163 HD
ATOM     29  O   UNL A   1      32.699  35.607  29.302  1.00  0.00    -0.269 OA
BRANCH  27  30
ATOM     30  C   UNL A   1      34.350  33.939  29.289  1.00  0.00     0.039 A 
ATOM     31  C   UNL A   1      35.625  34.419  28.973  1.00  0.00     0.014 A 
ATOM     32  C   UNL A   1      34.218  32.807  30.094  1.00  0.00     0.014 A 
ATOM     33  C   UNL A   1      36.755  33.803  29.514  1.00  0.00     0.010 A 
ATOM     34  C   UNL A   1      35.334  32.265  30.722  1.00  0.00     0.010 A 
ATOM     35  C   UNL A   1      36.617  32.742  30.423  1.00  0.00    -0.014 A 
BRANCH  35  36
ATOM     36  C   UNL A   1      37.797  32.085  31.040  1.00  0.00     0.031 A 
ATOM     37  C   UNL A   1      38.521  30.991  30.298  1.00  0.00     0.074 A 
ATOM     38  C   UNL A   1      38.172  32.416  32.291  1.00  0.00     0.049 A 
ATOM     39  N   UNL A   1      39.511  30.233  30.698  1.00  0.00    -0.248 NA
ATOM     40  C   UNL A   1      38.044  30.683  28.940  1.00  0.00     0.031 C 
ATOM     41  C   UNL A   1      37.517  33.416  33.137  1.00  0.00     0.029 A 
ATOM     42  N   UNL A   1      39.193  31.939  33.073  1.00  0.00    -0.354 N 
ATOM     43  C   UNL A   1      39.750  29.346  29.656  1.00  0.00     0.074 A 
ATOM     44  C   UNL A   1      38.767  29.617  28.633  1.00  0.00     0.031 C 
ATOM     45  C   UNL A   1      38.170  33.499  34.306  1.00  0.00     0.029 A 
ATOM     46  C   UNL A   1      39.265  32.536  34.308  1.00  0.00     0.049 A 
ATOM     47  H   UNL A   1      39.816  31.237  32.777  1.00  0.00     0.167 HD
ATOM     48  C   UNL A   1      40.723  28.409  29.546  1.00  0.00     0.037 A 
ATOM     49  C   UNL A   1      40.119  32.326  35.328  1.00  0.00     0.037 A 
ATOM     50  C   UNL A   1      41.728  28.173  30.546  1.00  0.00     0.049 A 
ATOM     51  C   UNL A   1      41.209  31.303  35.170  1.00  0.00     0.074 A 
ATOM     52  C   UNL A   1      42.797  27.296  30.507  1.00  0.00     0.029 A 
ATOM     53  N   UNL A   1      41.792  28.828  31.768  1.00  0.00    -0.354 N 
ATOM     54  N   UNL A   1      41.463  30.514  34.153  1.00  0.00    -0.248 NA
ATOM     55  C   UNL A   1      42.136  31.145  36.299  1.00  0.00     0.031 C 
ATOM     56  C   UNL A   1      43.487  27.393  31.720  1.00  0.00     0.029 A 
ATOM     57  C   UNL A   1      42.874  28.365  32.496  1.00  0.00     0.049 A 
ATOM     58  H   UNL A   1      41.160  29.519  32.072  1.00  0.00     0.167 HD
ATOM     59  C   UNL A   1      42.595  29.792  34.506  1.00  0.00     0.074 A 
ATOM     60  C   UNL A   1      42.985  30.245  35.826  1.00  0.00     0.031 C 
ATOM     61  C   UNL A   1      43.252  28.837  33.802  1.00  0.00     0.037 A 
BRANCH  48  62
ATOM     62  C   UNL A   1      40.748  27.583  28.293  1.00  0.00     0.057 A 
ATOM     63  C   UNL A   1      41.477  27.976  27.161  1.00  0.00     0.134 A 
ATOM     64  C   UNL A   1      40.052  26.370  28.220  1.00  0.00     0.134 A 
ATOM     65  F   UNL A   1      42.154  29.134  27.158  1.00  0.00    -0.206 F 
ATOM     66  C   UNL A   1      41.487  27.209  25.994  1.00  0.00     0.040 A 
ATOM     67  C   UNL A   1      40.078  25.579  27.068  1.00  0.00     0.040 A 
ATOM     68  F   UNL A   1      39.338  25.929  29.267  1.00  0.00    -0.206 F 
ATOM     69  C   UNL A   1      40.791  26.004  25.948  1.00  0.00     0.006 A 
ENDBRANCH  48  62
BRANCH  49  70
ATOM     70  C   UNL A   1      40.005  33.130  36.570  1.00  0.00     0.057 A 
ATOM     71  C   UNL A   1      40.783  34.280  36.758  1.00  0.00     0.134 A 
ATOM     72  C   UNL A   1      39.126  32.772  37.599  1.00  0.00     0.134 A 
ATOM     73  F   UNL A   1      41.655  34.664  35.815  1.00  0.00    -0.206 F 
ATOM     74  C   UNL A   1      40.705  35.033  37.931  1.00  0.00     0.040 A 
ATOM     75  C   UNL A   1      39.020  33.530  38.766  1.00  0.00     0.040 A 
ATOM     76  F   UNL A   1      38.347  31.688  37.476  1.00  0.00    -0.206 F 
ATOM     77  C   UNL A   1      39.817  34.660  38.938  1.00  0.00     0.006 A 
ENDBRANCH  49  70
BRANCH  61  78
ATOM     78  C   UNL A   1      44.482  28.253  34.430  1.00  0.00     0.057 A 
ATOM     79  C   UNL A   1      45.745  28.836  34.268  1.00  0.00     0.134 A 
ATOM     80  C   UNL A   1      44.395  27.109  35.234  1.00  0.00     0.134 A 
ATOM     81  F   UNL A   1      45.897  29.926  33.501  1.00  0.00    -0.206 F 
ATOM     82  C   UNL A   1      46.883  28.286  34.862  1.00  0.00     0.040 A 
ATOM     83  C   UNL A   1      45.520  26.566  35.854  1.00  0.00     0.040 A 
ATOM     84  F   UNL A   1      43.213  26.507  35.438  1.00  0.00    -0.206 F 
ATOM     85  C   UNL A   1      46.770  27.150  35.663  1.00  0.00     0.006 A 
ENDBRANCH  61  78
ENDBRANCH  35  36
ENDBRANCH  27  30
ENDBRANCH  25  26
ENDBRANCH  24  25
ENDBRANCH   1  24
TORSDOF 13
ENDMDL
MODEL 3
REMARK VINA RESULT:     -11.2      1.340      6.433
REMARK SMILES Cc1cc(C(=O)NCCCNC(=O)c2ccc(-c3c4nc(c(-c5c(F)cccc5F)c5ccc([nH]5)c(-c5c(F)cccc5F)c5nc(c(-c6c(F)cccc6F)c6ccc3[nH]6)C=C5)C=C4)cc2)cc(C)c1OC[C@H]1C[N@@H+](C)CCO1
REMARK SMILES IDX 8 1 7 2 5 3 6 4 4 6 1 7 2 8 3 9 71 10 69 11 68 12 70 13
REMARK SMILES IDX 72 14 73 15 74 16 75 17 80 18 76 19 79 20 77 21 78 22 9 24
REMARK SMILES IDX 10 25 11 26 12 27 13 29 14 30 15 31 67 32 16 33 66 34 17 35
REMARK SMILES IDX 18 36 19 37 60 38 20 39 65 40 59 41 61 42 21 43 64 44 58 45
REMARK SMILES IDX 57 46 22 48 48 49 31 50 47 51 32 52 35 53 46 54 62 55 33 56
REMARK SMILES IDX 34 57 45 59 63 60 36 61 23 62 24 63 29 64 25 65 26 66 28 67
REMARK SMILES IDX 30 68 27 69 49 70 50 71 55 72 51 73 52 74 54 75 56 76 53 77
REMARK SMILES IDX 37 78 38 79 43 80 39 81 40 82 42 83 44 84 41 85
REMARK H PARENT 7 5 76 23 11 28 61 47 35 58
REMARK Flexibility Score: inf
ROOT
ATOM      1  C   UNL A   1      37.465  20.946  24.610  1.00  0.00     0.118 C 
ENDROOT
BRANCH   1   2
ATOM      2  N   UNL A   1      38.011  22.152  25.211  1.00  0.00    -0.352 N 
ATOM      3  C   UNL A   1      37.421  23.306  25.655  1.00  0.00     0.251 C 
ATOM      4  O   UNL A   1      38.153  24.231  26.013  1.00  0.00    -0.269 OA
ATOM      5  H   UNL A   1      38.989  22.137  25.319  1.00  0.00     0.163 HD
BRANCH   3   6
ATOM      6  C   UNL A   1      35.951  23.498  25.673  1.00  0.00     0.040 A 
ATOM      7  C   UNL A   1      33.527  24.867  23.146  1.00  0.00     0.048 C 
ATOM      8  C   UNL A   1      33.968  24.284  24.453  1.00  0.00    -0.008 A 
ATOM      9  C   UNL A   1      35.366  24.114  24.566  1.00  0.00     0.021 A 
ATOM     10  C   UNL A   1      33.142  23.862  25.507  1.00  0.00     0.125 A 
ATOM     11  C   UNL A   1      33.732  23.210  26.616  1.00  0.00    -0.008 A 
ATOM     12  C   UNL A   1      35.130  23.098  26.718  1.00  0.00     0.021 A 
ATOM     13  C   UNL A   1      32.910  22.484  27.653  1.00  0.00     0.048 C 
BRANCH  10  14
ATOM     14  O   UNL A   1      31.779  23.931  25.566  1.00  0.00    -0.490 OA
BRANCH  14  15
ATOM     15  C   UNL A   1      31.073  25.014  26.197  1.00  0.00     0.267 C 
BRANCH  15  16
ATOM     16  C   UNL A   1      31.690  26.423  26.090  1.00  0.00     0.210 C 
ATOM     17  C   UNL A   1      31.183  27.133  24.819  1.00  0.00     0.298 C 
ATOM     18  O   UNL A   1      31.270  27.241  27.215  1.00  0.00    -0.363 OA
ATOM     19  N   UNL A   1      31.954  28.374  24.655  1.00  0.00    -0.333 N 
ATOM     20  C   UNL A   1      31.855  28.559  27.132  1.00  0.00     0.222 C 
ATOM     21  C   UNL A   1      31.736  28.979  23.350  1.00  0.00     0.332 C 
ATOM     22  C   UNL A   1      31.603  29.262  25.775  1.00  0.00     0.290 C 
ATOM     23  H   UNL A   1      32.956  28.183  24.682  1.00  0.00     0.348 HD
ENDBRANCH  15  16
ENDBRANCH  14  15
ENDBRANCH  10  14
ENDBRANCH   3   6
ENDBRANCH   1   2
BRANCH   1  24
ATOM     24  C   UNL A   1      38.278  19.699  24.924  1.00  0.00     0.042 C 
BRANCH  24  25
ATOM     25  C   UNL A   1      39.225  19.843  26.104  1.00  0.00     0.118 C 
BRANCH  25  26
ATOM     26  N   UNL A   1      40.394  18.977  26.003  1.00  0.00    -0.352 N 
ATOM     27  C   UNL A   1      41.732  19.265  26.032  1.00  0.00     0.251 C 
ATOM     28  H   UNL A   1      40.185  18.021  25.895  1.00  0.00     0.163 HD
ATOM     29  O   UNL A   1      42.544  18.389  25.708  1.00  0.00    -0.269 OA
BRANCH  27  30
ATOM     30  C   UNL A   1      42.225  20.601  26.422  1.00  0.00     0.039 A 
ATOM     31  C   UNL A   1      42.679  21.478  25.432  1.00  0.00     0.014 A 
ATOM     32  C   UNL A   1      42.288  20.982  27.763  1.00  0.00     0.014 A 
ATOM     33  C   UNL A   1      43.131  22.752  25.784  1.00  0.00     0.010 A 
ATOM     34  C   UNL A   1      42.629  22.286  28.102  1.00  0.00     0.010 A 
ATOM     35  C   UNL A   1      43.076  23.180  27.120  1.00  0.00    -0.014 A 
BRANCH  35  36
ATOM     36  C   UNL A   1      43.520  24.538  27.523  1.00  0.00     0.031 A 
ATOM     37  C   UNL A   1      42.502  25.569  27.938  1.00  0.00     0.074 A 
ATOM     38  C   UNL A   1      44.824  24.868  27.446  1.00  0.00     0.049 A 
ATOM     39  N   UNL A   1      42.676  26.831  28.235  1.00  0.00    -0.248 NA
ATOM     40  C   UNL A   1      41.097  25.130  27.988  1.00  0.00     0.031 C 
ATOM     41  C   UNL A   1      45.900  23.979  27.002  1.00  0.00     0.029 A 
ATOM     42  N   UNL A   1      45.465  26.047  27.731  1.00  0.00    -0.354 N 
ATOM     43  C   UNL A   1      41.405  27.339  28.477  1.00  0.00     0.074 A 
ATOM     44  C   UNL A   1      40.466  26.268  28.233  1.00  0.00     0.031 C 
ATOM     45  C   UNL A   1      47.069  24.634  27.074  1.00  0.00     0.029 A 
ATOM     46  C   UNL A   1      46.823  25.997  27.532  1.00  0.00     0.049 A 
ATOM     47  H   UNL A   1      44.996  26.852  28.049  1.00  0.00     0.167 HD
ATOM     48  C   UNL A   1      41.052  28.578  28.896  1.00  0.00     0.037 A 
ATOM     49  C   UNL A   1      47.763  26.945  27.701  1.00  0.00     0.037 A 
ATOM     50  C   UNL A   1      41.992  29.628  29.181  1.00  0.00     0.049 A 
ATOM     51  C   UNL A   1      47.351  28.304  28.195  1.00  0.00     0.074 A 
ATOM     52  C   UNL A   1      41.747  30.898  29.673  1.00  0.00     0.029 A 
ATOM     53  N   UNL A   1      43.365  29.524  29.007  1.00  0.00    -0.354 N 
ATOM     54  N   UNL A   1      46.152  28.751  28.481  1.00  0.00    -0.248 NA
ATOM     55  C   UNL A   1      48.424  29.287  28.399  1.00  0.00     0.031 C 
ATOM     56  C   UNL A   1      42.967  31.575  29.763  1.00  0.00     0.029 A 
ATOM     57  C   UNL A   1      43.978  30.711  29.370  1.00  0.00     0.049 A 
ATOM     58  H   UNL A   1      43.833  28.725  28.674  1.00  0.00     0.167 HD
ATOM     59  C   UNL A   1      46.328  30.054  28.927  1.00  0.00     0.074 A 
ATOM     60  C   UNL A   1      47.752  30.320  28.886  1.00  0.00     0.031 C 
ATOM     61  C   UNL A   1      45.397  30.952  29.333  1.00  0.00     0.037 A 
BRANCH  48  62
ATOM     62  C   UNL A   1      39.588  28.855  29.079  1.00  0.00     0.057 A 
ATOM     63  C   UNL A   1      38.778  29.289  28.020  1.00  0.00     0.134 A 
ATOM     64  C   UNL A   1      38.973  28.667  30.324  1.00  0.00     0.134 A 
ATOM     65  F   UNL A   1      39.305  29.503  26.805  1.00  0.00    -0.206 F 
ATOM     66  C   UNL A   1      37.420  29.556  28.199  1.00  0.00     0.040 A 
ATOM     67  C   UNL A   1      37.609  28.903  30.508  1.00  0.00     0.040 A 
ATOM     68  F   UNL A   1      39.686  28.248  31.380  1.00  0.00    -0.206 F 
ATOM     69  C   UNL A   1      36.830  29.357  29.445  1.00  0.00     0.006 A 
ENDBRANCH  48  62
BRANCH  49  70
ATOM     70  C   UNL A   1      49.191  26.632  27.440  1.00  0.00     0.057 A 
ATOM     71  C   UNL A   1      50.030  26.186  28.469  1.00  0.00     0.134 A 
ATOM     72  C   UNL A   1      49.753  26.774  26.166  1.00  0.00     0.134 A 
ATOM     73  F   UNL A   1      49.552  26.047  29.714  1.00  0.00    -0.206 F 
ATOM     74  C   UNL A   1      51.380  25.911  28.245  1.00  0.00     0.040 A 
ATOM     75  C   UNL A   1      51.095  26.478  25.923  1.00  0.00     0.040 A 
ATOM     76  F   UNL A   1      49.001  27.188  25.136  1.00  0.00    -0.206 F 
ATOM     77  C   UNL A   1      51.915  26.053  26.966  1.00  0.00     0.006 A 
ENDBRANCH  49  70
BRANCH  61  78
ATOM     78  C   UNL A   1      45.894  32.286  29.803  1.00  0.00     0.057 A 
ATOM     79  C   UNL A   1      46.256  32.514  31.136  1.00  0.00     0.134 A 
ATOM     80  C   UNL A   1      46.042  33.347  28.900  1.00  0.00     0.134 A 
ATOM     81  F   UNL A   1      46.127  31.542  32.051  1.00  0.00    -0.206 F 
ATOM     82  C   UNL A   1      46.723  33.759  31.561  1.00  0.00     0.040 A 
ATOM     83  C   UNL A   1      46.533  34.588  29.307  1.00  0.00     0.040 A 
ATOM     84  F   UNL A   1      45.722  33.192  27.606  1.00  0.00    -0.206 F 
ATOM     85  C   UNL A   1      46.868  34.798  30.643  1.00  0.00     0.006 A 
ENDBRANCH  61  78
ENDBRANCH  35  36
ENDBRANCH  27  30
ENDBRANCH  25  26
ENDBRANCH  24  25
ENDBRANCH   1  24
TORSDOF 13
ENDMDL
