MODEL 1
REMARK VINA RESULT:     -12.1      0.000      0.000
REMARK SMILES O=C(C[C@H]1C[C@H]2CC[C@@H](C1)[N@H+]2[C@@H]1CCCSC1)NCCCNC(=O)c1ccc(-c2c3nc(c(-c4c(F)cccc4F)c4ccc([nH]4)c(-c4c(F)cccc4F)c4nc(c(-c5c(F)cccc5F)c5ccc2[nH]5)C=C4)C=C3)cc1
REMARK SMILES IDX 20 1 19 2 18 3 1 4 2 5 3 7 4 8 5 9 10 10 6 11 9 12 7 13
REMARK SMILES IDX 11 14 8 15 12 17 13 18 17 19 14 20 16 21 15 22 21 23 22 24
REMARK SMILES IDX 23 25 24 27 25 28 26 29 78 30 27 31 77 32 28 33 29 34 30 35
REMARK SMILES IDX 71 36 31 37 76 38 70 39 72 40 32 41 75 42 69 43 68 44 33 46
REMARK SMILES IDX 59 47 42 48 58 49 43 50 46 51 57 52 73 53 44 54 45 55 56 57
REMARK SMILES IDX 74 58 47 59 34 60 35 61 40 62 36 63 37 64 39 65 41 66 38 67
REMARK SMILES IDX 60 68 61 69 66 70 62 71 63 72 65 73 67 74 64 75 48 76 49 77
REMARK SMILES IDX 54 78 50 79 51 80 53 81 55 82 52 83
REMARK H PARENT 18 6 11 16 22 26 72 45 46 56
REMARK Flexibility Score: inf
ROOT
ATOM      1  C   UNL A   1      42.834  21.385  25.945  1.00  0.00     0.042 C 
ENDROOT
BRANCH   1   2
ATOM      2  C   UNL A   1      41.712  21.056  26.926  1.00  0.00     0.117 C 
BRANCH   2   3
ATOM      3  N   UNL A   1      40.416  20.845  26.303  1.00  0.00    -0.356 N 
ATOM      4  O   UNL A   1      39.610  22.906  26.903  1.00  0.00    -0.275 OA
ATOM      5  C   UNL A   1      39.471  21.851  26.294  1.00  0.00     0.220 C 
ATOM      6  H   UNL A   1      40.210  19.978  25.884  1.00  0.00     0.163 HD
BRANCH   5   7
ATOM      7  C   UNL A   1      38.245  21.570  25.445  1.00  0.00     0.104 C 
BRANCH   7   8
ATOM      8  C   UNL A   1      37.389  22.801  25.058  1.00  0.00     0.010 C 
ATOM      9  C   UNL A   1      36.627  22.666  23.716  1.00  0.00     0.069 C 
ATOM     10  C   UNL A   1      36.554  23.380  26.220  1.00  0.00     0.069 C 
ATOM     11  C   UNL A   1      35.092  22.787  23.790  1.00  0.00     0.185 C 
ATOM     12  C   UNL A   1      35.032  23.332  26.045  1.00  0.00     0.185 C 
ATOM     13  C   UNL A   1      34.496  21.554  24.470  1.00  0.00     0.071 C 
ATOM     14  N   UNL A   1      34.643  23.794  24.734  1.00  0.00    -0.327 N 
ATOM     15  C   UNL A   1      34.453  21.926  25.949  1.00  0.00     0.071 C 
ATOM     16  H   UNL A   1      33.633  23.928  24.675  1.00  0.00     0.348 HD
BRANCH  14  17
ATOM     17  C   UNL A   1      34.406  25.187  24.395  1.00  0.00     0.194 C 
ATOM     18  C   UNL A   1      33.892  26.037  25.565  1.00  0.00     0.067 C 
ATOM     19  C   UNL A   1      33.513  25.306  23.135  1.00  0.00     0.134 C 
ATOM     20  C   UNL A   1      33.674  27.509  25.204  1.00  0.00     0.017 C 
ATOM     21  S   UNL A   1      33.277  27.005  22.543  1.00  0.00    -0.156 SA
ATOM     22  C   UNL A   1      32.661  27.714  24.089  1.00  0.00     0.070 C 
ENDBRANCH  14  17
ENDBRANCH   7   8
ENDBRANCH   5   7
ENDBRANCH   2   3
ENDBRANCH   1   2
BRANCH   1  23
ATOM     23  C   UNL A   1      42.643  22.622  25.066  1.00  0.00     0.118 C 
BRANCH  23  24
ATOM     24  N   UNL A   1      43.869  23.312  24.693  1.00  0.00    -0.352 N 
ATOM     25  C   UNL A   1      44.385  24.517  25.122  1.00  0.00     0.251 C 
ATOM     26  H   UNL A   1      44.420  22.842  24.026  1.00  0.00     0.163 HD
ATOM     27  O   UNL A   1      45.480  24.889  24.719  1.00  0.00    -0.269 OA
BRANCH  25  28
ATOM     28  C   UNL A   1      43.583  25.413  25.985  1.00  0.00     0.039 A 
ATOM     29  C   UNL A   1      42.722  24.819  26.916  1.00  0.00     0.014 A 
ATOM     30  C   UNL A   1      43.709  26.803  25.943  1.00  0.00     0.014 A 
ATOM     31  C   UNL A   1      42.098  25.603  27.887  1.00  0.00     0.010 A 
ATOM     32  C   UNL A   1      43.143  27.577  26.956  1.00  0.00     0.010 A 
ATOM     33  C   UNL A   1      42.363  26.979  27.960  1.00  0.00    -0.014 A 
BRANCH  33  34
ATOM     34  C   UNL A   1      41.905  27.785  29.122  1.00  0.00     0.031 A 
ATOM     35  C   UNL A   1      42.599  27.688  30.448  1.00  0.00     0.074 A 
ATOM     36  C   UNL A   1      40.801  28.549  28.995  1.00  0.00     0.049 A 
ATOM     37  N   UNL A   1      42.284  28.251  31.587  1.00  0.00    -0.248 NA
ATOM     38  C   UNL A   1      43.790  26.828  30.510  1.00  0.00     0.031 C 
ATOM     39  C   UNL A   1      40.004  28.694  27.775  1.00  0.00     0.029 A 
ATOM     40  N   UNL A   1      40.148  29.340  29.910  1.00  0.00    -0.354 N 
ATOM     41  C   UNL A   1      43.226  27.803  32.504  1.00  0.00     0.074 A 
ATOM     42  C   UNL A   1      44.099  26.889  31.797  1.00  0.00     0.031 C 
ATOM     43  C   UNL A   1      38.985  29.536  28.009  1.00  0.00     0.029 A 
ATOM     44  C   UNL A   1      39.031  29.961  29.403  1.00  0.00     0.049 A 
ATOM     45  H   UNL A   1      40.451  29.452  30.839  1.00  0.00     0.167 HD
ATOM     46  C   UNL A   1      43.361  28.137  33.809  1.00  0.00     0.037 A 
ATOM     47  C   UNL A   1      38.137  30.775  29.996  1.00  0.00     0.037 A 
ATOM     48  C   UNL A   1      42.508  29.064  34.505  1.00  0.00     0.049 A 
ATOM     49  C   UNL A   1      38.311  31.130  31.446  1.00  0.00     0.074 A 
ATOM     50  C   UNL A   1      42.602  29.506  35.815  1.00  0.00     0.029 A 
ATOM     51  N   UNL A   1      41.403  29.691  33.952  1.00  0.00    -0.354 N 
ATOM     52  N   UNL A   1      39.242  30.745  32.284  1.00  0.00    -0.248 NA
ATOM     53  C   UNL A   1      37.312  32.036  32.032  1.00  0.00     0.031 C 
ATOM     54  C   UNL A   1      41.534  30.374  36.063  1.00  0.00     0.029 A 
ATOM     55  C   UNL A   1      40.797  30.504  34.897  1.00  0.00     0.049 A 
ATOM     56  H   UNL A   1      41.095  29.577  33.024  1.00  0.00     0.167 HD
ATOM     57  C   UNL A   1      38.960  31.382  33.484  1.00  0.00     0.074 A 
ATOM     58  C   UNL A   1      37.776  32.185  33.265  1.00  0.00     0.031 C 
ATOM     59  C   UNL A   1      39.626  31.308  34.662  1.00  0.00     0.037 A 
BRANCH  46  60
ATOM     60  C   UNL A   1      44.481  27.493  34.572  1.00  0.00     0.057 A 
ATOM     61  C   UNL A   1      44.315  26.269  35.231  1.00  0.00     0.134 A 
ATOM     62  C   UNL A   1      45.749  28.087  34.620  1.00  0.00     0.134 A 
ATOM     63  F   UNL A   1      43.122  25.655  35.233  1.00  0.00    -0.206 F 
ATOM     64  C   UNL A   1      45.363  25.669  35.932  1.00  0.00     0.040 A 
ATOM     65  C   UNL A   1      46.811  27.484  35.296  1.00  0.00     0.040 A 
ATOM     66  F   UNL A   1      45.978  29.256  34.004  1.00  0.00    -0.206 F 
ATOM     67  C   UNL A   1      46.617  26.274  35.959  1.00  0.00     0.006 A 
ENDBRANCH  46  60
BRANCH  47  68
ATOM     68  C   UNL A   1      37.005  31.331  29.213  1.00  0.00     0.057 A 
ATOM     69  C   UNL A   1      35.890  30.546  28.903  1.00  0.00     0.134 A 
ATOM     70  C   UNL A   1      37.013  32.653  28.753  1.00  0.00     0.134 A 
ATOM     71  F   UNL A   1      35.834  29.266  29.300  1.00  0.00    -0.206 F 
ATOM     72  C   UNL A   1      34.829  31.048  28.148  1.00  0.00     0.040 A 
ATOM     73  C   UNL A   1      35.949  33.176  28.016  1.00  0.00     0.040 A 
ATOM     74  F   UNL A   1      38.051  33.459  29.024  1.00  0.00    -0.206 F 
ATOM     75  C   UNL A   1      34.856  32.369  27.706  1.00  0.00     0.006 A 
ENDBRANCH  47  68
BRANCH  59  76
ATOM     76  C   UNL A   1      39.114  32.147  35.794  1.00  0.00     0.057 A 
ATOM     77  C   UNL A   1      38.250  31.628  36.767  1.00  0.00     0.134 A 
ATOM     78  C   UNL A   1      39.525  33.478  35.936  1.00  0.00     0.134 A 
ATOM     79  F   UNL A   1      37.808  30.365  36.679  1.00  0.00    -0.206 F 
ATOM     80  C   UNL A   1      37.800  32.411  37.832  1.00  0.00     0.040 A 
ATOM     81  C   UNL A   1      39.101  34.263  37.009  1.00  0.00     0.040 A 
ATOM     82  F   UNL A   1      40.358  34.033  35.041  1.00  0.00    -0.206 F 
ATOM     83  C   UNL A   1      38.233  33.730  37.958  1.00  0.00     0.006 A 
ENDBRANCH  59  76
ENDBRANCH  33  34
ENDBRANCH  25  28
ENDBRANCH  23  24
ENDBRANCH   1  23
TORSDOF 12
ENDMDL
MODEL 2
REMARK VINA RESULT:     -11.9      1.820      6.754
REMARK SMILES O=C(C[C@H]1C[C@H]2CC[C@@H](C1)[N@H+]2[C@@H]1CCCSC1)NCCCNC(=O)c1ccc(-c2c3nc(c(-c4c(F)cccc4F)c4ccc([nH]4)c(-c4c(F)cccc4F)c4nc(c(-c5c(F)cccc5F)c5ccc2[nH]5)C=C4)C=C3)cc1
REMARK SMILES IDX 20 1 19 2 18 3 1 4 2 5 3 7 4 8 5 9 10 10 6 11 9 12 7 13
REMARK SMILES IDX 11 14 8 15 12 17 13 18 17 19 14 20 16 21 15 22 21 23 22 24
REMARK SMILES IDX 23 25 24 27 25 28 26 29 78 30 27 31 77 32 28 33 29 34 30 35
REMARK SMILES IDX 71 36 31 37 76 38 70 39 72 40 32 41 75 42 69 43 68 44 33 46
REMARK SMILES IDX 59 47 42 48 58 49 43 50 46 51 57 52 73 53 44 54 45 55 56 57
REMARK SMILES IDX 74 58 47 59 34 60 35 61 40 62 36 63 37 64 39 65 41 66 38 67
REMARK SMILES IDX 60 68 61 69 66 70 62 71 63 72 65 73 67 74 64 75 48 76 49 77
REMARK SMILES IDX 54 78 50 79 51 80 53 81 55 82 52 83
REMARK H PARENT 18 6 11 16 22 26 72 45 46 56
REMARK Flexibility Score: inf
ROOT
ATOM      1  C   UNL A   1      40.502  22.261  27.345  1.00  0.00     0.042 C 
ENDROOT
BRANCH   1   2
ATOM      2  C   UNL A   1      39.757  21.540  26.225  1.00  0.00     0.117 C 
BRANCH   2   3
ATOM      3  N   UNL A   1      38.356  21.908  26.105  1.00  0.00    -0.356 N 
ATOM      4  O   UNL A   1      37.837  20.132  24.751  1.00  0.00    -0.275 OA
ATOM      5  C   UNL A   1      37.478  21.106  25.404  1.00  0.00     0.220 C 
ATOM      6  H   UNL A   1      38.031  22.736  26.526  1.00  0.00     0.163 HD
BRANCH   5   7
ATOM      7  C   UNL A   1      36.018  21.499  25.522  1.00  0.00     0.104 C 
BRANCH   7   8
ATOM      8  C   UNL A   1      35.689  22.987  25.250  1.00  0.00     0.010 C 
ATOM      9  C   UNL A   1      35.597  23.368  23.751  1.00  0.00     0.069 C 
ATOM     10  C   UNL A   1      34.558  23.556  26.132  1.00  0.00     0.069 C 
ATOM     11  C   UNL A   1      34.249  23.948  23.278  1.00  0.00     0.185 C 
ATOM     12  C   UNL A   1      33.299  24.025  25.393  1.00  0.00     0.185 C 
ATOM     13  C   UNL A   1      33.180  22.855  23.261  1.00  0.00     0.071 C 
ATOM     14  N   UNL A   1      33.637  24.836  24.249  1.00  0.00    -0.327 N 
ATOM     15  C   UNL A   1      32.556  22.921  24.652  1.00  0.00     0.071 C 
ATOM     16  H   UNL A   1      32.809  25.290  23.861  1.00  0.00     0.348 HD
BRANCH  14  17
ATOM     17  C   UNL A   1      33.860  26.271  24.300  1.00  0.00     0.194 C 
ATOM     18  C   UNL A   1      33.334  26.940  25.578  1.00  0.00     0.067 C 
ATOM     19  C   UNL A   1      33.343  26.958  23.013  1.00  0.00     0.134 C 
ATOM     20  C   UNL A   1      33.601  28.446  25.636  1.00  0.00     0.017 C 
ATOM     21  S   UNL A   1      33.705  28.734  22.916  1.00  0.00    -0.156 SA
ATOM     22  C   UNL A   1      32.962  29.217  24.492  1.00  0.00     0.070 C 
ENDBRANCH  14  17
ENDBRANCH   7   8
ENDBRANCH   5   7
ENDBRANCH   2   3
ENDBRANCH   1   2
BRANCH   1  23
ATOM     23  C   UNL A   1      41.760  23.035  26.952  1.00  0.00     0.118 C 
BRANCH  23  24
ATOM     24  N   UNL A   1      41.563  24.068  25.946  1.00  0.00    -0.352 N 
ATOM     25  C   UNL A   1      41.445  25.436  26.078  1.00  0.00     0.251 C 
ATOM     26  H   UNL A   1      41.503  23.737  25.021  1.00  0.00     0.163 HD
ATOM     27  O   UNL A   1      41.344  26.138  25.080  1.00  0.00    -0.269 OA
BRANCH  25  28
ATOM     28  C   UNL A   1      41.337  26.056  27.418  1.00  0.00     0.039 A 
ATOM     29  C   UNL A   1      42.398  26.860  27.849  1.00  0.00     0.014 A 
ATOM     30  C   UNL A   1      40.200  25.917  28.217  1.00  0.00     0.014 A 
ATOM     31  C   UNL A   1      42.265  27.627  29.007  1.00  0.00     0.010 A 
ATOM     32  C   UNL A   1      40.039  26.737  29.334  1.00  0.00     0.010 A 
ATOM     33  C   UNL A   1      41.055  27.628  29.717  1.00  0.00    -0.014 A 
BRANCH  33  34
ATOM     34  C   UNL A   1      40.807  28.611  30.805  1.00  0.00     0.031 A 
ATOM     35  C   UNL A   1      39.740  29.656  30.670  1.00  0.00     0.074 A 
ATOM     36  C   UNL A   1      41.610  28.606  31.889  1.00  0.00     0.049 A 
ATOM     37  N   UNL A   1      39.445  30.643  31.478  1.00  0.00    -0.248 NA
ATOM     38  C   UNL A   1      38.912  29.603  29.456  1.00  0.00     0.031 C 
ATOM     39  C   UNL A   1      42.716  27.674  32.122  1.00  0.00     0.029 A 
ATOM     40  N   UNL A   1      41.629  29.422  32.994  1.00  0.00    -0.354 N 
ATOM     41  C   UNL A   1      38.408  31.335  30.866  1.00  0.00     0.074 A 
ATOM     42  C   UNL A   1      38.154  30.680  29.600  1.00  0.00     0.031 C 
ATOM     43  C   UNL A   1      43.291  27.956  33.302  1.00  0.00     0.029 A 
ATOM     44  C   UNL A   1      42.623  29.110  33.893  1.00  0.00     0.049 A 
ATOM     45  H   UNL A   1      40.992  30.159  33.131  1.00  0.00     0.167 HD
ATOM     46  C   UNL A   1      37.719  32.406  31.327  1.00  0.00     0.037 A 
ATOM     47  C   UNL A   1      42.965  29.693  35.057  1.00  0.00     0.037 A 
ATOM     48  C   UNL A   1      37.955  33.042  32.596  1.00  0.00     0.049 A 
ATOM     49  C   UNL A   1      42.183  30.880  35.545  1.00  0.00     0.074 A 
ATOM     50  C   UNL A   1      37.270  34.100  33.171  1.00  0.00     0.029 A 
ATOM     51  N   UNL A   1      38.953  32.682  33.488  1.00  0.00    -0.354 N 
ATOM     52  N   UNL A   1      41.167  31.486  34.982  1.00  0.00    -0.248 NA
ATOM     53  C   UNL A   1      42.594  31.461  36.831  1.00  0.00     0.031 C 
ATOM     54  C   UNL A   1      37.876  34.401  34.396  1.00  0.00     0.029 A 
ATOM     55  C   UNL A   1      38.913  33.506  34.602  1.00  0.00     0.049 A 
ATOM     56  H   UNL A   1      39.595  31.948  33.351  1.00  0.00     0.167 HD
ATOM     57  C   UNL A   1      40.798  32.499  35.857  1.00  0.00     0.074 A 
ATOM     58  C   UNL A   1      41.694  32.422  36.991  1.00  0.00     0.031 C 
ATOM     59  C   UNL A   1      39.803  33.411  35.730  1.00  0.00     0.037 A 
BRANCH  46  60
ATOM     60  C   UNL A   1      36.637  32.959  30.447  1.00  0.00     0.057 A 
ATOM     61  C   UNL A   1      36.922  33.830  29.388  1.00  0.00     0.134 A 
ATOM     62  C   UNL A   1      35.299  32.590  30.639  1.00  0.00     0.134 A 
ATOM     63  F   UNL A   1      38.182  34.231  29.158  1.00  0.00    -0.206 F 
ATOM     64  C   UNL A   1      35.913  34.334  28.566  1.00  0.00     0.040 A 
ATOM     65  C   UNL A   1      34.285  33.068  29.808  1.00  0.00     0.040 A 
ATOM     66  F   UNL A   1      34.959  31.754  31.631  1.00  0.00    -0.206 F 
ATOM     67  C   UNL A   1      34.590  33.947  28.771  1.00  0.00     0.006 A 
ENDBRANCH  46  60
BRANCH  47  68
ATOM     68  C   UNL A   1      44.090  29.149  35.857  1.00  0.00     0.057 A 
ATOM     69  C   UNL A   1      45.389  29.647  35.705  1.00  0.00     0.134 A 
ATOM     70  C   UNL A   1      43.897  28.119  36.786  1.00  0.00     0.134 A 
ATOM     71  F   UNL A   1      45.638  30.620  34.817  1.00  0.00    -0.206 F 
ATOM     72  C   UNL A   1      46.460  29.129  36.434  1.00  0.00     0.040 A 
ATOM     73  C   UNL A   1      44.956  27.607  37.538  1.00  0.00     0.040 A 
ATOM     74  F   UNL A   1      42.674  27.604  36.982  1.00  0.00    -0.206 F 
ATOM     75  C   UNL A   1      46.243  28.108  37.358  1.00  0.00     0.006 A 
ENDBRANCH  47  68
BRANCH  59  76
ATOM     76  C   UNL A   1      39.605  34.373  36.862  1.00  0.00     0.057 A 
ATOM     77  C   UNL A   1      38.899  34.018  38.018  1.00  0.00     0.134 A 
ATOM     78  C   UNL A   1      40.164  35.656  36.812  1.00  0.00     0.134 A 
ATOM     79  F   UNL A   1      38.327  32.809  38.122  1.00  0.00    -0.206 F 
ATOM     80  C   UNL A   1      38.743  34.914  39.079  1.00  0.00     0.040 A 
ATOM     81  C   UNL A   1      40.034  36.551  37.874  1.00  0.00     0.040 A 
ATOM     82  F   UNL A   1      40.858  36.054  35.734  1.00  0.00    -0.206 F 
ATOM     83  C   UNL A   1      39.318  36.181  39.010  1.00  0.00     0.006 A 
ENDBRANCH  59  76
ENDBRANCH  33  34
ENDBRANCH  25  28
ENDBRANCH  23  24
ENDBRANCH   1  23
TORSDOF 12
ENDMDL
MODEL 3
REMARK VINA RESULT:     -11.9      3.774      5.249
REMARK SMILES O=C(C[C@H]1C[C@H]2CC[C@@H](C1)[N@H+]2[C@@H]1CCCSC1)NCCCNC(=O)c1ccc(-c2c3nc(c(-c4c(F)cccc4F)c4ccc([nH]4)c(-c4c(F)cccc4F)c4nc(c(-c5c(F)cccc5F)c5ccc2[nH]5)C=C4)C=C3)cc1
REMARK SMILES IDX 20 1 19 2 18 3 1 4 2 5 3 7 4 8 5 9 10 10 6 11 9 12 7 13
REMARK SMILES IDX 11 14 8 15 12 17 13 18 17 19 14 20 16 21 15 22 21 23 22 24
REMARK SMILES IDX 23 25 24 27 25 28 26 29 78 30 27 31 77 32 28 33 29 34 30 35
REMARK SMILES IDX 71 36 31 37 76 38 70 39 72 40 32 41 75 42 69 43 68 44 33 46
REMARK SMILES IDX 59 47 42 48 58 49 43 50 46 51 57 52 73 53 44 54 45 55 56 57
REMARK SMILES IDX 74 58 47 59 34 60 35 61 40 62 36 63 37 64 39 65 41 66 38 67
REMARK SMILES IDX 60 68 61 69 66 70 62 71 63 72 65 73 67 74 64 75 48 76 49 77
REMARK SMILES IDX 54 78 50 79 51 80 53 81 55 82 52 83
REMARK H PARENT 18 6 11 16 22 26 72 45 46 56
REMARK Flexibility Score: inf
ROOT
ATOM      1  C   UNL A   1      37.431  21.053  24.678  1.00  0.00     0.042 C 
ENDROOT
BRANCH   1   2
ATOM      2  C   UNL A   1      36.135  20.354  25.079  1.00  0.00     0.117 C 
BRANCH   2   3
ATOM      3  N   UNL A   1      35.216  21.187  25.837  1.00  0.00    -0.356 N 
ATOM      4  O   UNL A   1      33.536  21.032  24.284  1.00  0.00    -0.275 OA
ATOM      5  C   UNL A   1      33.931  21.406  25.384  1.00  0.00     0.220 C 
ATOM      6  H   UNL A   1      35.513  21.598  26.681  1.00  0.00     0.163 HD
BRANCH   5   7
ATOM      7  C   UNL A   1      33.021  22.125  26.361  1.00  0.00     0.104 C 
BRANCH   7   8
ATOM      8  C   UNL A   1      33.027  23.671  26.285  1.00  0.00     0.010 C 
ATOM      9  C   UNL A   1      34.381  24.297  25.869  1.00  0.00     0.069 C 
ATOM     10  C   UNL A   1      31.792  24.273  25.580  1.00  0.00     0.069 C 
ATOM     11  C   UNL A   1      34.367  25.162  24.592  1.00  0.00     0.185 C 
ATOM     12  C   UNL A   1      32.069  25.058  24.292  1.00  0.00     0.185 C 
ATOM     13  C   UNL A   1      34.179  24.280  23.357  1.00  0.00     0.071 C 
ATOM     14  N   UNL A   1      33.171  25.973  24.465  1.00  0.00    -0.327 N 
ATOM     15  C   UNL A   1      32.666  24.226  23.164  1.00  0.00     0.071 C 
ATOM     16  H   UNL A   1      33.244  26.615  23.675  1.00  0.00     0.348 HD
BRANCH  14  17
ATOM     17  C   UNL A   1      33.039  27.324  24.984  1.00  0.00     0.194 C 
ATOM     18  C   UNL A   1      33.356  27.452  26.480  1.00  0.00     0.067 C 
ATOM     19  C   UNL A   1      31.662  27.928  24.613  1.00  0.00     0.134 C 
ATOM     20  C   UNL A   1      33.244  28.883  27.011  1.00  0.00     0.017 C 
ATOM     21  S   UNL A   1      31.455  29.666  25.093  1.00  0.00    -0.156 SA
ATOM     22  C   UNL A   1      31.855  29.481  26.847  1.00  0.00     0.070 C 
ENDBRANCH  14  17
ENDBRANCH   7   8
ENDBRANCH   5   7
ENDBRANCH   2   3
ENDBRANCH   1   2
BRANCH   1  23
ATOM     23  C   UNL A   1      38.570  21.037  25.697  1.00  0.00     0.118 C 
BRANCH  23  24
ATOM     24  N   UNL A   1      39.522  19.946  25.545  1.00  0.00    -0.352 N 
ATOM     25  C   UNL A   1      40.823  19.825  25.986  1.00  0.00     0.251 C 
ATOM     26  H   UNL A   1      39.181  19.168  25.047  1.00  0.00     0.163 HD
ATOM     27  O   UNL A   1      41.435  18.780  25.800  1.00  0.00    -0.269 OA
BRANCH  25  28
ATOM     28  C   UNL A   1      41.523  20.981  26.591  1.00  0.00     0.039 A 
ATOM     29  C   UNL A   1      42.160  21.879  25.727  1.00  0.00     0.014 A 
ATOM     30  C   UNL A   1      41.508  21.229  27.964  1.00  0.00     0.014 A 
ATOM     31  C   UNL A   1      42.658  23.086  26.220  1.00  0.00     0.010 A 
ATOM     32  C   UNL A   1      41.941  22.465  28.445  1.00  0.00     0.010 A 
ATOM     33  C   UNL A   1      42.485  23.420  27.571  1.00  0.00    -0.014 A 
BRANCH  33  34
ATOM     34  C   UNL A   1      42.788  24.789  28.065  1.00  0.00     0.031 A 
ATOM     35  C   UNL A   1      44.182  25.172  28.464  1.00  0.00     0.074 A 
ATOM     36  C   UNL A   1      41.777  25.666  28.229  1.00  0.00     0.049 A 
ATOM     37  N   UNL A   1      44.611  26.290  28.995  1.00  0.00    -0.248 NA
ATOM     38  C   UNL A   1      45.229  24.159  28.266  1.00  0.00     0.031 C 
ATOM     39  C   UNL A   1      40.368  25.404  27.925  1.00  0.00     0.029 A 
ATOM     40  N   UNL A   1      41.776  26.955  28.705  1.00  0.00    -0.354 N 
ATOM     41  C   UNL A   1      45.971  26.111  29.206  1.00  0.00     0.074 A 
ATOM     42  C   UNL A   1      46.289  24.762  28.785  1.00  0.00     0.031 C 
ATOM     43  C   UNL A   1      39.644  26.501  28.202  1.00  0.00     0.029 A 
ATOM     44  C   UNL A   1      40.527  27.530  28.739  1.00  0.00     0.049 A 
ATOM     45  H   UNL A   1      42.591  27.423  28.996  1.00  0.00     0.167 HD
ATOM     46  C   UNL A   1      46.876  26.996  29.689  1.00  0.00     0.037 A 
ATOM     47  C   UNL A   1      40.134  28.746  29.162  1.00  0.00     0.037 A 
ATOM     48  C   UNL A   1      46.565  28.344  30.084  1.00  0.00     0.049 A 
ATOM     49  C   UNL A   1      41.158  29.709  29.693  1.00  0.00     0.074 A 
ATOM     50  C   UNL A   1      47.426  29.331  30.534  1.00  0.00     0.029 A 
ATOM     51  N   UNL A   1      45.294  28.897  30.080  1.00  0.00    -0.354 N 
ATOM     52  N   UNL A   1      42.451  29.545  29.831  1.00  0.00    -0.248 NA
ATOM     53  C   UNL A   1      40.669  31.027  30.124  1.00  0.00     0.031 C 
ATOM     54  C   UNL A   1      46.671  30.470  30.834  1.00  0.00     0.029 A 
ATOM     55  C   UNL A   1      45.345  30.206  30.534  1.00  0.00     0.049 A 
ATOM     56  H   UNL A   1      44.475  28.429  29.795  1.00  0.00     0.167 HD
ATOM     57  C   UNL A   1      42.934  30.745  30.334  1.00  0.00     0.074 A 
ATOM     58  C   UNL A   1      41.797  31.631  30.472  1.00  0.00     0.031 C 
ATOM     59  C   UNL A   1      44.207  31.081  30.653  1.00  0.00     0.037 A 
BRANCH  46  60
ATOM     60  C   UNL A   1      48.296  26.530  29.814  1.00  0.00     0.057 A 
ATOM     61  C   UNL A   1      48.750  25.847  30.950  1.00  0.00     0.134 A 
ATOM     62  C   UNL A   1      49.212  26.735  28.774  1.00  0.00     0.134 A 
ATOM     63  F   UNL A   1      47.925  25.628  31.986  1.00  0.00    -0.206 F 
ATOM     64  C   UNL A   1      50.070  25.407  31.058  1.00  0.00     0.040 A 
ATOM     65  C   UNL A   1      50.527  26.277  28.860  1.00  0.00     0.040 A 
ATOM     66  F   UNL A   1      48.840  27.376  27.656  1.00  0.00    -0.206 F 
ATOM     67  C   UNL A   1      50.961  25.616  30.007  1.00  0.00     0.006 A 
ENDBRANCH  46  60
BRANCH  47  68
ATOM     68  C   UNL A   1      38.704  29.134  29.081  1.00  0.00     0.057 A 
ATOM     69  C   UNL A   1      38.152  29.603  27.884  1.00  0.00     0.134 A 
ATOM     70  C   UNL A   1      37.858  29.051  30.193  1.00  0.00     0.134 A 
ATOM     71  F   UNL A   1      38.918  29.723  26.790  1.00  0.00    -0.206 F 
ATOM     72  C   UNL A   1      36.815  29.993  27.799  1.00  0.00     0.040 A 
ATOM     73  C   UNL A   1      36.513  29.416  30.117  1.00  0.00     0.040 A 
ATOM     74  F   UNL A   1      38.325  28.602  31.368  1.00  0.00    -0.206 F 
ATOM     75  C   UNL A   1      35.990  29.896  28.917  1.00  0.00     0.006 A 
ENDBRANCH  47  68
BRANCH  59  76
ATOM     76  C   UNL A   1      44.447  32.477  31.144  1.00  0.00     0.057 A 
ATOM     77  C   UNL A   1      44.428  32.795  32.507  1.00  0.00     0.134 A 
ATOM     78  C   UNL A   1      44.742  33.507  30.242  1.00  0.00     0.134 A 
ATOM     79  F   UNL A   1      44.138  31.856  33.420  1.00  0.00    -0.206 F 
ATOM     80  C   UNL A   1      44.679  34.094  32.955  1.00  0.00     0.040 A 
ATOM     81  C   UNL A   1      45.016  34.803  30.679  1.00  0.00     0.040 A 
ATOM     82  F   UNL A   1      44.781  33.266  28.922  1.00  0.00    -0.206 F 
ATOM     83  C   UNL A   1      44.982  35.100  32.039  1.00  0.00     0.006 A 
ENDBRANCH  59  76
ENDBRANCH  33  34
ENDBRANCH  25  28
ENDBRANCH  23  24
ENDBRANCH   1  23
TORSDOF 12
ENDMDL
