MODEL 1
REMARK VINA RESULT:     -13.4      0.000      0.000
REMARK SMILES Nc1ccc(-c2cc(Cl)cc3c2O[C@H](C(F)(F)F)C(C(=O)NCCCNC(=O)c2ccc(-c4c5nc(c(-c6c(F)cccc6F)c6ccc([nH]6)c(-c6c(F)cccc6F)c6nc(c(-c7c(F)cccc7F)c7ccc4[nH]7)C=C6)C=C5)cc2)=C3)cc1
REMARK SMILES IDX 24 1 23 2 22 3 20 4 21 5 19 7 6 8 7 9 12 10 8 11 11 12 13 13
REMARK SMILES IDX 9 14 10 15 83 16 14 17 5 18 2 19 3 20 85 21 4 22 84 23 1 24
REMARK SMILES IDX 15 27 16 28 17 29 18 30 25 31 26 32 27 33 28 35 29 36 30 37
REMARK SMILES IDX 82 38 31 39 81 40 32 41 33 42 34 43 75 44 35 45 80 46 74 47
REMARK SMILES IDX 76 48 36 49 79 50 73 51 72 52 37 54 63 55 46 56 62 57 47 58
REMARK SMILES IDX 50 59 61 60 77 61 48 62 49 63 60 65 78 66 51 67 38 68 39 69
REMARK SMILES IDX 44 70 40 71 41 72 43 73 45 74 42 75 64 76 65 77 70 78 66 79
REMARK SMILES IDX 67 80 69 81 71 82 68 83 52 84 53 85 58 86 54 87 55 88 57 89
REMARK SMILES IDX 59 90 56 91
REMARK H PARENT 22 6 1 25 1 26 26 34 76 53 50 64
REMARK Flexibility Score: inf
ROOT
ATOM      1  C   UNL A   1      37.785  19.891  25.004  1.00  0.00     0.042 C 
ENDROOT
BRANCH   1   2
ATOM      2  C   UNL A   1      36.700  20.947  25.145  1.00  0.00     0.118 C 
BRANCH   2   3
ATOM      3  N   UNL A   1      37.177  22.137  25.832  1.00  0.00    -0.352 N 
ATOM      4  C   UNL A   1      36.672  23.339  26.198  1.00  0.00     0.251 C 
ATOM      5  O   UNL A   1      37.455  24.075  26.805  1.00  0.00    -0.270 OA
ATOM      6  H   UNL A   1      38.118  22.044  26.103  1.00  0.00     0.163 HD
BRANCH   4   7
ATOM      7  C   UNL A   1      35.285  23.809  25.916  1.00  0.00     0.067 C 
ATOM      8  C   UNL A   1      31.376  25.263  25.357  1.00  0.00     0.026 A 
ATOM      9  C   UNL A   1      30.311  24.577  25.957  1.00  0.00     0.033 A 
ATOM     10  C   UNL A   1      32.684  24.816  25.629  1.00  0.00     0.135 A 
ATOM     11  C   UNL A   1      30.554  23.483  26.792  1.00  0.00     0.042 A 
ATOM     12  C   UNL A   1      32.932  23.713  26.456  1.00  0.00     0.019 A 
ATOM     13  O   UNL A   1      33.724  25.538  25.098  1.00  0.00    -0.475 OA
ATOM     14  Cl  UNL A   1      29.229  22.658  27.517  1.00  0.00    -0.084 Cl
ATOM     15  C   UNL A   1      31.856  23.048  27.044  1.00  0.00     0.032 A 
ATOM     16  C   UNL A   1      34.312  23.302  26.698  1.00  0.00     0.025 C 
ATOM     17  C   UNL A   1      34.931  24.783  24.832  1.00  0.00     0.314 C 
BRANCH   8  18
ATOM     18  C   UNL A   1      31.136  26.400  24.454  1.00  0.00    -0.014 A 
ATOM     19  C   UNL A   1      30.830  28.593  22.685  1.00  0.00     0.031 A 
ATOM     20  C   UNL A   1      30.921  27.291  22.193  1.00  0.00     0.026 A 
ATOM     21  C   UNL A   1      30.913  28.792  24.064  1.00  0.00     0.026 A 
ATOM     22  C   UNL A   1      31.052  26.206  23.066  1.00  0.00     0.011 A 
ATOM     23  C   UNL A   1      31.051  27.710  24.942  1.00  0.00     0.011 A 
BRANCH  19  24
ATOM     24  N   UNL A   1      30.795  29.670  21.816  1.00  0.00    -0.399 N 
ATOM     25  H   UNL A   1      29.930  30.015  21.494  1.00  0.00     0.156 HD
ATOM     26  H   UNL A   1      31.633  30.092  21.521  1.00  0.00     0.156 HD
ENDBRANCH  19  24
ENDBRANCH   8  18
BRANCH  17  27
ATOM     27  C   UNL A   1      34.843  24.132  23.436  1.00  0.00     0.429 C 
ATOM     28  F   UNL A   1      34.387  25.026  22.525  1.00  0.00    -0.167 F 
ATOM     29  F   UNL A   1      36.047  23.704  22.987  1.00  0.00    -0.167 F 
ATOM     30  F   UNL A   1      34.015  23.064  23.403  1.00  0.00    -0.167 F 
ENDBRANCH  17  27
ENDBRANCH   4   7
ENDBRANCH   2   3
ENDBRANCH   1   2
BRANCH   1  31
ATOM     31  C   UNL A   1      39.068  20.268  25.732  1.00  0.00     0.118 C 
BRANCH  31  32
ATOM     32  N   UNL A   1      40.029  19.167  25.780  1.00  0.00    -0.352 N 
ATOM     33  C   UNL A   1      41.384  19.177  26.012  1.00  0.00     0.251 C 
ATOM     34  H   UNL A   1      39.644  18.275  25.620  1.00  0.00     0.163 HD
ATOM     35  O   UNL A   1      42.040  18.155  25.839  1.00  0.00    -0.269 OA
BRANCH  33  36
ATOM     36  C   UNL A   1      42.054  20.423  26.438  1.00  0.00     0.039 A 
ATOM     37  C   UNL A   1      42.139  20.748  27.790  1.00  0.00     0.014 A 
ATOM     38  C   UNL A   1      42.584  21.285  25.474  1.00  0.00     0.014 A 
ATOM     39  C   UNL A   1      42.550  22.019  28.161  1.00  0.00     0.010 A 
ATOM     40  C   UNL A   1      43.112  22.521  25.864  1.00  0.00     0.010 A 
ATOM     41  C   UNL A   1      43.042  22.924  27.205  1.00  0.00    -0.014 A 
BRANCH  41  42
ATOM     42  C   UNL A   1      43.450  24.280  27.658  1.00  0.00     0.031 A 
ATOM     43  C   UNL A   1      44.881  24.737  27.550  1.00  0.00     0.074 A 
ATOM     44  C   UNL A   1      42.495  25.139  28.067  1.00  0.00     0.049 A 
ATOM     45  N   UNL A   1      45.387  25.920  27.796  1.00  0.00    -0.248 NA
ATOM     46  C   UNL A   1      45.874  23.741  27.119  1.00  0.00     0.031 C 
ATOM     47  C   UNL A   1      41.075  24.811  28.221  1.00  0.00     0.029 A 
ATOM     48  N   UNL A   1      42.561  26.473  28.375  1.00  0.00    -0.354 N 
ATOM     49  C   UNL A   1      46.754  25.804  27.574  1.00  0.00     0.074 A 
ATOM     50  C   UNL A   1      47.005  24.429  27.203  1.00  0.00     0.031 C 
ATOM     51  C   UNL A   1      40.393  25.929  28.504  1.00  0.00     0.029 A 
ATOM     52  C   UNL A   1      41.333  27.038  28.619  1.00  0.00     0.049 A 
ATOM     53  H   UNL A   1      43.406  26.977  28.416  1.00  0.00     0.167 HD
ATOM     54  C   UNL A   1      47.713  26.758  27.658  1.00  0.00     0.037 A 
ATOM     55  C   UNL A   1      40.999  28.309  28.904  1.00  0.00     0.037 A 
ATOM     56  C   UNL A   1      47.460  28.135  28.002  1.00  0.00     0.049 A 
ATOM     57  C   UNL A   1      42.081  29.342  28.995  1.00  0.00     0.074 A 
ATOM     58  C   UNL A   1      48.361  29.182  28.098  1.00  0.00     0.029 A 
ATOM     59  N   UNL A   1      46.210  28.655  28.302  1.00  0.00    -0.354 N 
ATOM     60  N   UNL A   1      43.367  29.216  28.773  1.00  0.00    -0.248 NA
ATOM     61  C   UNL A   1      41.665  30.694  29.390  1.00  0.00     0.031 C 
ATOM     62  C   UNL A   1      47.659  30.329  28.489  1.00  0.00     0.029 A 
ATOM     63  C   UNL A   1      46.316  30.005  28.598  1.00  0.00     0.049 A 
ATOM     64  H   UNL A   1      45.370  28.142  28.304  1.00  0.00     0.167 HD
ATOM     65  C   UNL A   1      43.913  30.471  28.999  1.00  0.00     0.074 A 
ATOM     66  C   UNL A   1      42.814  31.352  29.335  1.00  0.00     0.031 C 
ATOM     67  C   UNL A   1      45.211  30.859  28.945  1.00  0.00     0.037 A 
BRANCH  54  68
ATOM     68  C   UNL A   1      49.130  26.339  27.389  1.00  0.00     0.057 A 
ATOM     69  C   UNL A   1      49.637  26.336  26.083  1.00  0.00     0.134 A 
ATOM     70  C   UNL A   1      49.989  25.924  28.415  1.00  0.00     0.134 A 
ATOM     71  F   UNL A   1      48.867  26.717  25.053  1.00  0.00    -0.206 F 
ATOM     72  C   UNL A   1      50.945  25.934  25.808  1.00  0.00     0.040 A 
ATOM     73  C   UNL A   1      51.307  25.543  28.156  1.00  0.00     0.040 A 
ATOM     74  F   UNL A   1      49.571  25.920  29.691  1.00  0.00    -0.206 F 
ATOM     75  C   UNL A   1      51.787  25.544  26.847  1.00  0.00     0.006 A 
ENDBRANCH  54  68
BRANCH  55  76
ATOM     76  C   UNL A   1      39.577  28.674  29.132  1.00  0.00     0.057 A 
ATOM     77  C   UNL A   1      38.778  29.170  28.095  1.00  0.00     0.134 A 
ATOM     78  C   UNL A   1      38.981  28.516  30.388  1.00  0.00     0.134 A 
ATOM     79  F   UNL A   1      39.294  29.349  26.869  1.00  0.00    -0.206 F 
ATOM     80  C   UNL A   1      37.440  29.504  28.300  1.00  0.00     0.040 A 
ATOM     81  C   UNL A   1      37.635  28.821  30.600  1.00  0.00     0.040 A 
ATOM     82  F   UNL A   1      39.690  28.028  31.416  1.00  0.00    -0.206 F 
ATOM     83  C   UNL A   1      36.862  29.320  29.554  1.00  0.00     0.006 A 
ENDBRANCH  55  76
BRANCH  67  84
ATOM     84  C   UNL A   1      45.490  32.300  29.256  1.00  0.00     0.057 A 
ATOM     85  C   UNL A   1      45.450  33.270  28.248  1.00  0.00     0.134 A 
ATOM     86  C   UNL A   1      45.775  32.727  30.559  1.00  0.00     0.134 A 
ATOM     87  F   UNL A   1      45.189  32.925  26.979  1.00  0.00    -0.206 F 
ATOM     88  C   UNL A   1      45.675  34.619  28.528  1.00  0.00     0.040 A 
ATOM     89  C   UNL A   1      45.975  34.076  30.855  1.00  0.00     0.040 A 
ATOM     90  F   UNL A   1      45.808  31.847  31.571  1.00  0.00    -0.206 F 
ATOM     91  C   UNL A   1      45.926  35.025  29.837  1.00  0.00     0.006 A 
ENDBRANCH  67  84
ENDBRANCH  41  42
ENDBRANCH  33  36
ENDBRANCH  31  32
ENDBRANCH   1  31
TORSDOF 13
ENDMDL
MODEL 2
REMARK VINA RESULT:     -13.3      5.050      9.969
REMARK SMILES Nc1ccc(-c2cc(Cl)cc3c2O[C@H](C(F)(F)F)C(C(=O)NCCCNC(=O)c2ccc(-c4c5nc(c(-c6c(F)cccc6F)c6ccc([nH]6)c(-c6c(F)cccc6F)c6nc(c(-c7c(F)cccc7F)c7ccc4[nH]7)C=C6)C=C5)cc2)=C3)cc1
REMARK SMILES IDX 24 1 23 2 22 3 20 4 21 5 19 7 6 8 7 9 12 10 8 11 11 12 13 13
REMARK SMILES IDX 9 14 10 15 83 16 14 17 5 18 2 19 3 20 85 21 4 22 84 23 1 24
REMARK SMILES IDX 15 27 16 28 17 29 18 30 25 31 26 32 27 33 28 35 29 36 30 37
REMARK SMILES IDX 82 38 31 39 81 40 32 41 33 42 34 43 75 44 35 45 80 46 74 47
REMARK SMILES IDX 76 48 36 49 79 50 73 51 72 52 37 54 63 55 46 56 62 57 47 58
REMARK SMILES IDX 50 59 61 60 77 61 48 62 49 63 60 65 78 66 51 67 38 68 39 69
REMARK SMILES IDX 44 70 40 71 41 72 43 73 45 74 42 75 64 76 65 77 70 78 66 79
REMARK SMILES IDX 67 80 69 81 71 82 68 83 52 84 53 85 58 86 54 87 55 88 57 89
REMARK SMILES IDX 59 90 56 91
REMARK H PARENT 22 6 1 25 1 26 26 34 76 53 50 64
REMARK Flexibility Score: inf
ROOT
ATOM      1  C   UNL A   1      31.469  31.713  26.502  1.00  0.00     0.042 C 
ENDROOT
BRANCH   1   2
ATOM      2  C   UNL A   1      31.889  30.359  25.951  1.00  0.00     0.118 C 
BRANCH   2   3
ATOM      3  N   UNL A   1      33.260  30.023  26.303  1.00  0.00    -0.352 N 
ATOM      4  C   UNL A   1      34.109  28.988  26.101  1.00  0.00     0.251 C 
ATOM      5  O   UNL A   1      35.237  29.132  26.582  1.00  0.00    -0.270 OA
ATOM      6  H   UNL A   1      33.684  30.740  26.828  1.00  0.00     0.163 HD
BRANCH   4   7
ATOM      7  C   UNL A   1      33.775  27.734  25.367  1.00  0.00     0.067 C 
ATOM      8  C   UNL A   1      33.085  24.186  23.212  1.00  0.00     0.026 A 
ATOM      9  C   UNL A   1      32.815  24.275  21.839  1.00  0.00     0.033 A 
ATOM     10  C   UNL A   1      33.402  25.374  23.898  1.00  0.00     0.135 A 
ATOM     11  C   UNL A   1      32.861  25.510  21.187  1.00  0.00     0.042 A 
ATOM     12  C   UNL A   1      33.437  26.616  23.252  1.00  0.00     0.019 A 
ATOM     13  O   UNL A   1      33.737  25.270  25.226  1.00  0.00    -0.475 OA
ATOM     14  Cl  UNL A   1      32.527  25.592  19.500  1.00  0.00    -0.084 Cl
ATOM     15  C   UNL A   1      33.170  26.679  21.884  1.00  0.00     0.032 A 
ATOM     16  C   UNL A   1      33.776  27.810  24.022  1.00  0.00     0.025 C 
ATOM     17  C   UNL A   1      33.439  26.434  26.035  1.00  0.00     0.314 C 
BRANCH   8  18
ATOM     18  C   UNL A   1      33.015  22.897  23.918  1.00  0.00    -0.014 A 
ATOM     19  C   UNL A   1      32.913  20.493  25.415  1.00  0.00     0.031 A 
ATOM     20  C   UNL A   1      31.815  21.351  25.376  1.00  0.00     0.026 A 
ATOM     21  C   UNL A   1      34.067  20.854  24.719  1.00  0.00     0.026 A 
ATOM     22  C   UNL A   1      31.857  22.529  24.622  1.00  0.00     0.011 A 
ATOM     23  C   UNL A   1      34.117  22.035  23.967  1.00  0.00     0.011 A 
BRANCH  19  24
ATOM     24  N   UNL A   1      32.903  19.377  26.236  1.00  0.00    -0.399 N 
ATOM     25  H   UNL A   1      32.790  18.481  25.846  1.00  0.00     0.156 HD
ATOM     26  H   UNL A   1      33.009  19.481  27.209  1.00  0.00     0.156 HD
ENDBRANCH  19  24
ENDBRANCH   8  18
BRANCH  17  27
ATOM     27  C   UNL A   1      31.980  26.365  26.532  1.00  0.00     0.429 C 
ATOM     28  F   UNL A   1      31.660  25.096  26.888  1.00  0.00    -0.167 F 
ATOM     29  F   UNL A   1      31.768  27.137  27.625  1.00  0.00    -0.167 F 
ATOM     30  F   UNL A   1      31.085  26.760  25.599  1.00  0.00    -0.167 F 
ENDBRANCH  17  27
ENDBRANCH   4   7
ENDBRANCH   2   3
ENDBRANCH   1   2
BRANCH   1  31
ATOM     31  C   UNL A   1      32.592  32.413  27.256  1.00  0.00     0.118 C 
BRANCH  31  32
ATOM     32  N   UNL A   1      32.295  33.818  27.525  1.00  0.00    -0.352 N 
ATOM     33  C   UNL A   1      32.886  34.704  28.395  1.00  0.00     0.251 C 
ATOM     34  H   UNL A   1      31.551  34.192  26.998  1.00  0.00     0.163 HD
ATOM     35  O   UNL A   1      32.373  35.800  28.593  1.00  0.00    -0.269 OA
BRANCH  33  36
ATOM     36  C   UNL A   1      34.121  34.324  29.113  1.00  0.00     0.039 A 
ATOM     37  C   UNL A   1      35.369  34.588  28.554  1.00  0.00     0.014 A 
ATOM     38  C   UNL A   1      34.028  33.678  30.349  1.00  0.00     0.014 A 
ATOM     39  C   UNL A   1      36.502  34.019  29.115  1.00  0.00     0.010 A 
ATOM     40  C   UNL A   1      35.189  33.210  30.976  1.00  0.00     0.010 A 
ATOM     41  C   UNL A   1      36.429  33.322  30.333  1.00  0.00    -0.014 A 
BRANCH  41  42
ATOM     42  C   UNL A   1      37.673  32.717  30.876  1.00  0.00     0.031 A 
ATOM     43  C   UNL A   1      38.233  33.153  32.205  1.00  0.00     0.074 A 
ATOM     44  C   UNL A   1      38.235  31.687  30.212  1.00  0.00     0.049 A 
ATOM     45  N   UNL A   1      39.243  32.657  32.875  1.00  0.00    -0.248 NA
ATOM     46  C   UNL A   1      37.585  34.298  32.864  1.00  0.00     0.031 C 
ATOM     47  C   UNL A   1      37.788  31.178  28.913  1.00  0.00     0.029 A 
ATOM     48  N   UNL A   1      39.264  30.850  30.559  1.00  0.00    -0.354 N 
ATOM     49  C   UNL A   1      39.366  33.439  34.017  1.00  0.00     0.074 A 
ATOM     50  C   UNL A   1      38.348  34.463  33.936  1.00  0.00     0.031 C 
ATOM     51  C   UNL A   1      38.475  30.066  28.615  1.00  0.00     0.029 A 
ATOM     52  C   UNL A   1      39.456  29.823  29.667  1.00  0.00     0.049 A 
ATOM     53  H   UNL A   1      39.812  30.973  31.367  1.00  0.00     0.167 HD
ATOM     54  C   UNL A   1      40.238  33.310  35.047  1.00  0.00     0.037 A 
ATOM     55  C   UNL A   1      40.325  28.798  29.692  1.00  0.00     0.037 A 
ATOM     56  C   UNL A   1      41.235  32.274  35.140  1.00  0.00     0.049 A 
ATOM     57  C   UNL A   1      41.281  28.683  30.841  1.00  0.00     0.074 A 
ATOM     58  C   UNL A   1      42.155  32.047  36.150  1.00  0.00     0.029 A 
ATOM     59  N   UNL A   1      41.438  31.287  34.186  1.00  0.00    -0.354 N 
ATOM     60  N   UNL A   1      41.375  29.427  31.917  1.00  0.00    -0.248 NA
ATOM     61  C   UNL A   1      42.260  27.590  30.773  1.00  0.00     0.031 C 
ATOM     62  C   UNL A   1      42.936  30.942  35.791  1.00  0.00     0.029 A 
ATOM     63  C   UNL A   1      42.478  30.458  34.576  1.00  0.00     0.049 A 
ATOM     64  H   UNL A   1      40.920  31.190  33.356  1.00  0.00     0.167 HD
ATOM     65  C   UNL A   1      42.422  28.892  32.653  1.00  0.00     0.074 A 
ATOM     66  C   UNL A   1      42.903  27.737  31.922  1.00  0.00     0.031 C 
ATOM     67  C   UNL A   1      42.949  29.324  33.826  1.00  0.00     0.037 A 
BRANCH  54  68
ATOM     68  C   UNL A   1      40.161  34.327  36.148  1.00  0.00     0.057 A 
ATOM     69  C   UNL A   1      40.921  35.501  36.090  1.00  0.00     0.134 A 
ATOM     70  C   UNL A   1      39.348  34.141  37.275  1.00  0.00     0.134 A 
ATOM     71  F   UNL A   1      41.724  35.741  35.042  1.00  0.00    -0.206 F 
ATOM     72  C   UNL A   1      40.878  36.453  37.111  1.00  0.00     0.040 A 
ATOM     73  C   UNL A   1      39.278  35.096  38.292  1.00  0.00     0.040 A 
ATOM     74  F   UNL A   1      38.581  33.045  37.386  1.00  0.00    -0.206 F 
ATOM     75  C   UNL A   1      40.049  36.255  38.212  1.00  0.00     0.006 A 
ENDBRANCH  54  68
BRANCH  55  76
ATOM     76  C   UNL A   1      40.337  27.802  28.590  1.00  0.00     0.057 A 
ATOM     77  C   UNL A   1      41.081  28.017  27.423  1.00  0.00     0.134 A 
ATOM     78  C   UNL A   1      39.620  26.605  28.687  1.00  0.00     0.134 A 
ATOM     79  F   UNL A   1      41.785  29.148  27.268  1.00  0.00    -0.206 F 
ATOM     80  C   UNL A   1      41.105  27.080  26.390  1.00  0.00     0.040 A 
ATOM     81  C   UNL A   1      39.657  25.647  27.673  1.00  0.00     0.040 A 
ATOM     82  F   UNL A   1      38.904  26.334  29.789  1.00  0.00    -0.206 F 
ATOM     83  C   UNL A   1      40.399  25.886  26.518  1.00  0.00     0.006 A 
ENDBRANCH  55  76
BRANCH  67  84
ATOM     84  C   UNL A   1      44.099  28.530  34.373  1.00  0.00     0.057 A 
ATOM     85  C   UNL A   1      43.875  27.422  35.196  1.00  0.00     0.134 A 
ATOM     86  C   UNL A   1      45.426  28.854  34.064  1.00  0.00     0.134 A 
ATOM     87  F   UNL A   1      42.628  27.063  35.534  1.00  0.00    -0.206 F 
ATOM     88  C   UNL A   1      44.933  26.654  35.686  1.00  0.00     0.040 A 
ATOM     89  C   UNL A   1      46.491  28.079  34.526  1.00  0.00     0.040 A 
ATOM     90  F   UNL A   1      45.704  29.895  33.263  1.00  0.00    -0.206 F 
ATOM     91  C   UNL A   1      46.244  26.976  35.340  1.00  0.00     0.006 A 
ENDBRANCH  67  84
ENDBRANCH  41  42
ENDBRANCH  33  36
ENDBRANCH  31  32
ENDBRANCH   1  31
TORSDOF 13
ENDMDL
MODEL 3
REMARK VINA RESULT:     -13.1      4.884      9.991
REMARK SMILES Nc1ccc(-c2cc(Cl)cc3c2O[C@H](C(F)(F)F)C(C(=O)NCCCNC(=O)c2ccc(-c4c5nc(c(-c6c(F)cccc6F)c6ccc([nH]6)c(-c6c(F)cccc6F)c6nc(c(-c7c(F)cccc7F)c7ccc4[nH]7)C=C6)C=C5)cc2)=C3)cc1
REMARK SMILES IDX 24 1 23 2 22 3 20 4 21 5 19 7 6 8 7 9 12 10 8 11 11 12 13 13
REMARK SMILES IDX 9 14 10 15 83 16 14 17 5 18 2 19 3 20 85 21 4 22 84 23 1 24
REMARK SMILES IDX 15 27 16 28 17 29 18 30 25 31 26 32 27 33 28 35 29 36 30 37
REMARK SMILES IDX 82 38 31 39 81 40 32 41 33 42 34 43 75 44 35 45 80 46 74 47
REMARK SMILES IDX 76 48 36 49 79 50 73 51 72 52 37 54 63 55 46 56 62 57 47 58
REMARK SMILES IDX 50 59 61 60 77 61 48 62 49 63 60 65 78 66 51 67 38 68 39 69
REMARK SMILES IDX 44 70 40 71 41 72 43 73 45 74 42 75 64 76 65 77 70 78 66 79
REMARK SMILES IDX 67 80 69 81 71 82 68 83 52 84 53 85 58 86 54 87 55 88 57 89
REMARK SMILES IDX 59 90 56 91
REMARK H PARENT 22 6 1 25 1 26 26 34 76 53 50 64
REMARK Flexibility Score: inf
ROOT
ATOM      1  C   UNL A   1      31.475  31.985  26.593  1.00  0.00     0.042 C 
ENDROOT
BRANCH   1   2
ATOM      2  C   UNL A   1      31.784  30.535  26.256  1.00  0.00     0.118 C 
BRANCH   2   3
ATOM      3  N   UNL A   1      31.354  30.179  24.912  1.00  0.00    -0.352 N 
ATOM      4  C   UNL A   1      31.241  29.049  24.175  1.00  0.00     0.251 C 
ATOM      5  O   UNL A   1      30.796  29.208  23.035  1.00  0.00    -0.270 OA
ATOM      6  H   UNL A   1      31.069  30.971  24.403  1.00  0.00     0.163 HD
BRANCH   4   7
ATOM      7  C   UNL A   1      31.613  27.681  24.639  1.00  0.00     0.067 C 
ATOM      8  C   UNL A   1      32.540  23.724  25.729  1.00  0.00     0.026 A 
ATOM      9  C   UNL A   1      31.571  22.968  26.404  1.00  0.00     0.033 A 
ATOM     10  C   UNL A   1      32.181  25.014  25.292  1.00  0.00     0.135 A 
ATOM     11  C   UNL A   1      30.296  23.493  26.632  1.00  0.00     0.042 A 
ATOM     12  C   UNL A   1      30.908  25.549  25.529  1.00  0.00     0.019 A 
ATOM     13  O   UNL A   1      33.110  25.720  24.568  1.00  0.00    -0.475 OA
ATOM     14  Cl  UNL A   1      29.124  22.544  27.462  1.00  0.00    -0.084 Cl
ATOM     15  C   UNL A   1      29.960  24.776  26.199  1.00  0.00     0.032 A 
ATOM     16  C   UNL A   1      30.600  26.892  25.047  1.00  0.00     0.025 C 
ATOM     17  C   UNL A   1      33.020  27.161  24.678  1.00  0.00     0.314 C 
BRANCH   8  18
ATOM     18  C   UNL A   1      33.895  23.197  25.505  1.00  0.00    -0.014 A 
ATOM     19  C   UNL A   1      36.546  22.324  25.011  1.00  0.00     0.031 A 
ATOM     20  C   UNL A   1      36.246  23.075  26.147  1.00  0.00     0.026 A 
ATOM     21  C   UNL A   1      35.517  22.029  24.116  1.00  0.00     0.026 A 
ATOM     22  C   UNL A   1      34.935  23.491  26.402  1.00  0.00     0.011 A 
ATOM     23  C   UNL A   1      34.203  22.447  24.363  1.00  0.00     0.011 A 
BRANCH  19  24
ATOM     24  N   UNL A   1      37.858  21.995  24.714  1.00  0.00    -0.399 N 
ATOM     25  H   UNL A   1      38.164  21.063  24.804  1.00  0.00     0.156 HD
ATOM     26  H   UNL A   1      38.483  22.692  24.411  1.00  0.00     0.156 HD
ENDBRANCH  19  24
ENDBRANCH   8  18
BRANCH  17  27
ATOM     27  C   UNL A   1      33.810  27.641  25.913  1.00  0.00     0.429 C 
ATOM     28  F   UNL A   1      34.808  26.770  26.204  1.00  0.00    -0.167 F 
ATOM     29  F   UNL A   1      34.397  28.846  25.716  1.00  0.00    -0.167 F 
ATOM     30  F   UNL A   1      33.042  27.760  27.019  1.00  0.00    -0.167 F 
ENDBRANCH  17  27
ENDBRANCH   4   7
ENDBRANCH   2   3
ENDBRANCH   1   2
BRANCH   1  31
ATOM     31  C   UNL A   1      32.621  32.676  27.319  1.00  0.00     0.118 C 
BRANCH  31  32
ATOM     32  N   UNL A   1      32.331  34.076  27.622  1.00  0.00    -0.352 N 
ATOM     33  C   UNL A   1      32.926  34.938  28.513  1.00  0.00     0.251 C 
ATOM     34  H   UNL A   1      31.589  34.465  27.103  1.00  0.00     0.163 HD
ATOM     35  O   UNL A   1      32.417  36.031  28.737  1.00  0.00    -0.269 OA
BRANCH  33  36
ATOM     36  C   UNL A   1      34.157  34.535  29.222  1.00  0.00     0.039 A 
ATOM     37  C   UNL A   1      35.405  34.755  28.644  1.00  0.00     0.014 A 
ATOM     38  C   UNL A   1      34.063  33.911  30.470  1.00  0.00     0.014 A 
ATOM     39  C   UNL A   1      36.530  34.164  29.201  1.00  0.00     0.010 A 
ATOM     40  C   UNL A   1      35.217  33.422  31.090  1.00  0.00     0.010 A 
ATOM     41  C   UNL A   1      36.452  33.489  30.431  1.00  0.00    -0.014 A 
BRANCH  41  42
ATOM     42  C   UNL A   1      37.686  32.858  30.969  1.00  0.00     0.031 A 
ATOM     43  C   UNL A   1      38.253  33.274  32.301  1.00  0.00     0.074 A 
ATOM     44  C   UNL A   1      38.229  31.823  30.297  1.00  0.00     0.049 A 
ATOM     45  N   UNL A   1      39.255  32.755  32.967  1.00  0.00    -0.248 NA
ATOM     46  C   UNL A   1      37.626  34.425  32.969  1.00  0.00     0.031 C 
ATOM     47  C   UNL A   1      37.773  31.332  28.994  1.00  0.00     0.029 A 
ATOM     48  N   UNL A   1      39.244  30.966  30.637  1.00  0.00    -0.354 N 
ATOM     49  C   UNL A   1      39.391  33.526  34.115  1.00  0.00     0.074 A 
ATOM     50  C   UNL A   1      38.391  34.569  34.043  1.00  0.00     0.031 C 
ATOM     51  C   UNL A   1      38.441  30.211  28.688  1.00  0.00     0.029 A 
ATOM     52  C   UNL A   1      39.417  29.943  29.737  1.00  0.00     0.049 A 
ATOM     53  H   UNL A   1      39.793  31.073  31.447  1.00  0.00     0.167 HD
ATOM     54  C   UNL A   1      40.261  33.374  35.143  1.00  0.00     0.037 A 
ATOM     55  C   UNL A   1      40.269  28.902  29.754  1.00  0.00     0.037 A 
ATOM     56  C   UNL A   1      41.240  32.320  35.229  1.00  0.00     0.049 A 
ATOM     57  C   UNL A   1      41.223  28.762  30.902  1.00  0.00     0.074 A 
ATOM     58  C   UNL A   1      42.156  32.069  36.236  1.00  0.00     0.029 A 
ATOM     59  N   UNL A   1      41.425  31.338  34.267  1.00  0.00    -0.354 N 
ATOM     60  N   UNL A   1      41.330  29.496  31.984  1.00  0.00    -0.248 NA
ATOM     61  C   UNL A   1      42.182  27.653  30.826  1.00  0.00     0.031 C 
ATOM     62  C   UNL A   1      42.917  30.954  35.869  1.00  0.00     0.029 A 
ATOM     63  C   UNL A   1      42.451  30.487  34.650  1.00  0.00     0.049 A 
ATOM     64  H   UNL A   1      40.906  31.255  33.436  1.00  0.00     0.167 HD
ATOM     65  C   UNL A   1      42.368  28.937  32.715  1.00  0.00     0.074 A 
ATOM     66  C   UNL A   1      42.828  27.780  31.975  1.00  0.00     0.031 C 
ATOM     67  C   UNL A   1      42.902  29.351  33.891  1.00  0.00     0.037 A 
BRANCH  54  68
ATOM     68  C   UNL A   1      40.202  34.384  36.253  1.00  0.00     0.057 A 
ATOM     69  C   UNL A   1      39.351  34.192  37.348  1.00  0.00     0.134 A 
ATOM     70  C   UNL A   1      40.973  35.554  36.233  1.00  0.00     0.134 A 
ATOM     71  F   UNL A   1      38.581  33.096  37.429  1.00  0.00    -0.206 F 
ATOM     72  C   UNL A   1      39.267  35.126  38.383  1.00  0.00     0.040 A 
ATOM     73  C   UNL A   1      40.916  36.485  37.273  1.00  0.00     0.040 A 
ATOM     74  F   UNL A   1      41.821  35.792  35.220  1.00  0.00    -0.206 F 
ATOM     75  C   UNL A   1      40.058  36.273  38.351  1.00  0.00     0.006 A 
ENDBRANCH  54  68
BRANCH  55  76
ATOM     76  C   UNL A   1      40.263  27.915  28.645  1.00  0.00     0.057 A 
ATOM     77  C   UNL A   1      40.963  28.153  27.455  1.00  0.00     0.134 A 
ATOM     78  C   UNL A   1      39.574  26.703  28.757  1.00  0.00     0.134 A 
ATOM     79  F   UNL A   1      41.639  29.299  27.285  1.00  0.00    -0.206 F 
ATOM     80  C   UNL A   1      40.971  27.225  26.415  1.00  0.00     0.040 A 
ATOM     81  C   UNL A   1      39.596  25.753  27.734  1.00  0.00     0.040 A 
ATOM     82  F   UNL A   1      38.901  26.410  29.880  1.00  0.00    -0.206 F 
ATOM     83  C   UNL A   1      40.293  26.015  26.557  1.00  0.00     0.006 A 
ENDBRANCH  55  76
BRANCH  67  84
ATOM     84  C   UNL A   1      44.038  28.533  34.432  1.00  0.00     0.057 A 
ATOM     85  C   UNL A   1      45.364  28.875  34.148  1.00  0.00     0.134 A 
ATOM     86  C   UNL A   1      43.813  27.420  35.251  1.00  0.00     0.134 A 
ATOM     87  F   UNL A   1      45.646  29.926  33.365  1.00  0.00    -0.206 F 
ATOM     88  C   UNL A   1      46.431  28.142  34.671  1.00  0.00     0.040 A 
ATOM     89  C   UNL A   1      44.872  26.696  35.801  1.00  0.00     0.040 A 
ATOM     90  F   UNL A   1      42.564  27.054  35.575  1.00  0.00    -0.206 F 
ATOM     91  C   UNL A   1      46.186  27.057  35.510  1.00  0.00     0.006 A 
ENDBRANCH  67  84
ENDBRANCH  41  42
ENDBRANCH  33  36
ENDBRANCH  31  32
ENDBRANCH   1  31
TORSDOF 13
ENDMDL
