MODEL 1
REMARK VINA RESULT:     -11.9      0.000      0.000
REMARK SMILES CCCc1cc2c(cc1Cl)C=C(C(=O)NCCCNC(=O)c1ccc(-c3c4nc(c(-c5c(F)cccc5F)c5ccc([nH]5)c(-c5c(F)cccc5F)c5nc(c(-c6c(F)cccc6F)c6ccc3[nH]6)C=C5)C=C4)cc1)[C@H](C(F)(F)F)O2
REMARK SMILES IDX 17 1 16 2 15 3 13 4 14 5 12 7 4 8 5 9 9 10 6 11 8 12 10 13
REMARK SMILES IDX 7 14 81 15 11 16 76 17 3 18 2 19 1 20 77 21 78 22 79 23
REMARK SMILES IDX 80 24 18 25 19 26 20 27 21 29 22 30 23 31 75 32 24 33 74 34
REMARK SMILES IDX 25 35 26 36 27 37 68 38 28 39 73 40 67 41 69 42 29 43 72 44
REMARK SMILES IDX 66 45 65 46 30 48 56 49 39 50 55 51 40 52 43 53 54 54 70 55
REMARK SMILES IDX 41 56 42 57 53 59 71 60 44 61 31 62 32 63 37 64 33 65 34 66
REMARK SMILES IDX 36 67 38 68 35 69 57 70 58 71 63 72 59 73 60 74 62 75 64 76
REMARK SMILES IDX 61 77 45 78 46 79 51 80 47 81 48 82 50 83 52 84 49 85
REMARK H PARENT 15 6 19 28 69 47 43 58
REMARK Flexibility Score: inf
ROOT
ATOM      1  C   UNL A   1      37.315  19.801  24.932  1.00  0.00     0.042 C 
ENDROOT
BRANCH   1   2
ATOM      2  C   UNL A   1      36.189  20.814  24.782  1.00  0.00     0.118 C 
BRANCH   2   3
ATOM      3  N   UNL A   1      35.498  21.010  26.043  1.00  0.00    -0.352 N 
ATOM      4  C   UNL A   1      34.457  21.729  26.505  1.00  0.00     0.251 C 
ATOM      5  O   UNL A   1      34.257  21.604  27.719  1.00  0.00    -0.270 OA
ATOM      6  H   UNL A   1      35.902  20.467  26.757  1.00  0.00     0.163 HD
BRANCH   4   7
ATOM      7  C   UNL A   1      33.573  22.615  25.701  1.00  0.00     0.067 C 
ATOM      8  C   UNL A   1      31.720  26.582  23.199  1.00  0.00    -0.026 A 
ATOM      9  C   UNL A   1      31.163  25.389  23.693  1.00  0.00     0.052 A 
ATOM     10  C   UNL A   1      33.069  26.856  23.496  1.00  0.00     0.045 A 
ATOM     11  C   UNL A   1      31.940  24.505  24.435  1.00  0.00     0.128 A 
ATOM     12  C   UNL A   1      33.809  26.008  24.331  1.00  0.00     0.032 A 
ATOM     13  Cl  UNL A   1      33.923  28.184  22.796  1.00  0.00    -0.084 Cl
ATOM     14  C   UNL A   1      33.244  24.826  24.797  1.00  0.00     0.019 A 
ATOM     15  O   UNL A   1      31.379  23.311  24.791  1.00  0.00    -0.475 OA
ATOM     16  C   UNL A   1      33.991  23.897  25.637  1.00  0.00     0.025 C 
ATOM     17  C   UNL A   1      32.347  22.221  24.915  1.00  0.00     0.314 C 
BRANCH   8  18
ATOM     18  C   UNL A   1      30.847  27.479  22.351  1.00  0.00     0.037 C 
BRANCH  18  19
ATOM     19  C   UNL A   1      29.791  28.274  23.127  1.00  0.00     0.001 C 
ATOM     20  C   UNL A   1      30.327  29.517  23.820  1.00  0.00     0.004 C 
ENDBRANCH  18  19
ENDBRANCH   8  18
BRANCH  17  21
ATOM     21  C   UNL A   1      32.682  21.637  23.529  1.00  0.00     0.429 C 
ATOM     22  F   UNL A   1      32.916  20.307  23.554  1.00  0.00    -0.167 F 
ATOM     23  F   UNL A   1      31.673  21.848  22.654  1.00  0.00    -0.167 F 
ATOM     24  F   UNL A   1      33.776  22.230  22.992  1.00  0.00    -0.167 F 
ENDBRANCH  17  21
ENDBRANCH   4   7
ENDBRANCH   2   3
ENDBRANCH   1   2
BRANCH   1  25
ATOM     25  C   UNL A   1      38.536  20.380  25.629  1.00  0.00     0.118 C 
BRANCH  25  26
ATOM     26  N   UNL A   1      39.633  19.424  25.708  1.00  0.00    -0.352 N 
ATOM     27  C   UNL A   1      40.962  19.608  26.006  1.00  0.00     0.251 C 
ATOM     28  H   UNL A   1      39.380  18.492  25.518  1.00  0.00     0.163 HD
ATOM     29  O   UNL A   1      41.761  18.699  25.780  1.00  0.00    -0.269 OA
BRANCH  27  30
ATOM     30  C   UNL A   1      41.443  20.888  26.568  1.00  0.00     0.039 A 
ATOM     31  C   UNL A   1      41.419  21.118  27.942  1.00  0.00     0.014 A 
ATOM     32  C   UNL A   1      41.945  21.874  25.712  1.00  0.00     0.014 A 
ATOM     33  C   UNL A   1      41.680  22.388  28.436  1.00  0.00     0.010 A 
ATOM     34  C   UNL A   1      42.342  23.112  26.230  1.00  0.00     0.010 A 
ATOM     35  C   UNL A   1      42.165  23.399  27.592  1.00  0.00    -0.014 A 
BRANCH  35  36
ATOM     36  C   UNL A   1      42.491  24.730  28.172  1.00  0.00     0.031 A 
ATOM     37  C   UNL A   1      43.909  25.094  28.526  1.00  0.00     0.074 A 
ATOM     38  C   UNL A   1      41.506  25.639  28.322  1.00  0.00     0.049 A 
ATOM     39  N   UNL A   1      44.370  26.203  29.051  1.00  0.00    -0.248 NA
ATOM     40  C   UNL A   1      44.946  24.084  28.262  1.00  0.00     0.031 C 
ATOM     41  C   UNL A   1      40.091  25.415  28.007  1.00  0.00     0.029 A 
ATOM     42  N   UNL A   1      41.542  26.940  28.752  1.00  0.00    -0.354 N 
ATOM     43  C   UNL A   1      45.740  26.021  29.188  1.00  0.00     0.074 A 
ATOM     44  C   UNL A   1      46.033  24.678  28.734  1.00  0.00     0.031 C 
ATOM     45  C   UNL A   1      39.408  26.551  28.199  1.00  0.00     0.029 A 
ATOM     46  C   UNL A   1      40.314  27.559  28.734  1.00  0.00     0.049 A 
ATOM     47  H   UNL A   1      42.367  27.389  29.046  1.00  0.00     0.167 HD
ATOM     48  C   UNL A   1      46.673  26.896  29.635  1.00  0.00     0.037 A 
ATOM     49  C   UNL A   1      39.948  28.790  29.133  1.00  0.00     0.037 A 
ATOM     50  C   UNL A   1      46.381  28.235  30.081  1.00  0.00     0.049 A 
ATOM     51  C   UNL A   1      40.994  29.708  29.698  1.00  0.00     0.074 A 
ATOM     52  C   UNL A   1      47.255  29.196  30.561  1.00  0.00     0.029 A 
ATOM     53  N   UNL A   1      45.116  28.803  30.099  1.00  0.00    -0.354 N 
ATOM     54  N   UNL A   1      42.285  29.518  29.823  1.00  0.00    -0.248 NA
ATOM     55  C   UNL A   1      40.528  31.011  30.190  1.00  0.00     0.031 C 
ATOM     56  C   UNL A   1      46.513  30.330  30.910  1.00  0.00     0.029 A 
ATOM     57  C   UNL A   1      45.184  30.094  30.597  1.00  0.00     0.049 A 
ATOM     58  H   UNL A   1      44.292  28.355  29.802  1.00  0.00     0.167 HD
ATOM     59  C   UNL A   1      42.786  30.684  30.384  1.00  0.00     0.074 A 
ATOM     60  C   UNL A   1      41.665  31.587  30.544  1.00  0.00     0.031 C 
ATOM     61  C   UNL A   1      44.059  30.981  30.745  1.00  0.00     0.037 A 
BRANCH  48  62
ATOM     62  C   UNL A   1      48.102  26.432  29.670  1.00  0.00     0.057 A 
ATOM     63  C   UNL A   1      48.946  26.620  28.567  1.00  0.00     0.134 A 
ATOM     64  C   UNL A   1      48.633  25.759  30.778  1.00  0.00     0.134 A 
ATOM     65  F   UNL A   1      48.502  27.249  27.469  1.00  0.00    -0.206 F 
ATOM     66  C   UNL A   1      50.262  26.152  28.564  1.00  0.00     0.040 A 
ATOM     67  C   UNL A   1      49.956  25.311  30.799  1.00  0.00     0.040 A 
ATOM     68  F   UNL A   1      47.884  25.556  31.873  1.00  0.00    -0.206 F 
ATOM     69  C   UNL A   1      50.772  25.502  29.685  1.00  0.00     0.006 A 
ENDBRANCH  48  62
BRANCH  49  70
ATOM     70  C   UNL A   1      38.527  29.217  29.066  1.00  0.00     0.057 A 
ATOM     71  C   UNL A   1      37.703  29.186  30.199  1.00  0.00     0.134 A 
ATOM     72  C   UNL A   1      37.975  29.725  27.885  1.00  0.00     0.134 A 
ATOM     73  F   UNL A   1      38.168  28.704  31.362  1.00  0.00    -0.206 F 
ATOM     74  C   UNL A   1      36.388  29.647  30.162  1.00  0.00     0.040 A 
ATOM     75  C   UNL A   1      36.671  30.224  27.842  1.00  0.00     0.040 A 
ATOM     76  F   UNL A   1      38.715  29.799  26.770  1.00  0.00    -0.206 F 
ATOM     77  C   UNL A   1      35.873  30.185  28.985  1.00  0.00     0.006 A 
ENDBRANCH  49  70
BRANCH  61  78
ATOM     78  C   UNL A   1      44.298  32.353  31.307  1.00  0.00     0.057 A 
ATOM     79  C   UNL A   1      44.240  32.576  32.689  1.00  0.00     0.134 A 
ATOM     80  C   UNL A   1      44.594  33.449  30.486  1.00  0.00     0.134 A 
ATOM     81  F   UNL A   1      43.954  31.572  33.531  1.00  0.00    -0.206 F 
ATOM     82  C   UNL A   1      44.475  33.839  33.234  1.00  0.00     0.040 A 
ATOM     83  C   UNL A   1      44.864  34.709  31.022  1.00  0.00     0.040 A 
ATOM     84  F   UNL A   1      44.682  33.298  29.157  1.00  0.00    -0.206 F 
ATOM     85  C   UNL A   1      44.800  34.907  32.400  1.00  0.00     0.006 A 
ENDBRANCH  61  78
ENDBRANCH  35  36
ENDBRANCH  27  30
ENDBRANCH  25  26
ENDBRANCH   1  25
TORSDOF 13
ENDMDL
MODEL 2
REMARK VINA RESULT:     -11.9      0.324      6.257
REMARK SMILES CCCc1cc2c(cc1Cl)C=C(C(=O)NCCCNC(=O)c1ccc(-c3c4nc(c(-c5c(F)cccc5F)c5ccc([nH]5)c(-c5c(F)cccc5F)c5nc(c(-c6c(F)cccc6F)c6ccc3[nH]6)C=C5)C=C4)cc1)[C@H](C(F)(F)F)O2
REMARK SMILES IDX 17 1 16 2 15 3 13 4 14 5 12 7 4 8 5 9 9 10 6 11 8 12 10 13
REMARK SMILES IDX 7 14 81 15 11 16 76 17 3 18 2 19 1 20 77 21 78 22 79 23
REMARK SMILES IDX 80 24 18 25 19 26 20 27 21 29 22 30 23 31 75 32 24 33 74 34
REMARK SMILES IDX 25 35 26 36 27 37 68 38 28 39 73 40 67 41 69 42 29 43 72 44
REMARK SMILES IDX 66 45 65 46 30 48 56 49 39 50 55 51 40 52 43 53 54 54 70 55
REMARK SMILES IDX 41 56 42 57 53 59 71 60 44 61 31 62 32 63 37 64 33 65 34 66
REMARK SMILES IDX 36 67 38 68 35 69 57 70 58 71 63 72 59 73 60 74 62 75 64 76
REMARK SMILES IDX 61 77 45 78 46 79 51 80 47 81 48 82 50 83 52 84 49 85
REMARK H PARENT 15 6 19 28 69 47 43 58
REMARK Flexibility Score: inf
ROOT
ATOM      1  C   UNL A   1      37.332  19.980  24.988  1.00  0.00     0.042 C 
ENDROOT
BRANCH   1   2
ATOM      2  C   UNL A   1      36.235  21.028  24.859  1.00  0.00     0.118 C 
BRANCH   2   3
ATOM      3  N   UNL A   1      35.450  21.107  26.077  1.00  0.00    -0.352 N 
ATOM      4  C   UNL A   1      34.345  21.746  26.508  1.00  0.00     0.251 C 
ATOM      5  O   UNL A   1      34.069  21.532  27.694  1.00  0.00    -0.270 OA
ATOM      6  H   UNL A   1      35.832  20.537  26.783  1.00  0.00     0.163 HD
BRANCH   4   7
ATOM      7  C   UNL A   1      33.475  22.642  25.700  1.00  0.00     0.067 C 
ATOM      8  C   UNL A   1      31.649  26.650  23.245  1.00  0.00    -0.026 A 
ATOM      9  C   UNL A   1      31.092  25.438  23.691  1.00  0.00     0.052 A 
ATOM     10  C   UNL A   1      32.984  26.932  23.589  1.00  0.00     0.045 A 
ATOM     11  C   UNL A   1      31.857  24.544  24.434  1.00  0.00     0.128 A 
ATOM     12  C   UNL A   1      33.710  26.072  24.424  1.00  0.00     0.032 A 
ATOM     13  Cl  UNL A   1      33.843  28.287  22.949  1.00  0.00    -0.084 Cl
ATOM     14  C   UNL A   1      33.146  24.872  24.843  1.00  0.00     0.019 A 
ATOM     15  O   UNL A   1      31.301  23.335  24.743  1.00  0.00    -0.475 OA
ATOM     16  C   UNL A   1      33.879  23.930  25.681  1.00  0.00     0.025 C 
ATOM     17  C   UNL A   1      32.278  22.254  24.868  1.00  0.00     0.314 C 
BRANCH   8  18
ATOM     18  C   UNL A   1      30.791  27.558  22.393  1.00  0.00     0.037 C 
BRANCH  18  19
ATOM     19  C   UNL A   1      29.767  28.395  23.170  1.00  0.00     0.001 C 
ATOM     20  C   UNL A   1      30.362  29.586  23.904  1.00  0.00     0.004 C 
ENDBRANCH  18  19
ENDBRANCH   8  18
BRANCH  17  21
ATOM     21  C   UNL A   1      32.661  21.709  23.478  1.00  0.00     0.429 C 
ATOM     22  F   UNL A   1      33.754  22.307  22.955  1.00  0.00    -0.167 F 
ATOM     23  F   UNL A   1      32.917  20.383  23.529  1.00  0.00    -0.167 F 
ATOM     24  F   UNL A   1      31.650  21.864  22.589  1.00  0.00    -0.167 F 
ENDBRANCH  17  21
ENDBRANCH   4   7
ENDBRANCH   2   3
ENDBRANCH   1   2
BRANCH   1  25
ATOM     25  C   UNL A   1      38.666  20.577  25.409  1.00  0.00     0.118 C 
BRANCH  25  26
ATOM     26  N   UNL A   1      39.683  19.556  25.628  1.00  0.00    -0.352 N 
ATOM     27  C   UNL A   1      40.996  19.669  26.017  1.00  0.00     0.251 C 
ATOM     28  H   UNL A   1      39.379  18.633  25.473  1.00  0.00     0.163 HD
ATOM     29  O   UNL A   1      41.743  18.697  25.906  1.00  0.00    -0.269 OA
BRANCH  27  30
ATOM     30  C   UNL A   1      41.524  20.947  26.540  1.00  0.00     0.039 A 
ATOM     31  C   UNL A   1      41.493  21.227  27.905  1.00  0.00     0.014 A 
ATOM     32  C   UNL A   1      42.079  21.880  25.657  1.00  0.00     0.014 A 
ATOM     33  C   UNL A   1      41.801  22.502  28.358  1.00  0.00     0.010 A 
ATOM     34  C   UNL A   1      42.522  23.118  26.137  1.00  0.00     0.010 A 
ATOM     35  C   UNL A   1      42.340  23.461  27.486  1.00  0.00    -0.014 A 
BRANCH  35  36
ATOM     36  C   UNL A   1      42.715  24.796  28.023  1.00  0.00     0.031 A 
ATOM     37  C   UNL A   1      41.672  25.859  28.254  1.00  0.00     0.074 A 
ATOM     38  C   UNL A   1      43.999  25.029  28.364  1.00  0.00     0.049 A 
ATOM     39  N   UNL A   1      41.824  27.080  28.703  1.00  0.00    -0.248 NA
ATOM     40  C   UNL A   1      40.278  25.511  27.936  1.00  0.00     0.031 C 
ATOM     41  C   UNL A   1      45.104  24.079  28.201  1.00  0.00     0.029 A 
ATOM     42  N   UNL A   1      44.592  26.123  28.940  1.00  0.00    -0.354 N 
ATOM     43  C   UNL A   1      40.555  27.646  28.712  1.00  0.00     0.074 A 
ATOM     44  C   UNL A   1      39.649  26.651  28.180  1.00  0.00     0.031 C 
ATOM     45  C   UNL A   1      46.222  24.607  28.715  1.00  0.00     0.029 A 
ATOM     46  C   UNL A   1      45.938  25.963  29.164  1.00  0.00     0.049 A 
ATOM     47  H   UNL A   1      44.100  26.944  29.171  1.00  0.00     0.167 HD
ATOM     48  C   UNL A   1      40.175  28.874  29.139  1.00  0.00     0.037 A 
ATOM     49  C   UNL A   1      46.853  26.823  29.648  1.00  0.00     0.037 A 
ATOM     50  C   UNL A   1      41.078  29.862  29.674  1.00  0.00     0.049 A 
ATOM     51  C   UNL A   1      46.412  28.205  30.037  1.00  0.00     0.074 A 
ATOM     52  C   UNL A   1      40.792  31.139  30.125  1.00  0.00     0.029 A 
ATOM     53  N   UNL A   1      42.444  29.680  29.832  1.00  0.00    -0.354 N 
ATOM     54  N   UNL A   1      45.209  28.723  30.036  1.00  0.00    -0.248 NA
ATOM     55  C   UNL A   1      47.464  29.127  30.486  1.00  0.00     0.031 C 
ATOM     56  C   UNL A   1      41.991  31.746  30.515  1.00  0.00     0.029 A 
ATOM     57  C   UNL A   1      43.016  30.828  30.357  1.00  0.00     0.049 A 
ATOM     58  H   UNL A   1      42.934  28.858  29.604  1.00  0.00     0.167 HD
ATOM     59  C   UNL A   1      45.355  30.021  30.505  1.00  0.00     0.074 A 
ATOM     60  C   UNL A   1      46.760  30.199  30.812  1.00  0.00     0.031 C 
ATOM     61  C   UNL A   1      44.415  30.986  30.660  1.00  0.00     0.037 A 
BRANCH  48  62
ATOM     62  C   UNL A   1      38.717  29.225  29.041  1.00  0.00     0.057 A 
ATOM     63  C   UNL A   1      37.877  29.127  30.159  1.00  0.00     0.134 A 
ATOM     64  C   UNL A   1      38.132  29.618  27.830  1.00  0.00     0.134 A 
ATOM     65  F   UNL A   1      38.368  28.749  31.348  1.00  0.00    -0.206 F 
ATOM     66  C   UNL A   1      36.511  29.401  30.074  1.00  0.00     0.040 A 
ATOM     67  C   UNL A   1      36.772  29.922  27.738  1.00  0.00     0.040 A 
ATOM     68  F   UNL A   1      38.880  29.744  26.723  1.00  0.00    -0.206 F 
ATOM     69  C   UNL A   1      35.956  29.807  28.863  1.00  0.00     0.006 A 
ENDBRANCH  48  62
BRANCH  49  70
ATOM     70  C   UNL A   1      48.283  26.431  29.745  1.00  0.00     0.057 A 
ATOM     71  C   UNL A   1      49.190  26.729  28.719  1.00  0.00     0.134 A 
ATOM     72  C   UNL A   1      48.791  25.809  30.890  1.00  0.00     0.134 A 
ATOM     73  F   UNL A   1      48.768  27.318  27.590  1.00  0.00    -0.206 F 
ATOM     74  C   UNL A   1      50.547  26.426  28.830  1.00  0.00     0.040 A 
ATOM     75  C   UNL A   1      50.152  25.533  31.030  1.00  0.00     0.040 A 
ATOM     76  F   UNL A   1      47.978  25.514  31.916  1.00  0.00    -0.206 F 
ATOM     77  C   UNL A   1      51.035  25.841  29.996  1.00  0.00     0.006 A 
ENDBRANCH  49  70
BRANCH  61  78
ATOM     78  C   UNL A   1      44.881  32.298  31.223  1.00  0.00     0.057 A 
ATOM     79  C   UNL A   1      44.909  32.508  32.607  1.00  0.00     0.134 A 
ATOM     80  C   UNL A   1      45.309  33.347  30.399  1.00  0.00     0.134 A 
ATOM     81  F   UNL A   1      44.505  31.548  33.452  1.00  0.00    -0.206 F 
ATOM     82  C   UNL A   1      45.355  33.714  33.152  1.00  0.00     0.040 A 
ATOM     83  C   UNL A   1      45.788  34.544  30.934  1.00  0.00     0.040 A 
ATOM     84  F   UNL A   1      45.324  33.203  29.066  1.00  0.00    -0.206 F 
ATOM     85  C   UNL A   1      45.807  34.731  32.315  1.00  0.00     0.006 A 
ENDBRANCH  61  78
ENDBRANCH  35  36
ENDBRANCH  27  30
ENDBRANCH  25  26
ENDBRANCH   1  25
TORSDOF 13
ENDMDL
MODEL 3
REMARK VINA RESULT:     -11.9      4.620      7.518
REMARK SMILES CCCc1cc2c(cc1Cl)C=C(C(=O)NCCCNC(=O)c1ccc(-c3c4nc(c(-c5c(F)cccc5F)c5ccc([nH]5)c(-c5c(F)cccc5F)c5nc(c(-c6c(F)cccc6F)c6ccc3[nH]6)C=C5)C=C4)cc1)[C@H](C(F)(F)F)O2
REMARK SMILES IDX 17 1 16 2 15 3 13 4 14 5 12 7 4 8 5 9 9 10 6 11 8 12 10 13
REMARK SMILES IDX 7 14 81 15 11 16 76 17 3 18 2 19 1 20 77 21 78 22 79 23
REMARK SMILES IDX 80 24 18 25 19 26 20 27 21 29 22 30 23 31 75 32 24 33 74 34
REMARK SMILES IDX 25 35 26 36 27 37 68 38 28 39 73 40 67 41 69 42 29 43 72 44
REMARK SMILES IDX 66 45 65 46 30 48 56 49 39 50 55 51 40 52 43 53 54 54 70 55
REMARK SMILES IDX 41 56 42 57 53 59 71 60 44 61 31 62 32 63 37 64 33 65 34 66
REMARK SMILES IDX 36 67 38 68 35 69 57 70 58 71 63 72 59 73 60 74 62 75 64 76
REMARK SMILES IDX 61 77 45 78 46 79 51 80 47 81 48 82 50 83 52 84 49 85
REMARK H PARENT 15 6 19 28 69 47 43 58
REMARK Flexibility Score: inf
ROOT
ATOM      1  C   UNL A   1      41.995  22.248  25.829  1.00  0.00     0.042 C 
ENDROOT
BRANCH   1   2
ATOM      2  C   UNL A   1      43.252  21.492  26.235  1.00  0.00     0.118 C 
BRANCH   2   3
ATOM      3  N   UNL A   1      44.336  21.755  25.306  1.00  0.00    -0.352 N 
ATOM      4  C   UNL A   1      45.156  22.779  25.000  1.00  0.00     0.251 C 
ATOM      5  O   UNL A   1      45.925  22.546  24.060  1.00  0.00    -0.270 OA
ATOM      6  H   UNL A   1      44.522  20.968  24.745  1.00  0.00     0.163 HD
BRANCH   4   7
ATOM      7  C   UNL A   1      45.202  24.102  25.677  1.00  0.00     0.067 C 
ATOM      8  C   UNL A   1      44.271  28.887  26.968  1.00  0.00    -0.026 A 
ATOM      9  C   UNL A   1      45.320  27.989  27.233  1.00  0.00     0.052 A 
ATOM     10  C   UNL A   1      43.254  28.477  26.087  1.00  0.00     0.045 A 
ATOM     11  C   UNL A   1      45.328  26.726  26.648  1.00  0.00     0.128 A 
ATOM     12  C   UNL A   1      43.328  27.244  25.425  1.00  0.00     0.032 A 
ATOM     13  Cl  UNL A   1      41.820  29.405  25.826  1.00  0.00    -0.084 Cl
ATOM     14  C   UNL A   1      44.366  26.364  25.711  1.00  0.00     0.019 A 
ATOM     15  O   UNL A   1      46.309  25.855  27.029  1.00  0.00    -0.475 OA
ATOM     16  C   UNL A   1      44.461  25.055  25.074  1.00  0.00     0.025 C 
ATOM     17  C   UNL A   1      45.905  24.451  26.966  1.00  0.00     0.314 C 
BRANCH   8  18
ATOM     18  C   UNL A   1      44.284  30.224  27.675  1.00  0.00     0.037 C 
BRANCH  18  19
ATOM     19  C   UNL A   1      45.122  31.309  26.990  1.00  0.00     0.001 C 
ATOM     20  C   UNL A   1      44.304  32.393  26.305  1.00  0.00     0.004 C 
ENDBRANCH  18  19
ENDBRANCH   8  18
BRANCH  17  21
ATOM     21  C   UNL A   1      45.093  24.065  28.218  1.00  0.00     0.429 C 
ATOM     22  F   UNL A   1      43.764  24.257  28.071  1.00  0.00    -0.167 F 
ATOM     23  F   UNL A   1      45.276  22.764  28.536  1.00  0.00    -0.167 F 
ATOM     24  F   UNL A   1      45.487  24.777  29.302  1.00  0.00    -0.167 F 
ENDBRANCH  17  21
ENDBRANCH   4   7
ENDBRANCH   2   3
ENDBRANCH   1   2
BRANCH   1  25
ATOM     25  C   UNL A   1      40.751  21.745  26.543  1.00  0.00     0.118 C 
BRANCH  25  26
ATOM     26  N   UNL A   1      39.523  22.181  25.890  1.00  0.00    -0.352 N 
ATOM     27  C   UNL A   1      38.752  23.300  26.087  1.00  0.00     0.251 C 
ATOM     28  H   UNL A   1      39.192  21.572  25.190  1.00  0.00     0.163 HD
ATOM     29  O   UNL A   1      37.625  23.351  25.594  1.00  0.00    -0.269 OA
BRANCH  27  30
ATOM     30  C   UNL A   1      39.249  24.429  26.903  1.00  0.00     0.039 A 
ATOM     31  C   UNL A   1      38.970  24.502  28.266  1.00  0.00     0.014 A 
ATOM     32  C   UNL A   1      40.025  25.427  26.303  1.00  0.00     0.014 A 
ATOM     33  C   UNL A   1      39.266  25.658  28.973  1.00  0.00     0.010 A 
ATOM     34  C   UNL A   1      40.445  26.530  27.055  1.00  0.00     0.010 A 
ATOM     35  C   UNL A   1      40.026  26.682  28.386  1.00  0.00    -0.014 A 
BRANCH  35  36
ATOM     36  C   UNL A   1      40.375  27.880  29.196  1.00  0.00     0.031 A 
ATOM     37  C   UNL A   1      41.734  28.015  29.832  1.00  0.00     0.074 A 
ATOM     38  C   UNL A   1      39.478  28.880  29.307  1.00  0.00     0.049 A 
ATOM     39  N   UNL A   1      42.203  28.984  30.580  1.00  0.00    -0.248 NA
ATOM     40  C   UNL A   1      42.693  26.922  29.604  1.00  0.00     0.031 C 
ATOM     41  C   UNL A   1      38.130  28.877  28.730  1.00  0.00     0.029 A 
ATOM     42  N   UNL A   1      39.568  30.104  29.919  1.00  0.00    -0.354 N 
ATOM     43  C   UNL A   1      43.498  28.614  30.918  1.00  0.00     0.074 A 
ATOM     44  C   UNL A   1      43.729  27.311  30.332  1.00  0.00     0.031 C 
ATOM     45  C   UNL A   1      37.544  30.059  28.965  1.00  0.00     0.029 A 
ATOM     46  C   UNL A   1      38.435  30.870  29.783  1.00  0.00     0.049 A 
ATOM     47  H   UNL A   1      40.367  30.406  30.408  1.00  0.00     0.167 HD
ATOM     48  C   UNL A   1      44.419  29.303  31.635  1.00  0.00     0.037 A 
ATOM     49  C   UNL A   1      38.131  32.080  30.288  1.00  0.00     0.037 A 
ATOM     50  C   UNL A   1      44.189  30.603  32.213  1.00  0.00     0.049 A 
ATOM     51  C   UNL A   1      39.144  32.782  31.146  1.00  0.00     0.074 A 
ATOM     52  C   UNL A   1      45.054  31.379  32.965  1.00  0.00     0.029 A 
ATOM     53  N   UNL A   1      43.007  31.320  32.100  1.00  0.00    -0.354 N 
ATOM     54  N   UNL A   1      40.363  32.416  31.457  1.00  0.00    -0.248 NA
ATOM     55  C   UNL A   1      38.732  34.063  31.734  1.00  0.00     0.031 C 
ATOM     56  C   UNL A   1      44.381  32.546  33.344  1.00  0.00     0.029 A 
ATOM     57  C   UNL A   1      43.115  32.521  32.782  1.00  0.00     0.049 A 
ATOM     58  H   UNL A   1      42.210  31.020  31.607  1.00  0.00     0.167 HD
ATOM     59  C   UNL A   1      40.870  33.431  32.256  1.00  0.00     0.074 A 
ATOM     60  C   UNL A   1      39.838  34.442  32.353  1.00  0.00     0.031 C 
ATOM     61  C   UNL A   1      42.079  33.518  32.864  1.00  0.00     0.037 A 
BRANCH  48  62
ATOM     62  C   UNL A   1      45.761  28.661  31.843  1.00  0.00     0.057 A 
ATOM     63  C   UNL A   1      46.003  27.844  32.955  1.00  0.00     0.134 A 
ATOM     64  C   UNL A   1      46.831  28.887  30.966  1.00  0.00     0.134 A 
ATOM     65  F   UNL A   1      45.027  27.591  33.840  1.00  0.00    -0.206 F 
ATOM     66  C   UNL A   1      47.258  27.279  33.190  1.00  0.00     0.040 A 
ATOM     67  C   UNL A   1      48.084  28.305  31.175  1.00  0.00     0.040 A 
ATOM     68  F   UNL A   1      46.666  29.650  29.875  1.00  0.00    -0.206 F 
ATOM     69  C   UNL A   1      48.301  27.504  32.294  1.00  0.00     0.006 A 
ENDBRANCH  48  62
BRANCH  49  70
ATOM     70  C   UNL A   1      36.797  32.688  30.045  1.00  0.00     0.057 A 
ATOM     71  C   UNL A   1      35.717  32.439  30.902  1.00  0.00     0.134 A 
ATOM     72  C   UNL A   1      36.586  33.581  28.988  1.00  0.00     0.134 A 
ATOM     73  F   UNL A   1      35.849  31.587  31.930  1.00  0.00    -0.206 F 
ATOM     74  C   UNL A   1      34.480  33.058  30.721  1.00  0.00     0.040 A 
ATOM     75  C   UNL A   1      35.365  34.235  28.816  1.00  0.00     0.040 A 
ATOM     76  F   UNL A   1      37.585  33.876  28.143  1.00  0.00    -0.206 F 
ATOM     77  C   UNL A   1      34.306  33.973  29.685  1.00  0.00     0.006 A 
ENDBRANCH  49  70
BRANCH  61  78
ATOM     78  C   UNL A   1      42.351  34.769  33.649  1.00  0.00     0.057 A 
ATOM     79  C   UNL A   1      42.953  35.876  33.038  1.00  0.00     0.134 A 
ATOM     80  C   UNL A   1      42.010  34.883  35.003  1.00  0.00     0.134 A 
ATOM     81  F   UNL A   1      43.312  35.831  31.746  1.00  0.00    -0.206 F 
ATOM     82  C   UNL A   1      43.200  37.054  33.744  1.00  0.00     0.040 A 
ATOM     83  C   UNL A   1      42.221  36.068  35.710  1.00  0.00     0.040 A 
ATOM     84  F   UNL A   1      41.414  33.866  35.642  1.00  0.00    -0.206 F 
ATOM     85  C   UNL A   1      42.822  37.156  35.081  1.00  0.00     0.006 A 
ENDBRANCH  61  78
ENDBRANCH  35  36
ENDBRANCH  27  30
ENDBRANCH  25  26
ENDBRANCH   1  25
TORSDOF 13
ENDMDL
