MODEL 1
REMARK VINA RESULT:     -11.9      0.000      0.000
REMARK SMILES [NH3+][C@H](CS[C@@H]1CC(=O)N(c2ccc3ccccc3c2)C1=O)C(=O)NCCCNC(=O)c1ccc(-c2c3nc(c(-c4c(F)cccc4F)c4ccc([nH]4)c(-c4c(F)cccc4F)c4nc(c(-c5c(F)cccc5F)c5ccc2[nH]5)C=C4)C=C3)cc1
REMARK SMILES IDX 25 1 24 2 22 3 23 4 2 6 1 7 3 11 4 12 5 13 6 14 20 15 7 16
REMARK SMILES IDX 9 17 21 18 8 19 10 20 11 21 19 22 12 23 18 24 13 25 17 26
REMARK SMILES IDX 14 27 16 28 15 29 26 30 27 31 28 32 29 33 30 35 31 36 32 37
REMARK SMILES IDX 84 38 33 39 83 40 34 41 35 42 36 43 77 44 37 45 82 46 76 47
REMARK SMILES IDX 78 48 38 49 81 50 75 51 74 52 39 54 65 55 48 56 64 57 49 58
REMARK SMILES IDX 52 59 63 60 79 61 50 62 51 63 62 65 80 66 53 67 40 68 41 69
REMARK SMILES IDX 46 70 42 71 43 72 45 73 47 74 44 75 66 76 67 77 72 78 68 79
REMARK SMILES IDX 69 80 71 81 73 82 70 83 54 84 55 85 60 86 56 87 57 88 59 89
REMARK SMILES IDX 61 90 58 91
REMARK H PARENT 24 5 1 8 1 9 1 10 28 34 78 53 52 64
REMARK Flexibility Score: inf
ROOT
ATOM      1  C   UNL A   1      35.664  21.457  25.893  1.00  0.00     0.118 C 
ENDROOT
BRANCH   1   2
ATOM      2  N   UNL A   1      35.661  20.201  25.166  1.00  0.00    -0.351 N 
ATOM      3  C   UNL A   1      34.666  19.304  24.923  1.00  0.00     0.279 C 
ATOM      4  O   UNL A   1      34.962  18.282  24.302  1.00  0.00    -0.268 OA
ATOM      5  H   UNL A   1      36.532  19.954  24.782  1.00  0.00     0.163 HD
BRANCH   3   6
ATOM      6  C   UNL A   1      33.222  19.574  25.377  1.00  0.00     0.280 C 
BRANCH   6   7
ATOM      7  N   UNL A   1      32.797  18.509  26.319  1.00  0.00    -0.347 N 
ATOM      8  H   UNL A   1      33.620  18.062  26.722  1.00  0.00     0.345 HD
ATOM      9  H   UNL A   1      32.245  17.813  25.818  1.00  0.00     0.345 HD
ATOM     10  H   UNL A   1      32.233  18.918  27.064  1.00  0.00     0.345 HD
ENDBRANCH   6   7
BRANCH   6  11
ATOM     11  C   UNL A   1      32.316  19.812  24.153  1.00  0.00     0.145 C 
BRANCH  11  12
ATOM     12  S   UNL A   1      32.382  21.487  23.427  1.00  0.00    -0.141 SA
BRANCH  12  13
ATOM     13  C   UNL A   1      32.474  22.509  24.927  1.00  0.00     0.146 C 
ATOM     14  C   UNL A   1      31.210  22.495  25.752  1.00  0.00     0.125 C 
ATOM     15  C   UNL A   1      32.687  23.957  24.589  1.00  0.00     0.247 C 
ATOM     16  C   UNL A   1      31.101  23.915  26.225  1.00  0.00     0.235 C 
ATOM     17  N   UNL A   1      31.905  24.711  25.442  1.00  0.00    -0.250 N 
ATOM     18  O   UNL A   1      33.540  24.336  23.795  1.00  0.00    -0.273 OA
ATOM     19  O   UNL A   1      30.335  24.234  27.127  1.00  0.00    -0.274 OA
BRANCH  17  20
ATOM     20  C   UNL A   1      32.014  26.127  25.542  1.00  0.00     0.052 A 
ATOM     21  C   UNL A   1      31.058  26.984  24.985  1.00  0.00     0.027 A 
ATOM     22  C   UNL A   1      33.075  26.706  26.255  1.00  0.00     0.035 A 
ATOM     23  C   UNL A   1      31.128  28.367  25.191  1.00  0.00     0.011 A 
ATOM     24  C   UNL A   1      33.164  28.088  26.468  1.00  0.00    -0.016 A 
ATOM     25  C   UNL A   1      32.169  28.934  25.941  1.00  0.00    -0.018 A 
ATOM     26  C   UNL A   1      34.224  28.632  27.209  1.00  0.00     0.009 A 
ATOM     27  C   UNL A   1      32.248  30.313  26.190  1.00  0.00     0.009 A 
ATOM     28  C   UNL A   1      34.292  30.003  27.444  1.00  0.00     0.001 A 
ATOM     29  C   UNL A   1      33.302  30.842  26.938  1.00  0.00     0.001 A 
ENDBRANCH  17  20
ENDBRANCH  12  13
ENDBRANCH  11  12
ENDBRANCH   6  11
ENDBRANCH   3   6
ENDBRANCH   1   2
BRANCH   1  30
ATOM     30  C   UNL A   1      36.254  22.585  25.066  1.00  0.00     0.042 C 
BRANCH  30  31
ATOM     31  C   UNL A   1      37.453  23.249  25.720  1.00  0.00     0.118 C 
BRANCH  31  32
ATOM     32  N   UNL A   1      38.587  22.347  25.850  1.00  0.00    -0.352 N 
ATOM     33  C   UNL A   1      39.889  22.620  26.183  1.00  0.00     0.251 C 
ATOM     34  H   UNL A   1      38.391  21.398  25.671  1.00  0.00     0.163 HD
ATOM     35  O   UNL A   1      40.749  21.756  26.038  1.00  0.00    -0.269 OA
BRANCH  33  36
ATOM     36  C   UNL A   1      40.254  23.952  26.703  1.00  0.00     0.039 A 
ATOM     37  C   UNL A   1      40.475  24.106  28.073  1.00  0.00     0.014 A 
ATOM     38  C   UNL A   1      40.350  25.053  25.846  1.00  0.00     0.014 A 
ATOM     39  C   UNL A   1      40.827  25.358  28.577  1.00  0.00     0.010 A 
ATOM     40  C   UNL A   1      40.801  26.273  26.332  1.00  0.00     0.010 A 
ATOM     41  C   UNL A   1      41.010  26.446  27.707  1.00  0.00    -0.014 A 
BRANCH  41  42
ATOM     42  C   UNL A   1      41.350  27.792  28.224  1.00  0.00     0.031 A 
ATOM     43  C   UNL A   1      42.789  28.233  28.263  1.00  0.00     0.074 A 
ATOM     44  C   UNL A   1      40.378  28.594  28.698  1.00  0.00     0.049 A 
ATOM     45  N   UNL A   1      43.300  29.349  28.714  1.00  0.00    -0.248 NA
ATOM     46  C   UNL A   1      43.790  27.277  27.761  1.00  0.00     0.031 C 
ATOM     47  C   UNL A   1      38.955  28.253  28.766  1.00  0.00     0.029 A 
ATOM     48  N   UNL A   1      40.442  29.862  29.213  1.00  0.00    -0.354 N 
ATOM     49  C   UNL A   1      44.676  29.219  28.570  1.00  0.00     0.074 A 
ATOM     50  C   UNL A   1      44.925  27.893  28.052  1.00  0.00     0.031 C 
ATOM     51  C   UNL A   1      38.278  29.301  29.262  1.00  0.00     0.029 A 
ATOM     52  C   UNL A   1      39.219  30.373  29.571  1.00  0.00     0.049 A 
ATOM     53  H   UNL A   1      41.286  30.360  29.316  1.00  0.00     0.167 HD
ATOM     54  C   UNL A   1      45.643  30.133  28.816  1.00  0.00     0.037 A 
ATOM     55  C   UNL A   1      38.897  31.575  30.082  1.00  0.00     0.037 A 
ATOM     56  C   UNL A   1      45.387  31.465  29.290  1.00  0.00     0.049 A 
ATOM     57  C   UNL A   1      39.985  32.587  30.310  1.00  0.00     0.074 A 
ATOM     58  C   UNL A   1      46.288  32.490  29.517  1.00  0.00     0.029 A 
ATOM     59  N   UNL A   1      44.129  31.961  29.599  1.00  0.00    -0.354 N 
ATOM     60  N   UNL A   1      41.276  32.475  30.108  1.00  0.00    -0.248 NA
ATOM     61  C   UNL A   1      39.569  33.900  30.823  1.00  0.00     0.031 C 
ATOM     62  C   UNL A   1      45.578  33.597  29.994  1.00  0.00     0.029 A 
ATOM     63  C   UNL A   1      44.230  33.275  30.022  1.00  0.00     0.049 A 
ATOM     64  H   UNL A   1      43.288  31.452  29.528  1.00  0.00     0.167 HD
ATOM     65  C   UNL A   1      41.821  33.708  30.435  1.00  0.00     0.074 A 
ATOM     66  C   UNL A   1      40.720  34.558  30.839  1.00  0.00     0.031 C 
ATOM     67  C   UNL A   1      43.117  34.106  30.402  1.00  0.00     0.037 A 
BRANCH  54  68
ATOM     68  C   UNL A   1      47.063  29.718  28.561  1.00  0.00     0.057 A 
ATOM     69  C   UNL A   1      47.857  29.145  29.565  1.00  0.00     0.134 A 
ATOM     70  C   UNL A   1      47.640  29.879  27.296  1.00  0.00     0.134 A 
ATOM     71  F   UNL A   1      47.370  28.980  30.805  1.00  0.00    -0.206 F 
ATOM     72  C   UNL A   1      49.182  28.777  29.329  1.00  0.00     0.040 A 
ATOM     73  C   UNL A   1      48.957  29.489  27.040  1.00  0.00     0.040 A 
ATOM     74  F   UNL A   1      46.937  30.418  26.289  1.00  0.00    -0.206 F 
ATOM     75  C   UNL A   1      49.733  28.943  28.060  1.00  0.00     0.006 A 
ENDBRANCH  54  68
BRANCH  55  76
ATOM     76  C   UNL A   1      37.479  31.907  30.363  1.00  0.00     0.057 A 
ATOM     77  C   UNL A   1      36.919  31.666  31.624  1.00  0.00     0.134 A 
ATOM     78  C   UNL A   1      36.649  32.469  29.386  1.00  0.00     0.134 A 
ATOM     79  F   UNL A   1      37.661  31.118  32.597  1.00  0.00    -0.206 F 
ATOM     80  C   UNL A   1      35.580  31.949  31.896  1.00  0.00     0.040 A 
ATOM     81  C   UNL A   1      35.314  32.778  29.651  1.00  0.00     0.040 A 
ATOM     82  F   UNL A   1      37.129  32.735  28.162  1.00  0.00    -0.206 F 
ATOM     83  C   UNL A   1      34.774  32.510  30.907  1.00  0.00     0.006 A 
ENDBRANCH  55  76
BRANCH  67  84
ATOM     84  C   UNL A   1      43.405  35.531  30.768  1.00  0.00     0.057 A 
ATOM     85  C   UNL A   1      43.626  35.925  32.093  1.00  0.00     0.134 A 
ATOM     86  C   UNL A   1      43.494  36.513  29.773  1.00  0.00     0.134 A 
ATOM     87  F   UNL A   1      43.542  35.033  33.091  1.00  0.00    -0.206 F 
ATOM     88  C   UNL A   1      43.901  37.254  32.419  1.00  0.00     0.040 A 
ATOM     89  C   UNL A   1      43.794  37.839  30.084  1.00  0.00     0.040 A 
ATOM     90  F   UNL A   1      43.303  36.197  28.484  1.00  0.00    -0.206 F 
ATOM     91  C   UNL A   1      43.992  38.214  31.412  1.00  0.00     0.006 A 
ENDBRANCH  67  84
ENDBRANCH  41  42
ENDBRANCH  33  36
ENDBRANCH  31  32
ENDBRANCH  30  31
ENDBRANCH   1  30
TORSDOF 15
ENDMDL
MODEL 2
REMARK VINA RESULT:     -11.9      5.024     10.507
REMARK SMILES [NH3+][C@H](CS[C@@H]1CC(=O)N(c2ccc3ccccc3c2)C1=O)C(=O)NCCCNC(=O)c1ccc(-c2c3nc(c(-c4c(F)cccc4F)c4ccc([nH]4)c(-c4c(F)cccc4F)c4nc(c(-c5c(F)cccc5F)c5ccc2[nH]5)C=C4)C=C3)cc1
REMARK SMILES IDX 25 1 24 2 22 3 23 4 2 6 1 7 3 11 4 12 5 13 6 14 20 15 7 16
REMARK SMILES IDX 9 17 21 18 8 19 10 20 11 21 19 22 12 23 18 24 13 25 17 26
REMARK SMILES IDX 14 27 16 28 15 29 26 30 27 31 28 32 29 33 30 35 31 36 32 37
REMARK SMILES IDX 84 38 33 39 83 40 34 41 35 42 36 43 77 44 37 45 82 46 76 47
REMARK SMILES IDX 78 48 38 49 81 50 75 51 74 52 39 54 65 55 48 56 64 57 49 58
REMARK SMILES IDX 52 59 63 60 79 61 50 62 51 63 62 65 80 66 53 67 40 68 41 69
REMARK SMILES IDX 46 70 42 71 43 72 45 73 47 74 44 75 66 76 67 77 72 78 68 79
REMARK SMILES IDX 69 80 71 81 73 82 70 83 54 84 55 85 60 86 56 87 57 88 59 89
REMARK SMILES IDX 61 90 58 91
REMARK H PARENT 24 5 1 8 1 9 1 10 28 34 78 53 52 64
REMARK Flexibility Score: inf
ROOT
ATOM      1  C   UNL A   1      33.310  34.350  29.000  1.00  0.00     0.118 C 
ENDROOT
BRANCH   1   2
ATOM      2  N   UNL A   1      33.171  35.739  29.397  1.00  0.00    -0.351 N 
ATOM      3  C   UNL A   1      33.054  36.317  30.624  1.00  0.00     0.279 C 
ATOM      4  O   UNL A   1      32.903  37.539  30.664  1.00  0.00    -0.268 OA
ATOM      5  H   UNL A   1      33.158  36.375  28.647  1.00  0.00     0.163 HD
BRANCH   3   6
ATOM      6  C   UNL A   1      33.140  35.480  31.910  1.00  0.00     0.280 C 
BRANCH   6   7
ATOM      7  N   UNL A   1      31.784  35.339  32.495  1.00  0.00    -0.347 N 
ATOM      8  H   UNL A   1      31.597  36.125  33.117  1.00  0.00     0.345 HD
ATOM      9  H   UNL A   1      31.730  34.468  33.024  1.00  0.00     0.345 HD
ATOM     10  H   UNL A   1      31.090  35.325  31.747  1.00  0.00     0.345 HD
ENDBRANCH   6   7
BRANCH   6  11
ATOM     11  C   UNL A   1      34.234  36.044  32.838  1.00  0.00     0.145 C 
BRANCH  11  12
ATOM     12  S   UNL A   1      34.778  34.941  34.189  1.00  0.00    -0.141 SA
BRANCH  12  13
ATOM     13  C   UNL A   1      36.483  34.579  33.674  1.00  0.00     0.146 C 
ATOM     14  C   UNL A   1      36.702  34.674  32.184  1.00  0.00     0.125 C 
ATOM     15  C   UNL A   1      36.872  33.172  34.024  1.00  0.00     0.247 C 
ATOM     16  C   UNL A   1      37.639  33.534  31.908  1.00  0.00     0.235 C 
ATOM     17  N   UNL A   1      37.606  32.660  32.971  1.00  0.00    -0.250 N 
ATOM     18  O   UNL A   1      36.678  32.683  35.131  1.00  0.00    -0.273 OA
ATOM     19  O   UNL A   1      38.240  33.441  30.845  1.00  0.00    -0.274 OA
BRANCH  17  20
ATOM     20  C   UNL A   1      38.309  31.425  33.047  1.00  0.00     0.052 A 
ATOM     21  C   UNL A   1      37.655  30.193  32.930  1.00  0.00     0.027 A 
ATOM     22  C   UNL A   1      39.705  31.413  33.194  1.00  0.00     0.035 A 
ATOM     23  C   UNL A   1      38.381  28.996  32.897  1.00  0.00     0.011 A 
ATOM     24  C   UNL A   1      40.448  30.226  33.167  1.00  0.00    -0.016 A 
ATOM     25  C   UNL A   1      39.780  28.997  33.001  1.00  0.00    -0.018 A 
ATOM     26  C   UNL A   1      41.845  30.252  33.289  1.00  0.00     0.009 A 
ATOM     27  C   UNL A   1      40.536  27.816  32.941  1.00  0.00     0.009 A 
ATOM     28  C   UNL A   1      42.582  29.072  33.232  1.00  0.00     0.001 A 
ATOM     29  C   UNL A   1      41.928  27.855  33.053  1.00  0.00     0.001 A 
ENDBRANCH  17  20
ENDBRANCH  12  13
ENDBRANCH  11  12
ENDBRANCH   6  11
ENDBRANCH   3   6
ENDBRANCH   1   2
BRANCH   1  30
ATOM     30  C   UNL A   1      34.764  33.964  28.802  1.00  0.00     0.042 C 
BRANCH  30  31
ATOM     31  C   UNL A   1      35.112  32.606  29.387  1.00  0.00     0.118 C 
BRANCH  31  32
ATOM     32  N   UNL A   1      34.347  31.527  28.781  1.00  0.00    -0.352 N 
ATOM     33  C   UNL A   1      34.784  30.365  28.197  1.00  0.00     0.251 C 
ATOM     34  H   UNL A   1      33.370  31.649  28.789  1.00  0.00     0.163 HD
ATOM     35  O   UNL A   1      34.000  29.673  27.555  1.00  0.00    -0.269 OA
BRANCH  33  36
ATOM     36  C   UNL A   1      36.196  29.955  28.335  1.00  0.00     0.039 A 
ATOM     37  C   UNL A   1      36.612  29.351  29.523  1.00  0.00     0.014 A 
ATOM     38  C   UNL A   1      37.113  30.192  27.307  1.00  0.00     0.014 A 
ATOM     39  C   UNL A   1      37.941  28.953  29.664  1.00  0.00     0.010 A 
ATOM     40  C   UNL A   1      38.408  29.703  27.407  1.00  0.00     0.010 A 
ATOM     41  C   UNL A   1      38.844  29.110  28.599  1.00  0.00    -0.014 A 
BRANCH  41  42
ATOM     42  C   UNL A   1      40.268  28.726  28.739  1.00  0.00     0.031 A 
ATOM     43  C   UNL A   1      41.258  29.721  29.282  1.00  0.00     0.074 A 
ATOM     44  C   UNL A   1      40.676  27.507  28.337  1.00  0.00     0.049 A 
ATOM     45  N   UNL A   1      42.550  29.598  29.444  1.00  0.00    -0.248 NA
ATOM     46  C   UNL A   1      40.731  31.043  29.661  1.00  0.00     0.031 C 
ATOM     47  C   UNL A   1      39.820  26.479  27.741  1.00  0.00     0.029 A 
ATOM     48  N   UNL A   1      41.918  26.929  28.371  1.00  0.00    -0.354 N 
ATOM     49  C   UNL A   1      42.988  30.828  29.920  1.00  0.00     0.074 A 
ATOM     50  C   UNL A   1      41.839  31.702  29.959  1.00  0.00     0.031 C 
ATOM     51  C   UNL A   1      40.558  25.384  27.496  1.00  0.00     0.029 A 
ATOM     52  C   UNL A   1      41.939  25.642  27.891  1.00  0.00     0.049 A 
ATOM     53  H   UNL A   1      42.720  27.392  28.707  1.00  0.00     0.167 HD
ATOM     54  C   UNL A   1      44.230  31.187  30.319  1.00  0.00     0.037 A 
ATOM     55  C   UNL A   1      42.958  24.770  27.792  1.00  0.00     0.037 A 
ATOM     56  C   UNL A   1      45.361  30.300  30.321  1.00  0.00     0.049 A 
ATOM     57  C   UNL A   1      44.320  25.179  28.278  1.00  0.00     0.074 A 
ATOM     58  C   UNL A   1      46.651  30.544  30.758  1.00  0.00     0.029 A 
ATOM     59  N   UNL A   1      45.332  28.990  29.868  1.00  0.00    -0.354 N 
ATOM     60  N   UNL A   1      44.708  26.324  28.788  1.00  0.00    -0.248 NA
ATOM     61  C   UNL A   1      45.384  24.170  28.191  1.00  0.00     0.031 C 
ATOM     62  C   UNL A   1      47.410  29.389  30.543  1.00  0.00     0.029 A 
ATOM     63  C   UNL A   1      46.582  28.413  30.010  1.00  0.00     0.049 A 
ATOM     64  H   UNL A   1      44.538  28.536  29.500  1.00  0.00     0.167 HD
ATOM     65  C   UNL A   1      46.047  26.162  29.112  1.00  0.00     0.074 A 
ATOM     66  C   UNL A   1      46.403  24.805  28.752  1.00  0.00     0.031 C 
ATOM     67  C   UNL A   1      46.908  27.055  29.661  1.00  0.00     0.037 A 
BRANCH  54  68
ATOM     68  C   UNL A   1      44.418  32.597  30.800  1.00  0.00     0.057 A 
ATOM     69  C   UNL A   1      44.522  33.674  29.908  1.00  0.00     0.134 A 
ATOM     70  C   UNL A   1      44.483  32.885  32.169  1.00  0.00     0.134 A 
ATOM     71  F   UNL A   1      44.486  33.465  28.583  1.00  0.00    -0.206 F 
ATOM     72  C   UNL A   1      44.714  34.981  30.359  1.00  0.00     0.040 A 
ATOM     73  C   UNL A   1      44.646  34.192  32.632  1.00  0.00     0.040 A 
ATOM     74  F   UNL A   1      44.388  31.902  33.078  1.00  0.00    -0.206 F 
ATOM     75  C   UNL A   1      44.770  35.243  31.726  1.00  0.00     0.006 A 
ENDBRANCH  54  68
BRANCH  55  76
ATOM     76  C   UNL A   1      42.720  23.406  27.258  1.00  0.00     0.057 A 
ATOM     77  C   UNL A   1      42.897  23.125  25.898  1.00  0.00     0.134 A 
ATOM     78  C   UNL A   1      42.309  22.356  28.086  1.00  0.00     0.134 A 
ATOM     79  F   UNL A   1      43.277  24.094  25.053  1.00  0.00    -0.206 F 
ATOM     80  C   UNL A   1      42.652  21.854  25.376  1.00  0.00     0.040 A 
ATOM     81  C   UNL A   1      42.082  21.074  27.582  1.00  0.00     0.040 A 
ATOM     82  F   UNL A   1      42.133  22.559  29.400  1.00  0.00    -0.206 F 
ATOM     83  C   UNL A   1      42.246  20.823  26.221  1.00  0.00     0.006 A 
ENDBRANCH  55  76
BRANCH  67  84
ATOM     84  C   UNL A   1      48.299  26.576  29.949  1.00  0.00     0.057 A 
ATOM     85  C   UNL A   1      48.632  25.950  31.156  1.00  0.00     0.134 A 
ATOM     86  C   UNL A   1      49.309  26.714  28.988  1.00  0.00     0.134 A 
ATOM     87  F   UNL A   1      47.712  25.800  32.120  1.00  0.00    -0.206 F 
ATOM     88  C   UNL A   1      49.929  25.501  31.408  1.00  0.00     0.040 A 
ATOM     89  C   UNL A   1      50.602  26.247  29.218  1.00  0.00     0.040 A 
ATOM     90  F   UNL A   1      49.050  27.296  27.807  1.00  0.00    -0.206 F 
ATOM     91  C   UNL A   1      50.917  25.644  30.434  1.00  0.00     0.006 A 
ENDBRANCH  67  84
ENDBRANCH  41  42
ENDBRANCH  33  36
ENDBRANCH  31  32
ENDBRANCH  30  31
ENDBRANCH   1  30
TORSDOF 15
ENDMDL
MODEL 3
REMARK VINA RESULT:     -11.9      3.473      8.533
REMARK SMILES [NH3+][C@H](CS[C@@H]1CC(=O)N(c2ccc3ccccc3c2)C1=O)C(=O)NCCCNC(=O)c1ccc(-c2c3nc(c(-c4c(F)cccc4F)c4ccc([nH]4)c(-c4c(F)cccc4F)c4nc(c(-c5c(F)cccc5F)c5ccc2[nH]5)C=C4)C=C3)cc1
REMARK SMILES IDX 25 1 24 2 22 3 23 4 2 6 1 7 3 11 4 12 5 13 6 14 20 15 7 16
REMARK SMILES IDX 9 17 21 18 8 19 10 20 11 21 19 22 12 23 18 24 13 25 17 26
REMARK SMILES IDX 14 27 16 28 15 29 26 30 27 31 28 32 29 33 30 35 31 36 32 37
REMARK SMILES IDX 84 38 33 39 83 40 34 41 35 42 36 43 77 44 37 45 82 46 76 47
REMARK SMILES IDX 78 48 38 49 81 50 75 51 74 52 39 54 65 55 48 56 64 57 49 58
REMARK SMILES IDX 52 59 63 60 79 61 50 62 51 63 62 65 80 66 53 67 40 68 41 69
REMARK SMILES IDX 46 70 42 71 43 72 45 73 47 74 44 75 66 76 67 77 72 78 68 79
REMARK SMILES IDX 69 80 71 81 73 82 70 83 54 84 55 85 60 86 56 87 57 88 59 89
REMARK SMILES IDX 61 90 58 91
REMARK H PARENT 24 5 1 8 1 9 1 10 28 34 78 53 52 64
REMARK Flexibility Score: inf
ROOT
ATOM      1  C   UNL A   1      31.355  30.261  25.313  1.00  0.00     0.118 C 
ENDROOT
BRANCH   1   2
ATOM      2  N   UNL A   1      30.652  30.087  24.056  1.00  0.00    -0.351 N 
ATOM      3  C   UNL A   1      30.738  29.118  23.103  1.00  0.00     0.279 C 
ATOM      4  O   UNL A   1      30.039  29.248  22.097  1.00  0.00    -0.268 OA
ATOM      5  H   UNL A   1      29.997  30.794  23.857  1.00  0.00     0.163 HD
BRANCH   3   6
ATOM      6  C   UNL A   1      31.648  27.894  23.292  1.00  0.00     0.280 C 
BRANCH   6   7
ATOM      7  N   UNL A   1      31.897  27.260  21.974  1.00  0.00    -0.347 N 
ATOM      8  H   UNL A   1      31.014  26.941  21.577  1.00  0.00     0.345 HD
ATOM      9  H   UNL A   1      32.524  26.464  22.092  1.00  0.00     0.345 HD
ATOM     10  H   UNL A   1      32.326  27.940  21.345  1.00  0.00     0.345 HD
ENDBRANCH   6   7
BRANCH   6  11
ATOM     11  C   UNL A   1      31.085  26.980  24.399  1.00  0.00     0.145 C 
BRANCH  11  12
ATOM     12  S   UNL A   1      29.925  25.681  23.846  1.00  0.00    -0.141 SA
BRANCH  12  13
ATOM     13  C   UNL A   1      30.693  24.202  24.570  1.00  0.00     0.146 C 
ATOM     14  C   UNL A   1      30.648  24.168  26.078  1.00  0.00     0.125 C 
ATOM     15  C   UNL A   1      32.155  24.126  24.235  1.00  0.00     0.247 C 
ATOM     16  C   UNL A   1      31.982  23.585  26.442  1.00  0.00     0.235 C 
ATOM     17  N   UNL A   1      32.826  23.687  25.360  1.00  0.00    -0.250 N 
ATOM     18  O   UNL A   1      32.586  24.283  23.098  1.00  0.00    -0.273 OA
ATOM     19  O   UNL A   1      32.215  23.172  27.572  1.00  0.00    -0.274 OA
BRANCH  17  20
ATOM     20  C   UNL A   1      34.196  23.303  25.342  1.00  0.00     0.052 A 
ATOM     21  C   UNL A   1      35.221  24.206  25.651  1.00  0.00     0.027 A 
ATOM     22  C   UNL A   1      34.556  21.977  25.057  1.00  0.00     0.035 A 
ATOM     23  C   UNL A   1      36.552  23.778  25.735  1.00  0.00     0.011 A 
ATOM     24  C   UNL A   1      35.883  21.532  25.132  1.00  0.00    -0.016 A 
ATOM     25  C   UNL A   1      36.897  22.440  25.490  1.00  0.00    -0.018 A 
ATOM     26  C   UNL A   1      36.205  20.193  24.867  1.00  0.00     0.009 A 
ATOM     27  C   UNL A   1      38.218  21.977  25.596  1.00  0.00     0.009 A 
ATOM     28  C   UNL A   1      37.520  19.747  24.972  1.00  0.00     0.001 A 
ATOM     29  C   UNL A   1      38.526  20.638  25.340  1.00  0.00     0.001 A 
ENDBRANCH  17  20
ENDBRANCH  12  13
ENDBRANCH  11  12
ENDBRANCH   6  11
ENDBRANCH   3   6
ENDBRANCH   1   2
BRANCH   1  30
ATOM     30  C   UNL A   1      31.108  31.634  25.911  1.00  0.00     0.042 C 
BRANCH  30  31
ATOM     31  C   UNL A   1      32.127  32.025  26.968  1.00  0.00     0.118 C 
BRANCH  31  32
ATOM     32  N   UNL A   1      32.081  33.443  27.287  1.00  0.00    -0.352 N 
ATOM     33  C   UNL A   1      32.897  34.183  28.104  1.00  0.00     0.251 C 
ATOM     34  H   UNL A   1      31.355  33.948  26.853  1.00  0.00     0.163 HD
ATOM     35  O   UNL A   1      32.575  35.327  28.413  1.00  0.00    -0.269 OA
BRANCH  33  36
ATOM     36  C   UNL A   1      34.152  33.600  28.617  1.00  0.00     0.039 A 
ATOM     37  C   UNL A   1      35.352  33.901  27.970  1.00  0.00     0.014 A 
ATOM     38  C   UNL A   1      34.143  32.735  29.716  1.00  0.00     0.014 A 
ATOM     39  C   UNL A   1      36.546  33.362  28.448  1.00  0.00     0.010 A 
ATOM     40  C   UNL A   1      35.341  32.283  30.253  1.00  0.00     0.010 A 
ATOM     41  C   UNL A   1      36.551  32.565  29.604  1.00  0.00    -0.014 A 
BRANCH  41  42
ATOM     42  C   UNL A   1      37.803  31.954  30.110  1.00  0.00     0.031 A 
ATOM     43  C   UNL A   1      38.521  32.584  31.272  1.00  0.00     0.074 A 
ATOM     44  C   UNL A   1      38.313  30.868  29.499  1.00  0.00     0.049 A 
ATOM     45  N   UNL A   1      39.647  32.232  31.837  1.00  0.00    -0.248 NA
ATOM     46  C   UNL A   1      37.913  33.792  31.854  1.00  0.00     0.031 C 
ATOM     47  C   UNL A   1      37.737  30.204  28.328  1.00  0.00     0.029 A 
ATOM     48  N   UNL A   1      39.435  30.133  29.782  1.00  0.00    -0.354 N 
ATOM     49  C   UNL A   1      39.889  33.184  32.820  1.00  0.00     0.074 A 
ATOM     50  C   UNL A   1      38.830  34.163  32.733  1.00  0.00     0.031 C 
ATOM     51  C   UNL A   1      38.493  29.139  28.013  1.00  0.00     0.029 A 
ATOM     52  C   UNL A   1      39.617  29.063  28.941  1.00  0.00     0.049 A 
ATOM     53  H   UNL A   1      40.051  30.352  30.518  1.00  0.00     0.167 HD
ATOM     54  C   UNL A   1      40.885  33.222  33.736  1.00  0.00     0.037 A 
ATOM     55  C   UNL A   1      40.580  28.123  28.929  1.00  0.00     0.037 A 
ATOM     56  C   UNL A   1      41.911  32.222  33.847  1.00  0.00     0.049 A 
ATOM     57  C   UNL A   1      41.654  28.165  29.980  1.00  0.00     0.074 A 
ATOM     58  C   UNL A   1      42.934  32.133  34.774  1.00  0.00     0.029 A 
ATOM     59  N   UNL A   1      42.037  31.128  33.004  1.00  0.00    -0.354 N 
ATOM     60  N   UNL A   1      41.834  29.033  30.946  1.00  0.00    -0.248 NA
ATOM     61  C   UNL A   1      42.650  27.086  29.950  1.00  0.00     0.031 C 
ATOM     62  C   UNL A   1      43.697  31.000  34.473  1.00  0.00     0.029 A 
ATOM     63  C   UNL A   1      43.124  30.361  33.385  1.00  0.00     0.049 A 
ATOM     64  H   UNL A   1      41.440  30.927  32.246  1.00  0.00     0.167 HD
ATOM     65  C   UNL A   1      42.940  28.589  31.657  1.00  0.00     0.074 A 
ATOM     66  C   UNL A   1      43.383  27.367  31.017  1.00  0.00     0.031 C 
ATOM     67  C   UNL A   1      43.535  29.139  32.743  1.00  0.00     0.037 A 
BRANCH  54  68
ATOM     68  C   UNL A   1      40.896  34.378  34.694  1.00  0.00     0.057 A 
ATOM     69  C   UNL A   1      41.626  35.546  34.433  1.00  0.00     0.134 A 
ATOM     70  C   UNL A   1      40.160  34.330  35.883  1.00  0.00     0.134 A 
ATOM     71  F   UNL A   1      42.368  35.650  33.319  1.00  0.00    -0.206 F 
ATOM     72  C   UNL A   1      41.648  36.611  35.334  1.00  0.00     0.040 A 
ATOM     73  C   UNL A   1      40.151  35.401  36.779  1.00  0.00     0.040 A 
ATOM     74  F   UNL A   1      39.436  33.243  36.195  1.00  0.00    -0.206 F 
ATOM     75  C   UNL A   1      40.903  36.542  36.509  1.00  0.00     0.006 A 
ENDBRANCH  54  68
BRANCH  55  76
ATOM     76  C   UNL A   1      40.543  27.034  27.922  1.00  0.00     0.057 A 
ATOM     77  C   UNL A   1      39.809  25.865  28.153  1.00  0.00     0.134 A 
ATOM     78  C   UNL A   1      41.240  27.131  26.712  1.00  0.00     0.134 A 
ATOM     79  F   UNL A   1      39.132  25.709  29.300  1.00  0.00    -0.206 F 
ATOM     80  C   UNL A   1      39.787  24.821  27.227  1.00  0.00     0.040 A 
ATOM     81  C   UNL A   1      41.208  26.105  25.767  1.00  0.00     0.040 A 
ATOM     82  F   UNL A   1      41.953  28.231  26.427  1.00  0.00    -0.206 F 
ATOM     83  C   UNL A   1      40.485  24.942  26.027  1.00  0.00     0.006 A 
ENDBRANCH  55  76
BRANCH  67  84
ATOM     84  C   UNL A   1      44.698  28.399  33.334  1.00  0.00     0.057 A 
ATOM     85  C   UNL A   1      46.020  28.691  32.977  1.00  0.00     0.134 A 
ATOM     86  C   UNL A   1      44.489  27.406  34.299  1.00  0.00     0.134 A 
ATOM     87  F   UNL A   1      46.284  29.623  32.049  1.00  0.00    -0.206 F 
ATOM     88  C   UNL A   1      47.094  28.000  33.540  1.00  0.00     0.040 A 
ATOM     89  C   UNL A   1      45.555  26.727  34.888  1.00  0.00     0.040 A 
ATOM     90  F   UNL A   1      43.246  27.087  34.691  1.00  0.00    -0.206 F 
ATOM     91  C   UNL A   1      46.862  27.019  34.504  1.00  0.00     0.006 A 
ENDBRANCH  67  84
ENDBRANCH  41  42
ENDBRANCH  33  36
ENDBRANCH  31  32
ENDBRANCH  30  31
ENDBRANCH   1  30
TORSDOF 15
ENDMDL
