MODEL 1
REMARK VINA RESULT:     -13.7      0.000      0.000
REMARK SMILES C[C@]12C[C@@H](O)[C@H]3[C@@H](CCC4=CC(=O)C=C[C@]43C)[C@H]1CC[C@]2(O)C(=O)COC(=O)CCC(=O)NCCCNC(=O)c1ccc(-c2c3nc(c(-c4c(F)cccc4F)c4ccc([nH]4)c(-c4c(F)cccc4F)c4nc(c(-c5c(F)cccc5F)c5ccc2[nH]5)C=C4)C=C3)cc1
REMARK SMILES IDX 31 1 32 2 33 3 30 5 29 6 27 7 28 8 26 9 25 10 23 11 24 12
REMARK SMILES IDX 21 13 17 14 16 15 15 16 10 17 6 18 14 19 11 20 9 21 7 22
REMARK SMILES IDX 4 23 12 24 8 25 18 26 3 27 13 28 2 29 19 30 1 31 20 32 5 33
REMARK SMILES IDX 22 35 34 37 35 38 36 39 37 40 38 41 39 43 40 44 41 45 93 46
REMARK SMILES IDX 42 47 92 48 43 49 44 50 45 51 86 52 46 53 91 54 85 55 87 56
REMARK SMILES IDX 47 57 90 58 84 59 83 60 48 62 74 63 57 64 73 65 58 66 61 67
REMARK SMILES IDX 72 68 88 69 59 70 60 71 71 73 89 74 62 75 49 76 50 77 55 78
REMARK SMILES IDX 51 79 52 80 54 81 56 82 53 83 75 84 76 85 81 86 77 87 78 88
REMARK SMILES IDX 80 89 82 90 79 91 63 92 64 93 69 94 65 95 66 96 68 97 70 98
REMARK SMILES IDX 67 99
REMARK H PARENT 33 4 5 34 22 36 37 42 87 61 61 72
REMARK Flexibility Score: inf
ROOT
ATOM      1  C   UNL A   1      39.852  20.046  25.948  1.00  0.00     0.220 C 
ATOM      2  O   UNL A   1      39.153  19.198  25.389  1.00  0.00    -0.275 OA
ATOM      3  N   UNL A   1      41.105  19.684  26.327  1.00  0.00    -0.356 N 
ATOM      4  H   UNL A   1      41.314  18.731  26.187  1.00  0.00     0.163 HD
ENDROOT
BRANCH   1   5
ATOM      5  C   UNL A   1      39.325  21.443  26.194  1.00  0.00     0.111 C 
BRANCH   5   6
ATOM      6  C   UNL A   1      38.322  21.906  25.150  1.00  0.00     0.132 C 
BRANCH   6   7
ATOM      7  C   UNL A   1      37.063  22.450  25.783  1.00  0.00     0.306 C 
ATOM      8  O   UNL A   1      36.875  23.639  26.022  1.00  0.00    -0.252 OA
BRANCH   7   9
ATOM      9  O   UNL A   1      36.179  21.456  26.070  1.00  0.00    -0.458 OA
BRANCH   9  10
ATOM     10  C   UNL A   1      35.752  20.627  24.992  1.00  0.00     0.311 C 
BRANCH  10  11
ATOM     11  C   UNL A   1      34.282  20.162  24.977  1.00  0.00     0.202 C 
ATOM     12  O   UNL A   1      34.015  19.061  24.482  1.00  0.00    -0.293 OA
BRANCH  11  13
ATOM     13  C   UNL A   1      33.154  21.132  25.424  1.00  0.00     0.132 C 
ATOM     14  C   UNL A   1      29.173  26.390  24.364  1.00  0.00     0.021 C 
ATOM     15  C   UNL A   1      30.736  26.433  24.186  1.00  0.00     0.013 C 
ATOM     16  C   UNL A   1      30.981  26.824  22.718  1.00  0.00    -0.012 C 
ATOM     17  C   UNL A   1      31.294  27.599  25.021  1.00  0.00    -0.056 C 
ATOM     18  C   UNL A   1      31.269  25.012  24.610  1.00  0.00     0.035 C 
ATOM     19  C   UNL A   1      30.742  28.076  22.292  1.00  0.00     0.048 C 
ATOM     20  C   UNL A   1      31.029  28.870  24.644  1.00  0.00     0.052 C 
ATOM     21  C   UNL A   1      32.345  27.395  26.079  1.00  0.00     0.032 C 
ATOM     22  C   UNL A   1      32.671  25.025  25.251  1.00  0.00    -0.000 C 
ATOM     23  C   UNL A   1      31.161  23.951  23.500  1.00  0.00     0.119 C 
ATOM     24  C   UNL A   1      30.435  29.118  23.304  1.00  0.00     0.178 C 
ATOM     25  C   UNL A   1      32.651  25.957  26.465  1.00  0.00     0.009 C 
ATOM     26  C   UNL A   1      33.221  23.624  25.645  1.00  0.00     0.002 C 
ATOM     27  C   UNL A   1      31.532  22.594  24.056  1.00  0.00     0.042 C 
ATOM     28  O   UNL A   1      29.861  30.157  23.017  1.00  0.00    -0.290 OA
ATOM     29  C   UNL A   1      32.969  22.498  24.604  1.00  0.00     0.009 C 
ATOM     30  C   UNL A   1      32.756  22.986  26.948  1.00  0.00     0.008 C 
ATOM     31  C   UNL A   1      33.960  22.777  23.469  1.00  0.00     0.015 C 
ATOM     32  C   UNL A   1      33.419  21.611  26.869  1.00  0.00     0.044 C 
BRANCH  23  33
ATOM     33  O   UNL A   1      29.828  23.819  23.017  1.00  0.00    -0.393 OA
ATOM     34  H   UNL A   1      29.356  24.657  23.132  1.00  0.00     0.210 HD
ENDBRANCH  23  33
BRANCH  13  35
ATOM     35  O   UNL A   1      31.912  20.423  25.483  1.00  0.00    -0.381 OA
ATOM     36  H   UNL A   1      31.841  19.966  26.336  1.00  0.00     0.212 HD
ENDBRANCH  13  35
ENDBRANCH  11  13
ENDBRANCH  10  11
ENDBRANCH   9  10
ENDBRANCH   7   9
ENDBRANCH   6   7
ENDBRANCH   5   6
ENDBRANCH   1   5
BRANCH   3  37
ATOM     37  C   UNL A   1      42.186  20.455  26.901  1.00  0.00     0.117 C 
BRANCH  37  38
ATOM     38  C   UNL A   1      43.108  21.053  25.848  1.00  0.00     0.042 C 
BRANCH  38  39
ATOM     39  C   UNL A   1      42.668  22.430  25.365  1.00  0.00     0.118 C 
BRANCH  39  40
ATOM     40  N   UNL A   1      43.703  23.260  24.772  1.00  0.00    -0.352 N 
ATOM     41  C   UNL A   1      44.207  24.478  25.172  1.00  0.00     0.251 C 
ATOM     42  H   UNL A   1      44.108  22.894  23.953  1.00  0.00     0.163 HD
ATOM     43  O   UNL A   1      45.285  24.889  24.760  1.00  0.00    -0.269 OA
BRANCH  41  44
ATOM     44  C   UNL A   1      43.388  25.379  25.984  1.00  0.00     0.039 A 
ATOM     45  C   UNL A   1      42.540  24.794  26.932  1.00  0.00     0.014 A 
ATOM     46  C   UNL A   1      43.555  26.754  25.923  1.00  0.00     0.014 A 
ATOM     47  C   UNL A   1      41.961  25.591  27.908  1.00  0.00     0.010 A 
ATOM     48  C   UNL A   1      43.106  27.520  26.976  1.00  0.00     0.010 A 
ATOM     49  C   UNL A   1      42.311  26.944  27.978  1.00  0.00    -0.014 A 
BRANCH  49  50
ATOM     50  C   UNL A   1      41.871  27.804  29.091  1.00  0.00     0.031 A 
ATOM     51  C   UNL A   1      42.564  27.679  30.414  1.00  0.00     0.074 A 
ATOM     52  C   UNL A   1      40.777  28.575  28.932  1.00  0.00     0.049 A 
ATOM     53  N   UNL A   1      42.226  28.180  31.570  1.00  0.00    -0.248 NA
ATOM     54  C   UNL A   1      43.764  26.821  30.457  1.00  0.00     0.031 C 
ATOM     55  C   UNL A   1      39.991  28.700  27.699  1.00  0.00     0.029 A 
ATOM     56  N   UNL A   1      40.122  29.382  29.823  1.00  0.00    -0.354 N 
ATOM     57  C   UNL A   1      43.140  27.663  32.478  1.00  0.00     0.074 A 
ATOM     58  C   UNL A   1      44.009  26.764  31.756  1.00  0.00     0.031 C 
ATOM     59  C   UNL A   1      38.975  29.552  27.908  1.00  0.00     0.029 A 
ATOM     60  C   UNL A   1      39.008  29.990  29.297  1.00  0.00     0.049 A 
ATOM     61  H   UNL A   1      40.421  29.515  30.751  1.00  0.00     0.167 HD
ATOM     62  C   UNL A   1      43.256  27.944  33.794  1.00  0.00     0.037 A 
ATOM     63  C   UNL A   1      38.105  30.796  29.886  1.00  0.00     0.037 A 
ATOM     64  C   UNL A   1      42.422  28.897  34.472  1.00  0.00     0.049 A 
ATOM     65  C   UNL A   1      38.294  31.130  31.341  1.00  0.00     0.074 A 
ATOM     66  C   UNL A   1      42.514  29.345  35.775  1.00  0.00     0.029 A 
ATOM     67  N   UNL A   1      41.347  29.553  33.891  1.00  0.00    -0.354 N 
ATOM     68  N   UNL A   1      39.217  30.708  32.172  1.00  0.00    -0.248 NA
ATOM     69  C   UNL A   1      37.324  32.056  31.938  1.00  0.00     0.031 C 
ATOM     70  C   UNL A   1      41.462  30.237  35.998  1.00  0.00     0.029 A 
ATOM     71  C   UNL A   1      40.750  30.387  34.818  1.00  0.00     0.049 A 
ATOM     72  H   UNL A   1      41.053  29.442  32.957  1.00  0.00     0.167 HD
ATOM     73  C   UNL A   1      38.957  31.339  33.381  1.00  0.00     0.074 A 
ATOM     74  C   UNL A   1      37.802  32.186  33.167  1.00  0.00     0.031 C 
ATOM     75  C   UNL A   1      39.609  31.228  34.563  1.00  0.00     0.037 A 
BRANCH  62  76
ATOM     76  C   UNL A   1      44.318  27.230  34.573  1.00  0.00     0.057 A 
ATOM     77  C   UNL A   1      45.596  27.773  34.760  1.00  0.00     0.134 A 
ATOM     78  C   UNL A   1      44.043  26.002  35.185  1.00  0.00     0.134 A 
ATOM     79  F   UNL A   1      45.933  28.936  34.182  1.00  0.00    -0.206 F 
ATOM     80  C   UNL A   1      46.567  27.112  35.513  1.00  0.00     0.040 A 
ATOM     81  C   UNL A   1      44.995  25.346  35.966  1.00  0.00     0.040 A 
ATOM     82  F   UNL A   1      42.840  25.423  35.044  1.00  0.00    -0.206 F 
ATOM     83  C   UNL A   1      46.263  25.899  36.129  1.00  0.00     0.006 A 
ENDBRANCH  62  76
BRANCH  63  84
ATOM     84  C   UNL A   1      36.960  31.342  29.114  1.00  0.00     0.057 A 
ATOM     85  C   UNL A   1      36.963  32.664  28.654  1.00  0.00     0.134 A 
ATOM     86  C   UNL A   1      35.827  30.570  28.837  1.00  0.00     0.134 A 
ATOM     87  F   UNL A   1      38.016  33.461  28.895  1.00  0.00    -0.206 F 
ATOM     88  C   UNL A   1      35.867  33.211  27.983  1.00  0.00     0.040 A 
ATOM     89  C   UNL A   1      34.735  31.093  28.140  1.00  0.00     0.040 A 
ATOM     90  F   UNL A   1      35.765  29.290  29.233  1.00  0.00    -0.206 F 
ATOM     91  C   UNL A   1      34.750  32.421  27.722  1.00  0.00     0.006 A 
ENDBRANCH  63  84
BRANCH  75  92
ATOM     92  C   UNL A   1      39.113  32.073  35.697  1.00  0.00     0.057 A 
ATOM     93  C   UNL A   1      38.258  31.560  36.681  1.00  0.00     0.134 A 
ATOM     94  C   UNL A   1      39.538  33.401  35.832  1.00  0.00     0.134 A 
ATOM     95  F   UNL A   1      37.807  30.300  36.601  1.00  0.00    -0.206 F 
ATOM     96  C   UNL A   1      37.825  32.348  37.747  1.00  0.00     0.040 A 
ATOM     97  C   UNL A   1      39.138  34.187  36.910  1.00  0.00     0.040 A 
ATOM     98  F   UNL A   1      40.368  33.944  34.928  1.00  0.00    -0.206 F 
ATOM     99  C   UNL A   1      38.273  33.662  37.868  1.00  0.00     0.006 A 
ENDBRANCH  75  92
ENDBRANCH  49  50
ENDBRANCH  41  44
ENDBRANCH  39  40
ENDBRANCH  38  39
ENDBRANCH  37  38
ENDBRANCH   3  37
TORSDOF 18
ENDMDL
MODEL 2
REMARK VINA RESULT:     -13.7      1.167      2.417
REMARK SMILES C[C@]12C[C@@H](O)[C@H]3[C@@H](CCC4=CC(=O)C=C[C@]43C)[C@H]1CC[C@]2(O)C(=O)COC(=O)CCC(=O)NCCCNC(=O)c1ccc(-c2c3nc(c(-c4c(F)cccc4F)c4ccc([nH]4)c(-c4c(F)cccc4F)c4nc(c(-c5c(F)cccc5F)c5ccc2[nH]5)C=C4)C=C3)cc1
REMARK SMILES IDX 31 1 32 2 33 3 30 5 29 6 27 7 28 8 26 9 25 10 23 11 24 12
REMARK SMILES IDX 21 13 17 14 16 15 15 16 10 17 6 18 14 19 11 20 9 21 7 22
REMARK SMILES IDX 4 23 12 24 8 25 18 26 3 27 13 28 2 29 19 30 1 31 20 32 5 33
REMARK SMILES IDX 22 35 34 37 35 38 36 39 37 40 38 41 39 43 40 44 41 45 93 46
REMARK SMILES IDX 42 47 92 48 43 49 44 50 45 51 86 52 46 53 91 54 85 55 87 56
REMARK SMILES IDX 47 57 90 58 84 59 83 60 48 62 74 63 57 64 73 65 58 66 61 67
REMARK SMILES IDX 72 68 88 69 59 70 60 71 71 73 89 74 62 75 49 76 50 77 55 78
REMARK SMILES IDX 51 79 52 80 54 81 56 82 53 83 75 84 76 85 81 86 77 87 78 88
REMARK SMILES IDX 80 89 82 90 79 91 63 92 64 93 69 94 65 95 66 96 68 97 70 98
REMARK SMILES IDX 67 99
REMARK H PARENT 33 4 5 34 22 36 37 42 87 61 61 72
REMARK Flexibility Score: inf
ROOT
ATOM      1  C   UNL A   1      38.886  22.041  26.035  1.00  0.00     0.220 C 
ATOM      2  O   UNL A   1      38.504  23.166  26.361  1.00  0.00    -0.275 OA
ATOM      3  N   UNL A   1      40.166  21.696  26.335  1.00  0.00    -0.356 N 
ATOM      4  H   UNL A   1      40.704  22.425  26.723  1.00  0.00     0.163 HD
ENDROOT
BRANCH   1   5
ATOM      5  C   UNL A   1      37.954  21.080  25.331  1.00  0.00     0.111 C 
BRANCH   5   6
ATOM      6  C   UNL A   1      36.826  21.769  24.580  1.00  0.00     0.132 C 
BRANCH   6   7
ATOM      7  C   UNL A   1      35.476  21.445  25.174  1.00  0.00     0.306 C 
ATOM      8  O   UNL A   1      34.645  20.722  24.633  1.00  0.00    -0.252 OA
BRANCH   7   9
ATOM      9  O   UNL A   1      35.294  22.068  26.371  1.00  0.00    -0.458 OA
BRANCH   9  10
ATOM     10  C   UNL A   1      34.695  23.360  26.352  1.00  0.00     0.311 C 
BRANCH  10  11
ATOM     11  C   UNL A   1      33.169  23.447  26.152  1.00  0.00     0.202 C 
ATOM     12  O   UNL A   1      32.434  22.822  26.926  1.00  0.00    -0.293 OA
BRANCH  11  13
ATOM     13  C   UNL A   1      32.587  24.168  24.906  1.00  0.00     0.132 C 
ATOM     14  C   UNL A   1      30.343  29.646  21.811  1.00  0.00     0.021 C 
ATOM     15  C   UNL A   1      29.832  29.174  23.222  1.00  0.00     0.013 C 
ATOM     16  C   UNL A   1      30.142  30.328  24.189  1.00  0.00    -0.012 C 
ATOM     17  C   UNL A   1      28.297  29.073  23.179  1.00  0.00    -0.056 C 
ATOM     18  C   UNL A   1      30.567  27.814  23.527  1.00  0.00     0.035 C 
ATOM     19  C   UNL A   1      29.435  31.470  24.144  1.00  0.00     0.048 C 
ATOM     20  C   UNL A   1      27.561  30.203  23.083  1.00  0.00     0.052 C 
ATOM     21  C   UNL A   1      27.568  27.799  23.511  1.00  0.00     0.032 C 
ATOM     22  C   UNL A   1      29.741  26.819  24.366  1.00  0.00    -0.000 C 
ATOM     23  C   UNL A   1      31.989  27.990  24.090  1.00  0.00     0.119 C 
ATOM     24  C   UNL A   1      28.225  31.518  23.284  1.00  0.00     0.178 C 
ATOM     25  C   UNL A   1      28.418  26.545  23.647  1.00  0.00     0.009 C 
ATOM     26  C   UNL A   1      30.469  25.486  24.700  1.00  0.00     0.002 C 
ATOM     27  C   UNL A   1      32.668  26.641  24.184  1.00  0.00     0.042 C 
ATOM     28  O   UNL A   1      27.743  32.569  22.893  1.00  0.00    -0.290 OA
ATOM     29  C   UNL A   1      31.961  25.631  25.109  1.00  0.00     0.009 C 
ATOM     30  C   UNL A   1      30.516  24.384  23.648  1.00  0.00     0.008 C 
ATOM     31  C   UNL A   1      31.930  26.191  26.535  1.00  0.00     0.015 C 
ATOM     32  C   UNL A   1      31.410  23.348  24.330  1.00  0.00     0.044 C 
BRANCH  23  33
ATOM     33  O   UNL A   1      32.810  28.775  23.231  1.00  0.00    -0.393 OA
ATOM     34  H   UNL A   1      32.326  29.571  22.960  1.00  0.00     0.210 HD
ENDBRANCH  23  33
BRANCH  13  35
ATOM     35  O   UNL A   1      33.572  24.196  23.868  1.00  0.00    -0.381 OA
ATOM     36  H   UNL A   1      33.459  23.421  23.295  1.00  0.00     0.212 HD
ENDBRANCH  13  35
ENDBRANCH  11  13
ENDBRANCH  10  11
ENDBRANCH   9  10
ENDBRANCH   7   9
ENDBRANCH   6   7
ENDBRANCH   5   6
ENDBRANCH   1   5
BRANCH   3  37
ATOM     37  C   UNL A   1      40.875  20.444  26.182  1.00  0.00     0.117 C 
BRANCH  37  38
ATOM     38  C   UNL A   1      42.386  20.621  26.159  1.00  0.00     0.042 C 
BRANCH  38  39
ATOM     39  C   UNL A   1      42.836  22.050  26.440  1.00  0.00     0.118 C 
BRANCH  39  40
ATOM     40  N   UNL A   1      43.443  22.760  25.327  1.00  0.00    -0.352 N 
ATOM     41  C   UNL A   1      43.776  24.089  25.193  1.00  0.00     0.251 C 
ATOM     42  H   UNL A   1      43.650  22.201  24.543  1.00  0.00     0.163 HD
ATOM     43  O   UNL A   1      44.568  24.466  24.337  1.00  0.00    -0.269 OA
BRANCH  41  44
ATOM     44  C   UNL A   1      43.071  25.104  25.976  1.00  0.00     0.039 A 
ATOM     45  C   UNL A   1      42.033  24.664  26.808  1.00  0.00     0.014 A 
ATOM     46  C   UNL A   1      43.507  26.420  26.009  1.00  0.00     0.014 A 
ATOM     47  C   UNL A   1      41.525  25.523  27.770  1.00  0.00     0.010 A 
ATOM     48  C   UNL A   1      43.111  27.220  27.059  1.00  0.00     0.010 A 
ATOM     49  C   UNL A   1      42.122  26.776  27.949  1.00  0.00    -0.014 A 
BRANCH  49  50
ATOM     50  C   UNL A   1      41.747  27.664  29.065  1.00  0.00     0.031 A 
ATOM     51  C   UNL A   1      42.472  27.525  30.368  1.00  0.00     0.074 A 
ATOM     52  C   UNL A   1      40.680  28.474  28.927  1.00  0.00     0.049 A 
ATOM     53  N   UNL A   1      42.187  28.051  31.528  1.00  0.00    -0.248 NA
ATOM     54  C   UNL A   1      43.640  26.622  30.387  1.00  0.00     0.031 C 
ATOM     55  C   UNL A   1      39.864  28.618  27.716  1.00  0.00     0.029 A 
ATOM     56  N   UNL A   1      40.082  29.316  29.827  1.00  0.00    -0.354 N 
ATOM     57  C   UNL A   1      43.106  27.509  32.415  1.00  0.00     0.074 A 
ATOM     58  C   UNL A   1      43.919  26.569  31.680  1.00  0.00     0.031 C 
ATOM     59  C   UNL A   1      38.888  29.511  27.943  1.00  0.00     0.029 A 
ATOM     60  C   UNL A   1      38.977  29.961  29.326  1.00  0.00     0.049 A 
ATOM     61  H   UNL A   1      40.412  29.446  30.745  1.00  0.00     0.167 HD
ATOM     62  C   UNL A   1      43.270  27.798  33.725  1.00  0.00     0.037 A 
ATOM     63  C   UNL A   1      38.123  30.807  29.931  1.00  0.00     0.037 A 
ATOM     64  C   UNL A   1      42.493  28.789  34.415  1.00  0.00     0.049 A 
ATOM     65  C   UNL A   1      38.366  31.149  31.376  1.00  0.00     0.074 A 
ATOM     66  C   UNL A   1      42.639  29.247  35.710  1.00  0.00     0.029 A 
ATOM     67  N   UNL A   1      41.428  29.481  33.857  1.00  0.00    -0.354 N 
ATOM     68  N   UNL A   1      39.296  30.700  32.185  1.00  0.00    -0.248 NA
ATOM     69  C   UNL A   1      37.450  32.117  31.990  1.00  0.00     0.031 C 
ATOM     70  C   UNL A   1      41.629  30.181  35.952  1.00  0.00     0.029 A 
ATOM     71  C   UNL A   1      40.890  30.347  34.791  1.00  0.00     0.049 A 
ATOM     72  H   UNL A   1      41.103  29.372  32.933  1.00  0.00     0.167 HD
ATOM     73  C   UNL A   1      39.095  31.352  33.394  1.00  0.00     0.074 A 
ATOM     74  C   UNL A   1      37.968  32.242  33.203  1.00  0.00     0.031 C 
ATOM     75  C   UNL A   1      39.775  31.229  34.559  1.00  0.00     0.037 A 
BRANCH  62  76
ATOM     76  C   UNL A   1      44.326  27.052  34.482  1.00  0.00     0.057 A 
ATOM     77  C   UNL A   1      45.635  27.535  34.606  1.00  0.00     0.134 A 
ATOM     78  C   UNL A   1      44.015  25.853  35.135  1.00  0.00     0.134 A 
ATOM     79  F   UNL A   1      46.005  28.666  33.986  1.00  0.00    -0.206 F 
ATOM     80  C   UNL A   1      46.601  26.845  35.339  1.00  0.00     0.040 A 
ATOM     81  C   UNL A   1      44.964  25.170  35.897  1.00  0.00     0.040 A 
ATOM     82  F   UNL A   1      42.781  25.332  35.054  1.00  0.00    -0.206 F 
ATOM     83  C   UNL A   1      46.263  25.664  35.997  1.00  0.00     0.006 A 
ENDBRANCH  62  76
BRANCH  63  84
ATOM     84  C   UNL A   1      36.979  31.389  29.186  1.00  0.00     0.057 A 
ATOM     85  C   UNL A   1      35.852  30.620  28.874  1.00  0.00     0.134 A 
ATOM     86  C   UNL A   1      36.989  32.718  28.747  1.00  0.00     0.134 A 
ATOM     87  F   UNL A   1      35.783  29.336  29.257  1.00  0.00    -0.206 F 
ATOM     88  C   UNL A   1      34.796  31.137  28.119  1.00  0.00     0.040 A 
ATOM     89  C   UNL A   1      35.927  33.258  28.017  1.00  0.00     0.040 A 
ATOM     90  F   UNL A   1      38.030  33.517  29.026  1.00  0.00    -0.206 F 
ATOM     91  C   UNL A   1      34.832  32.462  27.691  1.00  0.00     0.006 A 
ENDBRANCH  63  84
BRANCH  75  92
ATOM     92  C   UNL A   1      39.344  32.103  35.697  1.00  0.00     0.057 A 
ATOM     93  C   UNL A   1      38.441  31.658  36.670  1.00  0.00     0.134 A 
ATOM     94  C   UNL A   1      39.882  33.388  35.846  1.00  0.00     0.134 A 
ATOM     95  F   UNL A   1      37.884  30.442  36.575  1.00  0.00    -0.206 F 
ATOM     96  C   UNL A   1      38.069  32.471  37.739  1.00  0.00     0.040 A 
ATOM     97  C   UNL A   1      39.542  34.197  36.929  1.00  0.00     0.040 A 
ATOM     98  F   UNL A   1      40.762  33.866  34.953  1.00  0.00    -0.206 F 
ATOM     99  C   UNL A   1      38.628  33.741  37.876  1.00  0.00     0.006 A 
ENDBRANCH  75  92
ENDBRANCH  49  50
ENDBRANCH  41  44
ENDBRANCH  39  40
ENDBRANCH  38  39
ENDBRANCH  37  38
ENDBRANCH   3  37
TORSDOF 18
ENDMDL
MODEL 3
REMARK VINA RESULT:     -13.4      4.386     10.355
REMARK SMILES C[C@]12C[C@@H](O)[C@H]3[C@@H](CCC4=CC(=O)C=C[C@]43C)[C@H]1CC[C@]2(O)C(=O)COC(=O)CCC(=O)NCCCNC(=O)c1ccc(-c2c3nc(c(-c4c(F)cccc4F)c4ccc([nH]4)c(-c4c(F)cccc4F)c4nc(c(-c5c(F)cccc5F)c5ccc2[nH]5)C=C4)C=C3)cc1
REMARK SMILES IDX 31 1 32 2 33 3 30 5 29 6 27 7 28 8 26 9 25 10 23 11 24 12
REMARK SMILES IDX 21 13 17 14 16 15 15 16 10 17 6 18 14 19 11 20 9 21 7 22
REMARK SMILES IDX 4 23 12 24 8 25 18 26 3 27 13 28 2 29 19 30 1 31 20 32 5 33
REMARK SMILES IDX 22 35 34 37 35 38 36 39 37 40 38 41 39 43 40 44 41 45 93 46
REMARK SMILES IDX 42 47 92 48 43 49 44 50 45 51 86 52 46 53 91 54 85 55 87 56
REMARK SMILES IDX 47 57 90 58 84 59 83 60 48 62 74 63 57 64 73 65 58 66 61 67
REMARK SMILES IDX 72 68 88 69 59 70 60 71 71 73 89 74 62 75 49 76 50 77 55 78
REMARK SMILES IDX 51 79 52 80 54 81 56 82 53 83 75 84 76 85 81 86 77 87 78 88
REMARK SMILES IDX 80 89 82 90 79 91 63 92 64 93 69 94 65 95 66 96 68 97 70 98
REMARK SMILES IDX 67 99
REMARK H PARENT 33 4 5 34 22 36 37 42 87 61 61 72
REMARK Flexibility Score: inf
ROOT
ATOM      1  C   UNL A   1      33.080  35.753  29.993  1.00  0.00     0.220 C 
ATOM      2  O   UNL A   1      32.340  36.446  29.292  1.00  0.00    -0.275 OA
ATOM      3  N   UNL A   1      32.980  35.886  31.342  1.00  0.00    -0.356 N 
ATOM      4  H   UNL A   1      32.367  36.599  31.637  1.00  0.00     0.163 HD
ENDROOT
BRANCH   1   5
ATOM      5  C   UNL A   1      34.058  34.785  29.365  1.00  0.00     0.111 C 
BRANCH   5   6
ATOM      6  C   UNL A   1      33.428  33.873  28.325  1.00  0.00     0.132 C 
BRANCH   6   7
ATOM      7  C   UNL A   1      34.334  32.720  27.966  1.00  0.00     0.306 C 
ATOM      8  O   UNL A   1      35.488  32.853  27.571  1.00  0.00    -0.252 OA
BRANCH   7   9
ATOM      9  O   UNL A   1      33.704  31.524  28.117  1.00  0.00    -0.458 OA
BRANCH   9  10
ATOM     10  C   UNL A   1      33.740  30.620  27.016  1.00  0.00     0.311 C 
BRANCH  10  11
ATOM     11  C   UNL A   1      32.467  30.474  26.159  1.00  0.00     0.202 C 
ATOM     12  O   UNL A   1      31.483  31.168  26.437  1.00  0.00    -0.293 OA
BRANCH  11  13
ATOM     13  C   UNL A   1      32.379  29.361  25.079  1.00  0.00     0.132 C 
ATOM     14  C   UNL A   1      31.076  23.080  23.217  1.00  0.00     0.021 C 
ATOM     15  C   UNL A   1      32.012  23.451  24.426  1.00  0.00     0.013 C 
ATOM     16  C   UNL A   1      31.379  22.796  25.665  1.00  0.00    -0.012 C 
ATOM     17  C   UNL A   1      33.366  22.747  24.233  1.00  0.00    -0.056 C 
ATOM     18  C   UNL A   1      32.093  25.025  24.455  1.00  0.00     0.035 C 
ATOM     19  C   UNL A   1      31.427  21.465  25.837  1.00  0.00     0.048 C 
ATOM     20  C   UNL A   1      33.435  21.401  24.352  1.00  0.00     0.052 C 
ATOM     21  C   UNL A   1      34.665  23.505  24.188  1.00  0.00     0.032 C 
ATOM     22  C   UNL A   1      33.440  25.582  24.959  1.00  0.00    -0.000 C 
ATOM     23  C   UNL A   1      30.901  25.696  25.159  1.00  0.00     0.119 C 
ATOM     24  C   UNL A   1      32.274  20.664  24.917  1.00  0.00     0.178 C 
ATOM     25  C   UNL A   1      34.565  25.018  24.088  1.00  0.00     0.009 C 
ATOM     26  C   UNL A   1      33.521  27.134  25.022  1.00  0.00     0.002 C 
ATOM     27  C   UNL A   1      30.985  27.196  24.982  1.00  0.00     0.042 C 
ATOM     28  O   UNL A   1      32.107  19.466  24.752  1.00  0.00    -0.290 OA
ATOM     29  C   UNL A   1      32.252  27.841  25.575  1.00  0.00     0.009 C 
ATOM     30  C   UNL A   1      33.807  27.913  23.743  1.00  0.00     0.008 C 
ATOM     31  C   UNL A   1      32.285  27.590  27.087  1.00  0.00     0.015 C 
ATOM     32  C   UNL A   1      33.669  29.357  24.228  1.00  0.00     0.044 C 
BRANCH  23  33
ATOM     33  O   UNL A   1      29.656  25.309  24.585  1.00  0.00    -0.393 OA
ATOM     34  H   UNL A   1      28.976  25.959  24.819  1.00  0.00     0.210 HD
ENDBRANCH  23  33
BRANCH  13  35
ATOM     35  O   UNL A   1      31.323  29.668  24.163  1.00  0.00    -0.381 OA
ATOM     36  H   UNL A   1      31.037  28.856  23.717  1.00  0.00     0.212 HD
ENDBRANCH  13  35
ENDBRANCH  11  13
ENDBRANCH  10  11
ENDBRANCH   9  10
ENDBRANCH   7   9
ENDBRANCH   6   7
ENDBRANCH   5   6
ENDBRANCH   1   5
BRANCH   3  37
ATOM     37  C   UNL A   1      33.620  35.163  32.419  1.00  0.00     0.117 C 
BRANCH  37  38
ATOM     38  C   UNL A   1      35.081  35.548  32.603  1.00  0.00     0.042 C 
BRANCH  38  39
ATOM     39  C   UNL A   1      36.040  34.370  32.483  1.00  0.00     0.118 C 
BRANCH  39  40
ATOM     40  N   UNL A   1      35.430  33.066  32.285  1.00  0.00    -0.352 N 
ATOM     41  C   UNL A   1      36.009  31.830  32.102  1.00  0.00     0.251 C 
ATOM     42  H   UNL A   1      34.445  33.067  32.279  1.00  0.00     0.163 HD
ATOM     43  O   UNL A   1      35.374  30.796  32.273  1.00  0.00    -0.269 OA
BRANCH  41  44
ATOM     44  C   UNL A   1      37.359  31.728  31.547  1.00  0.00     0.039 A 
ATOM     45  C   UNL A   1      38.377  31.314  32.415  1.00  0.00     0.014 A 
ATOM     46  C   UNL A   1      37.595  31.886  30.190  1.00  0.00     0.014 A 
ATOM     47  C   UNL A   1      39.602  30.930  31.890  1.00  0.00     0.010 A 
ATOM     48  C   UNL A   1      38.752  31.365  29.656  1.00  0.00     0.010 A 
ATOM     49  C   UNL A   1      39.761  30.879  30.501  1.00  0.00    -0.014 A 
BRANCH  49  50
ATOM     50  C   UNL A   1      40.973  30.316  29.878  1.00  0.00     0.031 A 
ATOM     51  C   UNL A   1      42.115  31.235  29.570  1.00  0.00     0.074 A 
ATOM     52  C   UNL A   1      40.968  29.029  29.478  1.00  0.00     0.049 A 
ATOM     53  N   UNL A   1      43.184  31.007  28.855  1.00  0.00    -0.248 NA
ATOM     54  C   UNL A   1      42.014  32.616  30.079  1.00  0.00     0.031 C 
ATOM     55  C   UNL A   1      39.866  28.079  29.668  1.00  0.00     0.029 A 
ATOM     56  N   UNL A   1      41.915  28.304  28.807  1.00  0.00    -0.354 N 
ATOM     57  C   UNL A   1      43.851  32.223  28.794  1.00  0.00     0.074 A 
ATOM     58  C   UNL A   1      43.044  33.199  29.487  1.00  0.00     0.031 C 
ATOM     59  C   UNL A   1      40.211  26.891  29.145  1.00  0.00     0.029 A 
ATOM     60  C   UNL A   1      41.531  27.012  28.540  1.00  0.00     0.049 A 
ATOM     61  H   UNL A   1      42.788  28.673  28.540  1.00  0.00     0.167 HD
ATOM     62  C   UNL A   1      45.050  32.486  28.230  1.00  0.00     0.037 A 
ATOM     63  C   UNL A   1      42.173  26.043  27.863  1.00  0.00     0.037 A 
ATOM     64  C   UNL A   1      45.865  31.481  27.608  1.00  0.00     0.049 A 
ATOM     65  C   UNL A   1      43.531  26.354  27.293  1.00  0.00     0.074 A 
ATOM     66  C   UNL A   1      47.144  31.605  27.099  1.00  0.00     0.029 A 
ATOM     67  N   UNL A   1      45.479  30.162  27.420  1.00  0.00    -0.354 N 
ATOM     68  N   UNL A   1      44.197  27.484  27.318  1.00  0.00    -0.248 NA
ATOM     69  C   UNL A   1      44.228  25.259  26.608  1.00  0.00     0.031 C 
ATOM     70  C   UNL A   1      47.512  30.371  26.557  1.00  0.00     0.029 A 
ATOM     71  C   UNL A   1      46.487  29.465  26.779  1.00  0.00     0.049 A 
ATOM     72  H   UNL A   1      44.616  29.779  27.701  1.00  0.00     0.167 HD
ATOM     73  C   UNL A   1      45.403  27.228  26.680  1.00  0.00     0.074 A 
ATOM     74  C   UNL A   1      45.382  25.831  26.298  1.00  0.00     0.031 C 
ATOM     75  C   UNL A   1      46.435  28.069  26.428  1.00  0.00     0.037 A 
BRANCH  62  76
ATOM     76  C   UNL A   1      45.551  33.898  28.272  1.00  0.00     0.057 A 
ATOM     77  C   UNL A   1      45.253  34.824  27.264  1.00  0.00     0.134 A 
ATOM     78  C   UNL A   1      46.307  34.349  29.361  1.00  0.00     0.134 A 
ATOM     79  F   UNL A   1      44.552  34.451  26.182  1.00  0.00    -0.206 F 
ATOM     80  C   UNL A   1      45.701  36.144  27.329  1.00  0.00     0.040 A 
ATOM     81  C   UNL A   1      46.734  35.674  29.453  1.00  0.00     0.040 A 
ATOM     82  F   UNL A   1      46.633  33.513  30.358  1.00  0.00    -0.206 F 
ATOM     83  C   UNL A   1      46.435  36.575  28.433  1.00  0.00     0.006 A 
ENDBRANCH  62  76
BRANCH  63  84
ATOM     84  C   UNL A   1      41.558  24.702  27.691  1.00  0.00     0.057 A 
ATOM     85  C   UNL A   1      40.547  24.486  26.747  1.00  0.00     0.134 A 
ATOM     86  C   UNL A   1      41.944  23.612  28.478  1.00  0.00     0.134 A 
ATOM     87  F   UNL A   1      40.124  25.493  25.968  1.00  0.00    -0.206 F 
ATOM     88  C   UNL A   1      39.915  23.247  26.619  1.00  0.00     0.040 A 
ATOM     89  C   UNL A   1      41.343  22.358  28.340  1.00  0.00     0.040 A 
ATOM     90  F   UNL A   1      42.919  23.744  29.390  1.00  0.00    -0.206 F 
ATOM     91  C   UNL A   1      40.317  22.178  27.417  1.00  0.00     0.006 A 
ENDBRANCH  63  84
BRANCH  75  92
ATOM     92  C   UNL A   1      47.637  27.489  25.746  1.00  0.00     0.057 A 
ATOM     93  C   UNL A   1      47.776  27.509  24.353  1.00  0.00     0.134 A 
ATOM     94  C   UNL A   1      48.688  26.950  26.498  1.00  0.00     0.134 A 
ATOM     95  F   UNL A   1      46.798  28.001  23.578  1.00  0.00    -0.206 F 
ATOM     96  C   UNL A   1      48.911  26.991  23.730  1.00  0.00     0.040 A 
ATOM     97  C   UNL A   1      49.841  26.460  25.888  1.00  0.00     0.040 A 
ATOM     98  F   UNL A   1      48.618  26.914  27.838  1.00  0.00    -0.206 F 
ATOM     99  C   UNL A   1      49.952  26.473  24.500  1.00  0.00     0.006 A 
ENDBRANCH  75  92
ENDBRANCH  49  50
ENDBRANCH  41  44
ENDBRANCH  39  40
ENDBRANCH  38  39
ENDBRANCH  37  38
ENDBRANCH   3  37
TORSDOF 18
ENDMDL
