MODEL 1
REMARK VINA RESULT:     -11.8      0.000      0.000
REMARK SMILES CCc1ccc2c(c1)C=C(C(=O)NCCCNC(=O)c1ccc(-c3c4nc(c(-c5c(F)cccc5F)c5ccc([nH]5)c(-c5c(F)cccc5F)c5nc(c(-c6c(F)cccc6F)c6ccc3[nH]6)C=C5)C=C4)cc1)[C@H](C(F)(F)F)O2
REMARK SMILES IDX 15 1 14 2 13 3 11 4 12 5 10 7 3 8 4 9 8 10 5 11 7 12 6 13
REMARK SMILES IDX 9 14 79 15 74 16 2 17 1 18 75 19 76 20 77 21 78 22 16 23
REMARK SMILES IDX 17 24 18 25 19 27 20 28 21 29 73 30 22 31 72 32 23 33 24 34
REMARK SMILES IDX 25 35 66 36 26 37 71 38 65 39 67 40 27 41 70 42 64 43 63 44
REMARK SMILES IDX 28 46 54 47 37 48 53 49 38 50 41 51 52 52 68 53 39 54 40 55
REMARK SMILES IDX 51 57 69 58 42 59 29 60 30 61 35 62 31 63 32 64 34 65 36 66
REMARK SMILES IDX 33 67 55 68 56 69 61 70 57 71 58 72 60 73 62 74 59 75 43 76
REMARK SMILES IDX 44 77 49 78 45 79 46 80 48 81 50 82 47 83
REMARK H PARENT 13 6 17 26 67 45 41 56
REMARK Flexibility Score: inf
ROOT
ATOM      1  C   UNL A   1      33.194  27.915  26.900  1.00  0.00     0.042 C 
ENDROOT
BRANCH   1   2
ATOM      2  C   UNL A   1      31.770  27.707  26.376  1.00  0.00     0.118 C 
BRANCH   2   3
ATOM      3  N   UNL A   1      31.210  26.457  26.873  1.00  0.00    -0.352 N 
ATOM      4  C   UNL A   1      31.452  25.152  26.576  1.00  0.00     0.251 C 
ATOM      5  O   UNL A   1      30.737  24.298  27.094  1.00  0.00    -0.270 OA
ATOM      6  H   UNL A   1      30.518  26.583  27.561  1.00  0.00     0.163 HD
BRANCH   4   7
ATOM      7  C   UNL A   1      32.579  24.722  25.710  1.00  0.00     0.067 C 
ATOM      8  C   UNL A   1      36.906  22.675  24.991  1.00  0.00    -0.047 A 
ATOM      9  C   UNL A   1      36.672  22.706  23.608  1.00  0.00     0.007 A 
ATOM     10  C   UNL A   1      35.952  23.255  25.838  1.00  0.00     0.015 A 
ATOM     11  C   UNL A   1      35.493  23.253  23.094  1.00  0.00     0.047 A 
ATOM     12  C   UNL A   1      34.764  23.792  25.324  1.00  0.00     0.017 A 
ATOM     13  C   UNL A   1      34.536  23.786  23.953  1.00  0.00     0.128 A 
ATOM     14  C   UNL A   1      33.727  24.260  26.224  1.00  0.00     0.025 C 
ATOM     15  O   UNL A   1      33.376  24.222  23.387  1.00  0.00    -0.475 OA
ATOM     16  C   UNL A   1      32.444  24.984  24.212  1.00  0.00     0.314 C 
BRANCH   8  17
ATOM     17  C   UNL A   1      38.177  22.053  25.520  1.00  0.00     0.032 C 
ATOM     18  C   UNL A   1      38.974  22.933  26.479  1.00  0.00     0.009 C 
ENDBRANCH   8  17
BRANCH  16  19
ATOM     19  C   UNL A   1      31.036  24.780  23.608  1.00  0.00     0.429 C 
ATOM     20  F   UNL A   1      30.183  25.781  23.918  1.00  0.00    -0.167 F 
ATOM     21  F   UNL A   1      31.089  24.757  22.249  1.00  0.00    -0.167 F 
ATOM     22  F   UNL A   1      30.474  23.612  23.997  1.00  0.00    -0.167 F 
ENDBRANCH  16  19
ENDBRANCH   4   7
ENDBRANCH   2   3
ENDBRANCH   1   2
BRANCH   1  23
ATOM     23  C   UNL A   1      33.997  28.940  26.100  1.00  0.00     0.118 C 
BRANCH  23  24
ATOM     24  N   UNL A   1      33.836  30.287  26.624  1.00  0.00    -0.352 N 
ATOM     25  C   UNL A   1      34.525  30.935  27.619  1.00  0.00     0.251 C 
ATOM     26  H   UNL A   1      33.122  30.815  26.200  1.00  0.00     0.163 HD
ATOM     27  O   UNL A   1      34.091  31.996  28.056  1.00  0.00    -0.269 OA
BRANCH  25  28
ATOM     28  C   UNL A   1      35.775  30.370  28.179  1.00  0.00     0.039 A 
ATOM     29  C   UNL A   1      36.947  30.466  27.421  1.00  0.00     0.014 A 
ATOM     30  C   UNL A   1      35.793  29.695  29.403  1.00  0.00     0.014 A 
ATOM     31  C   UNL A   1      38.142  29.927  27.909  1.00  0.00     0.010 A 
ATOM     32  C   UNL A   1      36.996  29.208  29.915  1.00  0.00     0.010 A 
ATOM     33  C   UNL A   1      38.181  29.315  29.172  1.00  0.00    -0.014 A 
BRANCH  33  34
ATOM     34  C   UNL A   1      39.451  28.772  29.722  1.00  0.00     0.031 A 
ATOM     35  C   UNL A   1      40.088  29.410  30.927  1.00  0.00     0.074 A 
ATOM     36  C   UNL A   1      40.055  27.736  29.110  1.00  0.00     0.049 A 
ATOM     37  N   UNL A   1      41.233  29.136  31.500  1.00  0.00    -0.248 NA
ATOM     38  C   UNL A   1      39.348  30.513  31.563  1.00  0.00     0.031 C 
ATOM     39  C   UNL A   1      39.553  27.044  27.920  1.00  0.00     0.029 A 
ATOM     40  N   UNL A   1      41.229  27.086  29.399  1.00  0.00    -0.354 N 
ATOM     41  C   UNL A   1      41.354  30.032  32.555  1.00  0.00     0.074 A 
ATOM     42  C   UNL A   1      40.190  30.890  32.515  1.00  0.00     0.031 C 
ATOM     43  C   UNL A   1      40.406  26.060  27.591  1.00  0.00     0.029 A 
ATOM     44  C   UNL A   1      41.531  26.074  28.520  1.00  0.00     0.049 A 
ATOM     45  H   UNL A   1      41.802  27.324  30.164  1.00  0.00     0.167 HD
ATOM     46  C   UNL A   1      42.334  30.117  33.486  1.00  0.00     0.037 A 
ATOM     47  C   UNL A   1      42.599  25.257  28.464  1.00  0.00     0.037 A 
ATOM     48  C   UNL A   1      43.483  29.253  33.539  1.00  0.00     0.049 A 
ATOM     49  C   UNL A   1      43.684  25.392  29.496  1.00  0.00     0.074 A 
ATOM     50  C   UNL A   1      44.522  29.251  34.455  1.00  0.00     0.029 A 
ATOM     51  N   UNL A   1      43.742  28.230  32.639  1.00  0.00    -0.354 N 
ATOM     52  N   UNL A   1      43.767  26.223  30.506  1.00  0.00    -0.248 NA
ATOM     53  C   UNL A   1      44.825  24.472  29.381  1.00  0.00     0.031 C 
ATOM     54  C   UNL A   1      45.422  28.243  34.094  1.00  0.00     0.029 A 
ATOM     55  C   UNL A   1      44.926  27.595  32.977  1.00  0.00     0.049 A 
ATOM     56  H   UNL A   1      43.170  27.991  31.875  1.00  0.00     0.167 HD
ATOM     57  C   UNL A   1      44.947  25.904  31.165  1.00  0.00     0.074 A 
ATOM     58  C   UNL A   1      45.542  24.796  30.448  1.00  0.00     0.031 C 
ATOM     59  C   UNL A   1      45.491  26.478  32.265  1.00  0.00     0.037 A 
BRANCH  46  60
ATOM     60  C   UNL A   1      42.197  31.175  34.542  1.00  0.00     0.057 A 
ATOM     61  C   UNL A   1      42.752  32.450  34.376  1.00  0.00     0.134 A 
ATOM     62  C   UNL A   1      41.459  30.938  35.707  1.00  0.00     0.134 A 
ATOM     63  F   UNL A   1      43.481  32.737  33.287  1.00  0.00    -0.206 F 
ATOM     64  C   UNL A   1      42.591  33.447  35.339  1.00  0.00     0.040 A 
ATOM     65  C   UNL A   1      41.271  31.934  36.667  1.00  0.00     0.040 A 
ATOM     66  F   UNL A   1      40.894  29.740  35.925  1.00  0.00    -0.206 F 
ATOM     67  C   UNL A   1      41.841  33.193  36.485  1.00  0.00     0.006 A 
ENDBRANCH  46  60
BRANCH  47  68
ATOM     68  C   UNL A   1      42.702  24.226  27.400  1.00  0.00     0.057 A 
ATOM     69  C   UNL A   1      42.329  22.899  27.643  1.00  0.00     0.134 A 
ATOM     70  C   UNL A   1      43.211  24.531  26.132  1.00  0.00     0.134 A 
ATOM     71  F   UNL A   1      41.853  22.542  28.846  1.00  0.00    -0.206 F 
ATOM     72  C   UNL A   1      42.487  21.905  26.676  1.00  0.00     0.040 A 
ATOM     73  C   UNL A   1      43.350  23.552  25.146  1.00  0.00     0.040 A 
ATOM     74  F   UNL A   1      43.580  25.785  25.833  1.00  0.00    -0.206 F 
ATOM     75  C   UNL A   1      42.996  22.232  25.422  1.00  0.00     0.006 A 
ENDBRANCH  47  68
BRANCH  59  76
ATOM     76  C   UNL A   1      46.767  25.887  32.785  1.00  0.00     0.057 A 
ATOM     77  C   UNL A   1      46.773  24.877  33.754  1.00  0.00     0.134 A 
ATOM     78  C   UNL A   1      48.004  26.315  32.284  1.00  0.00     0.134 A 
ATOM     79  F   UNL A   1      45.622  24.435  34.283  1.00  0.00    -0.206 F 
ATOM     80  C   UNL A   1      47.966  24.328  34.225  1.00  0.00     0.040 A 
ATOM     81  C   UNL A   1      49.203  25.757  32.729  1.00  0.00     0.040 A 
ATOM     82  F   UNL A   1      48.066  27.274  31.349  1.00  0.00    -0.206 F 
ATOM     83  C   UNL A   1      49.186  24.763  33.707  1.00  0.00     0.006 A 
ENDBRANCH  59  76
ENDBRANCH  33  34
ENDBRANCH  25  28
ENDBRANCH  23  24
ENDBRANCH   1  23
TORSDOF 12
ENDMDL
MODEL 2
REMARK VINA RESULT:     -11.6      1.898      2.271
REMARK SMILES CCc1ccc2c(c1)C=C(C(=O)NCCCNC(=O)c1ccc(-c3c4nc(c(-c5c(F)cccc5F)c5ccc([nH]5)c(-c5c(F)cccc5F)c5nc(c(-c6c(F)cccc6F)c6ccc3[nH]6)C=C5)C=C4)cc1)[C@H](C(F)(F)F)O2
REMARK SMILES IDX 15 1 14 2 13 3 11 4 12 5 10 7 3 8 4 9 8 10 5 11 7 12 6 13
REMARK SMILES IDX 9 14 79 15 74 16 2 17 1 18 75 19 76 20 77 21 78 22 16 23
REMARK SMILES IDX 17 24 18 25 19 27 20 28 21 29 73 30 22 31 72 32 23 33 24 34
REMARK SMILES IDX 25 35 66 36 26 37 71 38 65 39 67 40 27 41 70 42 64 43 63 44
REMARK SMILES IDX 28 46 54 47 37 48 53 49 38 50 41 51 52 52 68 53 39 54 40 55
REMARK SMILES IDX 51 57 69 58 42 59 29 60 30 61 35 62 31 63 32 64 34 65 36 66
REMARK SMILES IDX 33 67 55 68 56 69 61 70 57 71 58 72 60 73 62 74 59 75 43 76
REMARK SMILES IDX 44 77 49 78 45 79 46 80 48 81 50 82 47 83
REMARK H PARENT 13 6 17 26 67 45 41 56
REMARK Flexibility Score: inf
ROOT
ATOM      1  C   UNL A   1      33.724  28.697  25.729  1.00  0.00     0.042 C 
ENDROOT
BRANCH   1   2
ATOM      2  C   UNL A   1      32.267  28.503  25.294  1.00  0.00     0.118 C 
BRANCH   2   3
ATOM      3  N   UNL A   1      31.631  27.442  26.064  1.00  0.00    -0.352 N 
ATOM      4  C   UNL A   1      31.782  26.091  26.076  1.00  0.00     0.251 C 
ATOM      5  O   UNL A   1      31.017  25.429  26.775  1.00  0.00    -0.270 OA
ATOM      6  H   UNL A   1      30.957  27.769  26.702  1.00  0.00     0.163 HD
BRANCH   4   7
ATOM      7  C   UNL A   1      32.867  25.397  25.338  1.00  0.00     0.067 C 
ATOM      8  C   UNL A   1      37.032  22.942  25.126  1.00  0.00    -0.047 A 
ATOM      9  C   UNL A   1      36.787  22.675  23.771  1.00  0.00     0.007 A 
ATOM     10  C   UNL A   1      36.131  23.764  25.815  1.00  0.00     0.015 A 
ATOM     11  C   UNL A   1      35.644  23.173  23.139  1.00  0.00     0.047 A 
ATOM     12  C   UNL A   1      34.978  24.253  25.185  1.00  0.00     0.017 A 
ATOM     13  C   UNL A   1      34.736  23.952  23.850  1.00  0.00     0.128 A 
ATOM     14  C   UNL A   1      33.985  24.985  25.950  1.00  0.00     0.025 C 
ATOM     15  O   UNL A   1      33.603  24.329  23.193  1.00  0.00    -0.475 OA
ATOM     16  C   UNL A   1      32.734  25.321  23.818  1.00  0.00     0.314 C 
BRANCH   8  17
ATOM     17  C   UNL A   1      38.263  22.368  25.790  1.00  0.00     0.032 C 
ATOM     18  C   UNL A   1      38.557  20.909  25.452  1.00  0.00     0.009 C 
ENDBRANCH   8  17
BRANCH  16  19
ATOM     19  C   UNL A   1      31.310  25.086  23.268  1.00  0.00     0.429 C 
ATOM     20  F   UNL A   1      30.495  26.149  23.449  1.00  0.00    -0.167 F 
ATOM     21  F   UNL A   1      31.337  24.874  21.924  1.00  0.00    -0.167 F 
ATOM     22  F   UNL A   1      30.717  24.002  23.822  1.00  0.00    -0.167 F 
ENDBRANCH  16  19
ENDBRANCH   4   7
ENDBRANCH   2   3
ENDBRANCH   1   2
BRANCH   1  23
ATOM     23  C   UNL A   1      33.911  28.731  27.245  1.00  0.00     0.118 C 
BRANCH  23  24
ATOM     24  N   UNL A   1      33.822  30.083  27.774  1.00  0.00    -0.352 N 
ATOM     25  C   UNL A   1      34.719  30.796  28.530  1.00  0.00     0.251 C 
ATOM     26  H   UNL A   1      32.989  30.559  27.557  1.00  0.00     0.163 HD
ATOM     27  O   UNL A   1      34.360  31.845  29.055  1.00  0.00    -0.269 OA
BRANCH  25  28
ATOM     28  C   UNL A   1      36.106  30.315  28.729  1.00  0.00     0.039 A 
ATOM     29  C   UNL A   1      37.011  30.434  27.669  1.00  0.00     0.014 A 
ATOM     30  C   UNL A   1      36.504  29.693  29.916  1.00  0.00     0.014 A 
ATOM     31  C   UNL A   1      38.323  29.973  27.814  1.00  0.00     0.010 A 
ATOM     32  C   UNL A   1      37.829  29.286  30.080  1.00  0.00     0.010 A 
ATOM     33  C   UNL A   1      38.750  29.417  29.030  1.00  0.00    -0.014 A 
BRANCH  33  34
ATOM     34  C   UNL A   1      40.152  28.958  29.215  1.00  0.00     0.031 A 
ATOM     35  C   UNL A   1      41.176  29.878  29.821  1.00  0.00     0.074 A 
ATOM     36  C   UNL A   1      40.513  27.731  28.793  1.00  0.00     0.049 A 
ATOM     37  N   UNL A   1      42.462  29.692  29.984  1.00  0.00    -0.248 NA
ATOM     38  C   UNL A   1      40.696  31.187  30.292  1.00  0.00     0.031 C 
ATOM     39  C   UNL A   1      39.622  26.752  28.167  1.00  0.00     0.029 A 
ATOM     40  N   UNL A   1      41.732  27.099  28.820  1.00  0.00    -0.354 N 
ATOM     41  C   UNL A   1      42.943  30.857  30.569  1.00  0.00     0.074 A 
ATOM     42  C   UNL A   1      41.822  31.764  30.688  1.00  0.00     0.031 C 
ATOM     43  C   UNL A   1      40.320  25.641  27.883  1.00  0.00     0.029 A 
ATOM     44  C   UNL A   1      41.712  25.840  28.271  1.00  0.00     0.049 A 
ATOM     45  H   UNL A   1      42.543  27.509  29.197  1.00  0.00     0.167 HD
ATOM     46  C   UNL A   1      44.200  31.138  30.989  1.00  0.00     0.037 A 
ATOM     47  C   UNL A   1      42.706  24.951  28.090  1.00  0.00     0.037 A 
ATOM     48  C   UNL A   1      45.313  30.231  30.888  1.00  0.00     0.049 A 
ATOM     49  C   UNL A   1      44.098  25.300  28.543  1.00  0.00     0.074 A 
ATOM     50  C   UNL A   1      46.621  30.419  31.301  1.00  0.00     0.029 A 
ATOM     51  N   UNL A   1      45.246  28.959  30.339  1.00  0.00    -0.354 N 
ATOM     52  N   UNL A   1      44.528  26.393  29.123  1.00  0.00    -0.248 NA
ATOM     53  C   UNL A   1      45.141  24.290  28.317  1.00  0.00     0.031 C 
ATOM     54  C   UNL A   1      47.352  29.271  30.980  1.00  0.00     0.029 A 
ATOM     55  C   UNL A   1      46.491  28.354  30.400  1.00  0.00     0.049 A 
ATOM     56  H   UNL A   1      44.435  28.547  29.964  1.00  0.00     0.167 HD
ATOM     57  C   UNL A   1      45.881  26.189  29.362  1.00  0.00     0.074 A 
ATOM     58  C   UNL A   1      46.198  24.862  28.876  1.00  0.00     0.031 C 
ATOM     59  C   UNL A   1      46.782  27.025  29.932  1.00  0.00     0.037 A 
BRANCH  46  60
ATOM     60  C   UNL A   1      44.438  32.480  31.617  1.00  0.00     0.057 A 
ATOM     61  C   UNL A   1      44.799  33.593  30.848  1.00  0.00     0.134 A 
ATOM     62  C   UNL A   1      44.251  32.676  32.990  1.00  0.00     0.134 A 
ATOM     63  F   UNL A   1      45.005  33.470  29.528  1.00  0.00    -0.206 F 
ATOM     64  C   UNL A   1      44.980  34.851  31.424  1.00  0.00     0.040 A 
ATOM     65  C   UNL A   1      44.406  33.934  33.575  1.00  0.00     0.040 A 
ATOM     66  F   UNL A   1      43.897  31.653  33.783  1.00  0.00    -0.206 F 
ATOM     67  C   UNL A   1      44.776  35.026  32.791  1.00  0.00     0.006 A 
ENDBRANCH  46  60
BRANCH  47  68
ATOM     68  C   UNL A   1      42.434  23.634  27.459  1.00  0.00     0.057 A 
ATOM     69  C   UNL A   1      42.169  22.502  28.238  1.00  0.00     0.134 A 
ATOM     70  C   UNL A   1      42.470  23.467  26.070  1.00  0.00     0.134 A 
ATOM     71  F   UNL A   1      42.140  22.596  29.576  1.00  0.00    -0.206 F 
ATOM     72  C   UNL A   1      41.980  21.245  27.662  1.00  0.00     0.040 A 
ATOM     73  C   UNL A   1      42.258  22.220  25.478  1.00  0.00     0.040 A 
ATOM     74  F   UNL A   1      42.713  24.513  25.267  1.00  0.00    -0.206 F 
ATOM     75  C   UNL A   1      42.022  21.103  26.277  1.00  0.00     0.006 A 
ENDBRANCH  47  68
BRANCH  59  76
ATOM     76  C   UNL A   1      48.180  26.510  30.104  1.00  0.00     0.057 A 
ATOM     77  C   UNL A   1      48.576  25.813  31.251  1.00  0.00     0.134 A 
ATOM     78  C   UNL A   1      49.131  26.689  29.091  1.00  0.00     0.134 A 
ATOM     79  F   UNL A   1      47.715  25.622  32.262  1.00  0.00    -0.206 F 
ATOM     80  C   UNL A   1      49.877  25.331  31.396  1.00  0.00     0.040 A 
ATOM     81  C   UNL A   1      50.429  26.190  29.214  1.00  0.00     0.040 A 
ATOM     82  F   UNL A   1      48.813  27.342  27.964  1.00  0.00    -0.206 F 
ATOM     83  C   UNL A   1      50.807  25.514  30.372  1.00  0.00     0.006 A 
ENDBRANCH  59  76
ENDBRANCH  33  34
ENDBRANCH  25  28
ENDBRANCH  23  24
ENDBRANCH   1  23
TORSDOF 12
ENDMDL
MODEL 3
REMARK VINA RESULT:     -11.5      1.967      3.954
REMARK SMILES CCc1ccc2c(c1)C=C(C(=O)NCCCNC(=O)c1ccc(-c3c4nc(c(-c5c(F)cccc5F)c5ccc([nH]5)c(-c5c(F)cccc5F)c5nc(c(-c6c(F)cccc6F)c6ccc3[nH]6)C=C5)C=C4)cc1)[C@H](C(F)(F)F)O2
REMARK SMILES IDX 15 1 14 2 13 3 11 4 12 5 10 7 3 8 4 9 8 10 5 11 7 12 6 13
REMARK SMILES IDX 9 14 79 15 74 16 2 17 1 18 75 19 76 20 77 21 78 22 16 23
REMARK SMILES IDX 17 24 18 25 19 27 20 28 21 29 73 30 22 31 72 32 23 33 24 34
REMARK SMILES IDX 25 35 66 36 26 37 71 38 65 39 67 40 27 41 70 42 64 43 63 44
REMARK SMILES IDX 28 46 54 47 37 48 53 49 38 50 41 51 52 52 68 53 39 54 40 55
REMARK SMILES IDX 51 57 69 58 42 59 29 60 30 61 35 62 31 63 32 64 34 65 36 66
REMARK SMILES IDX 33 67 55 68 56 69 61 70 57 71 58 72 60 73 62 74 59 75 43 76
REMARK SMILES IDX 44 77 49 78 45 79 46 80 48 81 50 82 47 83
REMARK H PARENT 13 6 17 26 67 45 41 56
REMARK Flexibility Score: inf
ROOT
ATOM      1  C   UNL A   1      33.259  27.946  26.654  1.00  0.00     0.042 C 
ENDROOT
BRANCH   1   2
ATOM      2  C   UNL A   1      33.544  26.571  26.043  1.00  0.00     0.118 C 
BRANCH   2   3
ATOM      3  N   UNL A   1      33.937  26.694  24.645  1.00  0.00    -0.352 N 
ATOM      4  C   UNL A   1      33.237  26.940  23.506  1.00  0.00     0.251 C 
ATOM      5  O   UNL A   1      33.836  26.884  22.434  1.00  0.00    -0.270 OA
ATOM      6  H   UNL A   1      34.903  26.575  24.497  1.00  0.00     0.163 HD
BRANCH   4   7
ATOM      7  C   UNL A   1      31.806  27.335  23.512  1.00  0.00     0.067 C 
ATOM      8  C   UNL A   1      28.242  30.578  23.052  1.00  0.00    -0.047 A 
ATOM      9  C   UNL A   1      27.310  29.530  23.064  1.00  0.00     0.007 A 
ATOM     10  C   UNL A   1      29.595  30.265  23.245  1.00  0.00     0.015 A 
ATOM     11  C   UNL A   1      27.726  28.203  23.210  1.00  0.00     0.047 A 
ATOM     12  C   UNL A   1      30.014  28.935  23.378  1.00  0.00     0.017 A 
ATOM     13  C   UNL A   1      29.078  27.907  23.356  1.00  0.00     0.128 A 
ATOM     14  C   UNL A   1      31.428  28.619  23.436  1.00  0.00     0.025 C 
ATOM     15  O   UNL A   1      29.416  26.588  23.406  1.00  0.00    -0.475 OA
ATOM     16  C   UNL A   1      30.782  26.234  23.778  1.00  0.00     0.314 C 
BRANCH   8  17
ATOM     17  C   UNL A   1      27.767  32.000  22.866  1.00  0.00     0.032 C 
ATOM     18  C   UNL A   1      28.833  33.070  23.081  1.00  0.00     0.009 C 
ENDBRANCH   8  17
BRANCH  16  19
ATOM     19  C   UNL A   1      31.081  24.857  23.145  1.00  0.00     0.429 C 
ATOM     20  F   UNL A   1      31.645  24.954  21.921  1.00  0.00    -0.167 F 
ATOM     21  F   UNL A   1      31.972  24.158  23.900  1.00  0.00    -0.167 F 
ATOM     22  F   UNL A   1      29.973  24.088  23.038  1.00  0.00    -0.167 F 
ENDBRANCH  16  19
ENDBRANCH   4   7
ENDBRANCH   2   3
ENDBRANCH   1   2
BRANCH   1  23
ATOM     23  C   UNL A   1      34.138  29.062  26.090  1.00  0.00     0.118 C 
BRANCH  23  24
ATOM     24  N   UNL A   1      33.890  30.335  26.747  1.00  0.00    -0.352 N 
ATOM     25  C   UNL A   1      34.540  30.926  27.802  1.00  0.00     0.251 C 
ATOM     26  H   UNL A   1      33.138  30.853  26.378  1.00  0.00     0.163 HD
ATOM     27  O   UNL A   1      34.038  31.906  28.343  1.00  0.00    -0.269 OA
BRANCH  25  28
ATOM     28  C   UNL A   1      35.829  30.394  28.302  1.00  0.00     0.039 A 
ATOM     29  C   UNL A   1      35.828  29.649  29.486  1.00  0.00     0.014 A 
ATOM     30  C   UNL A   1      37.038  30.675  27.659  1.00  0.00     0.014 A 
ATOM     31  C   UNL A   1      37.029  29.148  29.998  1.00  0.00     0.010 A 
ATOM     32  C   UNL A   1      38.228  30.127  28.139  1.00  0.00     0.010 A 
ATOM     33  C   UNL A   1      38.236  29.363  29.316  1.00  0.00    -0.014 A 
BRANCH  33  34
ATOM     34  C   UNL A   1      39.516  28.804  29.826  1.00  0.00     0.031 A 
ATOM     35  C   UNL A   1      40.187  29.419  31.024  1.00  0.00     0.074 A 
ATOM     36  C   UNL A   1      40.098  27.773  29.182  1.00  0.00     0.049 A 
ATOM     37  N   UNL A   1      41.345  29.129  31.563  1.00  0.00    -0.248 NA
ATOM     38  C   UNL A   1      39.471  30.516  31.695  1.00  0.00     0.031 C 
ATOM     39  C   UNL A   1      39.562  27.103  27.995  1.00  0.00     0.029 A 
ATOM     40  N   UNL A   1      41.275  27.112  29.432  1.00  0.00    -0.354 N 
ATOM     41  C   UNL A   1      41.497  30.008  32.628  1.00  0.00     0.074 A 
ATOM     42  C   UNL A   1      40.338  30.874  32.631  1.00  0.00     0.031 C 
ATOM     43  C   UNL A   1      40.400  26.119  27.630  1.00  0.00     0.029 A 
ATOM     44  C   UNL A   1      41.547  26.112  28.531  1.00  0.00     0.049 A 
ATOM     45  H   UNL A   1      41.868  27.334  30.186  1.00  0.00     0.167 HD
ATOM     46  C   UNL A   1      42.501  30.073  33.536  1.00  0.00     0.037 A 
ATOM     47  C   UNL A   1      42.608  25.289  28.435  1.00  0.00     0.037 A 
ATOM     48  C   UNL A   1      43.646  29.201  33.546  1.00  0.00     0.049 A 
ATOM     49  C   UNL A   1      43.720  25.402  29.442  1.00  0.00     0.074 A 
ATOM     50  C   UNL A   1      44.707  29.178  34.436  1.00  0.00     0.029 A 
ATOM     51  N   UNL A   1      43.876  28.191  32.625  1.00  0.00    -0.354 N 
ATOM     52  N   UNL A   1      43.833  26.216  30.462  1.00  0.00    -0.248 NA
ATOM     53  C   UNL A   1      44.852  24.477  29.284  1.00  0.00     0.031 C 
ATOM     54  C   UNL A   1      45.592  28.171  34.037  1.00  0.00     0.029 A 
ATOM     55  C   UNL A   1      45.063  27.543  32.923  1.00  0.00     0.049 A 
ATOM     56  H   UNL A   1      43.283  27.966  31.872  1.00  0.00     0.167 HD
ATOM     57  C   UNL A   1      45.028  25.880  31.086  1.00  0.00     0.074 A 
ATOM     58  C   UNL A   1      45.598  24.780  30.337  1.00  0.00     0.031 C 
ATOM     59  C   UNL A   1      45.603  26.434  32.180  1.00  0.00     0.037 A 
BRANCH  46  60
ATOM     60  C   UNL A   1      42.398  31.115  34.611  1.00  0.00     0.057 A 
ATOM     61  C   UNL A   1      42.908  32.406  34.429  1.00  0.00     0.134 A 
ATOM     62  C   UNL A   1      41.735  30.845  35.814  1.00  0.00     0.134 A 
ATOM     63  F   UNL A   1      43.564  32.725  33.303  1.00  0.00    -0.206 F 
ATOM     64  C   UNL A   1      42.777  33.388  35.412  1.00  0.00     0.040 A 
ATOM     65  C   UNL A   1      41.576  31.825  36.795  1.00  0.00     0.040 A 
ATOM     66  F   UNL A   1      41.215  29.630  36.049  1.00  0.00    -0.206 F 
ATOM     67  C   UNL A   1      42.101  33.101  36.596  1.00  0.00     0.006 A 
ENDBRANCH  46  60
BRANCH  47  68
ATOM     68  C   UNL A   1      42.678  24.274  27.353  1.00  0.00     0.057 A 
ATOM     69  C   UNL A   1      42.241  22.962  27.566  1.00  0.00     0.134 A 
ATOM     70  C   UNL A   1      43.218  24.578  26.098  1.00  0.00     0.134 A 
ATOM     71  F   UNL A   1      41.733  22.605  28.756  1.00  0.00    -0.206 F 
ATOM     72  C   UNL A   1      42.365  21.980  26.583  1.00  0.00     0.040 A 
ATOM     73  C   UNL A   1      43.325  23.613  25.096  1.00  0.00     0.040 A 
ATOM     74  F   UNL A   1      43.649  25.819  25.827  1.00  0.00    -0.206 F 
ATOM     75  C   UNL A   1      42.907  22.305  25.341  1.00  0.00     0.006 A 
ENDBRANCH  47  68
BRANCH  59  76
ATOM     76  C   UNL A   1      46.888  25.827  32.659  1.00  0.00     0.057 A 
ATOM     77  C   UNL A   1      48.129  26.222  32.145  1.00  0.00     0.134 A 
ATOM     78  C   UNL A   1      46.882  24.859  33.671  1.00  0.00     0.134 A 
ATOM     79  F   UNL A   1      48.199  27.135  31.164  1.00  0.00    -0.206 F 
ATOM     80  C   UNL A   1      49.319  25.656  32.603  1.00  0.00     0.040 A 
ATOM     81  C   UNL A   1      48.067  24.304  34.155  1.00  0.00     0.040 A 
ATOM     82  F   UNL A   1      45.727  24.443  34.211  1.00  0.00    -0.206 F 
ATOM     83  C   UNL A   1      49.291  24.699  33.617  1.00  0.00     0.006 A 
ENDBRANCH  59  76
ENDBRANCH  33  34
ENDBRANCH  25  28
ENDBRANCH  23  24
ENDBRANCH   1  23
TORSDOF 12
ENDMDL
