MODEL 1
REMARK VINA RESULT:     -12.1      0.000      0.000
REMARK SMILES Cc1nn(C)c(C)c1CN(C)C(=O)[C@@H]1CC=CC[C@@H]1C(=O)NCCCNC(=O)c1ccc(-c2c3nc(c(-c4c(F)cccc4F)c4ccc([nH]4)c(-c4c(F)cccc4F)c4nc(c(-c5c(F)cccc5F)c5ccc2[nH]5)C=C4)C=C3)cc1
REMARK SMILES IDX 23 1 22 2 20 3 21 4 19 6 14 7 15 8 16 9 18 10 17 11 12 12
REMARK SMILES IDX 13 13 10 14 11 15 9 16 8 17 1 18 2 19 3 20 4 21 6 22 5 23
REMARK SMILES IDX 7 24 24 25 25 26 26 27 27 28 28 30 29 31 30 32 82 33 31 34
REMARK SMILES IDX 81 35 32 36 33 37 34 38 75 39 35 40 80 41 74 42 76 43 36 44
REMARK SMILES IDX 79 45 73 46 72 47 37 49 63 50 46 51 62 52 47 53 50 54 61 55
REMARK SMILES IDX 77 56 48 57 49 58 60 60 78 61 51 62 38 63 39 64 44 65 40 66
REMARK SMILES IDX 41 67 43 68 45 69 42 70 64 71 65 72 70 73 66 74 67 75 69 76
REMARK SMILES IDX 71 77 68 78 52 79 53 80 58 81 54 82 55 83 57 84 59 85 56 86
REMARK H PARENT 22 5 26 29 76 48 50 59
REMARK Flexibility Score: inf
ROOT
ATOM      1  C   UNL A   1      31.990  30.461  26.993  1.00  0.00     0.117 C 
ENDROOT
BRANCH   1   2
ATOM      2  N   UNL A   1      32.756  29.959  25.871  1.00  0.00    -0.356 N 
ATOM      3  C   UNL A   1      32.385  29.175  24.822  1.00  0.00     0.224 C 
ATOM      4  O   UNL A   1      33.238  28.978  23.960  1.00  0.00    -0.275 OA
ATOM      5  H   UNL A   1      33.702  30.232  25.864  1.00  0.00     0.163 HD
BRANCH   3   6
ATOM      6  C   UNL A   1      30.969  28.600  24.777  1.00  0.00     0.095 C 
ATOM      7  C   UNL A   1      30.927  27.053  24.853  1.00  0.00     0.095 C 
ATOM      8  C   UNL A   1      31.549  26.401  23.603  1.00  0.00     0.041 C 
ATOM      9  C   UNL A   1      31.156  27.093  22.325  1.00  0.00    -0.030 C 
ATOM     10  C   UNL A   1      30.231  29.084  23.516  1.00  0.00     0.041 C 
ATOM     11  C   UNL A   1      30.545  28.285  22.287  1.00  0.00    -0.030 C 
BRANCH   7  12
ATOM     12  C   UNL A   1      31.573  26.566  26.155  1.00  0.00     0.226 C 
ATOM     13  O   UNL A   1      31.340  27.118  27.230  1.00  0.00    -0.275 OA
BRANCH  12  14
ATOM     14  N   UNL A   1      32.373  25.424  26.083  1.00  0.00    -0.341 N 
ATOM     15  C   UNL A   1      33.778  25.435  25.704  1.00  0.00     0.147 C 
BRANCH  14  16
ATOM     16  C   UNL A   1      31.782  24.146  26.482  1.00  0.00     0.158 C 
BRANCH  16  17
ATOM     17  C   UNL A   1      32.309  22.977  25.715  1.00  0.00     0.015 A 
ATOM     18  C   UNL A   1      30.977  23.256  23.456  1.00  0.00     0.069 C 
ATOM     19  C   UNL A   1      31.946  22.613  24.382  1.00  0.00     0.065 A 
ATOM     20  N   UNL A   1      32.623  21.543  23.957  1.00  0.00    -0.178 NA
ATOM     21  N   UNL A   1      33.361  21.175  25.012  1.00  0.00    -0.272 N 
ATOM     22  C   UNL A   1      33.275  22.041  26.072  1.00  0.00     0.040 A 
ATOM     23  C   UNL A   1      34.130  19.958  24.899  1.00  0.00     0.174 C 
ATOM     24  C   UNL A   1      34.085  21.883  27.303  1.00  0.00     0.067 C 
ENDBRANCH  16  17
ENDBRANCH  14  16
ENDBRANCH  12  14
ENDBRANCH   7  12
ENDBRANCH   3   6
ENDBRANCH   1   2
BRANCH   1  25
ATOM     25  C   UNL A   1      31.724  31.956  26.895  1.00  0.00     0.042 C 
BRANCH  25  26
ATOM     26  C   UNL A   1      32.908  32.838  27.271  1.00  0.00     0.118 C 
BRANCH  26  27
ATOM     27  N   UNL A   1      32.523  34.191  27.651  1.00  0.00    -0.352 N 
ATOM     28  C   UNL A   1      33.020  35.021  28.627  1.00  0.00     0.251 C 
ATOM     29  H   UNL A   1      31.785  34.574  27.123  1.00  0.00     0.163 HD
ATOM     30  O   UNL A   1      32.444  36.075  28.884  1.00  0.00    -0.269 OA
BRANCH  28  31
ATOM     31  C   UNL A   1      34.217  34.632  29.401  1.00  0.00     0.039 A 
ATOM     32  C   UNL A   1      34.047  34.131  30.694  1.00  0.00     0.014 A 
ATOM     33  C   UNL A   1      35.497  34.740  28.856  1.00  0.00     0.014 A 
ATOM     34  C   UNL A   1      35.149  33.638  31.396  1.00  0.00     0.010 A 
ATOM     35  C   UNL A   1      36.580  34.168  29.517  1.00  0.00     0.010 A 
ATOM     36  C   UNL A   1      36.414  33.597  30.788  1.00  0.00    -0.014 A 
BRANCH  36  37
ATOM     37  C   UNL A   1      37.562  32.918  31.440  1.00  0.00     0.031 A 
ATOM     38  C   UNL A   1      38.200  31.716  30.803  1.00  0.00     0.074 A 
ATOM     39  C   UNL A   1      37.971  33.333  32.656  1.00  0.00     0.049 A 
ATOM     40  N   UNL A   1      39.145  30.940  31.268  1.00  0.00    -0.248 NA
ATOM     41  C   UNL A   1      37.692  31.317  29.481  1.00  0.00     0.031 C 
ATOM     42  C   UNL A   1      37.397  34.453  33.407  1.00  0.00     0.029 A 
ATOM     43  N   UNL A   1      38.957  32.853  33.483  1.00  0.00    -0.354 N 
ATOM     44  C   UNL A   1      39.333  29.954  30.307  1.00  0.00     0.074 A 
ATOM     45  C   UNL A   1      38.371  30.203  29.254  1.00  0.00     0.031 C 
ATOM     46  C   UNL A   1      38.052  34.586  34.570  1.00  0.00     0.029 A 
ATOM     47  C   UNL A   1      39.063  33.539  34.669  1.00  0.00     0.049 A 
ATOM     48  H   UNL A   1      39.532  32.091  33.247  1.00  0.00     0.167 HD
ATOM     49  C   UNL A   1      40.240  28.948  30.292  1.00  0.00     0.037 A 
ATOM     50  C   UNL A   1      39.873  33.338  35.724  1.00  0.00     0.037 A 
ATOM     51  C   UNL A   1      41.213  28.719  31.328  1.00  0.00     0.049 A 
ATOM     52  C   UNL A   1      40.862  32.208  35.687  1.00  0.00     0.074 A 
ATOM     53  C   UNL A   1      42.221  27.772  31.367  1.00  0.00     0.029 A 
ATOM     54  N   UNL A   1      41.297  29.442  32.507  1.00  0.00    -0.354 N 
ATOM     55  N   UNL A   1      41.078  31.331  34.738  1.00  0.00    -0.248 NA
ATOM     56  C   UNL A   1      41.721  32.039  36.868  1.00  0.00     0.031 C 
ATOM     57  C   UNL A   1      42.887  27.893  32.591  1.00  0.00     0.029 A 
ATOM     58  C   UNL A   1      42.322  28.944  33.295  1.00  0.00     0.049 A 
ATOM     59  H   UNL A   1      40.713  30.197  32.750  1.00  0.00     0.167 HD
ATOM     60  C   UNL A   1      42.107  30.519  35.197  1.00  0.00     0.074 A 
ATOM     61  C   UNL A   1      42.486  31.020  36.501  1.00  0.00     0.031 C 
ATOM     62  C   UNL A   1      42.684  29.453  34.593  1.00  0.00     0.037 A 
BRANCH  49  63
ATOM     63  C   UNL A   1      40.225  28.020  29.113  1.00  0.00     0.057 A 
ATOM     64  C   UNL A   1      40.964  28.290  27.954  1.00  0.00     0.134 A 
ATOM     65  C   UNL A   1      39.501  26.822  29.154  1.00  0.00     0.134 A 
ATOM     66  F   UNL A   1      41.669  29.426  27.846  1.00  0.00    -0.206 F 
ATOM     67  C   UNL A   1      40.964  27.413  26.868  1.00  0.00     0.040 A 
ATOM     68  C   UNL A   1      39.514  25.925  28.086  1.00  0.00     0.040 A 
ATOM     69  F   UNL A   1      38.779  26.499  30.238  1.00  0.00    -0.206 F 
ATOM     70  C   UNL A   1      40.242  26.222  26.935  1.00  0.00     0.006 A 
ENDBRANCH  49  63
BRANCH  50  71
ATOM     71  C   UNL A   1      39.792  34.234  36.907  1.00  0.00     0.057 A 
ATOM     72  C   UNL A   1      39.022  33.886  38.022  1.00  0.00     0.134 A 
ATOM     73  C   UNL A   1      40.473  35.456  36.947  1.00  0.00     0.134 A 
ATOM     74  F   UNL A   1      38.333  32.736  38.034  1.00  0.00    -0.206 F 
ATOM     75  C   UNL A   1      38.915  34.731  39.128  1.00  0.00     0.040 A 
ATOM     76  C   UNL A   1      40.394  36.300  38.056  1.00  0.00     0.040 A 
ATOM     77  F   UNL A   1      41.234  35.843  35.913  1.00  0.00    -0.206 F 
ATOM     78  C   UNL A   1      39.607  35.941  39.148  1.00  0.00     0.006 A 
ENDBRANCH  50  71
BRANCH  62  79
ATOM     79  C   UNL A   1      43.796  28.767  35.330  1.00  0.00     0.057 A 
ATOM     80  C   UNL A   1      43.548  27.722  36.228  1.00  0.00     0.134 A 
ATOM     81  C   UNL A   1      45.130  29.134  35.113  1.00  0.00     0.134 A 
ATOM     82  F   UNL A   1      42.291  27.335  36.492  1.00  0.00    -0.206 F 
ATOM     83  C   UNL A   1      44.588  27.076  36.899  1.00  0.00     0.040 A 
ATOM     84  C   UNL A   1      46.180  28.479  35.759  1.00  0.00     0.040 A 
ATOM     85  F   UNL A   1      45.436  30.123  34.260  1.00  0.00    -0.206 F 
ATOM     86  C   UNL A   1      45.910  27.450  36.659  1.00  0.00     0.006 A 
ENDBRANCH  62  79
ENDBRANCH  36  37
ENDBRANCH  28  31
ENDBRANCH  26  27
ENDBRANCH  25  26
ENDBRANCH   1  25
TORSDOF 14
ENDMDL
MODEL 2
REMARK VINA RESULT:     -12.0      0.684      6.156
REMARK SMILES Cc1nn(C)c(C)c1CN(C)C(=O)[C@@H]1CC=CC[C@@H]1C(=O)NCCCNC(=O)c1ccc(-c2c3nc(c(-c4c(F)cccc4F)c4ccc([nH]4)c(-c4c(F)cccc4F)c4nc(c(-c5c(F)cccc5F)c5ccc2[nH]5)C=C4)C=C3)cc1
REMARK SMILES IDX 23 1 22 2 20 3 21 4 19 6 14 7 15 8 16 9 18 10 17 11 12 12
REMARK SMILES IDX 13 13 10 14 11 15 9 16 8 17 1 18 2 19 3 20 4 21 6 22 5 23
REMARK SMILES IDX 7 24 24 25 25 26 26 27 27 28 28 30 29 31 30 32 82 33 31 34
REMARK SMILES IDX 81 35 32 36 33 37 34 38 75 39 35 40 80 41 74 42 76 43 36 44
REMARK SMILES IDX 79 45 73 46 72 47 37 49 63 50 46 51 62 52 47 53 50 54 61 55
REMARK SMILES IDX 77 56 48 57 49 58 60 60 78 61 51 62 38 63 39 64 44 65 40 66
REMARK SMILES IDX 41 67 43 68 45 69 42 70 64 71 65 72 70 73 66 74 67 75 69 76
REMARK SMILES IDX 71 77 68 78 52 79 53 80 58 81 54 82 55 83 57 84 59 85 56 86
REMARK H PARENT 22 5 26 29 76 48 50 59
REMARK Flexibility Score: inf
ROOT
ATOM      1  C   UNL A   1      31.801  30.522  26.958  1.00  0.00     0.117 C 
ENDROOT
BRANCH   1   2
ATOM      2  N   UNL A   1      32.606  30.039  25.855  1.00  0.00    -0.356 N 
ATOM      3  C   UNL A   1      32.284  29.236  24.805  1.00  0.00     0.224 C 
ATOM      4  O   UNL A   1      33.159  29.062  23.962  1.00  0.00    -0.275 OA
ATOM      5  H   UNL A   1      33.543  30.344  25.866  1.00  0.00     0.163 HD
BRANCH   3   6
ATOM      6  C   UNL A   1      30.888  28.612  24.736  1.00  0.00     0.095 C 
ATOM      7  C   UNL A   1      30.898  27.066  24.821  1.00  0.00     0.095 C 
ATOM      8  C   UNL A   1      31.566  26.428  23.587  1.00  0.00     0.041 C 
ATOM      9  C   UNL A   1      31.175  27.100  22.298  1.00  0.00    -0.030 C 
ATOM     10  C   UNL A   1      30.160  29.064  23.457  1.00  0.00     0.041 C 
ATOM     11  C   UNL A   1      30.525  28.270  22.240  1.00  0.00    -0.030 C 
BRANCH   7  12
ATOM     12  C   UNL A   1      31.534  26.608  26.138  1.00  0.00     0.226 C 
ATOM     13  O   UNL A   1      31.271  27.166  27.203  1.00  0.00    -0.275 OA
BRANCH  12  14
ATOM     14  N   UNL A   1      32.360  25.484  26.092  1.00  0.00    -0.341 N 
ATOM     15  C   UNL A   1      33.765  25.520  25.713  1.00  0.00     0.147 C 
BRANCH  14  16
ATOM     16  C   UNL A   1      31.799  24.202  26.519  1.00  0.00     0.158 C 
BRANCH  16  17
ATOM     17  C   UNL A   1      32.312  23.035  25.740  1.00  0.00     0.015 A 
ATOM     18  C   UNL A   1      30.910  23.298  23.520  1.00  0.00     0.069 C 
ATOM     19  C   UNL A   1      31.912  22.665  24.419  1.00  0.00     0.065 A 
ATOM     20  N   UNL A   1      32.583  21.598  23.976  1.00  0.00    -0.178 NA
ATOM     21  N   UNL A   1      33.354  21.238  25.010  1.00  0.00    -0.272 N 
ATOM     22  C   UNL A   1      33.294  22.106  26.070  1.00  0.00     0.040 A 
ATOM     23  C   UNL A   1      34.128  20.026  24.877  1.00  0.00     0.174 C 
ATOM     24  C   UNL A   1      34.141  21.957  27.277  1.00  0.00     0.067 C 
ENDBRANCH  16  17
ENDBRANCH  14  16
ENDBRANCH  12  14
ENDBRANCH   7  12
ENDBRANCH   3   6
ENDBRANCH   1   2
BRANCH   1  25
ATOM     25  C   UNL A   1      31.568  32.024  26.895  1.00  0.00     0.042 C 
BRANCH  25  26
ATOM     26  C   UNL A   1      32.796  32.872  27.204  1.00  0.00     0.118 C 
BRANCH  26  27
ATOM     27  N   UNL A   1      32.471  34.219  27.653  1.00  0.00    -0.352 N 
ATOM     28  C   UNL A   1      33.027  34.990  28.645  1.00  0.00     0.251 C 
ATOM     29  H   UNL A   1      31.731  34.649  27.165  1.00  0.00     0.163 HD
ATOM     30  O   UNL A   1      32.496  36.052  28.963  1.00  0.00    -0.269 OA
BRANCH  28  31
ATOM     31  C   UNL A   1      34.233  34.529  29.363  1.00  0.00     0.039 A 
ATOM     32  C   UNL A   1      34.080  33.927  30.615  1.00  0.00     0.014 A 
ATOM     33  C   UNL A   1      35.504  34.667  28.805  1.00  0.00     0.014 A 
ATOM     34  C   UNL A   1      35.188  33.369  31.255  1.00  0.00     0.010 A 
ATOM     35  C   UNL A   1      36.592  34.034  29.398  1.00  0.00     0.010 A 
ATOM     36  C   UNL A   1      36.442  33.364  30.621  1.00  0.00    -0.014 A 
BRANCH  36  37
ATOM     37  C   UNL A   1      37.594  32.623  31.196  1.00  0.00     0.031 A 
ATOM     38  C   UNL A   1      38.272  33.116  32.443  1.00  0.00     0.074 A 
ATOM     39  C   UNL A   1      38.085  31.553  30.538  1.00  0.00     0.049 A 
ATOM     40  N   UNL A   1      39.345  32.657  33.034  1.00  0.00    -0.248 NA
ATOM     41  C   UNL A   1      37.683  34.295  33.096  1.00  0.00     0.031 C 
ATOM     42  C   UNL A   1      37.552  31.008  29.287  1.00  0.00     0.029 A 
ATOM     43  N   UNL A   1      39.154  30.740  30.823  1.00  0.00    -0.354 N 
ATOM     44  C   UNL A   1      39.569  33.498  34.117  1.00  0.00     0.074 A 
ATOM     45  C   UNL A   1      38.549  34.523  34.073  1.00  0.00     0.031 C 
ATOM     46  C   UNL A   1      38.280  29.941  28.925  1.00  0.00     0.029 A 
ATOM     47  C   UNL A   1      39.357  29.750  29.890  1.00  0.00     0.049 A 
ATOM     48  H   UNL A   1      39.720  30.855  31.619  1.00  0.00     0.167 HD
ATOM     49  C   UNL A   1      40.524  33.410  35.073  1.00  0.00     0.037 A 
ATOM     50  C   UNL A   1      40.311  28.805  29.814  1.00  0.00     0.037 A 
ATOM     51  C   UNL A   1      41.521  32.373  35.129  1.00  0.00     0.049 A 
ATOM     52  C   UNL A   1      41.365  28.736  30.882  1.00  0.00     0.074 A 
ATOM     53  C   UNL A   1      42.484  32.157  36.100  1.00  0.00     0.029 A 
ATOM     54  N   UNL A   1      41.687  31.383  34.174  1.00  0.00    -0.354 N 
ATOM     55  N   UNL A   1      41.519  29.493  31.941  1.00  0.00    -0.248 NA
ATOM     56  C   UNL A   1      42.380  27.681  30.746  1.00  0.00     0.031 C 
ATOM     57  C   UNL A   1      43.261  31.062  35.709  1.00  0.00     0.029 A 
ATOM     58  C   UNL A   1      42.754  30.569  34.517  1.00  0.00     0.049 A 
ATOM     59  H   UNL A   1      41.129  31.274  33.371  1.00  0.00     0.167 HD
ATOM     60  C   UNL A   1      42.632  28.997  32.605  1.00  0.00     0.074 A 
ATOM     61  C   UNL A   1      43.105  27.862  31.841  1.00  0.00     0.031 C 
ATOM     62  C   UNL A   1      43.213  29.444  33.744  1.00  0.00     0.037 A 
BRANCH  49  63
ATOM     63  C   UNL A   1      40.532  34.462  36.143  1.00  0.00     0.057 A 
ATOM     64  C   UNL A   1      39.773  34.329  37.313  1.00  0.00     0.134 A 
ATOM     65  C   UNL A   1      41.341  35.600  36.022  1.00  0.00     0.134 A 
ATOM     66  F   UNL A   1      38.970  33.270  37.485  1.00  0.00    -0.206 F 
ATOM     67  C   UNL A   1      39.801  35.301  38.314  1.00  0.00     0.040 A 
ATOM     68  C   UNL A   1      41.397  36.565  37.028  1.00  0.00     0.040 A 
ATOM     69  F   UNL A   1      42.098  35.784  34.930  1.00  0.00    -0.206 F 
ATOM     70  C   UNL A   1      40.620  36.420  38.176  1.00  0.00     0.006 A 
ENDBRANCH  49  63
BRANCH  50  71
ATOM     71  C   UNL A   1      40.310  27.836  28.688  1.00  0.00     0.057 A 
ATOM     72  C   UNL A   1      39.616  26.624  28.781  1.00  0.00     0.134 A 
ATOM     73  C   UNL A   1      41.006  28.092  27.501  1.00  0.00     0.134 A 
ATOM     74  F   UNL A   1      38.947  26.315  29.900  1.00  0.00    -0.206 F 
ATOM     75  C   UNL A   1      39.630  25.693  27.741  1.00  0.00     0.040 A 
ATOM     76  C   UNL A   1      41.009  27.181  26.444  1.00  0.00     0.040 A 
ATOM     77  F   UNL A   1      41.685  29.239  27.346  1.00  0.00    -0.206 F 
ATOM     78  C   UNL A   1      40.325  25.973  26.566  1.00  0.00     0.006 A 
ENDBRANCH  50  71
BRANCH  62  79
ATOM     79  C   UNL A   1      44.413  28.694  34.241  1.00  0.00     0.057 A 
ATOM     80  C   UNL A   1      44.288  27.579  35.080  1.00  0.00     0.134 A 
ATOM     81  C   UNL A   1      45.704  29.069  33.847  1.00  0.00     0.134 A 
ATOM     82  F   UNL A   1      43.081  27.179  35.504  1.00  0.00    -0.206 F 
ATOM     83  C   UNL A   1      45.408  26.874  35.525  1.00  0.00     0.040 A 
ATOM     84  C   UNL A   1      46.829  28.356  34.265  1.00  0.00     0.040 A 
ATOM     85  F   UNL A   1      45.892  30.123  33.039  1.00  0.00    -0.206 F 
ATOM     86  C   UNL A   1      46.683  27.258  35.111  1.00  0.00     0.006 A 
ENDBRANCH  62  79
ENDBRANCH  36  37
ENDBRANCH  28  31
ENDBRANCH  26  27
ENDBRANCH  25  26
ENDBRANCH   1  25
TORSDOF 14
ENDMDL
MODEL 3
REMARK VINA RESULT:     -12.0      0.710      1.672
REMARK SMILES Cc1nn(C)c(C)c1CN(C)C(=O)[C@@H]1CC=CC[C@@H]1C(=O)NCCCNC(=O)c1ccc(-c2c3nc(c(-c4c(F)cccc4F)c4ccc([nH]4)c(-c4c(F)cccc4F)c4nc(c(-c5c(F)cccc5F)c5ccc2[nH]5)C=C4)C=C3)cc1
REMARK SMILES IDX 23 1 22 2 20 3 21 4 19 6 14 7 15 8 16 9 18 10 17 11 12 12
REMARK SMILES IDX 13 13 10 14 11 15 9 16 8 17 1 18 2 19 3 20 4 21 6 22 5 23
REMARK SMILES IDX 7 24 24 25 25 26 26 27 27 28 28 30 29 31 30 32 82 33 31 34
REMARK SMILES IDX 81 35 32 36 33 37 34 38 75 39 35 40 80 41 74 42 76 43 36 44
REMARK SMILES IDX 79 45 73 46 72 47 37 49 63 50 46 51 62 52 47 53 50 54 61 55
REMARK SMILES IDX 77 56 48 57 49 58 60 60 78 61 51 62 38 63 39 64 44 65 40 66
REMARK SMILES IDX 41 67 43 68 45 69 42 70 64 71 65 72 70 73 66 74 67 75 69 76
REMARK SMILES IDX 71 77 68 78 52 79 53 80 58 81 54 82 55 83 57 84 59 85 56 86
REMARK H PARENT 22 5 26 29 76 48 50 59
REMARK Flexibility Score: inf
ROOT
ATOM      1  C   UNL A   1      32.056  30.186  26.931  1.00  0.00     0.117 C 
ENDROOT
BRANCH   1   2
ATOM      2  N   UNL A   1      32.791  29.717  25.774  1.00  0.00    -0.356 N 
ATOM      3  C   UNL A   1      32.382  28.993  24.696  1.00  0.00     0.224 C 
ATOM      4  O   UNL A   1      33.216  28.813  23.812  1.00  0.00    -0.275 OA
ATOM      5  H   UNL A   1      33.744  29.963  25.765  1.00  0.00     0.163 HD
BRANCH   3   6
ATOM      6  C   UNL A   1      30.949  28.460  24.647  1.00  0.00     0.095 C 
ATOM      7  C   UNL A   1      30.866  26.914  24.608  1.00  0.00     0.095 C 
ATOM      8  C   UNL A   1      31.437  26.342  23.296  1.00  0.00     0.041 C 
ATOM      9  C   UNL A   1      31.031  27.139  22.085  1.00  0.00    -0.030 C 
ATOM     10  C   UNL A   1      30.194  29.058  23.446  1.00  0.00     0.041 C 
ATOM     11  C   UNL A   1      30.453  28.346  22.153  1.00  0.00    -0.030 C 
BRANCH   7  12
ATOM     12  C   UNL A   1      31.530  26.313  25.852  1.00  0.00     0.226 C 
ATOM     13  O   UNL A   1      31.087  26.527  26.980  1.00  0.00    -0.275 OA
BRANCH  12  14
ATOM     14  N   UNL A   1      32.609  25.451  25.646  1.00  0.00    -0.341 N 
ATOM     15  C   UNL A   1      34.004  25.857  25.728  1.00  0.00     0.147 C 
BRANCH  14  16
ATOM     16  C   UNL A   1      32.321  24.037  25.404  1.00  0.00     0.158 C 
BRANCH  16  17
ATOM     17  C   UNL A   1      33.523  23.155  25.506  1.00  0.00     0.015 A 
ATOM     18  C   UNL A   1      33.293  22.332  28.002  1.00  0.00     0.069 C 
ATOM     19  C   UNL A   1      33.922  22.409  26.657  1.00  0.00     0.065 A 
ATOM     20  N   UNL A   1      35.018  21.680  26.422  1.00  0.00    -0.178 NA
ATOM     21  N   UNL A   1      35.365  21.997  25.168  1.00  0.00    -0.272 N 
ATOM     22  C   UNL A   1      34.464  22.818  24.539  1.00  0.00     0.040 A 
ATOM     23  C   UNL A   1      36.598  21.447  24.656  1.00  0.00     0.174 C 
ATOM     24  C   UNL A   1      34.597  23.211  23.116  1.00  0.00     0.067 C 
ENDBRANCH  16  17
ENDBRANCH  14  16
ENDBRANCH  12  14
ENDBRANCH   7  12
ENDBRANCH   3   6
ENDBRANCH   1   2
BRANCH   1  25
ATOM     25  C   UNL A   1      31.774  31.680  26.875  1.00  0.00     0.042 C 
BRANCH  25  26
ATOM     26  C   UNL A   1      32.957  32.565  27.249  1.00  0.00     0.118 C 
BRANCH  26  27
ATOM     27  N   UNL A   1      32.574  33.929  27.590  1.00  0.00    -0.352 N 
ATOM     28  C   UNL A   1      33.057  34.777  28.557  1.00  0.00     0.251 C 
ATOM     29  H   UNL A   1      31.851  34.304  27.038  1.00  0.00     0.163 HD
ATOM     30  O   UNL A   1      32.483  35.841  28.778  1.00  0.00    -0.269 OA
BRANCH  28  31
ATOM     31  C   UNL A   1      34.234  34.398  29.365  1.00  0.00     0.039 A 
ATOM     32  C   UNL A   1      34.030  33.836  30.628  1.00  0.00     0.014 A 
ATOM     33  C   UNL A   1      35.531  34.574  28.880  1.00  0.00     0.014 A 
ATOM     34  C   UNL A   1      35.119  33.353  31.355  1.00  0.00     0.010 A 
ATOM     35  C   UNL A   1      36.606  34.013  29.563  1.00  0.00     0.010 A 
ATOM     36  C   UNL A   1      36.409  33.382  30.800  1.00  0.00    -0.014 A 
BRANCH  36  37
ATOM     37  C   UNL A   1      37.553  32.716  31.472  1.00  0.00     0.031 A 
ATOM     38  C   UNL A   1      38.233  31.538  30.834  1.00  0.00     0.074 A 
ATOM     39  C   UNL A   1      37.921  33.121  32.705  1.00  0.00     0.049 A 
ATOM     40  N   UNL A   1      39.181  30.774  31.313  1.00  0.00    -0.248 NA
ATOM     41  C   UNL A   1      37.768  31.150  29.493  1.00  0.00     0.031 C 
ATOM     42  C   UNL A   1      37.305  34.217  33.457  1.00  0.00     0.029 A 
ATOM     43  N   UNL A   1      38.895  32.649  33.550  1.00  0.00    -0.354 N 
ATOM     44  C   UNL A   1      39.414  29.808  30.342  1.00  0.00     0.074 A 
ATOM     45  C   UNL A   1      38.476  30.053  29.268  1.00  0.00     0.031 C 
ATOM     46  C   UNL A   1      37.927  34.346  34.639  1.00  0.00     0.029 A 
ATOM     47  C   UNL A   1      38.956  33.318  34.749  1.00  0.00     0.049 A 
ATOM     48  H   UNL A   1      39.492  31.902  33.319  1.00  0.00     0.167 HD
ATOM     49  C   UNL A   1      40.342  28.821  30.337  1.00  0.00     0.037 A 
ATOM     50  C   UNL A   1      39.743  33.117  35.822  1.00  0.00     0.037 A 
ATOM     51  C   UNL A   1      41.292  28.595  31.394  1.00  0.00     0.049 A 
ATOM     52  C   UNL A   1      40.756  32.009  35.794  1.00  0.00     0.074 A 
ATOM     53  C   UNL A   1      42.319  27.669  31.446  1.00  0.00     0.029 A 
ATOM     54  N   UNL A   1      41.330  29.302  32.586  1.00  0.00    -0.354 N 
ATOM     55  N   UNL A   1      41.015  31.151  34.838  1.00  0.00    -0.248 NA
ATOM     56  C   UNL A   1      41.587  31.839  36.994  1.00  0.00     0.031 C 
ATOM     57  C   UNL A   1      42.950  27.784  32.688  1.00  0.00     0.029 A 
ATOM     58  C   UNL A   1      42.345  28.812  33.393  1.00  0.00     0.049 A 
ATOM     59  H   UNL A   1      40.725  30.040  32.824  1.00  0.00     0.167 HD
ATOM     60  C   UNL A   1      42.048  30.353  35.312  1.00  0.00     0.074 A 
ATOM     61  C   UNL A   1      42.382  30.841  36.633  1.00  0.00     0.031 C 
ATOM     62  C   UNL A   1      42.663  29.308  34.707  1.00  0.00     0.037 A 
BRANCH  49  63
ATOM     63  C   UNL A   1      40.378  27.911  29.144  1.00  0.00     0.057 A 
ATOM     64  C   UNL A   1      39.636  26.723  29.100  1.00  0.00     0.134 A 
ATOM     65  C   UNL A   1      41.127  28.247  28.009  1.00  0.00     0.134 A 
ATOM     66  F   UNL A   1      38.907  26.338  30.158  1.00  0.00    -0.206 F 
ATOM     67  C   UNL A   1      39.657  25.891  27.980  1.00  0.00     0.040 A 
ATOM     68  C   UNL A   1      41.135  27.437  26.873  1.00  0.00     0.040 A 
ATOM     69  F   UNL A   1      41.854  29.375  27.982  1.00  0.00    -0.206 F 
ATOM     70  C   UNL A   1      40.403  26.251  26.859  1.00  0.00     0.006 A 
ENDBRANCH  49  63
BRANCH  50  71
ATOM     71  C   UNL A   1      39.612  33.993  37.015  1.00  0.00     0.057 A 
ATOM     72  C   UNL A   1      40.297  35.211  37.093  1.00  0.00     0.134 A 
ATOM     73  C   UNL A   1      38.810  33.632  38.104  1.00  0.00     0.134 A 
ATOM     74  F   UNL A   1      41.095  35.601  36.089  1.00  0.00    -0.206 F 
ATOM     75  C   UNL A   1      40.205  36.030  38.219  1.00  0.00     0.040 A 
ATOM     76  C   UNL A   1      38.690  34.453  39.226  1.00  0.00     0.040 A 
ATOM     77  F   UNL A   1      38.122  32.481  38.087  1.00  0.00    -0.206 F 
ATOM     78  C   UNL A   1      39.395  35.653  39.289  1.00  0.00     0.006 A 
ENDBRANCH  50  71
BRANCH  62  79
ATOM     79  C   UNL A   1      43.769  28.634  35.463  1.00  0.00     0.057 A 
ATOM     80  C   UNL A   1      43.521  27.562  36.330  1.00  0.00     0.134 A 
ATOM     81  C   UNL A   1      45.099  29.039  35.296  1.00  0.00     0.134 A 
ATOM     82  F   UNL A   1      42.267  27.138  36.546  1.00  0.00    -0.206 F 
ATOM     83  C   UNL A   1      44.556  26.928  37.018  1.00  0.00     0.040 A 
ATOM     84  C   UNL A   1      46.145  28.396  35.959  1.00  0.00     0.040 A 
ATOM     85  F   UNL A   1      45.405  30.055  34.475  1.00  0.00    -0.206 F 
ATOM     86  C   UNL A   1      45.874  27.340  36.828  1.00  0.00     0.006 A 
ENDBRANCH  62  79
ENDBRANCH  36  37
ENDBRANCH  28  31
ENDBRANCH  26  27
ENDBRANCH  25  26
ENDBRANCH   1  25
TORSDOF 14
ENDMDL
