MODEL 1
REMARK VINA RESULT:     -11.5      0.000      0.000
REMARK SMILES O=C(C[C@H](c1ccc(C2CC2)cc1)[NH+]1CCOCC1)NCCCNC(=O)c1ccc(-c2c3nc(c(-c4c(F)cccc4F)c4ccc([nH]4)c(-c4c(F)cccc4F)c4nc(c(-c5c(F)cccc5F)c5ccc2[nH]5)C=C4)C=C3)cc1
REMARK SMILES IDX 21 1 20 2 1 3 2 4 3 6 4 7 14 8 15 9 19 10 16 12 18 13 17 14
REMARK SMILES IDX 5 15 6 16 13 17 7 18 12 19 8 20 9 21 10 22 11 23 22 24 23 25
REMARK SMILES IDX 24 26 25 27 26 29 27 30 28 31 80 32 29 33 79 34 30 35 31 36
REMARK SMILES IDX 32 37 73 38 33 39 78 40 72 41 74 42 34 43 77 44 71 45 70 46
REMARK SMILES IDX 35 48 61 49 44 50 60 51 45 52 48 53 59 54 75 55 46 56 47 57
REMARK SMILES IDX 58 59 76 60 49 61 36 62 37 63 42 64 38 65 39 66 41 67 43 68
REMARK SMILES IDX 40 69 62 70 63 71 68 72 64 73 65 74 67 75 69 76 66 77 50 78
REMARK SMILES IDX 51 79 56 80 52 81 53 82 55 83 57 84 54 85
REMARK H PARENT 20 5 14 11 24 28 74 47 48 58
REMARK Flexibility Score: inf
ROOT
ATOM      1  C   UNL A   1      37.518  22.808  24.936  1.00  0.00     0.117 C 
ENDROOT
BRANCH   1   2
ATOM      2  N   UNL A   1      36.175  23.277  24.647  1.00  0.00    -0.356 N 
ATOM      3  O   UNL A   1      36.331  22.977  22.371  1.00  0.00    -0.275 OA
ATOM      4  C   UNL A   1      35.649  23.181  23.371  1.00  0.00     0.226 C 
ATOM      5  H   UNL A   1      35.632  23.669  25.368  1.00  0.00     0.163 HD
BRANCH   4   6
ATOM      6  C   UNL A   1      34.139  23.285  23.307  1.00  0.00     0.170 C 
BRANCH   6   7
ATOM      7  C   UNL A   1      33.335  22.468  24.365  1.00  0.00     0.224 C 
BRANCH   7   8
ATOM      8  N   UNL A   1      32.013  23.082  24.634  1.00  0.00    -0.324 N 
ATOM      9  C   UNL A   1      32.022  24.548  24.799  1.00  0.00     0.291 C 
ATOM     10  C   UNL A   1      31.166  22.480  25.680  1.00  0.00     0.291 C 
ATOM     11  H   UNL A   1      31.565  22.848  23.748  1.00  0.00     0.348 HD
ATOM     12  C   UNL A   1      32.284  25.024  26.235  1.00  0.00     0.221 C 
ATOM     13  C   UNL A   1      31.378  23.042  27.107  1.00  0.00     0.221 C 
ATOM     14  O   UNL A   1      31.313  24.474  27.131  1.00  0.00    -0.370 OA
ENDBRANCH   7   8
BRANCH   7  15
ATOM     15  C   UNL A   1      33.376  20.951  24.225  1.00  0.00     0.010 A 
ATOM     16  C   UNL A   1      34.320  20.167  24.902  1.00  0.00     0.010 A 
ATOM     17  C   UNL A   1      32.431  20.282  23.436  1.00  0.00     0.010 A 
ATOM     18  C   UNL A   1      34.338  18.778  24.778  1.00  0.00     0.004 A 
ATOM     19  C   UNL A   1      32.444  18.883  23.330  1.00  0.00     0.004 A 
ATOM     20  C   UNL A   1      33.398  18.097  23.997  1.00  0.00    -0.045 A 
BRANCH  20  21
ATOM     21  C   UNL A   1      33.468  16.589  23.930  1.00  0.00     0.019 C 
ATOM     22  C   UNL A   1      34.454  15.757  24.703  1.00  0.00     0.009 C 
ATOM     23  C   UNL A   1      33.017  15.786  25.127  1.00  0.00     0.009 C 
ENDBRANCH  20  21
ENDBRANCH   7  15
ENDBRANCH   6   7
ENDBRANCH   4   6
ENDBRANCH   1   2
BRANCH   1  24
ATOM     24  C   UNL A   1      37.704  21.310  24.782  1.00  0.00     0.042 C 
BRANCH  24  25
ATOM     25  C   UNL A   1      38.252  20.581  26.002  1.00  0.00     0.118 C 
BRANCH  25  26
ATOM     26  N   UNL A   1      39.321  19.634  25.723  1.00  0.00    -0.352 N 
ATOM     27  C   UNL A   1      40.680  19.760  25.929  1.00  0.00     0.251 C 
ATOM     28  H   UNL A   1      39.033  18.778  25.331  1.00  0.00     0.163 HD
ATOM     29  O   UNL A   1      41.446  18.884  25.553  1.00  0.00    -0.269 OA
BRANCH  27  30
ATOM     30  C   UNL A   1      41.238  20.977  26.566  1.00  0.00     0.039 A 
ATOM     31  C   UNL A   1      41.748  21.983  25.740  1.00  0.00     0.014 A 
ATOM     32  C   UNL A   1      41.259  21.143  27.952  1.00  0.00     0.014 A 
ATOM     33  C   UNL A   1      42.192  23.183  26.299  1.00  0.00     0.010 A 
ATOM     34  C   UNL A   1      41.603  22.377  28.500  1.00  0.00     0.010 A 
ATOM     35  C   UNL A   1      42.072  23.413  27.680  1.00  0.00    -0.014 A 
BRANCH  35  36
ATOM     36  C   UNL A   1      42.417  24.739  28.258  1.00  0.00     0.031 A 
ATOM     37  C   UNL A   1      43.829  25.060  28.665  1.00  0.00     0.074 A 
ATOM     38  C   UNL A   1      41.441  25.650  28.445  1.00  0.00     0.049 A 
ATOM     39  N   UNL A   1      44.315  26.175  29.151  1.00  0.00    -0.248 NA
ATOM     40  C   UNL A   1      44.822  23.983  28.539  1.00  0.00     0.031 C 
ATOM     41  C   UNL A   1      40.019  25.436  28.163  1.00  0.00     0.029 A 
ATOM     42  N   UNL A   1      41.495  26.941  28.908  1.00  0.00    -0.354 N 
ATOM     43  C   UNL A   1      45.661  25.932  29.388  1.00  0.00     0.074 A 
ATOM     44  C   UNL A   1      45.903  24.545  29.060  1.00  0.00     0.031 C 
ATOM     45  C   UNL A   1      39.346  26.570  28.410  1.00  0.00     0.029 A 
ATOM     46  C   UNL A   1      40.277  27.578  28.901  1.00  0.00     0.049 A 
ATOM     47  H   UNL A   1      42.326  27.368  29.216  1.00  0.00     0.167 HD
ATOM     48  C   UNL A   1      46.619  26.792  29.812  1.00  0.00     0.037 A 
ATOM     49  C   UNL A   1      39.949  28.839  29.244  1.00  0.00     0.037 A 
ATOM     50  C   UNL A   1      46.379  28.177  30.127  1.00  0.00     0.049 A 
ATOM     51  C   UNL A   1      41.032  29.778  29.698  1.00  0.00     0.074 A 
ATOM     52  C   UNL A   1      47.290  29.145  30.514  1.00  0.00     0.029 A 
ATOM     53  N   UNL A   1      45.135  28.791  30.098  1.00  0.00    -0.354 N 
ATOM     54  N   UNL A   1      42.317  29.556  29.837  1.00  0.00    -0.248 NA
ATOM     55  C   UNL A   1      40.619  31.148  30.031  1.00  0.00     0.031 C 
ATOM     56  C   UNL A   1      46.590  30.330  30.767  1.00  0.00     0.029 A 
ATOM     57  C   UNL A   1      45.252  30.118  30.479  1.00  0.00     0.049 A 
ATOM     58  H   UNL A   1      44.292  28.348  29.843  1.00  0.00     0.167 HD
ATOM     59  C   UNL A   1      42.869  30.765  30.242  1.00  0.00     0.074 A 
ATOM     60  C   UNL A   1      41.782  31.720  30.303  1.00  0.00     0.031 C 
ATOM     61  C   UNL A   1      44.160  31.058  30.538  1.00  0.00     0.037 A 
BRANCH  48  62
ATOM     62  C   UNL A   1      48.016  26.258  29.954  1.00  0.00     0.057 A 
ATOM     63  C   UNL A   1      48.917  26.246  28.879  1.00  0.00     0.134 A 
ATOM     64  C   UNL A   1      48.480  25.779  31.186  1.00  0.00     0.134 A 
ATOM     65  F   UNL A   1      48.536  26.677  27.667  1.00  0.00    -0.206 F 
ATOM     66  C   UNL A   1      50.215  25.750  29.017  1.00  0.00     0.040 A 
ATOM     67  C   UNL A   1      49.785  25.310  31.344  1.00  0.00     0.040 A 
ATOM     68  F   UNL A   1      47.676  25.767  32.260  1.00  0.00    -0.206 F 
ATOM     69  C   UNL A   1      50.655  25.287  30.255  1.00  0.00     0.006 A 
ENDBRANCH  48  62
BRANCH  49  70
ATOM     70  C   UNL A   1      38.542  29.301  29.132  1.00  0.00     0.057 A 
ATOM     71  C   UNL A   1      37.691  29.305  30.245  1.00  0.00     0.134 A 
ATOM     72  C   UNL A   1      38.009  29.736  27.914  1.00  0.00     0.134 A 
ATOM     73  F   UNL A   1      38.136  28.883  31.437  1.00  0.00    -0.206 F 
ATOM     74  C   UNL A   1      36.355  29.698  30.144  1.00  0.00     0.040 A 
ATOM     75  C   UNL A   1      36.684  30.161  27.804  1.00  0.00     0.040 A 
ATOM     76  F   UNL A   1      38.774  29.767  26.812  1.00  0.00    -0.206 F 
ATOM     77  C   UNL A   1      35.849  30.132  28.920  1.00  0.00     0.006 A 
ENDBRANCH  49  70
BRANCH  61  78
ATOM     78  C   UNL A   1      44.464  32.480  30.918  1.00  0.00     0.057 A 
ATOM     79  C   UNL A   1      44.441  32.917  32.249  1.00  0.00     0.134 A 
ATOM     80  C   UNL A   1      44.782  33.426  29.934  1.00  0.00     0.134 A 
ATOM     81  F   UNL A   1      44.134  32.066  33.241  1.00  0.00    -0.206 F 
ATOM     82  C   UNL A   1      44.676  34.252  32.583  1.00  0.00     0.040 A 
ATOM     83  C   UNL A   1      45.052  34.756  30.260  1.00  0.00     0.040 A 
ATOM     84  F   UNL A   1      44.835  33.074  28.642  1.00  0.00    -0.206 F 
ATOM     85  C   UNL A   1      44.986  35.175  31.586  1.00  0.00     0.006 A 
ENDBRANCH  61  78
ENDBRANCH  35  36
ENDBRANCH  27  30
ENDBRANCH  25  26
ENDBRANCH  24  25
ENDBRANCH   1  24
TORSDOF 14
ENDMDL
MODEL 2
REMARK VINA RESULT:     -11.5      1.515      3.978
REMARK SMILES O=C(C[C@H](c1ccc(C2CC2)cc1)[NH+]1CCOCC1)NCCCNC(=O)c1ccc(-c2c3nc(c(-c4c(F)cccc4F)c4ccc([nH]4)c(-c4c(F)cccc4F)c4nc(c(-c5c(F)cccc5F)c5ccc2[nH]5)C=C4)C=C3)cc1
REMARK SMILES IDX 21 1 20 2 1 3 2 4 3 6 4 7 14 8 15 9 19 10 16 12 18 13 17 14
REMARK SMILES IDX 5 15 6 16 13 17 7 18 12 19 8 20 9 21 10 22 11 23 22 24 23 25
REMARK SMILES IDX 24 26 25 27 26 29 27 30 28 31 80 32 29 33 79 34 30 35 31 36
REMARK SMILES IDX 32 37 73 38 33 39 78 40 72 41 74 42 34 43 77 44 71 45 70 46
REMARK SMILES IDX 35 48 61 49 44 50 60 51 45 52 48 53 59 54 75 55 46 56 47 57
REMARK SMILES IDX 58 59 76 60 49 61 36 62 37 63 42 64 38 65 39 66 41 67 43 68
REMARK SMILES IDX 40 69 62 70 63 71 68 72 64 73 65 74 67 75 69 76 66 77 50 78
REMARK SMILES IDX 51 79 56 80 52 81 53 82 55 83 57 84 54 85
REMARK H PARENT 20 5 14 11 24 28 74 47 48 58
REMARK Flexibility Score: inf
ROOT
ATOM      1  C   UNL A   1      36.891  21.316  24.539  1.00  0.00     0.117 C 
ENDROOT
BRANCH   1   2
ATOM      2  N   UNL A   1      35.707  21.540  25.349  1.00  0.00    -0.356 N 
ATOM      3  O   UNL A   1      36.262  23.693  25.944  1.00  0.00    -0.275 OA
ATOM      4  C   UNL A   1      35.433  22.791  25.873  1.00  0.00     0.226 C 
ATOM      5  H   UNL A   1      35.093  20.793  25.529  1.00  0.00     0.163 HD
BRANCH   4   6
ATOM      6  C   UNL A   1      33.993  22.987  26.302  1.00  0.00     0.170 C 
BRANCH   6   7
ATOM      7  C   UNL A   1      33.109  23.895  25.392  1.00  0.00     0.224 C 
BRANCH   7   8
ATOM      8  N   UNL A   1      31.931  23.159  24.873  1.00  0.00    -0.324 N 
ATOM      9  C   UNL A   1      31.765  21.789  25.395  1.00  0.00     0.291 C 
ATOM     10  C   UNL A   1      31.700  23.156  23.417  1.00  0.00     0.291 C 
ATOM     11  H   UNL A   1      31.205  23.758  25.266  1.00  0.00     0.348 HD
ATOM     12  C   UNL A   1      32.510  20.711  24.597  1.00  0.00     0.221 C 
ATOM     13  C   UNL A   1      32.381  22.002  22.641  1.00  0.00     0.221 C 
ATOM     14  O   UNL A   1      32.096  20.725  23.226  1.00  0.00    -0.370 OA
ENDBRANCH   7   8
BRANCH   7  15
ATOM     15  C   UNL A   1      32.873  25.320  25.879  1.00  0.00     0.010 A 
ATOM     16  C   UNL A   1      33.891  26.283  25.879  1.00  0.00     0.010 A 
ATOM     17  C   UNL A   1      31.603  25.726  26.307  1.00  0.00     0.010 A 
ATOM     18  C   UNL A   1      33.660  27.588  26.313  1.00  0.00     0.004 A 
ATOM     19  C   UNL A   1      31.373  27.045  26.725  1.00  0.00     0.004 A 
ATOM     20  C   UNL A   1      32.396  28.009  26.740  1.00  0.00    -0.045 A 
BRANCH  20  21
ATOM     21  C   UNL A   1      32.218  29.445  27.174  1.00  0.00     0.019 C 
ATOM     22  C   UNL A   1      33.161  30.558  26.806  1.00  0.00     0.009 C 
ATOM     23  C   UNL A   1      31.821  30.472  26.141  1.00  0.00     0.009 C 
ENDBRANCH  20  21
ENDBRANCH   7  15
ENDBRANCH   6   7
ENDBRANCH   4   6
ENDBRANCH   1   2
BRANCH   1  24
ATOM     24  C   UNL A   1      37.720  20.116  24.962  1.00  0.00     0.042 C 
BRANCH  24  25
ATOM     25  C   UNL A   1      38.934  20.423  25.829  1.00  0.00     0.118 C 
BRANCH  25  26
ATOM     26  N   UNL A   1      40.019  19.458  25.729  1.00  0.00    -0.352 N 
ATOM     27  C   UNL A   1      41.354  19.605  26.047  1.00  0.00     0.251 C 
ATOM     28  H   UNL A   1      39.764  18.572  25.386  1.00  0.00     0.163 HD
ATOM     29  O   UNL A   1      42.147  18.703  25.817  1.00  0.00    -0.269 OA
BRANCH  27  30
ATOM     30  C   UNL A   1      41.858  20.873  26.626  1.00  0.00     0.039 A 
ATOM     31  C   UNL A   1      42.255  21.890  25.753  1.00  0.00     0.014 A 
ATOM     32  C   UNL A   1      41.938  21.075  28.005  1.00  0.00     0.014 A 
ATOM     33  C   UNL A   1      42.642  23.132  26.262  1.00  0.00     0.010 A 
ATOM     34  C   UNL A   1      42.222  22.344  28.508  1.00  0.00     0.010 A 
ATOM     35  C   UNL A   1      42.577  23.388  27.642  1.00  0.00    -0.014 A 
BRANCH  35  36
ATOM     36  C   UNL A   1      42.858  24.748  28.171  1.00  0.00     0.031 A 
ATOM     37  C   UNL A   1      44.263  25.173  28.503  1.00  0.00     0.074 A 
ATOM     38  C   UNL A   1      41.833  25.597  28.385  1.00  0.00     0.049 A 
ATOM     39  N   UNL A   1      44.694  26.331  28.938  1.00  0.00    -0.248 NA
ATOM     40  C   UNL A   1      45.319  24.162  28.353  1.00  0.00     0.031 C 
ATOM     41  C   UNL A   1      40.416  25.282  28.177  1.00  0.00     0.029 A 
ATOM     42  N   UNL A   1      41.820  26.900  28.814  1.00  0.00    -0.354 N 
ATOM     43  C   UNL A   1      46.063  26.184  29.116  1.00  0.00     0.074 A 
ATOM     44  C   UNL A   1      46.382  24.808  28.808  1.00  0.00     0.031 C 
ATOM     45  C   UNL A   1      39.680  26.375  28.430  1.00  0.00     0.029 A 
ATOM     46  C   UNL A   1      40.563  27.455  28.852  1.00  0.00     0.049 A 
ATOM     47  H   UNL A   1      42.634  27.390  29.072  1.00  0.00     0.167 HD
ATOM     48  C   UNL A   1      46.979  27.117  29.473  1.00  0.00     0.037 A 
ATOM     49  C   UNL A   1      40.167  28.700  29.181  1.00  0.00     0.037 A 
ATOM     50  C   UNL A   1      46.661  28.491  29.767  1.00  0.00     0.049 A 
ATOM     51  C   UNL A   1      41.204  29.720  29.561  1.00  0.00     0.074 A 
ATOM     52  C   UNL A   1      47.522  29.526  30.087  1.00  0.00     0.029 A 
ATOM     53  N   UNL A   1      45.378  29.019  29.784  1.00  0.00    -0.354 N 
ATOM     54  N   UNL A   1      42.506  29.588  29.642  1.00  0.00    -0.248 NA
ATOM     55  C   UNL A   1      40.715  31.068  29.881  1.00  0.00     0.031 C 
ATOM     56  C   UNL A   1      46.756  30.668  30.347  1.00  0.00     0.029 A 
ATOM     57  C   UNL A   1      45.423  30.361  30.128  1.00  0.00     0.049 A 
ATOM     58  H   UNL A   1      44.557  28.515  29.580  1.00  0.00     0.167 HD
ATOM     59  C   UNL A   1      42.994  30.841  29.992  1.00  0.00     0.074 A 
ATOM     60  C   UNL A   1      41.848  31.723  30.084  1.00  0.00     0.031 C 
ATOM     61  C   UNL A   1      44.275  31.227  30.219  1.00  0.00     0.037 A 
BRANCH  48  62
ATOM     62  C   UNL A   1      48.415  26.681  29.559  1.00  0.00     0.057 A 
ATOM     63  C   UNL A   1      49.302  26.839  28.485  1.00  0.00     0.134 A 
ATOM     64  C   UNL A   1      48.927  26.124  30.739  1.00  0.00     0.134 A 
ATOM     65  F   UNL A   1      48.877  27.352  27.321  1.00  0.00    -0.206 F 
ATOM     66  C   UNL A   1      50.636  26.434  28.571  1.00  0.00     0.040 A 
ATOM     67  C   UNL A   1      50.265  25.744  30.847  1.00  0.00     0.040 A 
ATOM     68  F   UNL A   1      48.136  25.949  31.809  1.00  0.00    -0.206 F 
ATOM     69  C   UNL A   1      51.123  25.891  29.759  1.00  0.00     0.006 A 
ENDBRANCH  48  62
BRANCH  49  70
ATOM     70  C   UNL A   1      38.728  29.064  29.127  1.00  0.00     0.057 A 
ATOM     71  C   UNL A   1      38.140  29.521  27.941  1.00  0.00     0.134 A 
ATOM     72  C   UNL A   1      37.909  28.978  30.258  1.00  0.00     0.134 A 
ATOM     73  F   UNL A   1      38.876  29.643  26.826  1.00  0.00    -0.206 F 
ATOM     74  C   UNL A   1      36.799  29.906  27.888  1.00  0.00     0.040 A 
ATOM     75  C   UNL A   1      36.559  29.330  30.214  1.00  0.00     0.040 A 
ATOM     76  F   UNL A   1      38.407  28.538  31.424  1.00  0.00    -0.206 F 
ATOM     77  C   UNL A   1      36.003  29.806  29.027  1.00  0.00     0.006 A 
ENDBRANCH  49  70
BRANCH  61  78
ATOM     78  C   UNL A   1      44.499  32.676  30.551  1.00  0.00     0.057 A 
ATOM     79  C   UNL A   1      44.704  33.644  29.560  1.00  0.00     0.134 A 
ATOM     80  C   UNL A   1      44.512  33.105  31.885  1.00  0.00     0.134 A 
ATOM     81  F   UNL A   1      44.715  33.300  28.263  1.00  0.00    -0.206 F 
ATOM     82  C   UNL A   1      44.961  34.977  29.884  1.00  0.00     0.040 A 
ATOM     83  C   UNL A   1      44.733  34.442  32.220  1.00  0.00     0.040 A 
ATOM     84  F   UNL A   1      44.309  32.234  32.884  1.00  0.00    -0.206 F 
ATOM     85  C   UNL A   1      44.972  35.380  31.218  1.00  0.00     0.006 A 
ENDBRANCH  61  78
ENDBRANCH  35  36
ENDBRANCH  27  30
ENDBRANCH  25  26
ENDBRANCH  24  25
ENDBRANCH   1  24
TORSDOF 14
ENDMDL
MODEL 3
REMARK VINA RESULT:     -11.4      3.219      7.570
REMARK SMILES O=C(C[C@H](c1ccc(C2CC2)cc1)[NH+]1CCOCC1)NCCCNC(=O)c1ccc(-c2c3nc(c(-c4c(F)cccc4F)c4ccc([nH]4)c(-c4c(F)cccc4F)c4nc(c(-c5c(F)cccc5F)c5ccc2[nH]5)C=C4)C=C3)cc1
REMARK SMILES IDX 21 1 20 2 1 3 2 4 3 6 4 7 14 8 15 9 19 10 16 12 18 13 17 14
REMARK SMILES IDX 5 15 6 16 13 17 7 18 12 19 8 20 9 21 10 22 11 23 22 24 23 25
REMARK SMILES IDX 24 26 25 27 26 29 27 30 28 31 80 32 29 33 79 34 30 35 31 36
REMARK SMILES IDX 32 37 73 38 33 39 78 40 72 41 74 42 34 43 77 44 71 45 70 46
REMARK SMILES IDX 35 48 61 49 44 50 60 51 45 52 48 53 59 54 75 55 46 56 47 57
REMARK SMILES IDX 58 59 76 60 49 61 36 62 37 63 42 64 38 65 39 66 41 67 43 68
REMARK SMILES IDX 40 69 62 70 63 71 68 72 64 73 65 74 67 75 69 76 66 77 50 78
REMARK SMILES IDX 51 79 56 80 52 81 53 82 55 83 57 84 54 85
REMARK H PARENT 20 5 14 11 24 28 74 47 48 58
REMARK Flexibility Score: inf
ROOT
ATOM      1  C   UNL A   1      33.068  29.481  25.413  1.00  0.00     0.117 C 
ENDROOT
BRANCH   1   2
ATOM      2  N   UNL A   1      32.478  28.360  24.702  1.00  0.00    -0.356 N 
ATOM      3  O   UNL A   1      33.603  28.742  22.731  1.00  0.00    -0.275 OA
ATOM      4  C   UNL A   1      32.921  28.008  23.440  1.00  0.00     0.226 C 
ATOM      5  H   UNL A   1      31.753  27.846  25.124  1.00  0.00     0.163 HD
BRANCH   4   6
ATOM      6  C   UNL A   1      32.549  26.601  23.017  1.00  0.00     0.170 C 
BRANCH   6   7
ATOM      7  C   UNL A   1      32.546  25.511  24.133  1.00  0.00     0.224 C 
BRANCH   7   8
ATOM      8  N   UNL A   1      31.235  24.826  24.218  1.00  0.00    -0.324 N 
ATOM      9  C   UNL A   1      30.105  25.679  24.632  1.00  0.00     0.291 C 
ATOM     10  C   UNL A   1      31.167  23.543  24.943  1.00  0.00     0.291 C 
ATOM     11  H   UNL A   1      31.133  24.590  23.231  1.00  0.00     0.348 HD
ATOM     12  C   UNL A   1      29.902  25.774  26.150  1.00  0.00     0.221 C 
ATOM     13  C   UNL A   1      30.865  23.655  26.458  1.00  0.00     0.221 C 
ATOM     14  O   UNL A   1      29.715  24.471  26.714  1.00  0.00    -0.370 OA
ENDBRANCH   7   8
BRANCH   7  15
ATOM     15  C   UNL A   1      33.790  24.635  24.228  1.00  0.00     0.010 A 
ATOM     16  C   UNL A   1      34.187  23.790  23.183  1.00  0.00     0.010 A 
ATOM     17  C   UNL A   1      34.609  24.681  25.364  1.00  0.00     0.010 A 
ATOM     18  C   UNL A   1      35.335  23.005  23.276  1.00  0.00     0.004 A 
ATOM     19  C   UNL A   1      35.773  23.902  25.443  1.00  0.00     0.004 A 
ATOM     20  C   UNL A   1      36.164  23.043  24.402  1.00  0.00    -0.045 A 
BRANCH  20  21
ATOM     21  C   UNL A   1      37.405  22.180  24.419  1.00  0.00     0.019 C 
ATOM     22  C   UNL A   1      38.168  21.828  25.666  1.00  0.00     0.009 C 
ATOM     23  C   UNL A   1      37.315  20.790  25.001  1.00  0.00     0.009 C 
ENDBRANCH  20  21
ENDBRANCH   7  15
ENDBRANCH   6   7
ENDBRANCH   4   6
ENDBRANCH   1   2
BRANCH   1  24
ATOM     24  C   UNL A   1      34.401  29.173  26.070  1.00  0.00     0.042 C 
BRANCH  24  25
ATOM     25  C   UNL A   1      34.361  28.953  27.576  1.00  0.00     0.118 C 
BRANCH  25  26
ATOM     26  N   UNL A   1      34.523  30.157  28.377  1.00  0.00    -0.352 N 
ATOM     27  C   UNL A   1      35.653  30.654  28.993  1.00  0.00     0.251 C 
ATOM     28  H   UNL A   1      33.708  30.695  28.498  1.00  0.00     0.163 HD
ATOM     29  O   UNL A   1      35.584  31.647  29.704  1.00  0.00    -0.269 OA
BRANCH  27  30
ATOM     30  C   UNL A   1      36.959  29.969  28.843  1.00  0.00     0.039 A 
ATOM     31  C   UNL A   1      37.574  29.978  27.588  1.00  0.00     0.014 A 
ATOM     32  C   UNL A   1      37.586  29.330  29.915  1.00  0.00     0.014 A 
ATOM     33  C   UNL A   1      38.848  29.429  27.433  1.00  0.00     0.010 A 
ATOM     34  C   UNL A   1      38.897  28.877  29.786  1.00  0.00     0.010 A 
ATOM     35  C   UNL A   1      39.545  28.921  28.543  1.00  0.00    -0.014 A 
BRANCH  35  36
ATOM     36  C   UNL A   1      40.952  28.462  28.406  1.00  0.00     0.031 A 
ATOM     37  C   UNL A   1      41.267  27.024  28.091  1.00  0.00     0.074 A 
ATOM     38  C   UNL A   1      41.955  29.341  28.597  1.00  0.00     0.049 A 
ATOM     39  N   UNL A   1      42.433  26.458  27.901  1.00  0.00    -0.248 NA
ATOM     40  C   UNL A   1      40.131  26.094  28.006  1.00  0.00     0.031 C 
ATOM     41  C   UNL A   1      41.786  30.746  28.982  1.00  0.00     0.029 A 
ATOM     42  N   UNL A   1      43.314  29.192  28.487  1.00  0.00    -0.354 N 
ATOM     43  C   UNL A   1      42.169  25.113  27.678  1.00  0.00     0.074 A 
ATOM     44  C   UNL A   1      40.742  24.933  27.825  1.00  0.00     0.031 C 
ATOM     45  C   UNL A   1      42.989  31.338  29.025  1.00  0.00     0.029 A 
ATOM     46  C   UNL A   1      44.016  30.353  28.709  1.00  0.00     0.049 A 
ATOM     47  H   UNL A   1      43.745  28.334  28.271  1.00  0.00     0.167 HD
ATOM     48  C   UNL A   1      43.031  24.120  27.350  1.00  0.00     0.037 A 
ATOM     49  C   UNL A   1      45.339  30.598  28.654  1.00  0.00     0.037 A 
ATOM     50  C   UNL A   1      44.452  24.303  27.191  1.00  0.00     0.049 A 
ATOM     51  C   UNL A   1      46.274  29.484  28.275  1.00  0.00     0.074 A 
ATOM     52  C   UNL A   1      45.404  23.374  26.810  1.00  0.00     0.029 A 
ATOM     53  N   UNL A   1      45.125  25.496  27.413  1.00  0.00    -0.354 N 
ATOM     54  N   UNL A   1      46.000  28.235  27.984  1.00  0.00    -0.248 NA
ATOM     55  C   UNL A   1      47.702  29.818  28.203  1.00  0.00     0.031 C 
ATOM     56  C   UNL A   1      46.660  23.992  26.850  1.00  0.00     0.029 A 
ATOM     57  C   UNL A   1      46.482  25.321  27.196  1.00  0.00     0.049 A 
ATOM     58  H   UNL A   1      44.700  26.342  27.685  1.00  0.00     0.167 HD
ATOM     59  C   UNL A   1      47.216  27.643  27.665  1.00  0.00     0.074 A 
ATOM     60  C   UNL A   1      48.224  28.678  27.776  1.00  0.00     0.031 C 
ATOM     61  C   UNL A   1      47.476  26.359  27.313  1.00  0.00     0.037 A 
BRANCH  48  62
ATOM     62  C   UNL A   1      42.459  22.747  27.135  1.00  0.00     0.057 A 
ATOM     63  C   UNL A   1      42.051  21.939  28.205  1.00  0.00     0.134 A 
ATOM     64  C   UNL A   1      42.284  22.236  25.842  1.00  0.00     0.134 A 
ATOM     65  F   UNL A   1      42.201  22.360  29.471  1.00  0.00    -0.206 F 
ATOM     66  C   UNL A   1      41.517  20.666  28.000  1.00  0.00     0.040 A 
ATOM     67  C   UNL A   1      41.724  20.977  25.622  1.00  0.00     0.040 A 
ATOM     68  F   UNL A   1      42.647  22.957  24.769  1.00  0.00    -0.206 F 
ATOM     69  C   UNL A   1      41.346  20.184  26.704  1.00  0.00     0.006 A 
ENDBRANCH  48  62
BRANCH  49  70
ATOM     70  C   UNL A   1      45.857  31.964  28.926  1.00  0.00     0.057 A 
ATOM     71  C   UNL A   1      46.243  32.349  30.216  1.00  0.00     0.134 A 
ATOM     72  C   UNL A   1      45.967  32.920  27.910  1.00  0.00     0.134 A 
ATOM     73  F   UNL A   1      46.144  31.485  31.236  1.00  0.00    -0.206 F 
ATOM     74  C   UNL A   1      46.692  33.642  30.491  1.00  0.00     0.040 A 
ATOM     75  C   UNL A   1      46.443  34.207  28.163  1.00  0.00     0.040 A 
ATOM     76  F   UNL A   1      45.624  32.612  26.649  1.00  0.00    -0.206 F 
ATOM     77  C   UNL A   1      46.798  34.574  29.461  1.00  0.00     0.006 A 
ENDBRANCH  49  70
BRANCH  61  78
ATOM     78  C   UNL A   1      48.904  26.019  26.989  1.00  0.00     0.057 A 
ATOM     79  C   UNL A   1      49.775  25.476  27.941  1.00  0.00     0.134 A 
ATOM     80  C   UNL A   1      49.412  26.244  25.702  1.00  0.00     0.134 A 
ATOM     81  F   UNL A   1      49.356  25.245  29.195  1.00  0.00    -0.206 F 
ATOM     82  C   UNL A   1      51.112  25.211  27.640  1.00  0.00     0.040 A 
ATOM     83  C   UNL A   1      50.739  25.951  25.380  1.00  0.00     0.040 A 
ATOM     84  F   UNL A   1      48.630  26.750  24.738  1.00  0.00    -0.206 F 
ATOM     85  C   UNL A   1      51.596  25.446  26.354  1.00  0.00     0.006 A 
ENDBRANCH  61  78
ENDBRANCH  35  36
ENDBRANCH  27  30
ENDBRANCH  25  26
ENDBRANCH  24  25
ENDBRANCH   1  24
TORSDOF 14
ENDMDL
