MODEL 1
REMARK VINA RESULT:     -11.2      0.000      0.000
REMARK SMILES C[C@@H]1CC[C@@]1(SC1CCCCC1)C(=O)NCCCNC(=O)c1ccc(-c2c3nc(c(-c4c(F)cccc4F)c4ccc([nH]4)c(-c4c(F)cccc4F)c4nc(c(-c5c(F)cccc5F)c5ccc2[nH]5)C=C4)C=C3)cc1
REMARK SMILES IDX 17 1 16 2 15 3 13 4 14 5 5 7 1 8 2 9 3 10 4 11 6 12 7 13
REMARK SMILES IDX 8 14 12 15 9 16 11 17 10 18 18 19 19 20 20 21 21 23 22 24
REMARK SMILES IDX 23 25 75 26 24 27 74 28 25 29 26 30 27 31 68 32 28 33 73 34
REMARK SMILES IDX 67 35 69 36 29 37 72 38 66 39 65 40 30 42 56 43 39 44 55 45
REMARK SMILES IDX 40 46 43 47 54 48 70 49 41 50 42 51 53 53 71 54 44 55 31 56
REMARK SMILES IDX 32 57 37 58 33 59 34 60 36 61 38 62 35 63 57 64 58 65 63 66
REMARK SMILES IDX 59 67 60 68 62 69 64 70 61 71 45 72 46 73 51 74 47 75 48 76
REMARK SMILES IDX 50 77 52 78 49 79
REMARK H PARENT 15 6 19 22 69 41 43 52
REMARK Flexibility Score: inf
ROOT
ATOM      1  C   UNL A   1      31.384  32.294  26.566  1.00  0.00     0.042 C 
ENDROOT
BRANCH   1   2
ATOM      2  C   UNL A   1      31.507  30.841  26.147  1.00  0.00     0.117 C 
BRANCH   2   3
ATOM      3  N   UNL A   1      32.816  30.301  26.442  1.00  0.00    -0.355 N 
ATOM      4  C   UNL A   1      33.346  29.057  26.188  1.00  0.00     0.236 C 
ATOM      5  O   UNL A   1      34.560  28.956  26.423  1.00  0.00    -0.273 OA
ATOM      6  H   UNL A   1      33.427  30.924  26.900  1.00  0.00     0.163 HD
BRANCH   4   7
ATOM      7  C   UNL A   1      32.455  27.859  25.676  1.00  0.00     0.097 C 
ATOM      8  C   UNL A   1      34.063  25.793  24.789  1.00  0.00     0.009 C 
ATOM      9  C   UNL A   1      33.246  26.472  25.874  1.00  0.00     0.012 C 
ATOM     10  C   UNL A   1      31.907  25.798  26.215  1.00  0.00     0.007 C 
ATOM     11  C   UNL A   1      31.347  27.186  26.546  1.00  0.00     0.028 C 
BRANCH   7  12
ATOM     12  S   UNL A   1      31.958  28.044  23.878  1.00  0.00    -0.141 SA
BRANCH  12  13
ATOM     13  C   UNL A   1      30.179  28.469  23.838  1.00  0.00     0.047 C 
ATOM     14  C   UNL A   1      29.884  29.748  23.049  1.00  0.00     0.014 C 
ATOM     15  C   UNL A   1      29.219  27.316  23.523  1.00  0.00     0.014 C 
ATOM     16  C   UNL A   1      28.409  30.137  23.134  1.00  0.00     0.001 C 
ATOM     17  C   UNL A   1      27.750  27.745  23.520  1.00  0.00     0.001 C 
ATOM     18  C   UNL A   1      27.515  28.993  22.676  1.00  0.00     0.000 C 
ENDBRANCH  12  13
ENDBRANCH   7  12
ENDBRANCH   4   7
ENDBRANCH   2   3
ENDBRANCH   1   2
BRANCH   1  19
ATOM     19  C   UNL A   1      32.703  32.885  27.044  1.00  0.00     0.118 C 
BRANCH  19  20
ATOM     20  N   UNL A   1      32.542  34.211  27.629  1.00  0.00    -0.352 N 
ATOM     21  C   UNL A   1      33.169  34.767  28.712  1.00  0.00     0.251 C 
ATOM     22  H   UNL A   1      31.885  34.791  27.179  1.00  0.00     0.163 HD
ATOM     23  O   UNL A   1      32.760  35.833  29.175  1.00  0.00    -0.269 OA
BRANCH  21  24
ATOM     24  C   UNL A   1      34.321  34.086  29.331  1.00  0.00     0.039 A 
ATOM     25  C   UNL A   1      34.087  33.061  30.250  1.00  0.00     0.014 A 
ATOM     26  C   UNL A   1      35.629  34.463  29.013  1.00  0.00     0.014 A 
ATOM     27  C   UNL A   1      35.168  32.379  30.811  1.00  0.00     0.010 A 
ATOM     28  C   UNL A   1      36.699  33.724  29.501  1.00  0.00     0.010 A 
ATOM     29  C   UNL A   1      36.481  32.686  30.418  1.00  0.00    -0.014 A 
BRANCH  29  30
ATOM     30  C   UNL A   1      37.640  31.950  30.976  1.00  0.00     0.031 A 
ATOM     31  C   UNL A   1      38.143  32.271  32.355  1.00  0.00     0.074 A 
ATOM     32  C   UNL A   1      38.274  31.035  30.218  1.00  0.00     0.049 A 
ATOM     33  N   UNL A   1      39.167  31.772  33.000  1.00  0.00    -0.248 NA
ATOM     34  C   UNL A   1      37.418  33.315  33.099  1.00  0.00     0.031 C 
ATOM     35  C   UNL A   1      37.917  30.678  28.843  1.00  0.00     0.029 A 
ATOM     36  N   UNL A   1      39.359  30.243  30.495  1.00  0.00    -0.354 N 
ATOM     37  C   UNL A   1      39.218  32.452  34.210  1.00  0.00     0.074 A 
ATOM     38  C   UNL A   1      38.163  33.439  34.187  1.00  0.00     0.031 C 
ATOM     39  C   UNL A   1      38.749  29.719  28.408  1.00  0.00     0.029 A 
ATOM     40  C   UNL A   1      39.718  29.419  29.457  1.00  0.00     0.049 A 
ATOM     41  H   UNL A   1      39.836  30.264  31.356  1.00  0.00     0.167 HD
ATOM     42  C   UNL A   1      40.053  32.253  35.258  1.00  0.00     0.037 A 
ATOM     43  C   UNL A   1      40.717  28.523  29.362  1.00  0.00     0.037 A 
ATOM     44  C   UNL A   1      41.084  31.250  35.286  1.00  0.00     0.049 A 
ATOM     45  C   UNL A   1      41.624  28.310  30.543  1.00  0.00     0.074 A 
ATOM     46  C   UNL A   1      41.940  30.921  36.322  1.00  0.00     0.029 A 
ATOM     47  N   UNL A   1      41.401  30.416  34.224  1.00  0.00    -0.354 N 
ATOM     48  N   UNL A   1      41.613  28.905  31.711  1.00  0.00    -0.248 NA
ATOM     49  C   UNL A   1      42.675  27.294  30.395  1.00  0.00     0.031 C 
ATOM     50  C   UNL A   1      42.807  29.919  35.871  1.00  0.00     0.029 A 
ATOM     51  C   UNL A   1      42.456  29.587  34.572  1.00  0.00     0.049 A 
ATOM     52  H   UNL A   1      40.945  30.413  33.351  1.00  0.00     0.167 HD
ATOM     53  C   UNL A   1      42.634  28.317  32.447  1.00  0.00     0.074 A 
ATOM     54  C   UNL A   1      43.233  27.310  31.597  1.00  0.00     0.031 C 
ATOM     55  C   UNL A   1      43.038  28.587  33.713  1.00  0.00     0.037 A 
BRANCH  42  56
ATOM     56  C   UNL A   1      39.878  33.139  36.458  1.00  0.00     0.057 A 
ATOM     57  C   UNL A   1      40.608  34.325  36.617  1.00  0.00     0.134 A 
ATOM     58  C   UNL A   1      38.956  32.812  37.460  1.00  0.00     0.134 A 
ATOM     59  F   UNL A   1      41.517  34.692  35.700  1.00  0.00    -0.206 F 
ATOM     60  C   UNL A   1      40.453  35.135  37.743  1.00  0.00     0.040 A 
ATOM     61  C   UNL A   1      38.770  33.629  38.577  1.00  0.00     0.040 A 
ATOM     62  F   UNL A   1      38.220  31.694  37.372  1.00  0.00    -0.206 F 
ATOM     63  C   UNL A   1      39.526  34.790  38.724  1.00  0.00     0.006 A 
ENDBRANCH  42  56
BRANCH  43  64
ATOM     64  C   UNL A   1      40.890  27.735  28.116  1.00  0.00     0.057 A 
ATOM     65  C   UNL A   1      40.275  26.488  27.959  1.00  0.00     0.134 A 
ATOM     66  C   UNL A   1      41.666  28.210  27.053  1.00  0.00     0.134 A 
ATOM     67  F   UNL A   1      39.532  25.973  28.949  1.00  0.00    -0.206 F 
ATOM     68  C   UNL A   1      40.441  25.731  26.797  1.00  0.00     0.040 A 
ATOM     69  C   UNL A   1      41.820  27.476  25.875  1.00  0.00     0.040 A 
ATOM     70  F   UNL A   1      42.273  29.403  27.136  1.00  0.00    -0.206 F 
ATOM     71  C   UNL A   1      41.211  26.229  25.749  1.00  0.00     0.006 A 
ENDBRANCH  43  64
BRANCH  55  72
ATOM     72  C   UNL A   1      44.158  27.754  34.266  1.00  0.00     0.057 A 
ATOM     73  C   UNL A   1      45.493  28.173  34.207  1.00  0.00     0.134 A 
ATOM     74  C   UNL A   1      43.891  26.532  34.896  1.00  0.00     0.134 A 
ATOM     75  F   UNL A   1      45.817  29.329  33.607  1.00  0.00    -0.206 F 
ATOM     76  C   UNL A   1      46.525  27.394  34.731  1.00  0.00     0.040 A 
ATOM     77  C   UNL A   1      44.911  25.758  35.450  1.00  0.00     0.040 A 
ATOM     78  F   UNL A   1      42.633  26.077  34.996  1.00  0.00    -0.206 F 
ATOM     79  C   UNL A   1      46.235  26.186  35.361  1.00  0.00     0.006 A 
ENDBRANCH  55  72
ENDBRANCH  29  30
ENDBRANCH  21  24
ENDBRANCH  19  20
ENDBRANCH   1  19
TORSDOF 12
ENDMDL
MODEL 2
REMARK VINA RESULT:     -11.1      0.943      6.519
REMARK SMILES C[C@@H]1CC[C@@]1(SC1CCCCC1)C(=O)NCCCNC(=O)c1ccc(-c2c3nc(c(-c4c(F)cccc4F)c4ccc([nH]4)c(-c4c(F)cccc4F)c4nc(c(-c5c(F)cccc5F)c5ccc2[nH]5)C=C4)C=C3)cc1
REMARK SMILES IDX 17 1 16 2 15 3 13 4 14 5 5 7 1 8 2 9 3 10 4 11 6 12 7 13
REMARK SMILES IDX 8 14 12 15 9 16 11 17 10 18 18 19 19 20 20 21 21 23 22 24
REMARK SMILES IDX 23 25 75 26 24 27 74 28 25 29 26 30 27 31 68 32 28 33 73 34
REMARK SMILES IDX 67 35 69 36 29 37 72 38 66 39 65 40 30 42 56 43 39 44 55 45
REMARK SMILES IDX 40 46 43 47 54 48 70 49 41 50 42 51 53 53 71 54 44 55 31 56
REMARK SMILES IDX 32 57 37 58 33 59 34 60 36 61 38 62 35 63 57 64 58 65 63 66
REMARK SMILES IDX 59 67 60 68 62 69 64 70 61 71 45 72 46 73 51 74 47 75 48 76
REMARK SMILES IDX 50 77 52 78 49 79
REMARK H PARENT 15 6 19 22 69 41 43 52
REMARK Flexibility Score: inf
ROOT
ATOM      1  C   UNL A   1      31.370  32.315  26.513  1.00  0.00     0.042 C 
ENDROOT
BRANCH   1   2
ATOM      2  C   UNL A   1      31.497  30.833  26.210  1.00  0.00     0.117 C 
BRANCH   2   3
ATOM      3  N   UNL A   1      32.832  30.339  26.471  1.00  0.00    -0.355 N 
ATOM      4  C   UNL A   1      33.392  29.108  26.218  1.00  0.00     0.236 C 
ATOM      5  O   UNL A   1      34.616  29.050  26.416  1.00  0.00    -0.273 OA
ATOM      6  H   UNL A   1      33.436  30.988  26.899  1.00  0.00     0.163 HD
BRANCH   4   7
ATOM      7  C   UNL A   1      32.524  27.875  25.754  1.00  0.00     0.097 C 
ATOM      8  C   UNL A   1      34.172  25.789  24.995  1.00  0.00     0.009 C 
ATOM      9  C   UNL A   1      33.329  26.510  26.032  1.00  0.00     0.012 C 
ATOM     10  C   UNL A   1      31.993  25.836  26.386  1.00  0.00     0.007 C 
ATOM     11  C   UNL A   1      31.411  27.231  26.640  1.00  0.00     0.028 C 
BRANCH   7  12
ATOM     12  S   UNL A   1      32.054  27.965  23.942  1.00  0.00    -0.141 SA
BRANCH  12  13
ATOM     13  C   UNL A   1      30.290  28.442  23.852  1.00  0.00     0.047 C 
ATOM     14  C   UNL A   1      30.056  29.734  23.064  1.00  0.00     0.014 C 
ATOM     15  C   UNL A   1      29.306  27.321  23.501  1.00  0.00     0.014 C 
ATOM     16  C   UNL A   1      28.592  30.167  23.108  1.00  0.00     0.001 C 
ATOM     17  C   UNL A   1      27.851  27.793  23.458  1.00  0.00     0.001 C 
ATOM     18  C   UNL A   1      27.678  29.053  22.616  1.00  0.00     0.000 C 
ENDBRANCH  12  13
ENDBRANCH   7  12
ENDBRANCH   4   7
ENDBRANCH   2   3
ENDBRANCH   1   2
BRANCH   1  19
ATOM     19  C   UNL A   1      32.522  32.847  27.353  1.00  0.00     0.118 C 
BRANCH  19  20
ATOM     20  N   UNL A   1      32.366  34.258  27.684  1.00  0.00    -0.352 N 
ATOM     21  C   UNL A   1      33.025  35.011  28.620  1.00  0.00     0.251 C 
ATOM     22  H   UNL A   1      31.687  34.740  27.158  1.00  0.00     0.163 HD
ATOM     23  O   UNL A   1      32.620  36.143  28.890  1.00  0.00    -0.269 OA
BRANCH  21  24
ATOM     24  C   UNL A   1      34.206  34.464  29.312  1.00  0.00     0.039 A 
ATOM     25  C   UNL A   1      34.037  33.843  30.552  1.00  0.00     0.014 A 
ATOM     26  C   UNL A   1      35.479  34.571  28.745  1.00  0.00     0.014 A 
ATOM     27  C   UNL A   1      35.139  33.283  31.197  1.00  0.00     0.010 A 
ATOM     28  C   UNL A   1      36.559  33.933  29.344  1.00  0.00     0.010 A 
ATOM     29  C   UNL A   1      36.403  33.298  30.585  1.00  0.00    -0.014 A 
BRANCH  29  30
ATOM     30  C   UNL A   1      37.580  32.678  31.239  1.00  0.00     0.031 A 
ATOM     31  C   UNL A   1      38.241  31.479  30.618  1.00  0.00     0.074 A 
ATOM     32  C   UNL A   1      38.016  33.158  32.420  1.00  0.00     0.049 A 
ATOM     33  N   UNL A   1      39.249  30.770  31.058  1.00  0.00    -0.248 NA
ATOM     34  C   UNL A   1      37.675  30.992  29.350  1.00  0.00     0.031 C 
ATOM     35  C   UNL A   1      37.419  34.279  33.149  1.00  0.00     0.029 A 
ATOM     36  N   UNL A   1      39.056  32.758  33.217  1.00  0.00    -0.354 N 
ATOM     37  C   UNL A   1      39.423  29.748  30.134  1.00  0.00     0.074 A 
ATOM     38  C   UNL A   1      38.382  29.892  29.142  1.00  0.00     0.031 C 
ATOM     39  C   UNL A   1      38.123  34.495  34.272  1.00  0.00     0.029 A 
ATOM     40  C   UNL A   1      39.194  33.507  34.359  1.00  0.00     0.049 A 
ATOM     41  H   UNL A   1      39.650  32.005  32.991  1.00  0.00     0.167 HD
ATOM     42  C   UNL A   1      40.383  28.793  30.099  1.00  0.00     0.037 A 
ATOM     43  C   UNL A   1      40.083  33.408  35.364  1.00  0.00     0.037 A 
ATOM     44  C   UNL A   1      41.434  28.671  31.074  1.00  0.00     0.049 A 
ATOM     45  C   UNL A   1      41.146  32.346  35.298  1.00  0.00     0.074 A 
ATOM     46  C   UNL A   1      42.492  27.781  31.096  1.00  0.00     0.029 A 
ATOM     47  N   UNL A   1      41.554  29.465  32.206  1.00  0.00    -0.354 N 
ATOM     48  N   UNL A   1      41.348  31.434  34.378  1.00  0.00    -0.248 NA
ATOM     49  C   UNL A   1      42.111  32.307  36.405  1.00  0.00     0.031 C 
ATOM     50  C   UNL A   1      43.227  28.005  32.265  1.00  0.00     0.029 A 
ATOM     51  C   UNL A   1      42.658  29.070  32.945  1.00  0.00     0.049 A 
ATOM     52  H   UNL A   1      40.946  30.200  32.448  1.00  0.00     0.167 HD
ATOM     53  C   UNL A   1      42.477  30.731  34.779  1.00  0.00     0.074 A 
ATOM     54  C   UNL A   1      42.923  31.333  36.018  1.00  0.00     0.031 C 
ATOM     55  C   UNL A   1      43.089  29.684  34.175  1.00  0.00     0.037 A 
BRANCH  42  56
ATOM     56  C   UNL A   1      40.334  27.807  28.967  1.00  0.00     0.057 A 
ATOM     57  C   UNL A   1      41.062  27.998  27.784  1.00  0.00     0.134 A 
ATOM     58  C   UNL A   1      39.563  26.642  29.066  1.00  0.00     0.134 A 
ATOM     59  F   UNL A   1      41.811  29.099  27.618  1.00  0.00    -0.206 F 
ATOM     60  C   UNL A   1      40.998  27.086  26.730  1.00  0.00     0.040 A 
ATOM     61  C   UNL A   1      39.515  25.707  28.030  1.00  0.00     0.040 A 
ATOM     62  F   UNL A   1      38.844  26.391  30.171  1.00  0.00    -0.206 F 
ATOM     63  C   UNL A   1      40.227  25.933  26.854  1.00  0.00     0.006 A 
ENDBRANCH  42  56
BRANCH  43  64
ATOM     64  C   UNL A   1      40.026  34.361  36.500  1.00  0.00     0.057 A 
ATOM     65  C   UNL A   1      40.643  35.616  36.421  1.00  0.00     0.134 A 
ATOM     66  C   UNL A   1      39.353  34.048  37.686  1.00  0.00     0.134 A 
ATOM     67  F   UNL A   1      41.317  35.967  35.317  1.00  0.00    -0.206 F 
ATOM     68  C   UNL A   1      40.609  36.516  37.487  1.00  0.00     0.040 A 
ATOM     69  C   UNL A   1      39.289  34.948  38.751  1.00  0.00     0.040 A 
ATOM     70  F   UNL A   1      38.732  32.866  37.821  1.00  0.00    -0.206 F 
ATOM     71  C   UNL A   1      39.925  36.184  38.655  1.00  0.00     0.006 A 
ENDBRANCH  43  64
BRANCH  55  72
ATOM     72  C   UNL A   1      44.330  29.146  34.828  1.00  0.00     0.057 A 
ATOM     73  C   UNL A   1      44.280  28.132  35.792  1.00  0.00     0.134 A 
ATOM     74  C   UNL A   1      45.592  29.629  34.462  1.00  0.00     0.134 A 
ATOM     75  F   UNL A   1      43.101  27.634  36.196  1.00  0.00    -0.206 F 
ATOM     76  C   UNL A   1      45.440  27.635  36.388  1.00  0.00     0.040 A 
ATOM     77  C   UNL A   1      46.762  29.120  35.028  1.00  0.00     0.040 A 
ATOM     78  F   UNL A   1      45.712  30.593  33.537  1.00  0.00    -0.206 F 
ATOM     79  C   UNL A   1      46.686  28.124  36.001  1.00  0.00     0.006 A 
ENDBRANCH  55  72
ENDBRANCH  29  30
ENDBRANCH  21  24
ENDBRANCH  19  20
ENDBRANCH   1  19
TORSDOF 12
ENDMDL
MODEL 3
REMARK VINA RESULT:     -11.1      5.765      9.858
REMARK SMILES C[C@@H]1CC[C@@]1(SC1CCCCC1)C(=O)NCCCNC(=O)c1ccc(-c2c3nc(c(-c4c(F)cccc4F)c4ccc([nH]4)c(-c4c(F)cccc4F)c4nc(c(-c5c(F)cccc5F)c5ccc2[nH]5)C=C4)C=C3)cc1
REMARK SMILES IDX 17 1 16 2 15 3 13 4 14 5 5 7 1 8 2 9 3 10 4 11 6 12 7 13
REMARK SMILES IDX 8 14 12 15 9 16 11 17 10 18 18 19 19 20 20 21 21 23 22 24
REMARK SMILES IDX 23 25 75 26 24 27 74 28 25 29 26 30 27 31 68 32 28 33 73 34
REMARK SMILES IDX 67 35 69 36 29 37 72 38 66 39 65 40 30 42 56 43 39 44 55 45
REMARK SMILES IDX 40 46 43 47 54 48 70 49 41 50 42 51 53 53 71 54 44 55 31 56
REMARK SMILES IDX 32 57 37 58 33 59 34 60 36 61 38 62 35 63 57 64 58 65 63 66
REMARK SMILES IDX 59 67 60 68 62 69 64 70 61 71 45 72 46 73 51 74 47 75 48 76
REMARK SMILES IDX 50 77 52 78 49 79
REMARK H PARENT 15 6 19 22 69 41 43 52
REMARK Flexibility Score: inf
ROOT
ATOM      1  C   UNL A   1      37.524  19.728  24.997  1.00  0.00     0.042 C 
ENDROOT
BRANCH   1   2
ATOM      2  C   UNL A   1      36.456  20.799  24.871  1.00  0.00     0.117 C 
BRANCH   2   3
ATOM      3  N   UNL A   1      35.816  21.078  26.138  1.00  0.00    -0.355 N 
ATOM      4  C   UNL A   1      34.536  21.500  26.416  1.00  0.00     0.236 C 
ATOM      5  O   UNL A   1      34.243  21.494  27.622  1.00  0.00    -0.273 OA
ATOM      6  H   UNL A   1      36.388  20.946  26.928  1.00  0.00     0.163 HD
BRANCH   4   7
ATOM      7  C   UNL A   1      33.551  21.985  25.282  1.00  0.00     0.097 C 
ATOM      8  C   UNL A   1      31.503  23.481  26.383  1.00  0.00     0.009 C 
ATOM      9  C   UNL A   1      32.864  23.373  25.718  1.00  0.00     0.012 C 
ATOM     10  C   UNL A   1      32.923  23.823  24.249  1.00  0.00     0.007 C 
ATOM     11  C   UNL A   1      34.023  22.779  24.023  1.00  0.00     0.028 C 
BRANCH   7  12
ATOM     12  S   UNL A   1      32.220  20.724  24.894  1.00  0.00    -0.141 SA
BRANCH  12  13
ATOM     13  C   UNL A   1      33.047  19.115  24.622  1.00  0.00     0.047 C 
ATOM     14  C   UNL A   1      32.794  18.112  25.751  1.00  0.00     0.014 C 
ATOM     15  C   UNL A   1      32.902  18.513  23.220  1.00  0.00     0.014 C 
ATOM     16  C   UNL A   1      33.592  16.824  25.552  1.00  0.00     0.001 C 
ATOM     17  C   UNL A   1      33.630  17.175  23.066  1.00  0.00     0.001 C 
ATOM     18  C   UNL A   1      33.297  16.203  24.193  1.00  0.00     0.000 C 
ENDBRANCH  12  13
ENDBRANCH   7  12
ENDBRANCH   4   7
ENDBRANCH   2   3
ENDBRANCH   1   2
BRANCH   1  19
ATOM     19  C   UNL A   1      38.775  20.223  25.709  1.00  0.00     0.118 C 
BRANCH  19  20
ATOM     20  N   UNL A   1      39.809  19.199  25.798  1.00  0.00    -0.352 N 
ATOM     21  C   UNL A   1      41.156  19.337  26.000  1.00  0.00     0.251 C 
ATOM     22  H   UNL A   1      39.492  18.272  25.697  1.00  0.00     0.163 HD
ATOM     23  O   UNL A   1      41.901  18.368  25.850  1.00  0.00    -0.269 OA
BRANCH  21  24
ATOM     24  C   UNL A   1      41.717  20.647  26.381  1.00  0.00     0.039 A 
ATOM     25  C   UNL A   1      42.070  21.551  25.376  1.00  0.00     0.014 A 
ATOM     26  C   UNL A   1      41.903  20.980  27.726  1.00  0.00     0.014 A 
ATOM     27  C   UNL A   1      42.562  22.809  25.724  1.00  0.00     0.010 A 
ATOM     28  C   UNL A   1      42.304  22.264  28.071  1.00  0.00     0.010 A 
ATOM     29  C   UNL A   1      42.655  23.186  27.074  1.00  0.00    -0.014 A 
BRANCH  29  30
ATOM     30  C   UNL A   1      43.141  24.531  27.463  1.00  0.00     0.031 A 
ATOM     31  C   UNL A   1      42.164  25.590  27.893  1.00  0.00     0.074 A 
ATOM     32  C   UNL A   1      44.455  24.816  27.373  1.00  0.00     0.049 A 
ATOM     33  N   UNL A   1      42.388  26.835  28.227  1.00  0.00    -0.248 NA
ATOM     34  C   UNL A   1      40.743  25.208  27.922  1.00  0.00     0.031 C 
ATOM     35  C   UNL A   1      45.492  23.890  26.912  1.00  0.00     0.029 A 
ATOM     36  N   UNL A   1      45.140  25.969  27.657  1.00  0.00    -0.354 N 
ATOM     37  C   UNL A   1      41.139  27.386  28.486  1.00  0.00     0.074 A 
ATOM     38  C   UNL A   1      40.159  26.360  28.213  1.00  0.00     0.031 C 
ATOM     39  C   UNL A   1      46.685  24.503  26.973  1.00  0.00     0.029 A 
ATOM     40  C   UNL A   1      46.492  25.872  27.441  1.00  0.00     0.049 A 
ATOM     41  H   UNL A   1      44.703  26.789  27.984  1.00  0.00     0.167 HD
ATOM     42  C   UNL A   1      40.839  28.627  28.937  1.00  0.00     0.037 A 
ATOM     43  C   UNL A   1      47.467  26.786  27.602  1.00  0.00     0.037 A 
ATOM     44  C   UNL A   1      41.821  29.636  29.233  1.00  0.00     0.049 A 
ATOM     45  C   UNL A   1      47.111  28.153  28.115  1.00  0.00     0.074 A 
ATOM     46  C   UNL A   1      41.628  30.901  29.758  1.00  0.00     0.029 A 
ATOM     47  N   UNL A   1      43.186  29.492  29.026  1.00  0.00    -0.354 N 
ATOM     48  N   UNL A   1      45.934  28.637  28.431  1.00  0.00    -0.248 NA
ATOM     49  C   UNL A   1      48.220  29.098  28.304  1.00  0.00     0.031 C 
ATOM     50  C   UNL A   1      42.871  31.541  29.823  1.00  0.00     0.029 A 
ATOM     51  C   UNL A   1      43.844  30.655  29.390  1.00  0.00     0.049 A 
ATOM     52  H   UNL A   1      43.621  28.683  28.671  1.00  0.00     0.167 HD
ATOM     53  C   UNL A   1      46.163  29.931  28.882  1.00  0.00     0.074 A 
ATOM     54  C   UNL A   1      47.593  30.149  28.812  1.00  0.00     0.031 C 
ATOM     55  C   UNL A   1      45.270  30.854  29.317  1.00  0.00     0.037 A 
BRANCH  42  56
ATOM     56  C   UNL A   1      39.387  28.956  29.137  1.00  0.00     0.057 A 
ATOM     57  C   UNL A   1      38.591  29.465  28.102  1.00  0.00     0.134 A 
ATOM     58  C   UNL A   1      38.771  28.746  30.377  1.00  0.00     0.134 A 
ATOM     59  F   UNL A   1      39.122  29.703  26.892  1.00  0.00    -0.206 F 
ATOM     60  C   UNL A   1      37.248  29.785  28.300  1.00  0.00     0.040 A 
ATOM     61  C   UNL A   1      37.419  29.033  30.580  1.00  0.00     0.040 A 
ATOM     62  F   UNL A   1      39.470  28.256  31.413  1.00  0.00    -0.206 F 
ATOM     63  C   UNL A   1      36.656  29.563  29.542  1.00  0.00     0.006 A 
ENDBRANCH  42  56
BRANCH  43  64
ATOM     64  C   UNL A   1      48.876  26.425  27.306  1.00  0.00     0.057 A 
ATOM     65  C   UNL A   1      49.411  26.594  26.023  1.00  0.00     0.134 A 
ATOM     66  C   UNL A   1      49.722  25.908  28.293  1.00  0.00     0.134 A 
ATOM     67  F   UNL A   1      48.645  27.069  25.031  1.00  0.00    -0.206 F 
ATOM     68  C   UNL A   1      50.730  26.245  25.728  1.00  0.00     0.040 A 
ATOM     69  C   UNL A   1      51.051  25.579  28.020  1.00  0.00     0.040 A 
ATOM     70  F   UNL A   1      49.274  25.732  29.545  1.00  0.00    -0.206 F 
ATOM     71  C   UNL A   1      51.555  25.741  26.731  1.00  0.00     0.006 A 
ENDBRANCH  43  64
BRANCH  55  72
ATOM     72  C   UNL A   1      45.818  32.170  29.785  1.00  0.00     0.057 A 
ATOM     73  C   UNL A   1      46.213  32.380  31.112  1.00  0.00     0.134 A 
ATOM     74  C   UNL A   1      45.984  33.231  28.885  1.00  0.00     0.134 A 
ATOM     75  F   UNL A   1      46.070  31.408  32.026  1.00  0.00    -0.206 F 
ATOM     76  C   UNL A   1      46.728  33.606  31.534  1.00  0.00     0.040 A 
ATOM     77  C   UNL A   1      46.525  34.453  29.289  1.00  0.00     0.040 A 
ATOM     78  F   UNL A   1      45.635  33.095  27.598  1.00  0.00    -0.206 F 
ATOM     79  C   UNL A   1      46.892  34.645  30.620  1.00  0.00     0.006 A 
ENDBRANCH  55  72
ENDBRANCH  29  30
ENDBRANCH  21  24
ENDBRANCH  19  20
ENDBRANCH   1  19
TORSDOF 12
ENDMDL
