MODEL 1
REMARK VINA RESULT:     -11.5      0.000      0.000
REMARK SMILES C[C@]([NH3+])(C(=O)NCCCNC(=O)c1ccc(-c2c3nc(c(-c4c(F)cccc4F)c4ccc([nH]4)c(-c4c(F)cccc4F)c4nc(c(-c5c(F)cccc5F)c5ccc2[nH]5)C=C4)C=C3)cc1)c1ccc(F)c(Br)c1
REMARK SMILES IDX 8 1 7 2 6 3 4 4 5 5 2 7 1 8 67 9 68 10 74 11 69 12 72 13
REMARK SMILES IDX 70 14 73 15 71 16 3 17 9 21 10 22 11 23 12 25 13 26 14 27
REMARK SMILES IDX 66 28 15 29 65 30 16 31 17 32 18 33 59 34 19 35 64 36 58 37
REMARK SMILES IDX 60 38 20 39 63 40 57 41 56 42 21 44 47 45 30 46 46 47 31 48
REMARK SMILES IDX 34 49 45 50 61 51 32 52 33 53 44 55 62 56 35 57 22 58 23 59
REMARK SMILES IDX 28 60 24 61 25 62 27 63 29 64 26 65 48 66 49 67 54 68 50 69
REMARK SMILES IDX 51 70 53 71 55 72 52 73 36 74 37 75 42 76 38 77 39 78 41 79
REMARK SMILES IDX 43 80 40 81
REMARK H PARENT 6 6 3 18 3 19 3 20 10 24 60 43 34 54
REMARK Flexibility Score: inf
ROOT
ATOM      1  C   UNL A   1      31.965  30.022  25.311  1.00  0.00     0.042 C 
ENDROOT
BRANCH   1   2
ATOM      2  C   UNL A   1      33.002  28.918  25.137  1.00  0.00     0.118 C 
BRANCH   2   3
ATOM      3  N   UNL A   1      33.638  28.950  23.834  1.00  0.00    -0.350 N 
ATOM      4  C   UNL A   1      33.518  28.175  22.716  1.00  0.00     0.285 C 
ATOM      5  O   UNL A   1      34.245  28.511  21.772  1.00  0.00    -0.267 OA
ATOM      6  H   UNL A   1      34.291  29.680  23.736  1.00  0.00     0.163 HD
BRANCH   4   7
ATOM      7  C   UNL A   1      32.565  26.915  22.638  1.00  0.00     0.196 C 
ATOM      8  C   UNL A   1      32.914  25.875  23.725  1.00  0.00     0.096 C 
BRANCH   7   9
ATOM      9  C   UNL A   1      31.089  27.366  22.824  1.00  0.00     0.023 A 
ATOM     10  C   UNL A   1      30.183  26.585  23.573  1.00  0.00     0.014 A 
ATOM     11  C   UNL A   1      30.608  28.577  22.282  1.00  0.00     0.029 A 
ATOM     12  C   UNL A   1      28.845  26.961  23.722  1.00  0.00     0.041 A 
ATOM     13  C   UNL A   1      29.270  28.957  22.442  1.00  0.00     0.054 A 
ATOM     14  C   UNL A   1      28.395  28.143  23.149  1.00  0.00     0.137 A 
ATOM     15  Br  UNL A   1      28.669  30.583  21.684  1.00  0.00    -0.048 Br
ATOM     16  F   UNL A   1      27.105  28.479  23.297  1.00  0.00    -0.206 F 
ENDBRANCH   7   9
BRANCH   7  17
ATOM     17  N   UNL A   1      32.742  26.267  21.312  1.00  0.00    -0.341 N 
ATOM     18  H   UNL A   1      32.244  25.377  21.299  1.00  0.00     0.345 HD
ATOM     19  H   UNL A   1      33.735  26.102  21.144  1.00  0.00     0.345 HD
ATOM     20  H   UNL A   1      32.370  26.875  20.583  1.00  0.00     0.345 HD
ENDBRANCH   7  17
ENDBRANCH   4   7
ENDBRANCH   2   3
ENDBRANCH   1   2
BRANCH   1  21
ATOM     21  C   UNL A   1      31.822  30.536  26.741  1.00  0.00     0.118 C 
BRANCH  21  22
ATOM     22  N   UNL A   1      31.900  31.987  26.829  1.00  0.00    -0.352 N 
ATOM     23  C   UNL A   1      32.799  32.803  27.467  1.00  0.00     0.251 C 
ATOM     24  H   UNL A   1      31.185  32.465  26.349  1.00  0.00     0.163 HD
ATOM     25  O   UNL A   1      32.558  34.007  27.547  1.00  0.00    -0.269 OA
BRANCH  23  26
ATOM     26  C   UNL A   1      34.039  32.266  28.072  1.00  0.00     0.039 A 
ATOM     27  C   UNL A   1      35.074  33.159  28.371  1.00  0.00     0.014 A 
ATOM     28  C   UNL A   1      34.219  30.899  28.299  1.00  0.00     0.014 A 
ATOM     29  C   UNL A   1      36.257  32.690  28.946  1.00  0.00     0.010 A 
ATOM     30  C   UNL A   1      35.369  30.442  28.941  1.00  0.00     0.010 A 
ATOM     31  C   UNL A   1      36.402  31.331  29.267  1.00  0.00    -0.014 A 
BRANCH  31  32
ATOM     32  C   UNL A   1      37.628  30.839  29.945  1.00  0.00     0.031 A 
ATOM     33  C   UNL A   1      37.907  31.193  31.380  1.00  0.00     0.074 A 
ATOM     34  C   UNL A   1      38.516  30.103  29.249  1.00  0.00     0.049 A 
ATOM     35  N   UNL A   1      38.927  30.858  32.129  1.00  0.00    -0.248 NA
ATOM     36  C   UNL A   1      36.927  32.057  32.054  1.00  0.00     0.031 C 
ATOM     37  C   UNL A   1      38.395  29.744  27.835  1.00  0.00     0.029 A 
ATOM     38  N   UNL A   1      39.698  29.524  29.638  1.00  0.00    -0.354 N 
ATOM     39  C   UNL A   1      38.720  31.481  33.353  1.00  0.00     0.074 A 
ATOM     40  C   UNL A   1      37.502  32.253  33.232  1.00  0.00     0.031 C 
ATOM     41  C   UNL A   1      39.441  28.981  27.483  1.00  0.00     0.029 A 
ATOM     42  C   UNL A   1      40.318  28.816  28.639  1.00  0.00     0.049 A 
ATOM     43  H   UNL A   1      40.066  29.610  30.547  1.00  0.00     0.167 HD
ATOM     44  C   UNL A   1      39.464  31.401  34.483  1.00  0.00     0.037 A 
ATOM     45  C   UNL A   1      41.460  28.103  28.654  1.00  0.00     0.037 A 
ATOM     46  C   UNL A   1      40.659  30.609  34.615  1.00  0.00     0.049 A 
ATOM     47  C   UNL A   1      42.240  27.991  29.931  1.00  0.00     0.074 A 
ATOM     48  C   UNL A   1      41.450  30.418  35.735  1.00  0.00     0.029 A 
ATOM     49  N   UNL A   1      41.233  29.873  33.589  1.00  0.00    -0.354 N 
ATOM     50  N   UNL A   1      41.994  28.530  31.100  1.00  0.00    -0.248 NA
ATOM     51  C   UNL A   1      43.450  27.158  29.895  1.00  0.00     0.031 C 
ATOM     52  C   UNL A   1      42.518  29.586  35.380  1.00  0.00     0.029 A 
ATOM     53  C   UNL A   1      42.372  29.232  34.049  1.00  0.00     0.049 A 
ATOM     54  H   UNL A   1      40.883  29.814  32.671  1.00  0.00     0.167 HD
ATOM     55  C   UNL A   1      43.003  28.084  31.944  1.00  0.00     0.074 A 
ATOM     56  C   UNL A   1      43.854  27.217  31.156  1.00  0.00     0.031 C 
ATOM     57  C   UNL A   1      43.206  28.369  33.253  1.00  0.00     0.037 A 
BRANCH  44  58
ATOM     58  C   UNL A   1      38.995  32.185  35.674  1.00  0.00     0.057 A 
ATOM     59  C   UNL A   1      38.204  31.603  36.673  1.00  0.00     0.134 A 
ATOM     60  C   UNL A   1      39.359  33.527  35.837  1.00  0.00     0.134 A 
ATOM     61  F   UNL A   1      37.809  30.325  36.570  1.00  0.00    -0.206 F 
ATOM     62  C   UNL A   1      37.773  32.335  37.781  1.00  0.00     0.040 A 
ATOM     63  C   UNL A   1      38.954  34.262  36.953  1.00  0.00     0.040 A 
ATOM     64  F   UNL A   1      40.119  34.144  34.919  1.00  0.00    -0.206 F 
ATOM     65  C   UNL A   1      38.153  33.668  37.926  1.00  0.00     0.006 A 
ENDBRANCH  44  58
BRANCH  45  66
ATOM     66  C   UNL A   1      41.906  27.395  27.429  1.00  0.00     0.057 A 
ATOM     67  C   UNL A   1      42.655  28.057  26.450  1.00  0.00     0.134 A 
ATOM     68  C   UNL A   1      41.597  26.048  27.208  1.00  0.00     0.134 A 
ATOM     69  F   UNL A   1      42.967  29.353  26.601  1.00  0.00    -0.206 F 
ATOM     70  C   UNL A   1      43.069  27.410  25.286  1.00  0.00     0.040 A 
ATOM     71  C   UNL A   1      42.022  25.383  26.058  1.00  0.00     0.040 A 
ATOM     72  F   UNL A   1      40.890  25.359  28.115  1.00  0.00    -0.206 F 
ATOM     73  C   UNL A   1      42.755  26.067  25.088  1.00  0.00     0.006 A 
ENDBRANCH  45  66
BRANCH  57  74
ATOM     74  C   UNL A   1      44.378  27.709  33.916  1.00  0.00     0.057 A 
ATOM     75  C   UNL A   1      45.640  28.318  33.959  1.00  0.00     0.134 A 
ATOM     76  C   UNL A   1      44.240  26.457  34.527  1.00  0.00     0.134 A 
ATOM     77  F   UNL A   1      45.839  29.511  33.380  1.00  0.00    -0.206 F 
ATOM     78  C   UNL A   1      46.729  27.689  34.563  1.00  0.00     0.040 A 
ATOM     79  C   UNL A   1      45.317  25.830  35.153  1.00  0.00     0.040 A 
ATOM     80  F   UNL A   1      43.056  25.826  34.526  1.00  0.00    -0.206 F 
ATOM     81  C   UNL A   1      46.569  26.443  35.166  1.00  0.00     0.006 A 
ENDBRANCH  57  74
ENDBRANCH  31  32
ENDBRANCH  23  26
ENDBRANCH  21  22
ENDBRANCH   1  21
TORSDOF 12
ENDMDL
MODEL 2
REMARK VINA RESULT:     -11.4      4.342      7.032
REMARK SMILES C[C@]([NH3+])(C(=O)NCCCNC(=O)c1ccc(-c2c3nc(c(-c4c(F)cccc4F)c4ccc([nH]4)c(-c4c(F)cccc4F)c4nc(c(-c5c(F)cccc5F)c5ccc2[nH]5)C=C4)C=C3)cc1)c1ccc(F)c(Br)c1
REMARK SMILES IDX 8 1 7 2 6 3 4 4 5 5 2 7 1 8 67 9 68 10 74 11 69 12 72 13
REMARK SMILES IDX 70 14 73 15 71 16 3 17 9 21 10 22 11 23 12 25 13 26 14 27
REMARK SMILES IDX 66 28 15 29 65 30 16 31 17 32 18 33 59 34 19 35 64 36 58 37
REMARK SMILES IDX 60 38 20 39 63 40 57 41 56 42 21 44 47 45 30 46 46 47 31 48
REMARK SMILES IDX 34 49 45 50 61 51 32 52 33 53 44 55 62 56 35 57 22 58 23 59
REMARK SMILES IDX 28 60 24 61 25 62 27 63 29 64 26 65 48 66 49 67 54 68 50 69
REMARK SMILES IDX 51 70 53 71 55 72 52 73 36 74 37 75 42 76 38 77 39 78 41 79
REMARK SMILES IDX 43 80 40 81
REMARK H PARENT 6 6 3 18 3 19 3 20 10 24 60 43 34 54
REMARK Flexibility Score: inf
ROOT
ATOM      1  C   UNL A   1      34.256  34.764  29.013  1.00  0.00     0.042 C 
ENDROOT
BRANCH   1   2
ATOM      2  C   UNL A   1      34.087  34.285  30.450  1.00  0.00     0.118 C 
BRANCH   2   3
ATOM      3  N   UNL A   1      34.151  35.369  31.412  1.00  0.00    -0.350 N 
ATOM      4  C   UNL A   1      34.689  35.478  32.662  1.00  0.00     0.285 C 
ATOM      5  O   UNL A   1      34.542  36.585  33.195  1.00  0.00    -0.267 OA
ATOM      6  H   UNL A   1      33.719  36.196  31.098  1.00  0.00     0.163 HD
BRANCH   4   7
ATOM      7  C   UNL A   1      35.401  34.276  33.403  1.00  0.00     0.196 C 
ATOM      8  C   UNL A   1      34.897  32.912  32.881  1.00  0.00     0.096 C 
BRANCH   7   9
ATOM      9  C   UNL A   1      36.938  34.365  33.182  1.00  0.00     0.023 A 
ATOM     10  C   UNL A   1      37.823  34.433  34.280  1.00  0.00     0.014 A 
ATOM     11  C   UNL A   1      37.506  34.351  31.891  1.00  0.00     0.029 A 
ATOM     12  C   UNL A   1      39.204  34.546  34.096  1.00  0.00     0.041 A 
ATOM     13  C   UNL A   1      38.890  34.454  31.710  1.00  0.00     0.054 A 
ATOM     14  C   UNL A   1      39.729  34.563  32.811  1.00  0.00     0.137 A 
ATOM     15  Br  UNL A   1      39.601  34.446  29.957  1.00  0.00    -0.048 Br
ATOM     16  F   UNL A   1      41.056  34.682  32.659  1.00  0.00    -0.206 F 
ENDBRANCH   7   9
BRANCH   7  17
ATOM     17  N   UNL A   1      35.084  34.355  34.853  1.00  0.00    -0.341 N 
ATOM     18  H   UNL A   1      34.107  34.621  34.974  1.00  0.00     0.345 HD
ATOM     19  H   UNL A   1      35.683  35.054  35.294  1.00  0.00     0.345 HD
ATOM     20  H   UNL A   1      35.245  33.447  35.287  1.00  0.00     0.345 HD
ENDBRANCH   7  17
ENDBRANCH   4   7
ENDBRANCH   2   3
ENDBRANCH   1   2
BRANCH   1  21
ATOM     21  C   UNL A   1      34.921  33.753  28.083  1.00  0.00     0.118 C 
BRANCH  21  22
ATOM     22  N   UNL A   1      34.101  32.573  27.851  1.00  0.00    -0.352 N 
ATOM     23  C   UNL A   1      34.409  31.239  27.908  1.00  0.00     0.251 C 
ATOM     24  H   UNL A   1      33.164  32.766  27.613  1.00  0.00     0.163 HD
ATOM     25  O   UNL A   1      33.587  30.420  27.498  1.00  0.00    -0.269 OA
BRANCH  23  26
ATOM     26  C   UNL A   1      35.709  30.765  28.434  1.00  0.00     0.039 A 
ATOM     27  C   UNL A   1      35.707  29.754  29.402  1.00  0.00     0.014 A 
ATOM     28  C   UNL A   1      36.921  31.333  28.032  1.00  0.00     0.014 A 
ATOM     29  C   UNL A   1      36.914  29.279  29.919  1.00  0.00     0.010 A 
ATOM     30  C   UNL A   1      38.127  30.808  28.492  1.00  0.00     0.010 A 
ATOM     31  C   UNL A   1      38.136  29.779  29.444  1.00  0.00    -0.014 A 
BRANCH  31  32
ATOM     32  C   UNL A   1      39.424  29.226  29.936  1.00  0.00     0.031 A 
ATOM     33  C   UNL A   1      40.076  29.780  31.173  1.00  0.00     0.074 A 
ATOM     34  C   UNL A   1      40.031  28.247  29.237  1.00  0.00     0.049 A 
ATOM     35  N   UNL A   1      41.201  29.426  31.742  1.00  0.00    -0.248 NA
ATOM     36  C   UNL A   1      39.390  30.895  31.843  1.00  0.00     0.031 C 
ATOM     37  C   UNL A   1      39.535  27.667  27.988  1.00  0.00     0.029 A 
ATOM     38  N   UNL A   1      41.197  27.566  29.480  1.00  0.00    -0.354 N 
ATOM     39  C   UNL A   1      41.364  30.280  32.824  1.00  0.00     0.074 A 
ATOM     40  C   UNL A   1      40.248  31.202  32.806  1.00  0.00     0.031 C 
ATOM     41  C   UNL A   1      40.374  26.697  27.590  1.00  0.00     0.029 A 
ATOM     42  C   UNL A   1      41.476  26.602  28.542  1.00  0.00     0.049 A 
ATOM     43  H   UNL A   1      41.779  27.752  30.252  1.00  0.00     0.167 HD
ATOM     44  C   UNL A   1      42.342  30.285  33.763  1.00  0.00     0.037 A 
ATOM     45  C   UNL A   1      42.499  25.731  28.464  1.00  0.00     0.037 A 
ATOM     46  C   UNL A   1      43.435  29.349  33.801  1.00  0.00     0.049 A 
ATOM     47  C   UNL A   1      43.544  25.725  29.542  1.00  0.00     0.074 A 
ATOM     48  C   UNL A   1      44.444  29.237  34.743  1.00  0.00     0.029 A 
ATOM     49  N   UNL A   1      43.660  28.361  32.854  1.00  0.00    -0.354 N 
ATOM     50  N   UNL A   1      43.647  26.495  30.597  1.00  0.00    -0.248 NA
ATOM     51  C   UNL A   1      44.607  24.717  29.426  1.00  0.00     0.031 C 
ATOM     52  C   UNL A   1      45.294  28.196  34.352  1.00  0.00     0.029 A 
ATOM     53  C   UNL A   1      44.795  27.639  33.186  1.00  0.00     0.049 A 
ATOM     54  H   UNL A   1      43.097  28.197  32.064  1.00  0.00     0.167 HD
ATOM     55  C   UNL A   1      44.770  26.051  31.282  1.00  0.00     0.074 A 
ATOM     56  C   UNL A   1      45.304  24.934  30.532  1.00  0.00     0.031 C 
ATOM     57  C   UNL A   1      45.311  26.527  32.430  1.00  0.00     0.037 A 
BRANCH  44  58
ATOM     58  C   UNL A   1      42.263  31.332  34.835  1.00  0.00     0.057 A 
ATOM     59  C   UNL A   1      42.820  32.606  34.662  1.00  0.00     0.134 A 
ATOM     60  C   UNL A   1      41.601  31.075  36.042  1.00  0.00     0.134 A 
ATOM     61  F   UNL A   1      43.480  32.912  33.534  1.00  0.00    -0.206 F 
ATOM     62  C   UNL A   1      42.741  33.579  35.660  1.00  0.00     0.040 A 
ATOM     63  C   UNL A   1      41.494  32.048  37.037  1.00  0.00     0.040 A 
ATOM     64  F   UNL A   1      41.041  29.877  36.270  1.00  0.00    -0.206 F 
ATOM     65  C   UNL A   1      42.071  33.302  36.850  1.00  0.00     0.006 A 
ENDBRANCH  44  58
BRANCH  45  66
ATOM     66  C   UNL A   1      42.556  24.756  27.348  1.00  0.00     0.057 A 
ATOM     67  C   UNL A   1      41.902  23.523  27.437  1.00  0.00     0.134 A 
ATOM     68  C   UNL A   1      43.260  25.032  26.170  1.00  0.00     0.134 A 
ATOM     69  F   UNL A   1      41.224  23.198  28.549  1.00  0.00    -0.206 F 
ATOM     70  C   UNL A   1      41.958  22.589  26.403  1.00  0.00     0.040 A 
ATOM     71  C   UNL A   1      43.308  24.116  25.119  1.00  0.00     0.040 A 
ATOM     72  F   UNL A   1      43.898  26.201  26.022  1.00  0.00    -0.206 F 
ATOM     73  C   UNL A   1      42.661  22.886  25.237  1.00  0.00     0.006 A 
ENDBRANCH  45  66
BRANCH  57  74
ATOM     74  C   UNL A   1      46.524  25.818  32.953  1.00  0.00     0.057 A 
ATOM     75  C   UNL A   1      47.819  26.190  32.568  1.00  0.00     0.134 A 
ATOM     76  C   UNL A   1      46.396  24.759  33.860  1.00  0.00     0.134 A 
ATOM     77  F   UNL A   1      48.007  27.188  31.692  1.00  0.00    -0.206 F 
ATOM     78  C   UNL A   1      48.942  25.514  33.046  1.00  0.00     0.040 A 
ATOM     79  C   UNL A   1      47.512  24.090  34.361  1.00  0.00     0.040 A 
ATOM     80  F   UNL A   1      45.183  24.359  34.272  1.00  0.00    -0.206 F 
ATOM     81  C   UNL A   1      48.791  24.463  33.949  1.00  0.00     0.006 A 
ENDBRANCH  57  74
ENDBRANCH  31  32
ENDBRANCH  23  26
ENDBRANCH  21  22
ENDBRANCH   1  21
TORSDOF 12
ENDMDL
MODEL 3
REMARK VINA RESULT:     -11.3      6.167     11.146
REMARK SMILES C[C@]([NH3+])(C(=O)NCCCNC(=O)c1ccc(-c2c3nc(c(-c4c(F)cccc4F)c4ccc([nH]4)c(-c4c(F)cccc4F)c4nc(c(-c5c(F)cccc5F)c5ccc2[nH]5)C=C4)C=C3)cc1)c1ccc(F)c(Br)c1
REMARK SMILES IDX 8 1 7 2 6 3 4 4 5 5 2 7 1 8 67 9 68 10 74 11 69 12 72 13
REMARK SMILES IDX 70 14 73 15 71 16 3 17 9 21 10 22 11 23 12 25 13 26 14 27
REMARK SMILES IDX 66 28 15 29 65 30 16 31 17 32 18 33 59 34 19 35 64 36 58 37
REMARK SMILES IDX 60 38 20 39 63 40 57 41 56 42 21 44 47 45 30 46 46 47 31 48
REMARK SMILES IDX 34 49 45 50 61 51 32 52 33 53 44 55 62 56 35 57 22 58 23 59
REMARK SMILES IDX 28 60 24 61 25 62 27 63 29 64 26 65 48 66 49 67 54 68 50 69
REMARK SMILES IDX 51 70 53 71 55 72 52 73 36 74 37 75 42 76 38 77 39 78 41 79
REMARK SMILES IDX 43 80 40 81
REMARK H PARENT 6 6 3 18 3 19 3 20 10 24 60 43 34 54
REMARK Flexibility Score: inf
ROOT
ATOM      1  C   UNL A   1      42.352  21.792  27.139  1.00  0.00     0.042 C 
ENDROOT
BRANCH   1   2
ATOM      2  C   UNL A   1      42.702  21.265  25.752  1.00  0.00     0.118 C 
BRANCH   2   3
ATOM      3  N   UNL A   1      44.043  20.720  25.682  1.00  0.00    -0.350 N 
ATOM      4  C   UNL A   1      45.262  21.269  25.398  1.00  0.00     0.285 C 
ATOM      5  O   UNL A   1      46.209  20.474  25.432  1.00  0.00    -0.267 OA
ATOM      6  H   UNL A   1      44.085  19.757  25.882  1.00  0.00     0.163 HD
BRANCH   4   7
ATOM      7  C   UNL A   1      45.452  22.789  25.006  1.00  0.00     0.196 C 
ATOM      8  C   UNL A   1      44.143  23.400  24.459  1.00  0.00     0.096 C 
BRANCH   7   9
ATOM      9  C   UNL A   1      45.903  23.597  26.255  1.00  0.00     0.023 A 
ATOM     10  C   UNL A   1      47.069  24.394  26.219  1.00  0.00     0.014 A 
ATOM     11  C   UNL A   1      45.158  23.591  27.453  1.00  0.00     0.029 A 
ATOM     12  C   UNL A   1      47.504  25.100  27.344  1.00  0.00     0.041 A 
ATOM     13  C   UNL A   1      45.590  24.308  28.575  1.00  0.00     0.054 A 
ATOM     14  C   UNL A   1      46.765  25.047  28.519  1.00  0.00     0.137 A 
ATOM     15  Br  UNL A   1      44.564  24.256  30.164  1.00  0.00    -0.048 Br
ATOM     16  F   UNL A   1      47.208  25.725  29.589  1.00  0.00    -0.206 F 
ENDBRANCH   7   9
BRANCH   7  17
ATOM     17  N   UNL A   1      46.480  22.879  23.936  1.00  0.00    -0.341 N 
ATOM     18  H   UNL A   1      46.586  23.852  23.646  1.00  0.00     0.345 HD
ATOM     19  H   UNL A   1      46.188  22.316  23.136  1.00  0.00     0.345 HD
ATOM     20  H   UNL A   1      47.371  22.531  24.290  1.00  0.00     0.345 HD
ENDBRANCH   7  17
ENDBRANCH   4   7
ENDBRANCH   2   3
ENDBRANCH   1   2
BRANCH   1  21
ATOM     21  C   UNL A   1      41.008  21.310  27.679  1.00  0.00     0.118 C 
BRANCH  21  22
ATOM     22  N   UNL A   1      39.923  21.477  26.723  1.00  0.00    -0.352 N 
ATOM     23  C   UNL A   1      39.217  22.591  26.349  1.00  0.00     0.251 C 
ATOM     24  H   UNL A   1      39.648  20.648  26.268  1.00  0.00     0.163 HD
ATOM     25  O   UNL A   1      38.218  22.454  25.644  1.00  0.00    -0.269 OA
BRANCH  23  26
ATOM     26  C   UNL A   1      39.620  23.947  26.786  1.00  0.00     0.039 A 
ATOM     27  C   UNL A   1      39.353  24.328  28.106  1.00  0.00     0.014 A 
ATOM     28  C   UNL A   1      40.205  24.864  25.907  1.00  0.00     0.014 A 
ATOM     29  C   UNL A   1      39.721  25.597  28.555  1.00  0.00     0.010 A 
ATOM     30  C   UNL A   1      40.640  26.103  26.377  1.00  0.00     0.010 A 
ATOM     31  C   UNL A   1      40.398  26.485  27.704  1.00  0.00    -0.014 A 
BRANCH  31  32
ATOM     32  C   UNL A   1      40.858  27.807  28.197  1.00  0.00     0.031 A 
ATOM     33  C   UNL A   1      42.319  28.165  28.189  1.00  0.00     0.074 A 
ATOM     34  C   UNL A   1      39.957  28.675  28.696  1.00  0.00     0.049 A 
ATOM     35  N   UNL A   1      42.901  29.269  28.587  1.00  0.00    -0.248 NA
ATOM     36  C   UNL A   1      43.251  27.141  27.694  1.00  0.00     0.031 C 
ATOM     37  C   UNL A   1      38.520  28.425  28.820  1.00  0.00     0.029 A 
ATOM     38  N   UNL A   1      40.116  29.944  29.193  1.00  0.00    -0.354 N 
ATOM     39  C   UNL A   1      44.262  29.066  28.405  1.00  0.00     0.074 A 
ATOM     40  C   UNL A   1      44.426  27.717  27.907  1.00  0.00     0.031 C 
ATOM     41  C   UNL A   1      37.924  29.516  29.327  1.00  0.00     0.029 A 
ATOM     42  C   UNL A   1      38.939  30.532  29.585  1.00  0.00     0.049 A 
ATOM     43  H   UNL A   1      40.991  30.390  29.262  1.00  0.00     0.167 HD
ATOM     44  C   UNL A   1      45.285  29.932  28.614  1.00  0.00     0.037 A 
ATOM     45  C   UNL A   1      38.702  31.759  30.087  1.00  0.00     0.037 A 
ATOM     46  C   UNL A   1      45.122  31.284  29.080  1.00  0.00     0.049 A 
ATOM     47  C   UNL A   1      39.845  32.716  30.264  1.00  0.00     0.074 A 
ATOM     48  C   UNL A   1      46.090  32.256  29.268  1.00  0.00     0.029 A 
ATOM     49  N   UNL A   1      43.908  31.856  29.429  1.00  0.00    -0.354 N 
ATOM     50  N   UNL A   1      41.120  32.532  30.023  1.00  0.00    -0.248 NA
ATOM     51  C   UNL A   1      39.514  34.055  30.769  1.00  0.00     0.031 C 
ATOM     52  C   UNL A   1      45.464  33.409  29.756  1.00  0.00     0.029 A 
ATOM     53  C   UNL A   1      44.103  33.165  29.838  1.00  0.00     0.049 A 
ATOM     54  H   UNL A   1      43.036  31.400  29.392  1.00  0.00     0.167 HD
ATOM     55  C   UNL A   1      41.740  33.738  30.323  1.00  0.00     0.074 A 
ATOM     56  C   UNL A   1      40.698  34.650  30.748  1.00  0.00     0.031 C 
ATOM     57  C   UNL A   1      43.055  34.061  30.255  1.00  0.00     0.037 A 
BRANCH  44  58
ATOM     58  C   UNL A   1      46.673  29.440  28.326  1.00  0.00     0.057 A 
ATOM     59  C   UNL A   1      47.218  29.489  27.036  1.00  0.00     0.134 A 
ATOM     60  C   UNL A   1      47.484  28.939  29.351  1.00  0.00     0.134 A 
ATOM     61  F   UNL A   1      46.488  29.947  26.006  1.00  0.00    -0.206 F 
ATOM     62  C   UNL A   1      48.512  29.035  26.772  1.00  0.00     0.040 A 
ATOM     63  C   UNL A   1      48.788  28.505  29.104  1.00  0.00     0.040 A 
ATOM     64  F   UNL A   1      47.026  28.869  30.610  1.00  0.00    -0.206 F 
ATOM     65  C   UNL A   1      49.303  28.546  27.810  1.00  0.00     0.006 A 
ENDBRANCH  44  58
BRANCH  45  66
ATOM     66  C   UNL A   1      37.314  32.170  30.410  1.00  0.00     0.057 A 
ATOM     67  C   UNL A   1      36.755  31.891  31.661  1.00  0.00     0.134 A 
ATOM     68  C   UNL A   1      36.517  32.848  29.481  1.00  0.00     0.134 A 
ATOM     69  F   UNL A   1      37.467  31.228  32.586  1.00  0.00    -0.206 F 
ATOM     70  C   UNL A   1      35.446  32.256  31.975  1.00  0.00     0.040 A 
ATOM     71  C   UNL A   1      35.213  33.239  29.788  1.00  0.00     0.040 A 
ATOM     72  F   UNL A   1      37.001  33.153  28.268  1.00  0.00    -0.206 F 
ATOM     73  C   UNL A   1      34.671  32.936  31.037  1.00  0.00     0.006 A 
ENDBRANCH  45  66
BRANCH  57  74
ATOM     74  C   UNL A   1      43.428  35.466  30.619  1.00  0.00     0.057 A 
ATOM     75  C   UNL A   1      43.763  35.823  31.932  1.00  0.00     0.134 A 
ATOM     76  C   UNL A   1      43.463  36.470  29.644  1.00  0.00     0.134 A 
ATOM     77  F   UNL A   1      43.734  34.909  32.913  1.00  0.00    -0.206 F 
ATOM     78  C   UNL A   1      44.092  37.137  32.266  1.00  0.00     0.040 A 
ATOM     79  C   UNL A   1      43.813  37.783  29.963  1.00  0.00     0.040 A 
ATOM     80  F   UNL A   1      43.159  36.191  28.368  1.00  0.00    -0.206 F 
ATOM     81  C   UNL A   1      44.121  38.121  31.280  1.00  0.00     0.006 A 
ENDBRANCH  57  74
ENDBRANCH  31  32
ENDBRANCH  23  26
ENDBRANCH  21  22
ENDBRANCH   1  21
TORSDOF 12
ENDMDL
