MODEL 1
REMARK VINA RESULT:     -10.7      0.000      0.000
REMARK SMILES C[NH+](C)CCNC(=O)NC1(CC(=O)NCCCNC(=O)c2ccc(-c3c4nc(c(-c5c(F)cccc5F)c5ccc([nH]5)c(-c5c(F)cccc5F)c5nc(c(-c6c(F)cccc6F)c6ccc3[nH]6)C=C5)C=C4)cc2)CCC1
REMARK SMILES IDX 12 1 13 2 14 3 11 5 10 6 75 7 77 8 76 9 9 10 6 11 7 12 8 14
REMARK SMILES IDX 5 16 4 17 2 18 1 19 3 20 15 22 16 23 17 24 18 25 19 26 20 28
REMARK SMILES IDX 21 29 22 30 74 31 23 32 73 33 24 34 25 35 26 36 67 37 27 38
REMARK SMILES IDX 72 39 66 40 68 41 28 42 71 43 65 44 64 45 29 47 55 48 38 49
REMARK SMILES IDX 54 50 39 51 42 52 53 53 69 54 40 55 41 56 52 58 70 59 43 60
REMARK SMILES IDX 30 61 31 62 36 63 32 64 33 65 35 66 37 67 34 68 56 69 57 70
REMARK SMILES IDX 62 71 58 72 59 73 61 74 63 75 60 76 44 77 45 78 50 79 46 80
REMARK SMILES IDX 47 81 49 82 51 83 48 84
REMARK H PARENT 14 4 6 13 9 15 2 21 18 27 68 46 42 57
REMARK Flexibility Score: inf
ROOT
ATOM      1  C   UNL A   1      32.637  28.982  24.501  1.00  0.00     0.222 C 
ATOM      2  O   UNL A   1      33.791  28.815  24.097  1.00  0.00    -0.275 OA
ATOM      3  N   UNL A   1      32.344  30.154  25.123  1.00  0.00    -0.356 N 
ATOM      4  H   UNL A   1      33.063  30.826  25.109  1.00  0.00     0.163 HD
ENDROOT
BRANCH   1   5
ATOM      5  C   UNL A   1      31.606  27.885  24.324  1.00  0.00     0.128 C 
BRANCH   5   6
ATOM      6  C   UNL A   1      30.940  27.792  22.926  1.00  0.00     0.051 C 
ATOM      7  C   UNL A   1      30.463  29.177  22.405  1.00  0.00     0.029 C 
ATOM      8  C   UNL A   1      29.459  27.371  23.059  1.00  0.00     0.029 C 
ATOM      9  C   UNL A   1      29.019  28.816  22.780  1.00  0.00     0.005 C 
BRANCH   6  10
ATOM     10  N   UNL A   1      31.861  27.101  21.986  1.00  0.00    -0.332 N 
ATOM     11  N   UNL A   1      31.819  24.711  22.080  1.00  0.00    -0.332 N 
ATOM     12  C   UNL A   1      32.227  25.876  21.584  1.00  0.00     0.315 C 
ATOM     13  H   UNL A   1      32.153  23.938  21.570  1.00  0.00     0.165 HD
ATOM     14  O   UNL A   1      33.033  25.822  20.648  1.00  0.00    -0.249 OA
ATOM     15  H   UNL A   1      32.379  27.774  21.488  1.00  0.00     0.165 HD
BRANCH  11  16
ATOM     16  C   UNL A   1      30.998  24.333  23.199  1.00  0.00     0.179 C 
BRANCH  16  17
ATOM     17  C   UNL A   1      31.746  23.996  24.499  1.00  0.00     0.283 C 
BRANCH  17  18
ATOM     18  N   UNL A   1      31.191  22.994  25.415  1.00  0.00    -0.338 N 
ATOM     19  C   UNL A   1      31.828  21.690  25.308  1.00  0.00     0.332 C 
ATOM     20  C   UNL A   1      31.119  23.446  26.801  1.00  0.00     0.332 C 
ATOM     21  H   UNL A   1      30.229  22.873  25.099  1.00  0.00     0.347 HD
ENDBRANCH  17  18
ENDBRANCH  16  17
ENDBRANCH  11  16
ENDBRANCH   6  10
ENDBRANCH   5   6
ENDBRANCH   1   5
BRANCH   3  22
ATOM     22  C   UNL A   1      31.133  30.565  25.800  1.00  0.00     0.117 C 
BRANCH  22  23
ATOM     23  C   UNL A   1      31.198  32.031  26.234  1.00  0.00     0.042 C 
BRANCH  23  24
ATOM     24  C   UNL A   1      32.483  32.403  26.965  1.00  0.00     0.118 C 
BRANCH  24  25
ATOM     25  N   UNL A   1      32.456  33.780  27.437  1.00  0.00    -0.352 N 
ATOM     26  C   UNL A   1      33.193  34.405  28.407  1.00  0.00     0.251 C 
ATOM     27  H   UNL A   1      31.799  34.357  26.983  1.00  0.00     0.163 HD
ATOM     28  O   UNL A   1      32.847  35.528  28.784  1.00  0.00    -0.269 OA
BRANCH  26  29
ATOM     29  C   UNL A   1      34.381  33.768  29.018  1.00  0.00     0.039 A 
ATOM     30  C   UNL A   1      34.183  32.704  29.907  1.00  0.00     0.014 A 
ATOM     31  C   UNL A   1      35.676  34.243  28.791  1.00  0.00     0.014 A 
ATOM     32  C   UNL A   1      35.275  32.099  30.533  1.00  0.00     0.010 A 
ATOM     33  C   UNL A   1      36.771  33.593  29.359  1.00  0.00     0.010 A 
ATOM     34  C   UNL A   1      36.582  32.523  30.247  1.00  0.00    -0.014 A 
BRANCH  34  35
ATOM     35  C   UNL A   1      37.756  31.872  30.882  1.00  0.00     0.031 A 
ATOM     36  C   UNL A   1      38.526  30.810  30.145  1.00  0.00     0.074 A 
ATOM     37  C   UNL A   1      38.102  32.202  32.141  1.00  0.00     0.049 A 
ATOM     38  N   UNL A   1      39.537  30.085  30.553  1.00  0.00    -0.248 NA
ATOM     39  C   UNL A   1      38.085  30.505  28.774  1.00  0.00     0.031 C 
ATOM     40  C   UNL A   1      37.415  33.191  32.975  1.00  0.00     0.029 A 
ATOM     41  N   UNL A   1      39.112  31.735  32.944  1.00  0.00    -0.354 N 
ATOM     42  C   UNL A   1      39.842  29.231  29.500  1.00  0.00     0.074 A 
ATOM     43  C   UNL A   1      38.879  29.493  28.453  1.00  0.00     0.031 C 
ATOM     44  C   UNL A   1      38.037  33.272  34.162  1.00  0.00     0.029 A 
ATOM     45  C   UNL A   1      39.140  32.316  34.188  1.00  0.00     0.049 A 
ATOM     46  H   UNL A   1      39.757  31.050  32.654  1.00  0.00     0.167 HD
ATOM     47  C   UNL A   1      40.846  28.328  29.406  1.00  0.00     0.037 A 
ATOM     48  C   UNL A   1      39.956  32.096  35.236  1.00  0.00     0.037 A 
ATOM     49  C   UNL A   1      41.818  28.086  30.440  1.00  0.00     0.049 A 
ATOM     50  C   UNL A   1      41.058  31.081  35.109  1.00  0.00     0.074 A 
ATOM     51  C   UNL A   1      42.906  27.229  30.419  1.00  0.00     0.029 A 
ATOM     52  N   UNL A   1      41.819  28.703  31.682  1.00  0.00    -0.354 N 
ATOM     53  N   UNL A   1      41.371  30.324  34.085  1.00  0.00    -0.248 NA
ATOM     54  C   UNL A   1      41.924  30.893  36.281  1.00  0.00     0.031 C 
ATOM     55  C   UNL A   1      43.540  27.297  31.664  1.00  0.00     0.029 A 
ATOM     56  C   UNL A   1      42.876  28.231  32.443  1.00  0.00     0.049 A 
ATOM     57  H   UNL A   1      41.164  29.377  31.979  1.00  0.00     0.167 HD
ATOM     58  C   UNL A   1      42.484  29.592  34.479  1.00  0.00     0.074 A 
ATOM     59  C   UNL A   1      42.801  30.007  35.830  1.00  0.00     0.031 C 
ATOM     60  C   UNL A   1      43.182  28.661  33.784  1.00  0.00     0.037 A 
BRANCH  47  61
ATOM     61  C   UNL A   1      40.946  27.534  28.134  1.00  0.00     0.057 A 
ATOM     62  C   UNL A   1      41.710  27.976  27.045  1.00  0.00     0.134 A 
ATOM     63  C   UNL A   1      40.300  26.298  28.009  1.00  0.00     0.134 A 
ATOM     64  F   UNL A   1      42.345  29.155  27.096  1.00  0.00    -0.206 F 
ATOM     65  C   UNL A   1      41.803  27.230  25.868  1.00  0.00     0.040 A 
ATOM     66  C   UNL A   1      40.408  25.531  26.847  1.00  0.00     0.040 A 
ATOM     67  F   UNL A   1      39.558  25.811  29.015  1.00  0.00    -0.206 F 
ATOM     68  C   UNL A   1      41.156  26.001  25.769  1.00  0.00     0.006 A 
ENDBRANCH  47  61
BRANCH  48  69
ATOM     69  C   UNL A   1      39.780  32.869  36.491  1.00  0.00     0.057 A 
ATOM     70  C   UNL A   1      40.561  33.998  36.759  1.00  0.00     0.134 A 
ATOM     71  C   UNL A   1      38.832  32.497  37.453  1.00  0.00     0.134 A 
ATOM     72  F   UNL A   1      41.497  34.393  35.884  1.00  0.00    -0.206 F 
ATOM     73  C   UNL A   1      40.425  34.718  37.946  1.00  0.00     0.040 A 
ATOM     74  C   UNL A   1      38.667  33.222  38.634  1.00  0.00     0.040 A 
ATOM     75  F   UNL A   1      38.044  31.431  37.251  1.00  0.00    -0.206 F 
ATOM     76  C   UNL A   1      39.471  34.331  38.887  1.00  0.00     0.006 A 
ENDBRANCH  48  69
BRANCH  60  77
ATOM     77  C   UNL A   1      44.376  28.055  34.459  1.00  0.00     0.057 A 
ATOM     78  C   UNL A   1      44.286  26.870  35.199  1.00  0.00     0.134 A 
ATOM     79  C   UNL A   1      45.641  28.646  34.335  1.00  0.00     0.134 A 
ATOM     80  F   UNL A   1      43.102  26.261  35.367  1.00  0.00    -0.206 F 
ATOM     81  C   UNL A   1      45.406  26.306  35.813  1.00  0.00     0.040 A 
ATOM     82  C   UNL A   1      46.772  28.078  34.922  1.00  0.00     0.040 A 
ATOM     83  F   UNL A   1      45.797  29.778  33.633  1.00  0.00    -0.206 F 
ATOM     84  C   UNL A   1      46.655  26.908  35.668  1.00  0.00     0.006 A 
ENDBRANCH  60  77
ENDBRANCH  34  35
ENDBRANCH  26  29
ENDBRANCH  24  25
ENDBRANCH  23  24
ENDBRANCH  22  23
ENDBRANCH   3  22
TORSDOF 15
ENDMDL
MODEL 2
REMARK VINA RESULT:     -10.6      4.815      7.064
REMARK SMILES C[NH+](C)CCNC(=O)NC1(CC(=O)NCCCNC(=O)c2ccc(-c3c4nc(c(-c5c(F)cccc5F)c5ccc([nH]5)c(-c5c(F)cccc5F)c5nc(c(-c6c(F)cccc6F)c6ccc3[nH]6)C=C5)C=C4)cc2)CCC1
REMARK SMILES IDX 12 1 13 2 14 3 11 5 10 6 75 7 77 8 76 9 9 10 6 11 7 12 8 14
REMARK SMILES IDX 5 16 4 17 2 18 1 19 3 20 15 22 16 23 17 24 18 25 19 26 20 28
REMARK SMILES IDX 21 29 22 30 74 31 23 32 73 33 24 34 25 35 26 36 67 37 27 38
REMARK SMILES IDX 72 39 66 40 68 41 28 42 71 43 65 44 64 45 29 47 55 48 38 49
REMARK SMILES IDX 54 50 39 51 42 52 53 53 69 54 40 55 41 56 52 58 70 59 43 60
REMARK SMILES IDX 30 61 31 62 36 63 32 64 33 65 35 66 37 67 34 68 56 69 57 70
REMARK SMILES IDX 62 71 58 72 59 73 61 74 63 75 60 76 44 77 45 78 50 79 46 80
REMARK SMILES IDX 47 81 49 82 51 83 48 84
REMARK H PARENT 14 4 6 13 9 15 2 21 18 27 68 46 42 57
REMARK Flexibility Score: inf
ROOT
ATOM      1  C   UNL A   1      33.389  28.602  23.870  1.00  0.00     0.222 C 
ATOM      2  O   UNL A   1      34.167  28.605  22.913  1.00  0.00    -0.275 OA
ATOM      3  N   UNL A   1      33.546  29.560  24.821  1.00  0.00    -0.356 N 
ATOM      4  H   UNL A   1      34.215  30.251  24.611  1.00  0.00     0.163 HD
ENDROOT
BRANCH   1   5
ATOM      5  C   UNL A   1      32.320  27.532  23.975  1.00  0.00     0.128 C 
BRANCH   5   6
ATOM      6  C   UNL A   1      31.347  27.417  22.772  1.00  0.00     0.051 C 
ATOM      7  C   UNL A   1      30.660  28.770  22.438  1.00  0.00     0.029 C 
ATOM      8  C   UNL A   1      29.977  26.874  23.235  1.00  0.00     0.029 C 
ATOM      9  C   UNL A   1      29.378  28.285  23.129  1.00  0.00     0.005 C 
BRANCH   6  10
ATOM     10  N   UNL A   1      32.065  26.825  21.612  1.00  0.00    -0.332 N 
ATOM     11  N   UNL A   1      32.597  24.501  21.812  1.00  0.00    -0.332 N 
ATOM     12  C   UNL A   1      32.556  25.662  21.163  1.00  0.00     0.315 C 
ATOM     13  H   UNL A   1      32.922  23.760  21.253  1.00  0.00     0.165 HD
ATOM     14  O   UNL A   1      33.024  25.668  20.019  1.00  0.00    -0.249 OA
ATOM     15  H   UNL A   1      32.237  27.529  20.946  1.00  0.00     0.165 HD
BRANCH  11  16
ATOM     16  C   UNL A   1      32.269  24.093  23.153  1.00  0.00     0.179 C 
BRANCH  16  17
ATOM     17  C   UNL A   1      33.165  23.003  23.762  1.00  0.00     0.283 C 
BRANCH  17  18
ATOM     18  N   UNL A   1      34.083  23.344  24.853  1.00  0.00    -0.338 N 
ATOM     19  C   UNL A   1      34.609  24.698  24.770  1.00  0.00     0.332 C 
ATOM     20  C   UNL A   1      33.548  23.054  26.179  1.00  0.00     0.332 C 
ATOM     21  H   UNL A   1      34.875  22.717  24.717  1.00  0.00     0.347 HD
ENDBRANCH  17  18
ENDBRANCH  16  17
ENDBRANCH  11  16
ENDBRANCH   6  10
ENDBRANCH   5   6
ENDBRANCH   1   5
BRANCH   3  22
ATOM     22  C   UNL A   1      32.876  29.720  26.093  1.00  0.00     0.117 C 
BRANCH  22  23
ATOM     23  C   UNL A   1      33.598  28.962  27.210  1.00  0.00     0.042 C 
BRANCH  23  24
ATOM     24  C   UNL A   1      35.016  29.454  27.476  1.00  0.00     0.118 C 
BRANCH  24  25
ATOM     25  N   UNL A   1      35.107  30.184  28.732  1.00  0.00    -0.352 N 
ATOM     26  C   UNL A   1      36.150  30.327  29.607  1.00  0.00     0.251 C 
ATOM     27  H   UNL A   1      34.281  30.652  28.996  1.00  0.00     0.163 HD
ATOM     28  O   UNL A   1      35.930  30.818  30.718  1.00  0.00    -0.269 OA
BRANCH  26  29
ATOM     29  C   UNL A   1      37.525  29.902  29.260  1.00  0.00     0.039 A 
ATOM     30  C   UNL A   1      38.390  29.534  30.298  1.00  0.00     0.014 A 
ATOM     31  C   UNL A   1      38.000  29.930  27.946  1.00  0.00     0.014 A 
ATOM     32  C   UNL A   1      39.707  29.162  30.017  1.00  0.00     0.010 A 
ATOM     33  C   UNL A   1      39.291  29.489  27.657  1.00  0.00     0.010 A 
ATOM     34  C   UNL A   1      40.163  29.114  28.691  1.00  0.00    -0.014 A 
BRANCH  34  35
ATOM     35  C   UNL A   1      41.551  28.693  28.372  1.00  0.00     0.031 A 
ATOM     36  C   UNL A   1      41.849  27.259  28.025  1.00  0.00     0.074 A 
ATOM     37  C   UNL A   1      42.552  29.591  28.440  1.00  0.00     0.049 A 
ATOM     38  N   UNL A   1      43.001  26.689  27.778  1.00  0.00    -0.248 NA
ATOM     39  C   UNL A   1      40.701  26.339  27.973  1.00  0.00     0.031 C 
ATOM     40  C   UNL A   1      42.399  31.003  28.797  1.00  0.00     0.029 A 
ATOM     41  N   UNL A   1      43.899  29.448  28.219  1.00  0.00    -0.354 N 
ATOM     42  C   UNL A   1      42.720  25.346  27.558  1.00  0.00     0.074 A 
ATOM     43  C   UNL A   1      41.296  25.177  27.748  1.00  0.00     0.031 C 
ATOM     44  C   UNL A   1      43.601  31.600  28.751  1.00  0.00     0.029 A 
ATOM     45  C   UNL A   1      44.613  30.608  28.399  1.00  0.00     0.049 A 
ATOM     46  H   UNL A   1      44.315  28.595  27.957  1.00  0.00     0.167 HD
ATOM     47  C   UNL A   1      43.568  24.349  27.207  1.00  0.00     0.037 A 
ATOM     48  C   UNL A   1      45.934  30.845  28.300  1.00  0.00     0.037 A 
ATOM     49  C   UNL A   1      44.980  24.525  26.995  1.00  0.00     0.049 A 
ATOM     50  C   UNL A   1      46.855  29.719  27.918  1.00  0.00     0.074 A 
ATOM     51  C   UNL A   1      45.915  23.588  26.586  1.00  0.00     0.029 A 
ATOM     52  N   UNL A   1      45.663  25.719  27.175  1.00  0.00    -0.354 N 
ATOM     53  N   UNL A   1      46.567  28.468  27.654  1.00  0.00    -0.248 NA
ATOM     54  C   UNL A   1      48.286  30.040  27.814  1.00  0.00     0.031 C 
ATOM     55  C   UNL A   1      47.170  24.206  26.559  1.00  0.00     0.029 A 
ATOM     56  C   UNL A   1      47.010  25.538  26.905  1.00  0.00     0.049 A 
ATOM     57  H   UNL A   1      45.251  26.569  27.455  1.00  0.00     0.167 HD
ATOM     58  C   UNL A   1      47.772  27.860  27.327  1.00  0.00     0.074 A 
ATOM     59  C   UNL A   1      48.793  28.884  27.411  1.00  0.00     0.031 C 
ATOM     60  C   UNL A   1      48.012  26.571  26.986  1.00  0.00     0.037 A 
BRANCH  47  61
ATOM     61  C   UNL A   1      42.985  22.976  27.027  1.00  0.00     0.057 A 
ATOM     62  C   UNL A   1      42.646  22.168  28.121  1.00  0.00     0.134 A 
ATOM     63  C   UNL A   1      42.728  22.469  25.747  1.00  0.00     0.134 A 
ATOM     64  F   UNL A   1      42.876  22.590  29.373  1.00  0.00    -0.206 F 
ATOM     65  C   UNL A   1      42.099  20.896  27.947  1.00  0.00     0.040 A 
ATOM     66  C   UNL A   1      42.157  21.208  25.562  1.00  0.00     0.040 A 
ATOM     67  F   UNL A   1      43.021  23.192  24.656  1.00  0.00    -0.206 F 
ATOM     68  C   UNL A   1      41.848  20.415  26.665  1.00  0.00     0.006 A 
ENDBRANCH  47  61
BRANCH  48  69
ATOM     69  C   UNL A   1      46.466  32.209  28.543  1.00  0.00     0.057 A 
ATOM     70  C   UNL A   1      46.937  32.585  29.806  1.00  0.00     0.134 A 
ATOM     71  C   UNL A   1      46.512  33.170  27.525  1.00  0.00     0.134 A 
ATOM     72  F   UNL A   1      46.903  31.714  30.825  1.00  0.00    -0.206 F 
ATOM     73  C   UNL A   1      47.414  33.872  30.056  1.00  0.00     0.040 A 
ATOM     74  C   UNL A   1      47.010  34.453  27.754  1.00  0.00     0.040 A 
ATOM     75  F   UNL A   1      46.085  32.869  26.290  1.00  0.00    -0.206 F 
ATOM     76  C   UNL A   1      47.455  34.810  29.025  1.00  0.00     0.006 A 
ENDBRANCH  48  69
BRANCH  60  77
ATOM     77  C   UNL A   1      49.426  26.203  26.645  1.00  0.00     0.057 A 
ATOM     78  C   UNL A   1      49.930  26.328  25.345  1.00  0.00     0.134 A 
ATOM     79  C   UNL A   1      50.304  25.753  27.640  1.00  0.00     0.134 A 
ATOM     80  F   UNL A   1      49.137  26.742  24.345  1.00  0.00    -0.206 F 
ATOM     81  C   UNL A   1      51.251  25.997  25.040  1.00  0.00     0.040 A 
ATOM     82  C   UNL A   1      51.634  25.443  27.353  1.00  0.00     0.040 A 
ATOM     83  F   UNL A   1      49.887  25.618  28.907  1.00  0.00    -0.206 F 
ATOM     84  C   UNL A   1      52.109  25.559  26.048  1.00  0.00     0.006 A 
ENDBRANCH  60  77
ENDBRANCH  34  35
ENDBRANCH  26  29
ENDBRANCH  24  25
ENDBRANCH  23  24
ENDBRANCH  22  23
ENDBRANCH   3  22
TORSDOF 15
ENDMDL
MODEL 3
REMARK VINA RESULT:     -10.5      5.196     10.323
REMARK SMILES C[NH+](C)CCNC(=O)NC1(CC(=O)NCCCNC(=O)c2ccc(-c3c4nc(c(-c5c(F)cccc5F)c5ccc([nH]5)c(-c5c(F)cccc5F)c5nc(c(-c6c(F)cccc6F)c6ccc3[nH]6)C=C5)C=C4)cc2)CCC1
REMARK SMILES IDX 12 1 13 2 14 3 11 5 10 6 75 7 77 8 76 9 9 10 6 11 7 12 8 14
REMARK SMILES IDX 5 16 4 17 2 18 1 19 3 20 15 22 16 23 17 24 18 25 19 26 20 28
REMARK SMILES IDX 21 29 22 30 74 31 23 32 73 33 24 34 25 35 26 36 67 37 27 38
REMARK SMILES IDX 72 39 66 40 68 41 28 42 71 43 65 44 64 45 29 47 55 48 38 49
REMARK SMILES IDX 54 50 39 51 42 52 53 53 69 54 40 55 41 56 52 58 70 59 43 60
REMARK SMILES IDX 30 61 31 62 36 63 32 64 33 65 35 66 37 67 34 68 56 69 57 70
REMARK SMILES IDX 62 71 58 72 59 73 61 74 63 75 60 76 44 77 45 78 50 79 46 80
REMARK SMILES IDX 47 81 49 82 51 83 48 84
REMARK H PARENT 14 4 6 13 9 15 2 21 18 27 68 46 42 57
REMARK Flexibility Score: inf
ROOT
ATOM      1  C   UNL A   1      35.017  21.617  25.912  1.00  0.00     0.222 C 
ATOM      2  O   UNL A   1      34.834  22.223  26.971  1.00  0.00    -0.275 OA
ATOM      3  N   UNL A   1      36.163  20.899  25.780  1.00  0.00    -0.356 N 
ATOM      4  H   UNL A   1      36.715  20.839  26.593  1.00  0.00     0.163 HD
ENDROOT
BRANCH   1   5
ATOM      5  C   UNL A   1      33.994  21.712  24.797  1.00  0.00     0.128 C 
BRANCH   5   6
ATOM      6  C   UNL A   1      32.679  20.915  25.006  1.00  0.00     0.051 C 
ATOM      7  C   UNL A   1      32.940  19.459  25.484  1.00  0.00     0.029 C 
ATOM      8  C   UNL A   1      32.171  20.347  23.662  1.00  0.00     0.029 C 
ATOM      9  C   UNL A   1      32.665  18.948  24.063  1.00  0.00     0.005 C 
BRANCH   6  10
ATOM     10  N   UNL A   1      31.781  21.675  25.916  1.00  0.00    -0.332 N 
ATOM     11  N   UNL A   1      30.574  23.473  24.899  1.00  0.00    -0.332 N 
ATOM     12  C   UNL A   1      30.896  22.680  25.919  1.00  0.00     0.315 C 
ATOM     13  H   UNL A   1      29.834  24.087  25.108  1.00  0.00     0.165 HD
ATOM     14  O   UNL A   1      30.313  22.897  26.987  1.00  0.00    -0.249 OA
ATOM     15  H   UNL A   1      31.867  21.316  26.829  1.00  0.00     0.165 HD
BRANCH  11  16
ATOM     16  C   UNL A   1      31.073  23.629  23.559  1.00  0.00     0.179 C 
BRANCH  16  17
ATOM     17  C   UNL A   1      31.429  25.064  23.136  1.00  0.00     0.283 C 
BRANCH  17  18
ATOM     18  N   UNL A   1      32.745  25.343  22.554  1.00  0.00    -0.338 N 
ATOM     19  C   UNL A   1      32.682  25.989  21.252  1.00  0.00     0.332 C 
ATOM     20  C   UNL A   1      33.648  26.044  23.461  1.00  0.00     0.332 C 
ATOM     21  H   UNL A   1      33.150  24.419  22.399  1.00  0.00     0.347 HD
ENDBRANCH  17  18
ENDBRANCH  16  17
ENDBRANCH  11  16
ENDBRANCH   6  10
ENDBRANCH   5   6
ENDBRANCH   1   5
BRANCH   3  22
ATOM     22  C   UNL A   1      36.694  20.207  24.625  1.00  0.00     0.117 C 
BRANCH  22  23
ATOM     23  C   UNL A   1      37.807  19.232  25.014  1.00  0.00     0.042 C 
BRANCH  23  24
ATOM     24  C   UNL A   1      38.974  19.885  25.746  1.00  0.00     0.118 C 
BRANCH  24  25
ATOM     25  N   UNL A   1      40.114  18.986  25.853  1.00  0.00    -0.352 N 
ATOM     26  C   UNL A   1      41.445  19.251  26.037  1.00  0.00     0.251 C 
ATOM     27  H   UNL A   1      39.891  18.029  25.781  1.00  0.00     0.163 HD
ATOM     28  O   UNL A   1      42.259  18.337  25.882  1.00  0.00    -0.269 OA
BRANCH  26  29
ATOM     29  C   UNL A   1      41.929  20.601  26.406  1.00  0.00     0.039 A 
ATOM     30  C   UNL A   1      42.160  21.528  25.382  1.00  0.00     0.014 A 
ATOM     31  C   UNL A   1      42.230  20.945  27.726  1.00  0.00     0.014 A 
ATOM     32  C   UNL A   1      42.652  22.800  25.683  1.00  0.00     0.010 A 
ATOM     33  C   UNL A   1      42.651  22.238  28.035  1.00  0.00     0.010 A 
ATOM     34  C   UNL A   1      42.880  23.175  27.016  1.00  0.00    -0.014 A 
BRANCH  34  35
ATOM     35  C   UNL A   1      43.376  24.533  27.357  1.00  0.00     0.031 A 
ATOM     36  C   UNL A   1      42.416  25.598  27.814  1.00  0.00     0.074 A 
ATOM     37  C   UNL A   1      44.683  24.822  27.210  1.00  0.00     0.049 A 
ATOM     38  N   UNL A   1      42.648  26.855  28.097  1.00  0.00    -0.248 NA
ATOM     39  C   UNL A   1      41.005  25.204  27.948  1.00  0.00     0.031 C 
ATOM     40  C   UNL A   1      45.708  23.888  26.742  1.00  0.00     0.029 A 
ATOM     41  N   UNL A   1      45.372  25.988  27.430  1.00  0.00    -0.354 N 
ATOM     42  C   UNL A   1      41.414  27.404  28.426  1.00  0.00     0.074 A 
ATOM     43  C   UNL A   1      40.430  26.356  28.261  1.00  0.00     0.031 C 
ATOM     44  C   UNL A   1      46.897  24.511  26.731  1.00  0.00     0.029 A 
ATOM     45  C   UNL A   1      46.714  25.896  27.153  1.00  0.00     0.049 A 
ATOM     46  H   UNL A   1      44.944  26.813  27.757  1.00  0.00     0.167 HD
ATOM     47  C   UNL A   1      41.130  28.659  28.849  1.00  0.00     0.037 A 
ATOM     48  C   UNL A   1      47.686  26.825  27.222  1.00  0.00     0.037 A 
ATOM     49  C   UNL A   1      42.114  29.693  29.035  1.00  0.00     0.049 A 
ATOM     50  C   UNL A   1      47.343  28.214  27.686  1.00  0.00     0.074 A 
ATOM     51  C   UNL A   1      41.934  30.981  29.510  1.00  0.00     0.029 A 
ATOM     52  N   UNL A   1      43.465  29.555  28.754  1.00  0.00    -0.354 N 
ATOM     53  N   UNL A   1      46.181  28.700  28.051  1.00  0.00    -0.248 NA
ATOM     54  C   UNL A   1      48.447  29.181  27.753  1.00  0.00     0.031 C 
ATOM     55  C   UNL A   1      43.169  31.636  29.478  1.00  0.00     0.029 A 
ATOM     56  C   UNL A   1      44.127  30.742  29.028  1.00  0.00     0.049 A 
ATOM     57  H   UNL A   1      43.891  28.736  28.412  1.00  0.00     0.167 HD
ATOM     58  C   UNL A   1      46.419  30.019  28.416  1.00  0.00     0.074 A 
ATOM     59  C   UNL A   1      47.839  30.251  28.243  1.00  0.00     0.031 C 
ATOM     60  C   UNL A   1      45.542  30.954  28.857  1.00  0.00     0.037 A 
BRANCH  47  61
ATOM     61  C   UNL A   1      39.692  28.982  29.142  1.00  0.00     0.057 A 
ATOM     62  C   UNL A   1      39.168  28.907  30.440  1.00  0.00     0.134 A 
ATOM     63  C   UNL A   1      38.830  29.406  28.123  1.00  0.00     0.134 A 
ATOM     64  F   UNL A   1      39.937  28.498  31.460  1.00  0.00    -0.206 F 
ATOM     65  C   UNL A   1      37.833  29.214  30.707  1.00  0.00     0.040 A 
ATOM     66  C   UNL A   1      37.500  29.742  28.383  1.00  0.00     0.040 A 
ATOM     67  F   UNL A   1      39.268  29.508  26.859  1.00  0.00    -0.206 F 
ATOM     68  C   UNL A   1      36.997  29.639  29.678  1.00  0.00     0.006 A 
ENDBRANCH  47  61
BRANCH  48  69
ATOM     69  C   UNL A   1      49.082  26.468  26.867  1.00  0.00     0.057 A 
ATOM     70  C   UNL A   1      49.571  26.672  25.572  1.00  0.00     0.134 A 
ATOM     71  C   UNL A   1      49.958  25.911  27.807  1.00  0.00     0.134 A 
ATOM     72  F   UNL A   1      48.775  27.186  24.624  1.00  0.00    -0.206 F 
ATOM     73  C   UNL A   1      50.873  26.317  25.217  1.00  0.00     0.040 A 
ATOM     74  C   UNL A   1      51.270  25.574  27.473  1.00  0.00     0.040 A 
ATOM     75  F   UNL A   1      49.553  25.700  29.069  1.00  0.00    -0.206 F 
ATOM     76  C   UNL A   1      51.728  25.769  26.172  1.00  0.00     0.006 A 
ENDBRANCH  48  69
BRANCH  60  77
ATOM     77  C   UNL A   1      46.098  32.300  29.215  1.00  0.00     0.057 A 
ATOM     78  C   UNL A   1      46.161  33.346  28.286  1.00  0.00     0.134 A 
ATOM     79  C   UNL A   1      46.540  32.564  30.519  1.00  0.00     0.134 A 
ATOM     80  F   UNL A   1      45.765  33.154  27.018  1.00  0.00    -0.206 F 
ATOM     81  C   UNL A   1      46.667  34.600  28.633  1.00  0.00     0.040 A 
ATOM     82  C   UNL A   1      47.024  33.820  30.884  1.00  0.00     0.040 A 
ATOM     83  F   UNL A   1      46.499  31.608  31.458  1.00  0.00    -0.206 F 
ATOM     84  C   UNL A   1      47.094  34.841  29.938  1.00  0.00     0.006 A 
ENDBRANCH  60  77
ENDBRANCH  34  35
ENDBRANCH  26  29
ENDBRANCH  24  25
ENDBRANCH  23  24
ENDBRANCH  22  23
ENDBRANCH   3  22
TORSDOF 15
ENDMDL
