MODEL 1
REMARK VINA RESULT:     -13.5      0.000      0.000
REMARK SMILES CN1C(=O)C[C@@H](C(=O)NCCCNC(=O)c2ccc(-c3c4nc(c(-c5c(F)cccc5F)c5ccc([nH]5)c(-c5c(F)cccc5F)c5nc(c(-c6c(F)cccc6F)c6ccc3[nH]6)C=C5)C=C4)cc2)C12CCN(C(=O)c1ccccc1-n1cccn1)CC2
REMARK SMILES IDX 11 1 10 2 9 3 7 4 8 5 6 7 1 8 2 9 3 10 70 11 4 12 5 13 71 14
REMARK SMILES IDX 88 15 72 16 87 17 73 18 74 19 75 20 76 21 77 22 81 23 78 24
REMARK SMILES IDX 80 25 79 26 82 27 83 28 86 29 84 30 85 31 12 32 13 33 14 34
REMARK SMILES IDX 15 36 16 37 17 38 69 39 18 40 68 41 19 42 20 43 21 44 62 45
REMARK SMILES IDX 22 46 67 47 61 48 63 49 23 50 66 51 60 52 59 53 24 55 50 56
REMARK SMILES IDX 33 57 49 58 34 59 37 60 48 61 64 62 35 63 36 64 47 66 65 67
REMARK SMILES IDX 38 68 25 69 26 70 31 71 27 72 28 73 30 74 32 75 29 76 51 77
REMARK SMILES IDX 52 78 57 79 53 80 54 81 56 82 58 83 55 84 39 85 40 86 45 87
REMARK SMILES IDX 41 88 42 89 44 90 46 91 43 92
REMARK H PARENT 9 6 13 35 63 54 37 65
REMARK Flexibility Score: inf
ROOT
ATOM      1  C   UNL A   1      37.179  19.724  24.971  1.00  0.00     0.042 C 
ENDROOT
BRANCH   1   2
ATOM      2  C   UNL A   1      35.991  20.685  24.907  1.00  0.00     0.117 C 
BRANCH   2   3
ATOM      3  N   UNL A   1      35.602  21.244  26.195  1.00  0.00    -0.356 N 
ATOM      4  C   UNL A   1      34.416  21.453  26.819  1.00  0.00     0.226 C 
ATOM      5  O   UNL A   1      34.486  21.912  27.967  1.00  0.00    -0.275 OA
ATOM      6  H   UNL A   1      36.372  21.535  26.734  1.00  0.00     0.163 HD
BRANCH   4   7
ATOM      7  C   UNL A   1      33.030  21.238  26.206  1.00  0.00     0.113 C 
ATOM      8  C   UNL A   1      32.857  22.076  22.571  1.00  0.00     0.147 C 
ATOM      9  N   UNL A   1      32.830  21.495  23.899  1.00  0.00    -0.339 N 
ATOM     10  C   UNL A   1      32.862  20.124  24.100  1.00  0.00     0.223 C 
ATOM     11  C   UNL A   1      32.575  22.256  25.135  1.00  0.00     0.058 C 
ATOM     12  O   UNL A   1      32.929  19.260  23.237  1.00  0.00    -0.275 OA
ATOM     13  C   UNL A   1      32.857  19.855  25.578  1.00  0.00     0.116 C 
ATOM     14  C   UNL A   1      33.326  23.602  25.221  1.00  0.00     0.051 C 
ATOM     15  C   UNL A   1      31.036  22.528  25.214  1.00  0.00     0.051 C 
ATOM     16  C   UNL A   1      32.867  24.469  26.387  1.00  0.00     0.122 C 
ATOM     17  C   UNL A   1      30.620  23.526  26.300  1.00  0.00     0.122 C 
ATOM     18  N   UNL A   1      31.443  24.727  26.241  1.00  0.00    -0.338 N 
ATOM     19  C   UNL A   1      30.857  25.974  26.026  1.00  0.00     0.256 C 
ATOM     20  O   UNL A   1      29.647  26.150  25.922  1.00  0.00    -0.269 OA
BRANCH  19  21
ATOM     21  C   UNL A   1      31.723  27.176  25.946  1.00  0.00     0.065 A 
ATOM     22  C   UNL A   1      31.805  27.949  27.116  1.00  0.00     0.016 A 
ATOM     23  C   UNL A   1      32.515  27.511  24.837  1.00  0.00     0.077 A 
ATOM     24  C   UNL A   1      32.697  29.019  27.195  1.00  0.00     0.001 A 
ATOM     25  C   UNL A   1      33.457  28.552  24.951  1.00  0.00     0.029 A 
ATOM     26  C   UNL A   1      33.535  29.307  26.122  1.00  0.00     0.002 A 
BRANCH  23  27
ATOM     27  N   UNL A   1      32.403  26.865  23.581  1.00  0.00    -0.240 N 
ATOM     28  C   UNL A   1      31.296  26.747  22.769  1.00  0.00     0.115 A 
ATOM     29  N   UNL A   1      33.490  26.272  23.015  1.00  0.00    -0.177 NA
ATOM     30  C   UNL A   1      31.684  26.042  21.655  1.00  0.00     0.042 A 
ATOM     31  C   UNL A   1      33.040  25.760  21.870  1.00  0.00     0.135 A 
ENDBRANCH  23  27
ENDBRANCH  19  21
ENDBRANCH   4   7
ENDBRANCH   2   3
ENDBRANCH   1   2
BRANCH   1  32
ATOM     32  C   UNL A   1      38.484  20.379  25.403  1.00  0.00     0.118 C 
BRANCH  32  33
ATOM     33  N   UNL A   1      39.526  19.391  25.639  1.00  0.00    -0.352 N 
ATOM     34  C   UNL A   1      40.839  19.561  26.001  1.00  0.00     0.251 C 
ATOM     35  H   UNL A   1      39.245  18.455  25.522  1.00  0.00     0.163 HD
ATOM     36  O   UNL A   1      41.629  18.631  25.856  1.00  0.00    -0.269 OA
BRANCH  34  37
ATOM     37  C   UNL A   1      41.313  20.846  26.558  1.00  0.00     0.039 A 
ATOM     38  C   UNL A   1      41.866  21.796  25.694  1.00  0.00     0.014 A 
ATOM     39  C   UNL A   1      41.266  21.100  27.932  1.00  0.00     0.014 A 
ATOM     40  C   UNL A   1      42.317  23.018  26.200  1.00  0.00     0.010 A 
ATOM     41  C   UNL A   1      41.633  22.350  28.422  1.00  0.00     0.010 A 
ATOM     42  C   UNL A   1      42.173  23.320  27.565  1.00  0.00    -0.014 A 
BRANCH  42  43
ATOM     43  C   UNL A   1      42.581  24.640  28.111  1.00  0.00     0.031 A 
ATOM     44  C   UNL A   1      41.557  25.720  28.338  1.00  0.00     0.074 A 
ATOM     45  C   UNL A   1      43.885  24.888  28.343  1.00  0.00     0.049 A 
ATOM     46  N   UNL A   1      41.730  26.953  28.742  1.00  0.00    -0.248 NA
ATOM     47  C   UNL A   1      40.155  25.377  28.045  1.00  0.00     0.031 C 
ATOM     48  C   UNL A   1      44.979  23.941  28.120  1.00  0.00     0.029 A 
ATOM     49  N   UNL A   1      44.513  26.015  28.811  1.00  0.00    -0.354 N 
ATOM     50  C   UNL A   1      40.467  27.533  28.741  1.00  0.00     0.074 A 
ATOM     51  C   UNL A   1      39.545  26.538  28.240  1.00  0.00     0.031 C 
ATOM     52  C   UNL A   1      46.139  24.516  28.474  1.00  0.00     0.029 A 
ATOM     53  C   UNL A   1      45.877  25.885  28.906  1.00  0.00     0.049 A 
ATOM     54  H   UNL A   1      44.031  26.838  29.055  1.00  0.00     0.167 HD
ATOM     55  C   UNL A   1      40.105  28.775  29.142  1.00  0.00     0.037 A 
ATOM     56  C   UNL A   1      46.815  26.773  29.287  1.00  0.00     0.037 A 
ATOM     57  C   UNL A   1      41.024  29.757  29.657  1.00  0.00     0.049 A 
ATOM     58  C   UNL A   1      46.388  28.152  29.711  1.00  0.00     0.074 A 
ATOM     59  C   UNL A   1      40.748  31.022  30.144  1.00  0.00     0.029 A 
ATOM     60  N   UNL A   1      42.397  29.583  29.747  1.00  0.00    -0.354 N 
ATOM     61  N   UNL A   1      45.183  28.663  29.771  1.00  0.00    -0.248 NA
ATOM     62  C   UNL A   1      47.453  29.076  30.127  1.00  0.00     0.031 C 
ATOM     63  C   UNL A   1      41.960  31.636  30.477  1.00  0.00     0.029 A 
ATOM     64  C   UNL A   1      42.985  30.730  30.256  1.00  0.00     0.049 A 
ATOM     65  H   UNL A   1      42.882  28.767  29.488  1.00  0.00     0.167 HD
ATOM     66  C   UNL A   1      45.340  29.954  30.259  1.00  0.00     0.074 A 
ATOM     67  C   UNL A   1      46.757  30.142  30.494  1.00  0.00     0.031 C 
ATOM     68  C   UNL A   1      44.397  30.900  30.492  1.00  0.00     0.037 A 
BRANCH  55  69
ATOM     69  C   UNL A   1      38.652  29.144  29.040  1.00  0.00     0.057 A 
ATOM     70  C   UNL A   1      37.790  29.074  30.142  1.00  0.00     0.134 A 
ATOM     71  C   UNL A   1      38.118  29.618  27.834  1.00  0.00     0.134 A 
ATOM     72  F   UNL A   1      38.233  28.620  31.324  1.00  0.00    -0.206 F 
ATOM     73  C   UNL A   1      36.444  29.434  30.042  1.00  0.00     0.040 A 
ATOM     74  C   UNL A   1      36.781  30.011  27.730  1.00  0.00     0.040 A 
ATOM     75  F   UNL A   1      38.887  29.720  26.740  1.00  0.00    -0.206 F 
ATOM     76  C   UNL A   1      35.939  29.912  28.835  1.00  0.00     0.006 A 
ENDBRANCH  55  69
BRANCH  56  77
ATOM     77  C   UNL A   1      48.250  26.385  29.300  1.00  0.00     0.057 A 
ATOM     78  C   UNL A   1      49.070  26.613  28.188  1.00  0.00     0.134 A 
ATOM     79  C   UNL A   1      48.832  25.767  30.414  1.00  0.00     0.134 A 
ATOM     80  F   UNL A   1      48.569  27.186  27.085  1.00  0.00    -0.206 F 
ATOM     81  C   UNL A   1      50.409  26.217  28.173  1.00  0.00     0.040 A 
ATOM     82  C   UNL A   1      50.177  25.393  30.423  1.00  0.00     0.040 A 
ATOM     83  F   UNL A   1      48.104  25.531  31.514  1.00  0.00    -0.206 F 
ATOM     84  C   UNL A   1      50.967  25.611  29.296  1.00  0.00     0.006 A 
ENDBRANCH  56  77
BRANCH  68  85
ATOM     85  C   UNL A   1      44.860  32.207  31.066  1.00  0.00     0.057 A 
ATOM     86  C   UNL A   1      45.205  33.296  30.255  1.00  0.00     0.134 A 
ATOM     87  C   UNL A   1      44.926  32.389  32.454  1.00  0.00     0.134 A 
ATOM     88  F   UNL A   1      45.176  33.185  28.919  1.00  0.00    -0.206 F 
ATOM     89  C   UNL A   1      45.625  34.510  30.803  1.00  0.00     0.040 A 
ATOM     90  C   UNL A   1      45.313  33.607  33.014  1.00  0.00     0.040 A 
ATOM     91  F   UNL A   1      44.600  31.392  33.289  1.00  0.00    -0.206 F 
ATOM     92  C   UNL A   1      45.671  34.670  32.187  1.00  0.00     0.006 A 
ENDBRANCH  68  85
ENDBRANCH  42  43
ENDBRANCH  34  37
ENDBRANCH  32  33
ENDBRANCH   1  32
TORSDOF 12
ENDMDL
MODEL 2
REMARK VINA RESULT:     -13.3      3.200      8.687
REMARK SMILES CN1C(=O)C[C@@H](C(=O)NCCCNC(=O)c2ccc(-c3c4nc(c(-c5c(F)cccc5F)c5ccc([nH]5)c(-c5c(F)cccc5F)c5nc(c(-c6c(F)cccc6F)c6ccc3[nH]6)C=C5)C=C4)cc2)C12CCN(C(=O)c1ccccc1-n1cccn1)CC2
REMARK SMILES IDX 11 1 10 2 9 3 7 4 8 5 6 7 1 8 2 9 3 10 70 11 4 12 5 13 71 14
REMARK SMILES IDX 88 15 72 16 87 17 73 18 74 19 75 20 76 21 77 22 81 23 78 24
REMARK SMILES IDX 80 25 79 26 82 27 83 28 86 29 84 30 85 31 12 32 13 33 14 34
REMARK SMILES IDX 15 36 16 37 17 38 69 39 18 40 68 41 19 42 20 43 21 44 62 45
REMARK SMILES IDX 22 46 67 47 61 48 63 49 23 50 66 51 60 52 59 53 24 55 50 56
REMARK SMILES IDX 33 57 49 58 34 59 37 60 48 61 64 62 35 63 36 64 47 66 65 67
REMARK SMILES IDX 38 68 25 69 26 70 31 71 27 72 28 73 30 74 32 75 29 76 51 77
REMARK SMILES IDX 52 78 57 79 53 80 54 81 56 82 58 83 55 84 39 85 40 86 45 87
REMARK SMILES IDX 41 88 42 89 44 90 46 91 43 92
REMARK H PARENT 9 6 13 35 63 54 37 65
REMARK Flexibility Score: inf
ROOT
ATOM      1  C   UNL A   1      31.199  31.348  26.057  1.00  0.00     0.042 C 
ENDROOT
BRANCH   1   2
ATOM      2  C   UNL A   1      31.396  29.952  25.466  1.00  0.00     0.117 C 
BRANCH   2   3
ATOM      3  N   UNL A   1      32.588  29.813  24.639  1.00  0.00    -0.356 N 
ATOM      4  C   UNL A   1      32.851  29.224  23.446  1.00  0.00     0.226 C 
ATOM      5  O   UNL A   1      34.005  29.366  23.020  1.00  0.00    -0.275 OA
ATOM      6  H   UNL A   1      33.380  30.243  25.035  1.00  0.00     0.163 HD
BRANCH   4   7
ATOM      7  C   UNL A   1      31.879  28.361  22.638  1.00  0.00     0.113 C 
ATOM      8  C   UNL A   1      29.515  26.392  24.754  1.00  0.00     0.147 C 
ATOM      9  N   UNL A   1      30.196  27.260  23.814  1.00  0.00    -0.339 N 
ATOM     10  C   UNL A   1      29.568  28.356  23.240  1.00  0.00     0.223 C 
ATOM     11  C   UNL A   1      31.518  26.978  23.227  1.00  0.00     0.058 C 
ATOM     12  O   UNL A   1      28.423  28.732  23.446  1.00  0.00    -0.275 OA
ATOM     13  C   UNL A   1      30.551  29.059  22.348  1.00  0.00     0.116 C 
ATOM     14  C   UNL A   1      32.565  26.458  24.237  1.00  0.00     0.051 C 
ATOM     15  C   UNL A   1      31.319  25.906  22.105  1.00  0.00     0.051 C 
ATOM     16  C   UNL A   1      33.839  25.954  23.569  1.00  0.00     0.122 C 
ATOM     17  C   UNL A   1      32.619  25.304  21.561  1.00  0.00     0.122 C 
ATOM     18  N   UNL A   1      33.489  24.882  22.651  1.00  0.00    -0.338 N 
ATOM     19  C   UNL A   1      33.885  23.549  22.763  1.00  0.00     0.256 C 
ATOM     20  O   UNL A   1      33.578  22.677  21.956  1.00  0.00    -0.269 OA
BRANCH  19  21
ATOM     21  C   UNL A   1      34.751  23.145  23.897  1.00  0.00     0.065 A 
ATOM     22  C   UNL A   1      36.117  23.004  23.603  1.00  0.00     0.016 A 
ATOM     23  C   UNL A   1      34.308  23.002  25.222  1.00  0.00     0.077 A 
ATOM     24  C   UNL A   1      37.039  22.765  24.623  1.00  0.00     0.001 A 
ATOM     25  C   UNL A   1      35.255  22.824  26.250  1.00  0.00     0.029 A 
ATOM     26  C   UNL A   1      36.611  22.695  25.946  1.00  0.00     0.002 A 
BRANCH  23  27
ATOM     27  N   UNL A   1      32.940  23.002  25.586  1.00  0.00    -0.240 N 
ATOM     28  C   UNL A   1      31.923  22.198  25.119  1.00  0.00     0.115 A 
ATOM     29  N   UNL A   1      32.482  23.867  26.533  1.00  0.00    -0.177 NA
ATOM     30  C   UNL A   1      30.776  22.571  25.777  1.00  0.00     0.042 A 
ATOM     31  C   UNL A   1      31.176  23.616  26.620  1.00  0.00     0.135 A 
ENDBRANCH  23  27
ENDBRANCH  19  21
ENDBRANCH   4   7
ENDBRANCH   2   3
ENDBRANCH   1   2
BRANCH   1  32
ATOM     32  C   UNL A   1      32.345  31.812  26.946  1.00  0.00     0.118 C 
BRANCH  32  33
ATOM     33  N   UNL A   1      32.227  33.224  27.277  1.00  0.00    -0.352 N 
ATOM     34  C   UNL A   1      32.967  33.994  28.139  1.00  0.00     0.251 C 
ATOM     35  H   UNL A   1      31.504  33.701  26.810  1.00  0.00     0.163 HD
ATOM     36  O   UNL A   1      32.526  35.080  28.507  1.00  0.00    -0.269 OA
BRANCH  34  37
ATOM     37  C   UNL A   1      34.284  33.532  28.630  1.00  0.00     0.039 A 
ATOM     38  C   UNL A   1      34.344  32.796  29.817  1.00  0.00     0.014 A 
ATOM     39  C   UNL A   1      35.464  33.865  27.959  1.00  0.00     0.014 A 
ATOM     40  C   UNL A   1      35.577  32.349  30.297  1.00  0.00     0.010 A 
ATOM     41  C   UNL A   1      36.681  33.344  28.389  1.00  0.00     0.010 A 
ATOM     42  C   UNL A   1      36.754  32.589  29.569  1.00  0.00    -0.014 A 
BRANCH  42  43
ATOM     43  C   UNL A   1      38.066  32.060  30.025  1.00  0.00     0.031 A 
ATOM     44  C   UNL A   1      38.582  30.748  29.500  1.00  0.00     0.074 A 
ATOM     45  C   UNL A   1      38.764  32.734  30.961  1.00  0.00     0.049 A 
ATOM     46  N   UNL A   1      39.668  30.095  29.828  1.00  0.00    -0.248 NA
ATOM     47  C   UNL A   1      37.755  30.065  28.491  1.00  0.00     0.031 C 
ATOM     48  C   UNL A   1      38.349  33.993  31.582  1.00  0.00     0.029 A 
ATOM     49  N   UNL A   1      39.965  32.450  31.559  1.00  0.00    -0.354 N 
ATOM     50  C   UNL A   1      39.647  28.924  29.080  1.00  0.00     0.074 A 
ATOM     51  C   UNL A   1      38.414  28.927  28.324  1.00  0.00     0.031 C 
ATOM     52  C   UNL A   1      39.291  34.386  32.454  1.00  0.00     0.029 A 
ATOM     53  C   UNL A   1      40.353  33.386  32.487  1.00  0.00     0.049 A 
ATOM     54  H   UNL A   1      40.498  31.651  31.344  1.00  0.00     0.167 HD
ATOM     55  C   UNL A   1      40.582  27.946  29.011  1.00  0.00     0.037 A 
ATOM     56  C   UNL A   1      41.437  33.428  33.285  1.00  0.00     0.037 A 
ATOM     57  C   UNL A   1      41.817  27.956  29.751  1.00  0.00     0.049 A 
ATOM     58  C   UNL A   1      42.451  32.320  33.202  1.00  0.00     0.074 A 
ATOM     59  C   UNL A   1      42.855  27.042  29.707  1.00  0.00     0.029 A 
ATOM     60  N   UNL A   1      42.177  28.927  30.674  1.00  0.00    -0.354 N 
ATOM     61  N   UNL A   1      42.452  31.255  32.438  1.00  0.00    -0.248 NA
ATOM     62  C   UNL A   1      43.619  32.425  34.088  1.00  0.00     0.031 C 
ATOM     63  C   UNL A   1      43.818  27.430  30.644  1.00  0.00     0.029 A 
ATOM     64  C   UNL A   1      43.410  28.619  31.226  1.00  0.00     0.049 A 
ATOM     65  H   UNL A   1      41.638  29.718  30.902  1.00  0.00     0.167 HD
ATOM     66  C   UNL A   1      43.630  30.579  32.728  1.00  0.00     0.074 A 
ATOM     67  C   UNL A   1      44.327  31.364  33.726  1.00  0.00     0.031 C 
ATOM     68  C   UNL A   1      44.095  29.414  32.214  1.00  0.00     0.037 A 
BRANCH  55  69
ATOM     69  C   UNL A   1      40.306  26.781  28.103  1.00  0.00     0.057 A 
ATOM     70  C   UNL A   1      40.874  26.685  26.825  1.00  0.00     0.134 A 
ATOM     71  C   UNL A   1      39.495  25.720  28.528  1.00  0.00     0.134 A 
ATOM     72  F   UNL A   1      41.652  27.670  26.351  1.00  0.00    -0.206 F 
ATOM     73  C   UNL A   1      40.624  25.591  25.994  1.00  0.00     0.040 A 
ATOM     74  C   UNL A   1      39.263  24.606  27.717  1.00  0.00     0.040 A 
ATOM     75  F   UNL A   1      38.924  25.740  29.741  1.00  0.00    -0.206 F 
ATOM     76  C   UNL A   1      39.823  24.544  26.443  1.00  0.00     0.006 A 
ENDBRANCH  55  69
BRANCH  56  77
ATOM     77  C   UNL A   1      41.629  34.565  34.223  1.00  0.00     0.057 A 
ATOM     78  C   UNL A   1      41.176  34.495  35.546  1.00  0.00     0.134 A 
ATOM     79  C   UNL A   1      42.257  35.750  33.819  1.00  0.00     0.134 A 
ATOM     80  F   UNL A   1      40.553  33.394  35.989  1.00  0.00    -0.206 F 
ATOM     81  C   UNL A   1      41.316  35.571  36.425  1.00  0.00     0.040 A 
ATOM     82  C   UNL A   1      42.430  36.822  34.696  1.00  0.00     0.040 A 
ATOM     83  F   UNL A   1      42.723  35.877  32.568  1.00  0.00    -0.206 F 
ATOM     84  C   UNL A   1      41.950  36.737  36.001  1.00  0.00     0.006 A 
ENDBRANCH  56  77
BRANCH  68  85
ATOM     85  C   UNL A   1      45.437  28.938  32.691  1.00  0.00     0.057 A 
ATOM     86  C   UNL A   1      45.573  28.072  33.784  1.00  0.00     0.134 A 
ATOM     87  C   UNL A   1      46.606  29.323  32.021  1.00  0.00     0.134 A 
ATOM     88  F   UNL A   1      44.495  27.676  34.477  1.00  0.00    -0.206 F 
ATOM     89  C   UNL A   1      46.827  27.629  34.211  1.00  0.00     0.040 A 
ATOM     90  C   UNL A   1      47.861  28.861  32.418  1.00  0.00     0.040 A 
ATOM     91  F   UNL A   1      46.546  30.141  30.960  1.00  0.00    -0.206 F 
ATOM     92  C   UNL A   1      47.975  28.017  33.522  1.00  0.00     0.006 A 
ENDBRANCH  68  85
ENDBRANCH  42  43
ENDBRANCH  34  37
ENDBRANCH  32  33
ENDBRANCH   1  32
TORSDOF 12
ENDMDL
MODEL 3
REMARK VINA RESULT:     -13.1      3.167      8.468
REMARK SMILES CN1C(=O)C[C@@H](C(=O)NCCCNC(=O)c2ccc(-c3c4nc(c(-c5c(F)cccc5F)c5ccc([nH]5)c(-c5c(F)cccc5F)c5nc(c(-c6c(F)cccc6F)c6ccc3[nH]6)C=C5)C=C4)cc2)C12CCN(C(=O)c1ccccc1-n1cccn1)CC2
REMARK SMILES IDX 11 1 10 2 9 3 7 4 8 5 6 7 1 8 2 9 3 10 70 11 4 12 5 13 71 14
REMARK SMILES IDX 88 15 72 16 87 17 73 18 74 19 75 20 76 21 77 22 81 23 78 24
REMARK SMILES IDX 80 25 79 26 82 27 83 28 86 29 84 30 85 31 12 32 13 33 14 34
REMARK SMILES IDX 15 36 16 37 17 38 69 39 18 40 68 41 19 42 20 43 21 44 62 45
REMARK SMILES IDX 22 46 67 47 61 48 63 49 23 50 66 51 60 52 59 53 24 55 50 56
REMARK SMILES IDX 33 57 49 58 34 59 37 60 48 61 64 62 35 63 36 64 47 66 65 67
REMARK SMILES IDX 38 68 25 69 26 70 31 71 27 72 28 73 30 74 32 75 29 76 51 77
REMARK SMILES IDX 52 78 57 79 53 80 54 81 56 82 58 83 55 84 39 85 40 86 45 87
REMARK SMILES IDX 41 88 42 89 44 90 46 91 43 92
REMARK H PARENT 9 6 13 35 63 54 37 65
REMARK Flexibility Score: inf
ROOT
ATOM      1  C   UNL A   1      31.037  31.566  26.059  1.00  0.00     0.042 C 
ENDROOT
BRANCH   1   2
ATOM      2  C   UNL A   1      31.169  30.200  25.384  1.00  0.00     0.117 C 
BRANCH   2   3
ATOM      3  N   UNL A   1      32.439  29.988  24.702  1.00  0.00    -0.356 N 
ATOM      4  C   UNL A   1      32.808  29.355  23.560  1.00  0.00     0.226 C 
ATOM      5  O   UNL A   1      34.007  29.436  23.264  1.00  0.00    -0.275 OA
ATOM      6  H   UNL A   1      33.200  30.395  25.175  1.00  0.00     0.163 HD
BRANCH   4   7
ATOM      7  C   UNL A   1      31.895  28.511  22.667  1.00  0.00     0.113 C 
ATOM      8  C   UNL A   1      29.451  26.428  24.573  1.00  0.00     0.147 C 
ATOM      9  N   UNL A   1      30.168  27.342  23.706  1.00  0.00    -0.339 N 
ATOM     10  C   UNL A   1      29.555  28.451  23.141  1.00  0.00     0.223 C 
ATOM     11  C   UNL A   1      31.524  27.102  23.182  1.00  0.00     0.058 C 
ATOM     12  O   UNL A   1      28.395  28.803  23.299  1.00  0.00    -0.275 OA
ATOM     13  C   UNL A   1      30.573  29.202  22.332  1.00  0.00     0.116 C 
ATOM     14  C   UNL A   1      32.523  26.556  24.226  1.00  0.00     0.051 C 
ATOM     15  C   UNL A   1      31.404  26.072  22.010  1.00  0.00     0.051 C 
ATOM     16  C   UNL A   1      33.839  26.097  23.611  1.00  0.00     0.122 C 
ATOM     17  C   UNL A   1      32.740  25.509  21.515  1.00  0.00     0.122 C 
ATOM     18  N   UNL A   1      33.556  25.057  22.634  1.00  0.00    -0.338 N 
ATOM     19  C   UNL A   1      33.967  23.727  22.716  1.00  0.00     0.256 C 
ATOM     20  O   UNL A   1      33.718  22.882  21.861  1.00  0.00    -0.269 OA
BRANCH  19  21
ATOM     21  C   UNL A   1      34.776  23.290  23.880  1.00  0.00     0.065 A 
ATOM     22  C   UNL A   1      36.158  23.177  23.655  1.00  0.00     0.016 A 
ATOM     23  C   UNL A   1      34.265  23.090  25.173  1.00  0.00     0.077 A 
ATOM     24  C   UNL A   1      37.027  22.911  24.714  1.00  0.00     0.001 A 
ATOM     25  C   UNL A   1      35.157  22.885  26.242  1.00  0.00     0.029 A 
ATOM     26  C   UNL A   1      36.529  22.784  26.008  1.00  0.00     0.002 A 
BRANCH  23  27
ATOM     27  N   UNL A   1      32.879  23.059  25.461  1.00  0.00    -0.240 N 
ATOM     28  C   UNL A   1      31.915  22.205  24.971  1.00  0.00     0.115 A 
ATOM     29  N   UNL A   1      32.343  23.943  26.347  1.00  0.00    -0.177 NA
ATOM     30  C   UNL A   1      30.722  22.564  25.551  1.00  0.00     0.042 A 
ATOM     31  C   UNL A   1      31.043  23.652  26.373  1.00  0.00     0.135 A 
ENDBRANCH  23  27
ENDBRANCH  19  21
ENDBRANCH   4   7
ENDBRANCH   2   3
ENDBRANCH   1   2
BRANCH   1  32
ATOM     32  C   UNL A   1      32.259  31.977  26.870  1.00  0.00     0.118 C 
BRANCH  32  33
ATOM     33  N   UNL A   1      32.202  33.381  27.247  1.00  0.00    -0.352 N 
ATOM     34  C   UNL A   1      32.972  34.089  28.137  1.00  0.00     0.251 C 
ATOM     35  H   UNL A   1      31.503  33.905  26.794  1.00  0.00     0.163 HD
ATOM     36  O   UNL A   1      32.578  35.180  28.539  1.00  0.00    -0.269 OA
BRANCH  34  37
ATOM     37  C   UNL A   1      34.265  33.553  28.616  1.00  0.00     0.039 A 
ATOM     38  C   UNL A   1      34.302  32.855  29.827  1.00  0.00     0.014 A 
ATOM     39  C   UNL A   1      35.449  33.779  27.908  1.00  0.00     0.014 A 
ATOM     40  C   UNL A   1      35.512  32.339  30.296  1.00  0.00     0.010 A 
ATOM     41  C   UNL A   1      36.636  33.189  28.331  1.00  0.00     0.010 A 
ATOM     42  C   UNL A   1      36.685  32.471  29.535  1.00  0.00    -0.014 A 
BRANCH  42  43
ATOM     43  C   UNL A   1      37.968  31.868  29.982  1.00  0.00     0.031 A 
ATOM     44  C   UNL A   1      38.860  32.604  30.944  1.00  0.00     0.074 A 
ATOM     45  C   UNL A   1      38.358  30.683  29.471  1.00  0.00     0.049 A 
ATOM     46  N   UNL A   1      40.043  32.271  31.395  1.00  0.00    -0.248 NA
ATOM     47  C   UNL A   1      38.371  33.899  31.445  1.00  0.00     0.031 C 
ATOM     48  C   UNL A   1      37.604  29.893  28.496  1.00  0.00     0.029 A 
ATOM     49  N   UNL A   1      39.489  29.941  29.695  1.00  0.00    -0.354 N 
ATOM     50  C   UNL A   1      40.443  33.316  32.219  1.00  0.00     0.074 A 
ATOM     51  C   UNL A   1      39.405  34.321  32.160  1.00  0.00     0.031 C 
ATOM     52  C   UNL A   1      38.280  28.766  28.225  1.00  0.00     0.029 A 
ATOM     53  C   UNL A   1      39.534  28.774  28.971  1.00  0.00     0.049 A 
ATOM     54  H   UNL A   1      40.201  30.218  30.315  1.00  0.00     0.167 HD
ATOM     55  C   UNL A   1      41.563  33.420  32.974  1.00  0.00     0.037 A 
ATOM     56  C   UNL A   1      40.485  27.822  28.905  1.00  0.00     0.037 A 
ATOM     57  C   UNL A   1      42.585  32.408  33.044  1.00  0.00     0.049 A 
ATOM     58  C   UNL A   1      41.727  27.969  29.740  1.00  0.00     0.074 A 
ATOM     59  C   UNL A   1      43.729  32.392  33.823  1.00  0.00     0.029 A 
ATOM     60  N   UNL A   1      42.589  31.236  32.303  1.00  0.00    -0.354 N 
ATOM     61  N   UNL A   1      42.059  28.930  30.567  1.00  0.00    -0.248 NA
ATOM     62  C   UNL A   1      42.725  26.896  29.636  1.00  0.00     0.031 C 
ATOM     63  C   UNL A   1      44.453  31.237  33.512  1.00  0.00     0.029 A 
ATOM     64  C   UNL A   1      43.729  30.502  32.585  1.00  0.00     0.049 A 
ATOM     65  H   UNL A   1      41.886  30.965  31.670  1.00  0.00     0.167 HD
ATOM     66  C   UNL A   1      43.285  28.564  31.106  1.00  0.00     0.074 A 
ATOM     67  C   UNL A   1      43.631  27.284  30.522  1.00  0.00     0.031 C 
ATOM     68  C   UNL A   1      44.057  29.226  32.002  1.00  0.00     0.037 A 
BRANCH  55  69
ATOM     69  C   UNL A   1      41.742  34.671  33.787  1.00  0.00     0.057 A 
ATOM     70  C   UNL A   1      41.261  34.778  35.099  1.00  0.00     0.134 A 
ATOM     71  C   UNL A   1      42.443  35.767  33.266  1.00  0.00     0.134 A 
ATOM     72  F   UNL A   1      40.573  33.770  35.656  1.00  0.00    -0.206 F 
ATOM     73  C   UNL A   1      41.446  35.939  35.853  1.00  0.00     0.040 A 
ATOM     74  C   UNL A   1      42.661  36.921  34.022  1.00  0.00     0.040 A 
ATOM     75  F   UNL A   1      42.938  35.732  32.021  1.00  0.00    -0.206 F 
ATOM     76  C   UNL A   1      42.155  37.012  35.317  1.00  0.00     0.006 A 
ENDBRANCH  55  69
BRANCH  56  77
ATOM     77  C   UNL A   1      40.296  26.638  28.027  1.00  0.00     0.057 A 
ATOM     78  C   UNL A   1      39.547  25.534  28.454  1.00  0.00     0.134 A 
ATOM     79  C   UNL A   1      40.866  26.574  26.750  1.00  0.00     0.134 A 
ATOM     80  F   UNL A   1      38.989  25.527  29.673  1.00  0.00    -0.206 F 
ATOM     81  C   UNL A   1      39.395  24.400  27.654  1.00  0.00     0.040 A 
ATOM     82  C   UNL A   1      40.698  25.458  25.928  1.00  0.00     0.040 A 
ATOM     83  F   UNL A   1      41.586  27.602  26.277  1.00  0.00    -0.206 F 
ATOM     84  C   UNL A   1      39.967  24.363  26.385  1.00  0.00     0.006 A 
ENDBRANCH  56  77
BRANCH  68  85
ATOM     85  C   UNL A   1      45.331  28.561  32.438  1.00  0.00     0.057 A 
ATOM     86  C   UNL A   1      46.565  28.855  31.844  1.00  0.00     0.134 A 
ATOM     87  C   UNL A   1      45.325  27.640  33.495  1.00  0.00     0.134 A 
ATOM     88  F   UNL A   1      46.638  29.718  30.820  1.00  0.00    -0.206 F 
ATOM     89  C   UNL A   1      47.743  28.236  32.267  1.00  0.00     0.040 A 
ATOM     90  C   UNL A   1      46.500  27.039  33.947  1.00  0.00     0.040 A 
ATOM     91  F   UNL A   1      44.180  27.320  34.115  1.00  0.00    -0.206 F 
ATOM     92  C   UNL A   1      47.714  27.331  33.327  1.00  0.00     0.006 A 
ENDBRANCH  68  85
ENDBRANCH  42  43
ENDBRANCH  34  37
ENDBRANCH  32  33
ENDBRANCH   1  32
TORSDOF 12
ENDMDL
