MODEL 1
REMARK VINA RESULT:     -12.2      0.000      0.000
REMARK SMILES Cc1ccccc1CCNc1ccc(C(=O)NCCCNC(=O)c2ccc(-c3c4nc(c(-c5c(F)cccc5F)c5ccc([nH]5)c(-c5c(F)cccc5F)c5nc(c(-c6c(F)cccc6F)c6ccc3[nH]6)C=C5)C=C4)cc2)cc1N
REMARK SMILES IDX 18 1 17 2 15 3 16 4 14 6 11 7 12 8 79 9 13 10 78 11 10 12
REMARK SMILES IDX 9 14 8 15 7 16 1 17 2 18 3 19 4 20 6 21 5 22 80 23 19 26
REMARK SMILES IDX 20 27 21 28 22 29 23 31 24 32 25 33 77 34 26 35 76 36 27 37
REMARK SMILES IDX 28 38 29 39 70 40 30 41 75 42 69 43 71 44 31 45 74 46 68 47
REMARK SMILES IDX 67 48 32 50 58 51 41 52 57 53 42 54 45 55 56 56 72 57 43 58
REMARK SMILES IDX 44 59 55 61 73 62 46 63 33 64 34 65 39 66 35 67 36 68 38 69
REMARK SMILES IDX 40 70 37 71 59 72 60 73 65 74 61 75 62 76 64 77 66 78 63 79
REMARK SMILES IDX 47 80 48 81 53 82 49 83 50 84 52 85 54 86 51 87
REMARK H PARENT 17 5 10 13 80 24 80 25 21 30 71 49 45 60
REMARK Flexibility Score: inf
ROOT
ATOM      1  C   UNL A   1      32.529  30.629  26.526  1.00  0.00     0.118 C 
ENDROOT
BRANCH   1   2
ATOM      2  N   UNL A   1      32.031  29.601  27.426  1.00  0.00    -0.352 N 
ATOM      3  C   UNL A   1      31.775  28.259  27.272  1.00  0.00     0.251 C 
ATOM      4  O   UNL A   1      31.396  27.658  28.282  1.00  0.00    -0.269 OA
ATOM      5  H   UNL A   1      31.838  29.934  28.333  1.00  0.00     0.163 HD
BRANCH   3   6
ATOM      6  C   UNL A   1      31.932  27.494  25.994  1.00  0.00     0.041 A 
ATOM      7  C   UNL A   1      32.044  25.987  23.586  1.00  0.00     0.057 A 
ATOM      8  C   UNL A   1      33.162  26.656  24.068  1.00  0.00     0.029 A 
ATOM      9  C   UNL A   1      30.847  26.061  24.329  1.00  0.00     0.056 A 
ATOM     10  C   UNL A   1      33.105  27.393  25.251  1.00  0.00     0.016 A 
ATOM     11  C   UNL A   1      30.794  26.838  25.497  1.00  0.00     0.041 A 
BRANCH   7  12
ATOM     12  N   UNL A   1      32.109  25.235  22.428  1.00  0.00    -0.383 N 
ATOM     13  H   UNL A   1      31.429  25.390  21.732  1.00  0.00     0.160 HD
BRANCH  12  14
ATOM     14  C   UNL A   1      33.132  24.228  22.184  1.00  0.00     0.117 C 
BRANCH  14  15
ATOM     15  C   UNL A   1      33.186  23.218  23.343  1.00  0.00     0.057 C 
BRANCH  15  16
ATOM     16  C   UNL A   1      34.505  23.260  24.091  1.00  0.00    -0.043 A 
ATOM     17  C   UNL A   1      33.443  23.781  26.378  1.00  0.00     0.044 C 
ATOM     18  C   UNL A   1      34.616  23.581  25.458  1.00  0.00    -0.048 A 
ATOM     19  C   UNL A   1      35.899  23.660  26.034  1.00  0.00     0.004 A 
ATOM     20  C   UNL A   1      37.051  23.449  25.277  1.00  0.00     0.000 A 
ATOM     21  C   UNL A   1      35.680  23.008  23.357  1.00  0.00     0.004 A 
ATOM     22  C   UNL A   1      36.940  23.117  23.935  1.00  0.00     0.000 A 
ENDBRANCH  15  16
ENDBRANCH  14  15
ENDBRANCH  12  14
ENDBRANCH   7  12
BRANCH   9  23
ATOM     23  N   UNL A   1      29.683  25.450  23.851  1.00  0.00    -0.397 N 
ATOM     24  H   UNL A   1      29.702  24.955  23.001  1.00  0.00     0.156 HD
ATOM     25  H   UNL A   1      28.847  25.516  24.365  1.00  0.00     0.156 HD
ENDBRANCH   9  23
ENDBRANCH   3   6
ENDBRANCH   1   2
BRANCH   1  26
ATOM     26  C   UNL A   1      33.566  31.527  27.206  1.00  0.00     0.042 C 
BRANCH  26  27
ATOM     27  C   UNL A   1      34.669  30.763  27.913  1.00  0.00     0.118 C 
BRANCH  27  28
ATOM     28  N   UNL A   1      35.595  31.620  28.650  1.00  0.00    -0.352 N 
ATOM     29  C   UNL A   1      36.863  31.301  29.111  1.00  0.00     0.251 C 
ATOM     30  H   UNL A   1      35.282  32.534  28.842  1.00  0.00     0.163 HD
ATOM     31  O   UNL A   1      37.556  32.115  29.691  1.00  0.00    -0.269 OA
BRANCH  29  32
ATOM     32  C   UNL A   1      37.388  29.963  28.760  1.00  0.00     0.039 A 
ATOM     33  C   UNL A   1      37.541  29.046  29.802  1.00  0.00     0.014 A 
ATOM     34  C   UNL A   1      38.021  29.780  27.532  1.00  0.00     0.014 A 
ATOM     35  C   UNL A   1      38.535  28.081  29.701  1.00  0.00     0.010 A 
ATOM     36  C   UNL A   1      39.066  28.878  27.467  1.00  0.00     0.010 A 
ATOM     37  C   UNL A   1      39.370  28.089  28.583  1.00  0.00    -0.014 A 
BRANCH  37  38
ATOM     38  C   UNL A   1      40.667  27.420  28.581  1.00  0.00     0.031 A 
ATOM     39  C   UNL A   1      40.763  25.971  28.327  1.00  0.00     0.074 A 
ATOM     40  C   UNL A   1      41.788  28.147  28.787  1.00  0.00     0.049 A 
ATOM     41  N   UNL A   1      41.718  25.213  28.752  1.00  0.00    -0.248 NA
ATOM     42  C   UNL A   1      39.732  25.246  27.599  1.00  0.00     0.031 C 
ATOM     43  C   UNL A   1      43.171  27.719  28.602  1.00  0.00     0.029 A 
ATOM     44  N   UNL A   1      41.889  29.391  29.431  1.00  0.00    -0.354 N 
ATOM     45  C   UNL A   1      41.583  23.986  28.143  1.00  0.00     0.074 A 
ATOM     46  C   UNL A   1      40.293  24.039  27.492  1.00  0.00     0.031 C 
ATOM     47  C   UNL A   1      43.967  28.499  29.351  1.00  0.00     0.029 A 
ATOM     48  C   UNL A   1      43.105  29.354  30.149  1.00  0.00     0.049 A 
ATOM     49  H   UNL A   1      41.246  30.135  29.391  1.00  0.00     0.167 HD
ATOM     50  C   UNL A   1      42.638  23.119  28.139  1.00  0.00     0.037 A 
ATOM     51  C   UNL A   1      43.136  29.442  31.509  1.00  0.00     0.037 A 
ATOM     52  C   UNL A   1      43.752  23.635  28.933  1.00  0.00     0.049 A 
ATOM     53  C   UNL A   1      43.780  28.258  32.189  1.00  0.00     0.074 A 
ATOM     54  C   UNL A   1      44.909  24.314  28.585  1.00  0.00     0.029 A 
ATOM     55  N   UNL A   1      43.625  23.758  30.313  1.00  0.00    -0.354 N 
ATOM     56  N   UNL A   1      43.949  27.097  31.620  1.00  0.00    -0.248 NA
ATOM     57  C   UNL A   1      44.235  28.274  33.578  1.00  0.00     0.031 C 
ATOM     58  C   UNL A   1      45.444  24.904  29.756  1.00  0.00     0.029 A 
ATOM     59  C   UNL A   1      44.623  24.570  30.819  1.00  0.00     0.049 A 
ATOM     60  H   UNL A   1      42.923  23.328  30.853  1.00  0.00     0.167 HD
ATOM     61  C   UNL A   1      44.468  26.218  32.533  1.00  0.00     0.074 A 
ATOM     62  C   UNL A   1      44.656  27.008  33.735  1.00  0.00     0.031 C 
ATOM     63  C   UNL A   1      44.678  24.903  32.233  1.00  0.00     0.037 A 
BRANCH  50  64
ATOM     64  C   UNL A   1      42.773  21.981  27.143  1.00  0.00     0.057 A 
ATOM     65  C   UNL A   1      41.987  20.817  27.261  1.00  0.00     0.134 A 
ATOM     66  C   UNL A   1      43.710  21.931  26.098  1.00  0.00     0.134 A 
ATOM     67  F   UNL A   1      40.951  20.745  28.107  1.00  0.00    -0.206 F 
ATOM     68  C   UNL A   1      42.220  19.655  26.511  1.00  0.00     0.040 A 
ATOM     69  C   UNL A   1      43.994  20.760  25.378  1.00  0.00     0.040 A 
ATOM     70  F   UNL A   1      44.351  23.029  25.679  1.00  0.00    -0.206 F 
ATOM     71  C   UNL A   1      43.260  19.605  25.599  1.00  0.00     0.006 A 
ENDBRANCH  50  64
BRANCH  51  72
ATOM     72  C   UNL A   1      42.019  30.232  32.088  1.00  0.00     0.057 A 
ATOM     73  C   UNL A   1      42.115  31.634  32.115  1.00  0.00     0.134 A 
ATOM     74  C   UNL A   1      40.754  29.677  32.299  1.00  0.00     0.134 A 
ATOM     75  F   UNL A   1      43.301  32.233  31.917  1.00  0.00    -0.206 F 
ATOM     76  C   UNL A   1      40.989  32.450  32.243  1.00  0.00     0.040 A 
ATOM     77  C   UNL A   1      39.619  30.485  32.438  1.00  0.00     0.040 A 
ATOM     78  F   UNL A   1      40.576  28.348  32.268  1.00  0.00    -0.206 F 
ATOM     79  C   UNL A   1      39.730  31.872  32.374  1.00  0.00     0.006 A 
ENDBRANCH  51  72
BRANCH  63  80
ATOM     80  C   UNL A   1      45.040  23.840  33.233  1.00  0.00     0.057 A 
ATOM     81  C   UNL A   1      46.307  23.725  33.825  1.00  0.00     0.134 A 
ATOM     82  C   UNL A   1      44.054  22.968  33.739  1.00  0.00     0.134 A 
ATOM     83  F   UNL A   1      47.303  24.565  33.513  1.00  0.00    -0.206 F 
ATOM     84  C   UNL A   1      46.590  22.767  34.806  1.00  0.00     0.040 A 
ATOM     85  C   UNL A   1      44.313  22.040  34.752  1.00  0.00     0.040 A 
ATOM     86  F   UNL A   1      42.793  22.995  33.282  1.00  0.00    -0.206 F 
ATOM     87  C   UNL A   1      45.591  21.926  35.279  1.00  0.00     0.006 A 
ENDBRANCH  63  80
ENDBRANCH  37  38
ENDBRANCH  29  32
ENDBRANCH  27  28
ENDBRANCH  26  27
ENDBRANCH   1  26
TORSDOF 15
ENDMDL
MODEL 2
REMARK VINA RESULT:     -11.9      1.632      2.376
REMARK SMILES Cc1ccccc1CCNc1ccc(C(=O)NCCCNC(=O)c2ccc(-c3c4nc(c(-c5c(F)cccc5F)c5ccc([nH]5)c(-c5c(F)cccc5F)c5nc(c(-c6c(F)cccc6F)c6ccc3[nH]6)C=C5)C=C4)cc2)cc1N
REMARK SMILES IDX 18 1 17 2 15 3 16 4 14 6 11 7 12 8 79 9 13 10 78 11 10 12
REMARK SMILES IDX 9 14 8 15 7 16 1 17 2 18 3 19 4 20 6 21 5 22 80 23 19 26
REMARK SMILES IDX 20 27 21 28 22 29 23 31 24 32 25 33 77 34 26 35 76 36 27 37
REMARK SMILES IDX 28 38 29 39 70 40 30 41 75 42 69 43 71 44 31 45 74 46 68 47
REMARK SMILES IDX 67 48 32 50 58 51 41 52 57 53 42 54 45 55 56 56 72 57 43 58
REMARK SMILES IDX 44 59 55 61 73 62 46 63 33 64 34 65 39 66 35 67 36 68 38 69
REMARK SMILES IDX 40 70 37 71 59 72 60 73 65 74 61 75 62 76 64 77 66 78 63 79
REMARK SMILES IDX 47 80 48 81 53 82 49 83 50 84 52 85 54 86 51 87
REMARK H PARENT 17 5 10 13 80 24 80 25 21 30 71 49 45 60
REMARK Flexibility Score: inf
ROOT
ATOM      1  C   UNL A   1      32.419  29.884  25.345  1.00  0.00     0.118 C 
ENDROOT
BRANCH   1   2
ATOM      2  N   UNL A   1      31.172  30.079  24.624  1.00  0.00    -0.352 N 
ATOM      3  C   UNL A   1      30.349  29.231  23.919  1.00  0.00     0.251 C 
ATOM      4  O   UNL A   1      29.317  29.729  23.464  1.00  0.00    -0.269 OA
ATOM      5  H   UNL A   1      30.849  31.009  24.644  1.00  0.00     0.163 HD
BRANCH   3   6
ATOM      6  C   UNL A   1      30.612  27.775  23.685  1.00  0.00     0.041 A 
ATOM      7  C   UNL A   1      31.175  25.060  23.060  1.00  0.00     0.057 A 
ATOM      8  C   UNL A   1      30.625  25.416  24.285  1.00  0.00     0.029 A 
ATOM      9  C   UNL A   1      31.436  26.079  22.121  1.00  0.00     0.056 A 
ATOM     10  C   UNL A   1      30.349  26.750  24.588  1.00  0.00     0.016 A 
ATOM     11  C   UNL A   1      31.189  27.419  22.455  1.00  0.00     0.041 A 
BRANCH   7  12
ATOM     12  N   UNL A   1      31.424  23.735  22.751  1.00  0.00    -0.383 N 
ATOM     13  H   UNL A   1      30.854  23.299  22.076  1.00  0.00     0.160 HD
BRANCH  12  14
ATOM     14  C   UNL A   1      32.485  22.954  23.371  1.00  0.00     0.117 C 
BRANCH  14  15
ATOM     15  C   UNL A   1      33.860  23.381  22.830  1.00  0.00     0.057 C 
BRANCH  15  16
ATOM     16  C   UNL A   1      34.951  23.300  23.881  1.00  0.00    -0.043 A 
ATOM     17  C   UNL A   1      34.236  25.451  25.105  1.00  0.00     0.044 C 
ATOM     18  C   UNL A   1      35.153  24.281  24.872  1.00  0.00    -0.048 A 
ATOM     19  C   UNL A   1      36.242  24.139  25.754  1.00  0.00     0.004 A 
ATOM     20  C   UNL A   1      37.128  23.067  25.649  1.00  0.00     0.000 A 
ATOM     21  C   UNL A   1      35.832  22.203  23.823  1.00  0.00     0.004 A 
ATOM     22  C   UNL A   1      36.919  22.094  24.684  1.00  0.00     0.000 A 
ENDBRANCH  15  16
ENDBRANCH  14  15
ENDBRANCH  12  14
ENDBRANCH   7  12
BRANCH   9  23
ATOM     23  N   UNL A   1      32.042  25.771  20.898  1.00  0.00    -0.397 N 
ATOM     24  H   UNL A   1      32.286  26.492  20.275  1.00  0.00     0.156 HD
ATOM     25  H   UNL A   1      32.222  24.833  20.661  1.00  0.00     0.156 HD
ENDBRANCH   9  23
ENDBRANCH   3   6
ENDBRANCH   1   2
BRANCH   1  26
ATOM     26  C   UNL A   1      32.492  30.756  26.602  1.00  0.00     0.042 C 
BRANCH  26  27
ATOM     27  C   UNL A   1      33.497  30.268  27.628  1.00  0.00     0.118 C 
BRANCH  27  28
ATOM     28  N   UNL A   1      34.145  31.348  28.370  1.00  0.00    -0.352 N 
ATOM     29  C   UNL A   1      35.402  31.339  28.956  1.00  0.00     0.251 C 
ATOM     30  H   UNL A   1      33.629  32.181  28.464  1.00  0.00     0.163 HD
ATOM     31  O   UNL A   1      35.848  32.316  29.526  1.00  0.00    -0.269 OA
BRANCH  29  32
ATOM     32  C   UNL A   1      36.229  30.129  28.753  1.00  0.00     0.039 A 
ATOM     33  C   UNL A   1      36.559  29.387  29.889  1.00  0.00     0.014 A 
ATOM     34  C   UNL A   1      36.920  29.969  27.554  1.00  0.00     0.014 A 
ATOM     35  C   UNL A   1      37.750  28.672  29.896  1.00  0.00     0.010 A 
ATOM     36  C   UNL A   1      38.146  29.332  27.589  1.00  0.00     0.010 A 
ATOM     37  C   UNL A   1      38.592  28.756  28.785  1.00  0.00    -0.014 A 
BRANCH  37  38
ATOM     38  C   UNL A   1      40.007  28.408  28.860  1.00  0.00     0.031 A 
ATOM     39  C   UNL A   1      40.477  27.080  28.423  1.00  0.00     0.074 A 
ATOM     40  C   UNL A   1      40.893  29.326  29.307  1.00  0.00     0.049 A 
ATOM     41  N   UNL A   1      41.544  26.500  28.860  1.00  0.00    -0.248 NA
ATOM     42  C   UNL A   1      39.726  26.270  27.475  1.00  0.00     0.031 C 
ATOM     43  C   UNL A   1      42.349  29.260  29.245  1.00  0.00     0.029 A 
ATOM     44  N   UNL A   1      40.626  30.437  30.123  1.00  0.00    -0.354 N 
ATOM     45  C   UNL A   1      41.770  25.391  28.075  1.00  0.00     0.074 A 
ATOM     46  C   UNL A   1      40.573  25.256  27.277  1.00  0.00     0.031 C 
ATOM     47  C   UNL A   1      42.858  30.066  30.191  1.00  0.00     0.029 A 
ATOM     48  C   UNL A   1      41.742  30.559  30.980  1.00  0.00     0.049 A 
ATOM     49  H   UNL A   1      39.828  31.012  30.103  1.00  0.00     0.167 HD
ATOM     50  C   UNL A   1      43.001  24.798  28.090  1.00  0.00     0.037 A 
ATOM     51  C   UNL A   1      41.624  30.428  32.333  1.00  0.00     0.037 A 
ATOM     52  C   UNL A   1      43.876  25.416  29.085  1.00  0.00     0.049 A 
ATOM     53  C   UNL A   1      42.472  29.326  32.921  1.00  0.00     0.074 A 
ATOM     54  C   UNL A   1      44.859  26.388  28.986  1.00  0.00     0.029 A 
ATOM     55  N   UNL A   1      43.595  25.279  30.440  1.00  0.00    -0.354 N 
ATOM     56  N   UNL A   1      42.971  28.343  32.224  1.00  0.00    -0.248 NA
ATOM     57  C   UNL A   1      42.777  29.216  34.346  1.00  0.00     0.031 C 
ATOM     58  C   UNL A   1      45.123  26.883  30.286  1.00  0.00     0.029 A 
ATOM     59  C   UNL A   1      44.313  26.201  31.178  1.00  0.00     0.049 A 
ATOM     60  H   UNL A   1      42.971  24.618  30.820  1.00  0.00     0.167 HD
ATOM     61  C   UNL A   1      43.601  27.466  33.067  1.00  0.00     0.074 A 
ATOM     62  C   UNL A   1      43.478  28.070  34.381  1.00  0.00     0.031 C 
ATOM     63  C   UNL A   1      44.153  26.301  32.619  1.00  0.00     0.037 A 
BRANCH  50  64
ATOM     64  C   UNL A   1      43.501  23.900  26.972  1.00  0.00     0.057 A 
ATOM     65  C   UNL A   1      44.151  24.442  25.844  1.00  0.00     0.134 A 
ATOM     66  C   UNL A   1      43.304  22.512  26.903  1.00  0.00     0.134 A 
ATOM     67  F   UNL A   1      44.547  25.721  25.801  1.00  0.00    -0.206 F 
ATOM     68  C   UNL A   1      44.435  23.696  24.691  1.00  0.00     0.040 A 
ATOM     69  C   UNL A   1      43.529  21.762  25.737  1.00  0.00     0.040 A 
ATOM     70  F   UNL A   1      42.944  21.801  27.979  1.00  0.00    -0.206 F 
ATOM     71  C   UNL A   1      44.078  22.361  24.614  1.00  0.00     0.006 A 
ENDBRANCH  50  64
BRANCH  51  72
ATOM     72  C   UNL A   1      40.299  30.837  32.865  1.00  0.00     0.057 A 
ATOM     73  C   UNL A   1      39.335  29.850  33.131  1.00  0.00     0.134 A 
ATOM     74  C   UNL A   1      40.086  32.101  33.422  1.00  0.00     0.134 A 
ATOM     75  F   UNL A   1      39.480  28.613  32.630  1.00  0.00    -0.206 F 
ATOM     76  C   UNL A   1      38.261  30.078  33.995  1.00  0.00     0.040 A 
ATOM     77  C   UNL A   1      39.008  32.345  34.282  1.00  0.00     0.040 A 
ATOM     78  F   UNL A   1      40.971  33.090  33.232  1.00  0.00    -0.206 F 
ATOM     79  C   UNL A   1      38.114  31.323  34.597  1.00  0.00     0.006 A 
ENDBRANCH  51  72
BRANCH  63  80
ATOM     80  C   UNL A   1      44.669  25.199  33.502  1.00  0.00     0.057 A 
ATOM     81  C   UNL A   1      46.023  24.844  33.598  1.00  0.00     0.134 A 
ATOM     82  C   UNL A   1      43.806  24.541  34.404  1.00  0.00     0.134 A 
ATOM     83  F   UNL A   1      46.962  25.471  32.875  1.00  0.00    -0.206 F 
ATOM     84  C   UNL A   1      46.478  23.860  34.483  1.00  0.00     0.040 A 
ATOM     85  C   UNL A   1      44.257  23.591  35.325  1.00  0.00     0.040 A 
ATOM     86  F   UNL A   1      42.492  24.810  34.439  1.00  0.00    -0.206 F 
ATOM     87  C   UNL A   1      45.597  23.235  35.356  1.00  0.00     0.006 A 
ENDBRANCH  63  80
ENDBRANCH  37  38
ENDBRANCH  29  32
ENDBRANCH  27  28
ENDBRANCH  26  27
ENDBRANCH   1  26
TORSDOF 15
ENDMDL
MODEL 3
REMARK VINA RESULT:     -11.8      3.853      9.363
REMARK SMILES Cc1ccccc1CCNc1ccc(C(=O)NCCCNC(=O)c2ccc(-c3c4nc(c(-c5c(F)cccc5F)c5ccc([nH]5)c(-c5c(F)cccc5F)c5nc(c(-c6c(F)cccc6F)c6ccc3[nH]6)C=C5)C=C4)cc2)cc1N
REMARK SMILES IDX 18 1 17 2 15 3 16 4 14 6 11 7 12 8 79 9 13 10 78 11 10 12
REMARK SMILES IDX 9 14 8 15 7 16 1 17 2 18 3 19 4 20 6 21 5 22 80 23 19 26
REMARK SMILES IDX 20 27 21 28 22 29 23 31 24 32 25 33 77 34 26 35 76 36 27 37
REMARK SMILES IDX 28 38 29 39 70 40 30 41 75 42 69 43 71 44 31 45 74 46 68 47
REMARK SMILES IDX 67 48 32 50 58 51 41 52 57 53 42 54 45 55 56 56 72 57 43 58
REMARK SMILES IDX 44 59 55 61 73 62 46 63 33 64 34 65 39 66 35 67 36 68 38 69
REMARK SMILES IDX 40 70 37 71 59 72 60 73 65 74 61 75 62 76 64 77 66 78 63 79
REMARK SMILES IDX 47 80 48 81 53 82 49 83 50 84 52 85 54 86 51 87
REMARK H PARENT 17 5 10 13 80 24 80 25 21 30 71 49 45 60
REMARK Flexibility Score: inf
ROOT
ATOM      1  C   UNL A   1      37.103  21.542  25.103  1.00  0.00     0.118 C 
ENDROOT
BRANCH   1   2
ATOM      2  N   UNL A   1      36.116  21.245  26.128  1.00  0.00    -0.352 N 
ATOM      3  C   UNL A   1      34.860  21.737  26.397  1.00  0.00     0.251 C 
ATOM      4  O   UNL A   1      34.260  21.212  27.339  1.00  0.00    -0.269 OA
ATOM      5  H   UNL A   1      36.404  20.546  26.759  1.00  0.00     0.163 HD
BRANCH   3   6
ATOM      6  C   UNL A   1      34.184  22.834  25.633  1.00  0.00     0.041 A 
ATOM      7  C   UNL A   1      32.820  24.778  24.070  1.00  0.00     0.057 A 
ATOM      8  C   UNL A   1      33.663  25.153  25.109  1.00  0.00     0.029 A 
ATOM      9  C   UNL A   1      32.665  23.403  23.797  1.00  0.00     0.056 A 
ATOM     10  C   UNL A   1      34.332  24.197  25.874  1.00  0.00     0.016 A 
ATOM     11  C   UNL A   1      33.314  22.452  24.599  1.00  0.00     0.041 A 
BRANCH   7  12
ATOM     12  N   UNL A   1      32.178  25.727  23.297  1.00  0.00    -0.383 N 
ATOM     13  H   UNL A   1      32.618  26.030  22.469  1.00  0.00     0.160 HD
BRANCH  12  14
ATOM     14  C   UNL A   1      30.886  26.302  23.643  1.00  0.00     0.117 C 
BRANCH  14  15
ATOM     15  C   UNL A   1      31.004  27.824  23.839  1.00  0.00     0.057 C 
BRANCH  15  16
ATOM     16  C   UNL A   1      31.938  28.195  24.975  1.00  0.00    -0.043 A 
ATOM     17  C   UNL A   1      33.842  29.001  23.438  1.00  0.00     0.044 C 
ATOM     18  C   UNL A   1      33.252  28.669  24.782  1.00  0.00    -0.048 A 
ATOM     19  C   UNL A   1      34.056  28.915  25.911  1.00  0.00     0.004 A 
ATOM     20  C   UNL A   1      33.588  28.680  27.203  1.00  0.00     0.000 A 
ATOM     21  C   UNL A   1      31.473  28.007  26.290  1.00  0.00     0.004 A 
ATOM     22  C   UNL A   1      32.290  28.229  27.393  1.00  0.00     0.000 A 
ENDBRANCH  15  16
ENDBRANCH  14  15
ENDBRANCH  12  14
ENDBRANCH   7  12
BRANCH   9  23
ATOM     23  N   UNL A   1      31.783  22.979  22.797  1.00  0.00    -0.397 N 
ATOM     24  H   UNL A   1      31.776  23.433  21.924  1.00  0.00     0.156 HD
ATOM     25  H   UNL A   1      31.170  22.229  22.968  1.00  0.00     0.156 HD
ENDBRANCH   9  23
ENDBRANCH   3   6
ENDBRANCH   1   2
BRANCH   1  26
ATOM     26  C   UNL A   1      38.514  21.657  25.688  1.00  0.00     0.042 C 
BRANCH  26  27
ATOM     27  C   UNL A   1      38.901  23.069  26.082  1.00  0.00     0.118 C 
BRANCH  27  28
ATOM     28  N   UNL A   1      40.290  23.194  26.519  1.00  0.00    -0.352 N 
ATOM     29  C   UNL A   1      40.936  24.333  26.975  1.00  0.00     0.251 C 
ATOM     30  H   UNL A   1      40.831  22.371  26.488  1.00  0.00     0.163 HD
ATOM     31  O   UNL A   1      42.096  24.305  27.342  1.00  0.00    -0.269 OA
BRANCH  29  32
ATOM     32  C   UNL A   1      40.120  25.559  27.113  1.00  0.00     0.039 A 
ATOM     33  C   UNL A   1      40.568  26.699  26.442  1.00  0.00     0.014 A 
ATOM     34  C   UNL A   1      39.181  25.641  28.140  1.00  0.00     0.014 A 
ATOM     35  C   UNL A   1      40.267  27.946  26.974  1.00  0.00     0.010 A 
ATOM     36  C   UNL A   1      38.956  26.875  28.718  1.00  0.00     0.010 A 
ATOM     37  C   UNL A   1      39.567  28.014  28.179  1.00  0.00    -0.014 A 
BRANCH  37  38
ATOM     38  C   UNL A   1      39.576  29.212  29.013  1.00  0.00     0.031 A 
ATOM     39  C   UNL A   1      38.555  30.260  28.831  1.00  0.00     0.074 A 
ATOM     40  C   UNL A   1      40.515  29.341  29.978  1.00  0.00     0.049 A 
ATOM     41  N   UNL A   1      38.719  31.504  29.134  1.00  0.00    -0.248 NA
ATOM     42  C   UNL A   1      37.261  29.979  28.228  1.00  0.00     0.031 C 
ATOM     43  C   UNL A   1      40.558  30.333  31.047  1.00  0.00     0.029 A 
ATOM     44  N   UNL A   1      41.763  28.701  30.040  1.00  0.00    -0.354 N 
ATOM     45  C   UNL A   1      37.494  32.126  29.030  1.00  0.00     0.074 A 
ATOM     46  C   UNL A   1      36.639  31.149  28.395  1.00  0.00     0.031 C 
ATOM     47  C   UNL A   1      41.827  30.455  31.469  1.00  0.00     0.029 A 
ATOM     48  C   UNL A   1      42.654  29.652  30.584  1.00  0.00     0.049 A 
ATOM     49  H   UNL A   1      41.974  27.780  29.764  1.00  0.00     0.167 HD
ATOM     50  C   UNL A   1      37.308  33.343  29.620  1.00  0.00     0.037 A 
ATOM     51  C   UNL A   1      43.722  30.119  29.876  1.00  0.00     0.037 A 
ATOM     52  C   UNL A   1      38.553  33.852  30.194  1.00  0.00     0.049 A 
ATOM     53  C   UNL A   1      43.722  31.616  29.678  1.00  0.00     0.074 A 
ATOM     54  C   UNL A   1      39.066  33.825  31.482  1.00  0.00     0.029 A 
ATOM     55  N   UNL A   1      39.606  34.215  29.361  1.00  0.00    -0.354 N 
ATOM     56  N   UNL A   1      42.662  32.366  29.807  1.00  0.00    -0.248 NA
ATOM     57  C   UNL A   1      44.901  32.375  29.266  1.00  0.00     0.031 C 
ATOM     58  C   UNL A   1      40.450  34.111  31.412  1.00  0.00     0.029 A 
ATOM     59  C   UNL A   1      40.778  34.329  30.086  1.00  0.00     0.049 A 
ATOM     60  H   UNL A   1      39.528  34.370  28.392  1.00  0.00     0.167 HD
ATOM     61  C   UNL A   1      42.977  33.654  29.463  1.00  0.00     0.074 A 
ATOM     62  C   UNL A   1      44.395  33.616  29.160  1.00  0.00     0.031 C 
ATOM     63  C   UNL A   1      42.038  34.645  29.433  1.00  0.00     0.037 A 
BRANCH  50  64
ATOM     64  C   UNL A   1      35.936  33.895  29.968  1.00  0.00     0.057 A 
ATOM     65  C   UNL A   1      35.075  34.379  28.963  1.00  0.00     0.134 A 
ATOM     66  C   UNL A   1      35.438  34.054  31.271  1.00  0.00     0.134 A 
ATOM     67  F   UNL A   1      35.324  34.182  27.661  1.00  0.00    -0.206 F 
ATOM     68  C   UNL A   1      33.901  35.095  29.239  1.00  0.00     0.040 A 
ATOM     69  C   UNL A   1      34.296  34.816  31.567  1.00  0.00     0.040 A 
ATOM     70  F   UNL A   1      35.993  33.427  32.315  1.00  0.00    -0.206 F 
ATOM     71  C   UNL A   1      33.533  35.360  30.547  1.00  0.00     0.006 A 
ENDBRANCH  50  64
BRANCH  51  72
ATOM     72  C   UNL A   1      44.268  29.147  28.896  1.00  0.00     0.057 A 
ATOM     73  C   UNL A   1      43.875  29.241  27.549  1.00  0.00     0.134 A 
ATOM     74  C   UNL A   1      45.393  28.367  29.177  1.00  0.00     0.134 A 
ATOM     75  F   UNL A   1      42.805  29.976  27.208  1.00  0.00    -0.206 F 
ATOM     76  C   UNL A   1      44.625  28.669  26.519  1.00  0.00     0.040 A 
ATOM     77  C   UNL A   1      46.148  27.782  28.154  1.00  0.00     0.040 A 
ATOM     78  F   UNL A   1      45.843  28.246  30.434  1.00  0.00    -0.206 F 
ATOM     79  C   UNL A   1      45.784  27.962  26.820  1.00  0.00     0.006 A 
ENDBRANCH  51  72
BRANCH  63  80
ATOM     80  C   UNL A   1      42.258  36.021  28.869  1.00  0.00     0.057 A 
ATOM     81  C   UNL A   1      42.972  37.031  29.530  1.00  0.00     0.134 A 
ATOM     82  C   UNL A   1      41.862  36.325  27.550  1.00  0.00     0.134 A 
ATOM     83  F   UNL A   1      43.499  36.832  30.747  1.00  0.00    -0.206 F 
ATOM     84  C   UNL A   1      43.219  38.279  28.946  1.00  0.00     0.040 A 
ATOM     85  C   UNL A   1      42.145  37.550  26.938  1.00  0.00     0.040 A 
ATOM     86  F   UNL A   1      41.200  35.435  26.794  1.00  0.00    -0.206 F 
ATOM     87  C   UNL A   1      42.813  38.540  27.643  1.00  0.00     0.006 A 
ENDBRANCH  63  80
ENDBRANCH  37  38
ENDBRANCH  29  32
ENDBRANCH  27  28
ENDBRANCH  26  27
ENDBRANCH   1  26
TORSDOF 15
ENDMDL
