MODEL 1
REMARK VINA RESULT:     -12.5      0.000      0.000
REMARK SMILES O=C(NCCCNC(=O)[C@@H]1[C@@H](C(=O)NCc2ccccc2OCc2ccccc2)[C@@H]2C=C[C@H]1C2)c1ccc(-c2c3nc(c(-c4c(F)cccc4F)c4ccc([nH]4)c(-c4c(F)cccc4F)c4nc(c(-c5c(F)cccc5F)c5ccc2[nH]5)C=C4)C=C3)cc1
REMARK SMILES IDX 7 1 8 2 9 3 6 5 5 6 4 7 3 8 1 9 2 10 35 12 36 13 88 14 37 15
REMARK SMILES IDX 87 16 38 17 39 18 40 19 81 20 41 21 86 22 80 23 82 24 42 25
REMARK SMILES IDX 85 26 79 27 78 28 43 30 69 31 52 32 68 33 53 34 56 35 67 36
REMARK SMILES IDX 83 37 54 38 55 39 66 41 84 42 57 43 44 44 45 45 50 46 46 47
REMARK SMILES IDX 47 48 49 49 51 50 48 51 70 52 71 53 76 54 72 55 73 56 75 57
REMARK SMILES IDX 77 58 74 59 58 60 59 61 64 62 60 63 61 64 63 65 65 66 62 67
REMARK SMILES IDX 10 68 11 69 33 70 30 71 32 72 34 73 31 74 12 75 13 76 14 77
REMARK SMILES IDX 15 79 16 80 17 81 21 82 18 83 20 84 19 85 22 86 23 87 24 88
REMARK SMILES IDX 25 89 29 90 26 91 28 92 27 93
REMARK H PARENT 7 4 3 11 82 29 56 40 14 78
REMARK Flexibility Score: inf
ROOT
ATOM      1  N   UNL A   1      36.517  21.815  25.553  1.00  0.00    -0.356 N 
ATOM      2  C   UNL A   1      35.327  22.470  25.611  1.00  0.00     0.224 C 
ATOM      3  O   UNL A   1      34.986  22.856  26.735  1.00  0.00    -0.275 OA
ATOM      4  H   UNL A   1      36.938  21.698  26.435  1.00  0.00     0.163 HD
ENDROOT
BRANCH   1   5
ATOM      5  C   UNL A   1      37.300  21.250  24.467  1.00  0.00     0.117 C 
BRANCH   5   6
ATOM      6  C   UNL A   1      37.964  19.941  24.852  1.00  0.00     0.042 C 
BRANCH   6   7
ATOM      7  C   UNL A   1      38.957  20.102  25.982  1.00  0.00     0.118 C 
BRANCH   7   8
ATOM      8  N   UNL A   1      40.136  19.266  25.815  1.00  0.00    -0.352 N 
ATOM      9  O   UNL A   1      42.335  18.813  25.618  1.00  0.00    -0.269 OA
ATOM     10  C   UNL A   1      41.468  19.595  25.968  1.00  0.00     0.251 C 
ATOM     11  H   UNL A   1      39.960  18.334  25.556  1.00  0.00     0.163 HD
BRANCH  10  12
ATOM     12  C   UNL A   1      41.834  20.914  26.538  1.00  0.00     0.039 A 
ATOM     13  C   UNL A   1      41.824  21.117  27.917  1.00  0.00     0.014 A 
ATOM     14  C   UNL A   1      42.184  21.964  25.683  1.00  0.00     0.014 A 
ATOM     15  C   UNL A   1      41.962  22.397  28.427  1.00  0.00     0.010 A 
ATOM     16  C   UNL A   1      42.469  23.227  26.214  1.00  0.00     0.010 A 
ATOM     17  C   UNL A   1      42.331  23.461  27.589  1.00  0.00    -0.014 A 
BRANCH  17  18
ATOM     18  C   UNL A   1      42.659  24.765  28.221  1.00  0.00     0.031 A 
ATOM     19  C   UNL A   1      44.065  25.133  28.597  1.00  0.00     0.074 A 
ATOM     20  C   UNL A   1      41.655  25.651  28.390  1.00  0.00     0.049 A 
ATOM     21  N   UNL A   1      44.510  26.256  29.103  1.00  0.00    -0.248 NA
ATOM     22  C   UNL A   1      45.107  24.116  28.390  1.00  0.00     0.031 C 
ATOM     23  C   UNL A   1      40.243  25.390  28.082  1.00  0.00     0.029 A 
ATOM     24  N   UNL A   1      41.662  26.951  28.819  1.00  0.00    -0.354 N 
ATOM     25  C   UNL A   1      45.875  26.079  29.288  1.00  0.00     0.074 A 
ATOM     26  C   UNL A   1      46.183  24.729  28.868  1.00  0.00     0.031 C 
ATOM     27  C   UNL A   1      39.538  26.514  28.256  1.00  0.00     0.029 A 
ATOM     28  C   UNL A   1      40.426  27.548  28.770  1.00  0.00     0.049 A 
ATOM     29  H   UNL A   1      42.474  27.413  29.131  1.00  0.00     0.167 HD
ATOM     30  C   UNL A   1      46.785  26.968  29.756  1.00  0.00     0.037 A 
ATOM     31  C   UNL A   1      40.038  28.788  29.116  1.00  0.00     0.037 A 
ATOM     32  C   UNL A   1      46.468  28.314  30.166  1.00  0.00     0.049 A 
ATOM     33  C   UNL A   1      41.067  29.744  29.636  1.00  0.00     0.074 A 
ATOM     34  C   UNL A   1      47.319  29.289  30.656  1.00  0.00     0.029 A 
ATOM     35  N   UNL A   1      45.199  28.874  30.128  1.00  0.00    -0.354 N 
ATOM     36  N   UNL A   1      42.355  29.561  29.797  1.00  0.00    -0.248 NA
ATOM     37  C   UNL A   1      40.591  31.076  30.029  1.00  0.00     0.031 C 
ATOM     38  C   UNL A   1      46.559  30.429  30.949  1.00  0.00     0.029 A 
ATOM     39  C   UNL A   1      45.242  30.178  30.597  1.00  0.00     0.049 A 
ATOM     40  H   UNL A   1      44.387  28.413  29.816  1.00  0.00     0.167 HD
ATOM     41  C   UNL A   1      42.846  30.754  30.306  1.00  0.00     0.074 A 
ATOM     42  C   UNL A   1      41.721  31.665  30.390  1.00  0.00     0.031 C 
ATOM     43  C   UNL A   1      44.110  31.065  30.679  1.00  0.00     0.037 A 
BRANCH  30  44
ATOM     44  C   UNL A   1      48.212  26.513  29.860  1.00  0.00     0.057 A 
ATOM     45  C   UNL A   1      48.690  25.834  30.989  1.00  0.00     0.134 A 
ATOM     46  C   UNL A   1      49.107  26.708  28.799  1.00  0.00     0.134 A 
ATOM     47  F   UNL A   1      47.890  25.623  32.044  1.00  0.00    -0.206 F 
ATOM     48  C   UNL A   1      50.009  25.379  31.064  1.00  0.00     0.040 A 
ATOM     49  C   UNL A   1      50.420  26.237  28.854  1.00  0.00     0.040 A 
ATOM     50  F   UNL A   1      48.714  27.345  27.686  1.00  0.00    -0.206 F 
ATOM     51  C   UNL A   1      50.875  25.573  29.991  1.00  0.00     0.006 A 
ENDBRANCH  30  44
BRANCH  31  52
ATOM     52  C   UNL A   1      38.610  29.176  29.003  1.00  0.00     0.057 A 
ATOM     53  C   UNL A   1      38.069  29.624  27.794  1.00  0.00     0.134 A 
ATOM     54  C   UNL A   1      37.749  29.097  30.106  1.00  0.00     0.134 A 
ATOM     55  F   UNL A   1      38.845  29.735  26.706  1.00  0.00    -0.206 F 
ATOM     56  C   UNL A   1      36.728  29.999  27.689  1.00  0.00     0.040 A 
ATOM     57  C   UNL A   1      36.400  29.436  30.007  1.00  0.00     0.040 A 
ATOM     58  F   UNL A   1      38.203  28.661  31.290  1.00  0.00    -0.206 F 
ATOM     59  C   UNL A   1      35.888  29.898  28.797  1.00  0.00     0.006 A 
ENDBRANCH  31  52
BRANCH  43  60
ATOM     60  C   UNL A   1      44.333  32.455  31.195  1.00  0.00     0.057 A 
ATOM     61  C   UNL A   1      44.690  33.508  30.342  1.00  0.00     0.134 A 
ATOM     62  C   UNL A   1      44.192  32.742  32.557  1.00  0.00     0.134 A 
ATOM     63  F   UNL A   1      44.858  33.292  29.029  1.00  0.00    -0.206 F 
ATOM     64  C   UNL A   1      44.931  34.792  30.832  1.00  0.00     0.040 A 
ATOM     65  C   UNL A   1      44.404  34.029  33.056  1.00  0.00     0.040 A 
ATOM     66  F   UNL A   1      43.847  31.779  33.426  1.00  0.00    -0.206 F 
ATOM     67  C   UNL A   1      44.785  35.055  32.193  1.00  0.00     0.006 A 
ENDBRANCH  43  60
ENDBRANCH  17  18
ENDBRANCH  10  12
ENDBRANCH   7   8
ENDBRANCH   6   7
ENDBRANCH   5   6
ENDBRANCH   1   5
BRANCH   2  68
ATOM     68  C   UNL A   1      34.369  22.593  24.431  1.00  0.00     0.098 C 
ATOM     69  C   UNL A   1      33.221  23.619  24.497  1.00  0.00     0.098 C 
ATOM     70  C   UNL A   1      33.623  21.256  24.148  1.00  0.00     0.025 C 
ATOM     71  C   UNL A   1      31.959  22.730  24.245  1.00  0.00     0.025 C 
ATOM     72  C   UNL A   1      32.779  20.892  25.346  1.00  0.00    -0.027 C 
ATOM     73  C   UNL A   1      32.507  21.736  23.216  1.00  0.00     0.017 C 
ATOM     74  C   UNL A   1      31.786  21.790  25.416  1.00  0.00    -0.027 C 
BRANCH  69  75
ATOM     75  C   UNL A   1      33.217  24.729  23.455  1.00  0.00     0.224 C 
ATOM     76  O   UNL A   1      34.177  24.808  22.676  1.00  0.00    -0.275 OA
ATOM     77  N   UNL A   1      32.229  25.625  23.252  1.00  0.00    -0.352 N 
ATOM     78  H   UNL A   1      32.530  26.349  22.655  1.00  0.00     0.163 HD
BRANCH  77  79
ATOM     79  C   UNL A   1      30.846  25.831  23.663  1.00  0.00     0.155 C 
BRANCH  79  80
ATOM     80  C   UNL A   1      30.307  27.179  23.253  1.00  0.00     0.013 A 
ATOM     81  C   UNL A   1      28.916  27.365  23.464  1.00  0.00     0.009 A 
ATOM     82  C   UNL A   1      31.018  28.229  22.654  1.00  0.00     0.124 A 
ATOM     83  C   UNL A   1      28.243  28.521  23.077  1.00  0.00     0.001 A 
ATOM     84  C   UNL A   1      30.314  29.383  22.249  1.00  0.00     0.047 A 
ATOM     85  C   UNL A   1      28.945  29.535  22.459  1.00  0.00     0.004 A 
BRANCH  82  86
ATOM     86  O   UNL A   1      32.339  28.378  22.355  1.00  0.00    -0.489 OA
BRANCH  86  87
ATOM     87  C   UNL A   1      33.323  28.993  23.176  1.00  0.00     0.265 C 
BRANCH  87  88
ATOM     88  C   UNL A   1      33.103  28.976  24.672  1.00  0.00    -0.011 A 
ATOM     89  C   UNL A   1      32.231  29.858  25.327  1.00  0.00     0.007 A 
ATOM     90  C   UNL A   1      33.764  27.995  25.432  1.00  0.00     0.007 A 
ATOM     91  C   UNL A   1      31.933  29.684  26.680  1.00  0.00     0.000 A 
ATOM     92  C   UNL A   1      33.483  27.837  26.789  1.00  0.00     0.000 A 
ATOM     93  C   UNL A   1      32.548  28.665  27.406  1.00  0.00     0.000 A 
ENDBRANCH  87  88
ENDBRANCH  86  87
ENDBRANCH  82  86
ENDBRANCH  79  80
ENDBRANCH  77  79
ENDBRANCH  69  75
ENDBRANCH   2  68
TORSDOF 16
ENDMDL
MODEL 2
REMARK VINA RESULT:     -12.5      4.032      9.465
REMARK SMILES O=C(NCCCNC(=O)[C@@H]1[C@@H](C(=O)NCc2ccccc2OCc2ccccc2)[C@@H]2C=C[C@H]1C2)c1ccc(-c2c3nc(c(-c4c(F)cccc4F)c4ccc([nH]4)c(-c4c(F)cccc4F)c4nc(c(-c5c(F)cccc5F)c5ccc2[nH]5)C=C4)C=C3)cc1
REMARK SMILES IDX 7 1 8 2 9 3 6 5 5 6 4 7 3 8 1 9 2 10 35 12 36 13 88 14 37 15
REMARK SMILES IDX 87 16 38 17 39 18 40 19 81 20 41 21 86 22 80 23 82 24 42 25
REMARK SMILES IDX 85 26 79 27 78 28 43 30 69 31 52 32 68 33 53 34 56 35 67 36
REMARK SMILES IDX 83 37 54 38 55 39 66 41 84 42 57 43 44 44 45 45 50 46 46 47
REMARK SMILES IDX 47 48 49 49 51 50 48 51 70 52 71 53 76 54 72 55 73 56 75 57
REMARK SMILES IDX 77 58 74 59 58 60 59 61 64 62 60 63 61 64 63 65 65 66 62 67
REMARK SMILES IDX 10 68 11 69 33 70 30 71 32 72 34 73 31 74 12 75 13 76 14 77
REMARK SMILES IDX 15 79 16 80 17 81 21 82 18 83 20 84 19 85 22 86 23 87 24 88
REMARK SMILES IDX 25 89 29 90 26 91 28 92 27 93
REMARK H PARENT 7 4 3 11 82 29 56 40 14 78
REMARK Flexibility Score: inf
ROOT
ATOM      1  N   UNL A   1      32.547  29.801  26.288  1.00  0.00    -0.356 N 
ATOM      2  C   UNL A   1      32.855  28.482  26.391  1.00  0.00     0.224 C 
ATOM      3  O   UNL A   1      33.927  28.226  26.950  1.00  0.00    -0.275 OA
ATOM      4  H   UNL A   1      33.249  30.392  26.644  1.00  0.00     0.163 HD
ENDROOT
BRANCH   1   5
ATOM      5  C   UNL A   1      31.401  30.528  25.765  1.00  0.00     0.117 C 
BRANCH   5   6
ATOM      6  C   UNL A   1      31.204  31.867  26.450  1.00  0.00     0.042 C 
BRANCH   6   7
ATOM      7  C   UNL A   1      32.503  32.469  26.939  1.00  0.00     0.118 C 
BRANCH   7   8
ATOM      8  N   UNL A   1      32.337  33.817  27.458  1.00  0.00    -0.352 N 
ATOM      9  O   UNL A   1      32.659  35.540  28.875  1.00  0.00    -0.269 OA
ATOM     10  C   UNL A   1      33.048  34.467  28.446  1.00  0.00     0.251 C 
ATOM     11  H   UNL A   1      31.613  34.342  27.046  1.00  0.00     0.163 HD
BRANCH  10  12
ATOM     12  C   UNL A   1      34.273  33.839  28.998  1.00  0.00     0.039 A 
ATOM     13  C   UNL A   1      34.186  32.698  29.793  1.00  0.00     0.014 A 
ATOM     14  C   UNL A   1      35.523  34.403  28.723  1.00  0.00     0.014 A 
ATOM     15  C   UNL A   1      35.305  32.244  30.471  1.00  0.00     0.010 A 
ATOM     16  C   UNL A   1      36.675  33.850  29.294  1.00  0.00     0.010 A 
ATOM     17  C   UNL A   1      36.572  32.783  30.197  1.00  0.00    -0.014 A 
BRANCH  17  18
ATOM     18  C   UNL A   1      37.756  32.123  30.804  1.00  0.00     0.031 A 
ATOM     19  C   UNL A   1      38.196  32.417  32.209  1.00  0.00     0.074 A 
ATOM     20  C   UNL A   1      38.398  31.189  30.071  1.00  0.00     0.049 A 
ATOM     21  N   UNL A   1      39.176  31.877  32.890  1.00  0.00    -0.248 NA
ATOM     22  C   UNL A   1      37.453  33.451  32.945  1.00  0.00     0.031 C 
ATOM     23  C   UNL A   1      38.071  30.838  28.683  1.00  0.00     0.029 A 
ATOM     24  N   UNL A   1      39.421  30.338  30.391  1.00  0.00    -0.354 N 
ATOM     25  C   UNL A   1      39.178  32.511  34.126  1.00  0.00     0.074 A 
ATOM     26  C   UNL A   1      38.120  33.499  34.091  1.00  0.00     0.031 C 
ATOM     27  C   UNL A   1      38.822  29.798  28.301  1.00  0.00     0.029 A 
ATOM     28  C   UNL A   1      39.741  29.464  29.380  1.00  0.00     0.049 A 
ATOM     29  H   UNL A   1      39.883  30.350  31.261  1.00  0.00     0.167 HD
ATOM     30  C   UNL A   1      39.983  32.280  35.190  1.00  0.00     0.037 A 
ATOM     31  C   UNL A   1      40.683  28.507  29.315  1.00  0.00     0.037 A 
ATOM     32  C   UNL A   1      41.030  31.288  35.216  1.00  0.00     0.049 A 
ATOM     33  C   UNL A   1      41.562  28.281  30.508  1.00  0.00     0.074 A 
ATOM     34  C   UNL A   1      41.902  30.980  36.246  1.00  0.00     0.029 A 
ATOM     35  N   UNL A   1      41.343  30.441  34.163  1.00  0.00    -0.354 N 
ATOM     36  N   UNL A   1      41.544  28.886  31.670  1.00  0.00    -0.248 NA
ATOM     37  C   UNL A   1      42.594  27.246  30.379  1.00  0.00     0.031 C 
ATOM     38  C   UNL A   1      42.765  29.970  35.804  1.00  0.00     0.029 A 
ATOM     39  C   UNL A   1      42.401  29.617  34.514  1.00  0.00     0.049 A 
ATOM     40  H   UNL A   1      40.882  30.427  33.293  1.00  0.00     0.167 HD
ATOM     41  C   UNL A   1      42.559  28.304  32.414  1.00  0.00     0.074 A 
ATOM     42  C   UNL A   1      43.146  27.271  31.583  1.00  0.00     0.031 C 
ATOM     43  C   UNL A   1      42.975  28.602  33.669  1.00  0.00     0.037 A 
BRANCH  30  44
ATOM     44  C   UNL A   1      39.774  33.120  36.418  1.00  0.00     0.057 A 
ATOM     45  C   UNL A   1      40.450  34.332  36.607  1.00  0.00     0.134 A 
ATOM     46  C   UNL A   1      38.845  32.741  37.397  1.00  0.00     0.134 A 
ATOM     47  F   UNL A   1      41.360  34.749  35.715  1.00  0.00    -0.206 F 
ATOM     48  C   UNL A   1      40.222  35.129  37.732  1.00  0.00     0.040 A 
ATOM     49  C   UNL A   1      38.591  33.540  38.513  1.00  0.00     0.040 A 
ATOM     50  F   UNL A   1      38.157  31.596  37.276  1.00  0.00    -0.206 F 
ATOM     51  C   UNL A   1      39.285  34.737  38.684  1.00  0.00     0.006 A 
ENDBRANCH  30  44
BRANCH  31  52
ATOM     52  C   UNL A   1      40.851  27.717  28.071  1.00  0.00     0.057 A 
ATOM     53  C   UNL A   1      40.177  26.508  27.876  1.00  0.00     0.134 A 
ATOM     54  C   UNL A   1      41.689  28.163  27.039  1.00  0.00     0.134 A 
ATOM     55  F   UNL A   1      39.372  26.022  28.832  1.00  0.00    -0.206 F 
ATOM     56  C   UNL A   1      40.342  25.760  26.709  1.00  0.00     0.040 A 
ATOM     57  C   UNL A   1      41.838  27.442  25.854  1.00  0.00     0.040 A 
ATOM     58  F   UNL A   1      42.353  29.322  27.158  1.00  0.00    -0.206 F 
ATOM     59  C   UNL A   1      41.170  26.231  25.691  1.00  0.00     0.006 A 
ENDBRANCH  31  52
BRANCH  43  60
ATOM     60  C   UNL A   1      44.108  27.784  34.211  1.00  0.00     0.057 A 
ATOM     61  C   UNL A   1      43.887  26.569  34.875  1.00  0.00     0.134 A 
ATOM     62  C   UNL A   1      45.432  28.215  34.070  1.00  0.00     0.134 A 
ATOM     63  F   UNL A   1      42.639  26.111  35.058  1.00  0.00    -0.206 F 
ATOM     64  C   UNL A   1      44.943  25.829  35.409  1.00  0.00     0.040 A 
ATOM     65  C   UNL A   1      46.498  27.470  34.576  1.00  0.00     0.040 A 
ATOM     66  F   UNL A   1      45.711  29.366  33.439  1.00  0.00    -0.206 F 
ATOM     67  C   UNL A   1      46.253  26.278  35.257  1.00  0.00     0.006 A 
ENDBRANCH  43  60
ENDBRANCH  17  18
ENDBRANCH  10  12
ENDBRANCH   7   8
ENDBRANCH   6   7
ENDBRANCH   5   6
ENDBRANCH   1   5
BRANCH   2  68
ATOM     68  C   UNL A   1      32.049  27.370  25.728  1.00  0.00     0.098 C 
ATOM     69  C   UNL A   1      32.610  25.934  25.720  1.00  0.00     0.098 C 
ATOM     70  C   UNL A   1      31.803  27.653  24.216  1.00  0.00     0.025 C 
ATOM     71  C   UNL A   1      32.616  25.582  24.196  1.00  0.00     0.025 C 
ATOM     72  C   UNL A   1      33.130  27.705  23.496  1.00  0.00    -0.027 C 
ATOM     73  C   UNL A   1      31.333  26.278  23.734  1.00  0.00     0.017 C 
ATOM     74  C   UNL A   1      33.629  26.462  23.500  1.00  0.00    -0.027 C 
BRANCH  69  75
ATOM     75  C   UNL A   1      31.798  24.864  26.437  1.00  0.00     0.224 C 
ATOM     76  O   UNL A   1      30.562  24.946  26.408  1.00  0.00    -0.275 OA
ATOM     77  N   UNL A   1      32.293  23.781  27.070  1.00  0.00    -0.352 N 
ATOM     78  H   UNL A   1      31.596  23.339  27.607  1.00  0.00     0.163 HD
BRANCH  77  79
ATOM     79  C   UNL A   1      33.564  23.078  27.190  1.00  0.00     0.155 C 
BRANCH  79  80
ATOM     80  C   UNL A   1      34.320  23.006  25.887  1.00  0.00     0.013 A 
ATOM     81  C   UNL A   1      35.612  23.592  25.902  1.00  0.00     0.009 A 
ATOM     82  C   UNL A   1      33.866  22.469  24.673  1.00  0.00     0.124 A 
ATOM     83  C   UNL A   1      36.415  23.677  24.767  1.00  0.00     0.001 A 
ATOM     84  C   UNL A   1      34.685  22.585  23.529  1.00  0.00     0.047 A 
ATOM     85  C   UNL A   1      35.946  23.176  23.570  1.00  0.00     0.004 A 
BRANCH  82  86
ATOM     86  O   UNL A   1      32.716  21.819  24.340  1.00  0.00    -0.489 OA
BRANCH  86  87
ATOM     87  C   UNL A   1      32.317  20.532  24.793  1.00  0.00     0.265 C 
BRANCH  87  88
ATOM     88  C   UNL A   1      32.997  19.327  24.182  1.00  0.00    -0.011 A 
ATOM     89  C   UNL A   1      34.189  18.786  24.685  1.00  0.00     0.007 A 
ATOM     90  C   UNL A   1      32.374  18.691  23.095  1.00  0.00     0.007 A 
ATOM     91  C   UNL A   1      34.677  17.573  24.195  1.00  0.00     0.000 A 
ATOM     92  C   UNL A   1      32.876  17.491  22.590  1.00  0.00     0.000 A 
ATOM     93  C   UNL A   1      34.013  16.920  23.157  1.00  0.00     0.000 A 
ENDBRANCH  87  88
ENDBRANCH  86  87
ENDBRANCH  82  86
ENDBRANCH  79  80
ENDBRANCH  77  79
ENDBRANCH  69  75
ENDBRANCH   2  68
TORSDOF 16
ENDMDL
MODEL 3
REMARK VINA RESULT:     -12.4      0.336      5.933
REMARK SMILES O=C(NCCCNC(=O)[C@@H]1[C@@H](C(=O)NCc2ccccc2OCc2ccccc2)[C@@H]2C=C[C@H]1C2)c1ccc(-c2c3nc(c(-c4c(F)cccc4F)c4ccc([nH]4)c(-c4c(F)cccc4F)c4nc(c(-c5c(F)cccc5F)c5ccc2[nH]5)C=C4)C=C3)cc1
REMARK SMILES IDX 7 1 8 2 9 3 6 5 5 6 4 7 3 8 1 9 2 10 35 12 36 13 88 14 37 15
REMARK SMILES IDX 87 16 38 17 39 18 40 19 81 20 41 21 86 22 80 23 82 24 42 25
REMARK SMILES IDX 85 26 79 27 78 28 43 30 69 31 52 32 68 33 53 34 56 35 67 36
REMARK SMILES IDX 83 37 54 38 55 39 66 41 84 42 57 43 44 44 45 45 50 46 46 47
REMARK SMILES IDX 47 48 49 49 51 50 48 51 70 52 71 53 76 54 72 55 73 56 75 57
REMARK SMILES IDX 77 58 74 59 58 60 59 61 64 62 60 63 61 64 63 65 65 66 62 67
REMARK SMILES IDX 10 68 11 69 33 70 30 71 32 72 34 73 31 74 12 75 13 76 14 77
REMARK SMILES IDX 15 79 16 80 17 81 21 82 18 83 20 84 19 85 22 86 23 87 24 88
REMARK SMILES IDX 25 89 29 90 26 91 28 92 27 93
REMARK H PARENT 7 4 3 11 82 29 56 40 14 78
REMARK Flexibility Score: inf
ROOT
ATOM      1  N   UNL A   1      36.513  21.830  25.431  1.00  0.00    -0.356 N 
ATOM      2  C   UNL A   1      35.347  22.524  25.501  1.00  0.00     0.224 C 
ATOM      3  O   UNL A   1      35.078  23.005  26.607  1.00  0.00    -0.275 OA
ATOM      4  H   UNL A   1      36.980  21.768  26.295  1.00  0.00     0.163 HD
ENDROOT
BRANCH   1   5
ATOM      5  C   UNL A   1      37.221  21.160  24.352  1.00  0.00     0.117 C 
BRANCH   5   6
ATOM      6  C   UNL A   1      37.882  19.872  24.806  1.00  0.00     0.042 C 
BRANCH   6   7
ATOM      7  C   UNL A   1      38.837  20.082  25.960  1.00  0.00     0.118 C 
BRANCH   7   8
ATOM      8  N   UNL A   1      40.009  19.224  25.881  1.00  0.00    -0.352 N 
ATOM      9  O   UNL A   1      42.205  18.732  25.777  1.00  0.00    -0.269 OA
ATOM     10  C   UNL A   1      41.340  19.546  26.050  1.00  0.00     0.251 C 
ATOM     11  H   UNL A   1      39.827  18.278  25.679  1.00  0.00     0.163 HD
BRANCH  10  12
ATOM     12  C   UNL A   1      41.708  20.896  26.542  1.00  0.00     0.039 A 
ATOM     13  C   UNL A   1      41.653  21.192  27.902  1.00  0.00     0.014 A 
ATOM     14  C   UNL A   1      42.107  21.879  25.631  1.00  0.00     0.014 A 
ATOM     15  C   UNL A   1      41.795  22.502  28.329  1.00  0.00     0.010 A 
ATOM     16  C   UNL A   1      42.394  23.172  26.085  1.00  0.00     0.010 A 
ATOM     17  C   UNL A   1      42.212  23.501  27.435  1.00  0.00    -0.014 A 
BRANCH  17  18
ATOM     18  C   UNL A   1      42.539  24.840  27.989  1.00  0.00     0.031 A 
ATOM     19  C   UNL A   1      41.483  25.880  28.229  1.00  0.00     0.074 A 
ATOM     20  C   UNL A   1      43.821  25.078  28.339  1.00  0.00     0.049 A 
ATOM     21  N   UNL A   1      41.612  27.071  28.759  1.00  0.00    -0.248 NA
ATOM     22  C   UNL A   1      40.109  25.553  27.819  1.00  0.00     0.031 C 
ATOM     23  C   UNL A   1      44.936  24.147  28.128  1.00  0.00     0.029 A 
ATOM     24  N   UNL A   1      44.399  26.143  28.975  1.00  0.00    -0.354 N 
ATOM     25  C   UNL A   1      40.346  27.640  28.734  1.00  0.00     0.074 A 
ATOM     26  C   UNL A   1      39.465  26.676  28.109  1.00  0.00     0.031 C 
ATOM     27  C   UNL A   1      46.042  24.646  28.694  1.00  0.00     0.029 A 
ATOM     28  C   UNL A   1      45.738  25.966  29.229  1.00  0.00     0.049 A 
ATOM     29  H   UNL A   1      43.904  26.956  29.227  1.00  0.00     0.167 HD
ATOM     30  C   UNL A   1      39.957  28.851  29.200  1.00  0.00     0.037 A 
ATOM     31  C   UNL A   1      46.634  26.781  29.813  1.00  0.00     0.037 A 
ATOM     32  C   UNL A   1      40.841  29.801  29.828  1.00  0.00     0.049 A 
ATOM     33  C   UNL A   1      46.173  28.116  30.312  1.00  0.00     0.074 A 
ATOM     34  C   UNL A   1      40.544  31.056  30.331  1.00  0.00     0.029 A 
ATOM     35  N   UNL A   1      42.197  29.598  30.043  1.00  0.00    -0.354 N 
ATOM     36  N   UNL A   1      44.969  28.634  30.285  1.00  0.00    -0.248 NA
ATOM     37  C   UNL A   1      47.192  28.982  30.914  1.00  0.00     0.031 C 
ATOM     38  C   UNL A   1      41.726  31.627  30.818  1.00  0.00     0.029 A 
ATOM     39  C   UNL A   1      42.752  30.708  30.660  1.00  0.00     0.049 A 
ATOM     40  H   UNL A   1      42.693  28.785  29.792  1.00  0.00     0.167 HD
ATOM     41  C   UNL A   1      45.084  29.886  30.871  1.00  0.00     0.074 A 
ATOM     42  C   UNL A   1      46.468  30.031  31.276  1.00  0.00     0.031 C 
ATOM     43  C   UNL A   1      44.133  30.835  31.049  1.00  0.00     0.037 A 
BRANCH  30  44
ATOM     44  C   UNL A   1      38.511  29.227  29.043  1.00  0.00     0.057 A 
ATOM     45  C   UNL A   1      37.616  29.185  30.119  1.00  0.00     0.134 A 
ATOM     46  C   UNL A   1      38.019  29.689  27.814  1.00  0.00     0.134 A 
ATOM     47  F   UNL A   1      38.018  28.744  31.320  1.00  0.00    -0.206 F 
ATOM     48  C   UNL A   1      36.281  29.573  29.977  1.00  0.00     0.040 A 
ATOM     49  C   UNL A   1      36.694  30.101  27.665  1.00  0.00     0.040 A 
ATOM     50  F   UNL A   1      38.823  29.760  26.743  1.00  0.00    -0.206 F 
ATOM     51  C   UNL A   1      35.820  30.041  28.748  1.00  0.00     0.006 A 
ENDBRANCH  30  44
BRANCH  31  52
ATOM     52  C   UNL A   1      48.052  26.360  29.929  1.00  0.00     0.057 A 
ATOM     53  C   UNL A   1      48.965  26.575  28.892  1.00  0.00     0.134 A 
ATOM     54  C   UNL A   1      48.529  25.738  31.091  1.00  0.00     0.134 A 
ATOM     55  F   UNL A   1      48.567  27.154  27.750  1.00  0.00    -0.206 F 
ATOM     56  C   UNL A   1      50.297  26.170  28.998  1.00  0.00     0.040 A 
ATOM     57  C   UNL A   1      49.864  25.358  31.222  1.00  0.00     0.040 A 
ATOM     58  F   UNL A   1      47.706  25.515  32.127  1.00  0.00    -0.206 F 
ATOM     59  C   UNL A   1      50.751  25.566  30.169  1.00  0.00     0.006 A 
ENDBRANCH  31  52
BRANCH  43  60
ATOM     60  C   UNL A   1      44.568  32.100  31.725  1.00  0.00     0.057 A 
ATOM     61  C   UNL A   1      44.565  32.226  33.121  1.00  0.00     0.134 A 
ATOM     62  C   UNL A   1      44.990  33.203  30.975  1.00  0.00     0.134 A 
ATOM     63  F   UNL A   1      44.155  31.210  33.895  1.00  0.00    -0.206 F 
ATOM     64  C   UNL A   1      44.936  33.418  33.745  1.00  0.00     0.040 A 
ATOM     65  C   UNL A   1      45.389  34.391  31.588  1.00  0.00     0.040 A 
ATOM     66  F   UNL A   1      45.020  33.145  29.635  1.00  0.00    -0.206 F 
ATOM     67  C   UNL A   1      45.353  34.503  32.977  1.00  0.00     0.006 A 
ENDBRANCH  43  60
ENDBRANCH  17  18
ENDBRANCH  10  12
ENDBRANCH   7   8
ENDBRANCH   6   7
ENDBRANCH   5   6
ENDBRANCH   1   5
BRANCH   2  68
ATOM     68  C   UNL A   1      34.329  22.586  24.367  1.00  0.00     0.098 C 
ATOM     69  C   UNL A   1      33.184  23.616  24.438  1.00  0.00     0.098 C 
ATOM     70  C   UNL A   1      33.571  21.237  24.193  1.00  0.00     0.025 C 
ATOM     71  C   UNL A   1      31.912  22.716  24.298  1.00  0.00     0.025 C 
ATOM     72  C   UNL A   1      32.790  20.937  25.451  1.00  0.00    -0.027 C 
ATOM     73  C   UNL A   1      32.407  21.669  23.296  1.00  0.00     0.017 C 
ATOM     74  C   UNL A   1      31.802  21.839  25.525  1.00  0.00    -0.027 C 
BRANCH  69  75
ATOM     75  C   UNL A   1      33.125  24.669  23.341  1.00  0.00     0.224 C 
ATOM     76  O   UNL A   1      33.993  24.649  22.458  1.00  0.00    -0.275 OA
ATOM     77  N   UNL A   1      32.172  25.614  23.197  1.00  0.00    -0.352 N 
ATOM     78  H   UNL A   1      32.444  26.286  22.530  1.00  0.00     0.163 HD
BRANCH  77  79
ATOM     79  C   UNL A   1      30.859  25.927  23.745  1.00  0.00     0.155 C 
BRANCH  79  80
ATOM     80  C   UNL A   1      30.331  27.262  23.281  1.00  0.00     0.013 A 
ATOM     81  C   UNL A   1      28.935  27.451  23.443  1.00  0.00     0.009 A 
ATOM     82  C   UNL A   1      31.061  28.296  22.676  1.00  0.00     0.124 A 
ATOM     83  C   UNL A   1      28.273  28.596  23.003  1.00  0.00     0.001 A 
ATOM     84  C   UNL A   1      30.368  29.437  22.216  1.00  0.00     0.047 A 
ATOM     85  C   UNL A   1      28.994  29.593  22.378  1.00  0.00     0.004 A 
BRANCH  82  86
ATOM     86  O   UNL A   1      32.390  28.438  22.413  1.00  0.00    -0.489 OA
BRANCH  86  87
ATOM     87  C   UNL A   1      33.357  29.030  23.271  1.00  0.00     0.265 C 
BRANCH  87  88
ATOM     88  C   UNL A   1      33.098  28.987  24.760  1.00  0.00    -0.011 A 
ATOM     89  C   UNL A   1      32.276  29.912  25.420  1.00  0.00     0.007 A 
ATOM     90  C   UNL A   1      33.666  27.939  25.506  1.00  0.00     0.007 A 
ATOM     91  C   UNL A   1      31.931  29.723  26.760  1.00  0.00     0.000 A 
ATOM     92  C   UNL A   1      33.340  27.765  26.851  1.00  0.00     0.000 A 
ATOM     93  C   UNL A   1      32.452  28.642  27.470  1.00  0.00     0.000 A 
ENDBRANCH  87  88
ENDBRANCH  86  87
ENDBRANCH  82  86
ENDBRANCH  79  80
ENDBRANCH  77  79
ENDBRANCH  69  75
ENDBRANCH   2  68
TORSDOF 16
ENDMDL
