MODEL 1
REMARK VINA RESULT:     -13.2      0.000      0.000
REMARK SMILES Cc1ccc2c(=O)c3cccc(CC(=O)NCCCNC(=O)c4ccc(-c5c6nc(c(-c7c(F)cccc7F)c7ccc([nH]7)c(-c7c(F)cccc7F)c7nc(c(-c8c(F)cccc8F)c8ccc5[nH]8)C=C7)C=C6)cc4)c3oc2c1C
REMARK SMILES IDX 18 1 17 2 16 3 14 4 15 5 13 7 12 8 1 9 2 10 3 11 80 12 4 13
REMARK SMILES IDX 79 14 81 15 5 16 78 17 6 18 77 19 7 20 8 21 9 22 11 23 10 24
REMARK SMILES IDX 19 25 20 26 21 27 22 29 23 30 24 31 76 32 25 33 75 34 26 35
REMARK SMILES IDX 27 36 28 37 69 38 29 39 74 40 68 41 70 42 30 43 73 44 67 45
REMARK SMILES IDX 66 46 31 48 57 49 40 50 56 51 41 52 44 53 55 54 71 55 42 56
REMARK SMILES IDX 43 57 54 59 72 60 45 61 32 62 33 63 38 64 34 65 35 66 37 67
REMARK SMILES IDX 39 68 36 69 58 70 59 71 64 72 60 73 61 74 63 75 65 76 62 77
REMARK SMILES IDX 46 78 47 79 52 80 48 81 49 82 51 83 53 84 50 85
REMARK H PARENT 16 6 20 28 70 47 44 58
REMARK Flexibility Score: inf
ROOT
ATOM      1  C   UNL A   1      38.123  19.924  24.977  1.00  0.00     0.042 C 
ENDROOT
BRANCH   1   2
ATOM      2  C   UNL A   1      37.426  21.220  24.576  1.00  0.00     0.117 C 
BRANCH   2   3
ATOM      3  N   UNL A   1      37.885  22.357  25.353  1.00  0.00    -0.356 N 
ATOM      4  C   UNL A   1      37.282  23.561  25.574  1.00  0.00     0.224 C 
ATOM      5  O   UNL A   1      37.869  24.376  26.288  1.00  0.00    -0.275 OA
ATOM      6  H   UNL A   1      38.761  22.242  25.785  1.00  0.00     0.163 HD
BRANCH   4   7
ATOM      7  C   UNL A   1      35.899  23.848  25.011  1.00  0.00     0.139 C 
BRANCH   7   8
ATOM      8  C   UNL A   1      34.747  23.471  25.915  1.00  0.00     0.005 A 
ATOM      9  C   UNL A   1      30.562  28.325  22.396  1.00  0.00     0.045 C 
ATOM     10  C   UNL A   1      30.746  27.247  23.432  1.00  0.00    -0.044 A 
ATOM     11  C   UNL A   1      29.643  26.901  24.229  1.00  0.00     0.005 A 
ATOM     12  C   UNL A   1      31.992  26.616  23.653  1.00  0.00    -0.005 A 
ATOM     13  C   UNL A   1      29.753  25.921  25.213  1.00  0.00     0.016 A 
ATOM     14  C   UNL A   1      32.088  25.610  24.641  1.00  0.00     0.141 A 
ATOM     15  C   UNL A   1      33.214  26.954  22.836  1.00  0.00     0.049 C 
ATOM     16  C   UNL A   1      30.974  25.278  25.410  1.00  0.00     0.066 A 
ATOM     17  O   UNL A   1      33.310  24.993  24.791  1.00  0.00    -0.455 OA
ATOM     18  C   UNL A   1      31.107  24.246  26.445  1.00  0.00     0.200 A 
ATOM     19  C   UNL A   1      33.470  24.043  25.771  1.00  0.00     0.142 A 
ATOM     20  O   UNL A   1      30.158  23.905  27.140  1.00  0.00    -0.288 OA
ATOM     21  C   UNL A   1      32.434  23.643  26.615  1.00  0.00     0.066 A 
ATOM     22  C   UNL A   1      32.647  22.690  27.615  1.00  0.00     0.016 A 
ATOM     23  C   UNL A   1      34.959  22.538  26.948  1.00  0.00     0.008 A 
ATOM     24  C   UNL A   1      33.916  22.143  27.785  1.00  0.00     0.001 A 
ENDBRANCH   7   8
ENDBRANCH   4   7
ENDBRANCH   2   3
ENDBRANCH   1   2
BRANCH   1  25
ATOM     25  C   UNL A   1      39.227  20.103  26.015  1.00  0.00     0.118 C 
BRANCH  25  26
ATOM     26  N   UNL A   1      40.270  19.087  25.925  1.00  0.00    -0.352 N 
ATOM     27  C   UNL A   1      41.631  19.200  26.088  1.00  0.00     0.251 C 
ATOM     28  H   UNL A   1      39.950  18.180  25.716  1.00  0.00     0.163 HD
ATOM     29  O   UNL A   1      42.355  18.242  25.833  1.00  0.00    -0.269 OA
BRANCH  27  30
ATOM     30  C   UNL A   1      42.233  20.479  26.530  1.00  0.00     0.039 A 
ATOM     31  C   UNL A   1      42.198  20.870  27.869  1.00  0.00     0.014 A 
ATOM     32  C   UNL A   1      42.841  21.306  25.580  1.00  0.00     0.014 A 
ATOM     33  C   UNL A   1      42.600  22.153  28.225  1.00  0.00     0.010 A 
ATOM     34  C   UNL A   1      43.323  22.563  25.954  1.00  0.00     0.010 A 
ATOM     35  C   UNL A   1      43.152  23.021  27.270  1.00  0.00    -0.014 A 
BRANCH  35  36
ATOM     36  C   UNL A   1      43.506  24.412  27.663  1.00  0.00     0.031 A 
ATOM     37  C   UNL A   1      44.932  24.891  27.583  1.00  0.00     0.074 A 
ATOM     38  C   UNL A   1      42.531  25.268  28.028  1.00  0.00     0.049 A 
ATOM     39  N   UNL A   1      45.422  26.079  27.845  1.00  0.00    -0.248 NA
ATOM     40  C   UNL A   1      45.942  23.911  27.156  1.00  0.00     0.031 C 
ATOM     41  C   UNL A   1      41.111  24.932  28.140  1.00  0.00     0.029 A 
ATOM     42  N   UNL A   1      42.584  26.601  28.347  1.00  0.00    -0.354 N 
ATOM     43  C   UNL A   1      46.791  25.983  27.629  1.00  0.00     0.074 A 
ATOM     44  C   UNL A   1      47.062  24.613  27.251  1.00  0.00     0.031 C 
ATOM     45  C   UNL A   1      40.421  26.040  28.449  1.00  0.00     0.029 A 
ATOM     46  C   UNL A   1      41.354  27.151  28.610  1.00  0.00     0.049 A 
ATOM     47  H   UNL A   1      43.424  27.114  28.382  1.00  0.00     0.167 HD
ATOM     48  C   UNL A   1      47.736  26.949  27.722  1.00  0.00     0.037 A 
ATOM     49  C   UNL A   1      41.014  28.408  28.949  1.00  0.00     0.037 A 
ATOM     50  C   UNL A   1      47.468  28.320  28.075  1.00  0.00     0.049 A 
ATOM     51  C   UNL A   1      42.087  29.451  29.083  1.00  0.00     0.074 A 
ATOM     52  C   UNL A   1      48.358  29.376  28.173  1.00  0.00     0.029 A 
ATOM     53  N   UNL A   1      46.215  28.824  28.384  1.00  0.00    -0.354 N 
ATOM     54  N   UNL A   1      43.375  29.346  28.864  1.00  0.00    -0.248 NA
ATOM     55  C   UNL A   1      41.657  30.786  29.519  1.00  0.00     0.031 C 
ATOM     56  C   UNL A   1      47.646  30.512  28.578  1.00  0.00     0.029 A 
ATOM     57  C   UNL A   1      46.309  30.171  28.692  1.00  0.00     0.049 A 
ATOM     58  H   UNL A   1      45.380  28.302  28.383  1.00  0.00     0.167 HD
ATOM     59  C   UNL A   1      43.906  30.602  29.120  1.00  0.00     0.074 A 
ATOM     60  C   UNL A   1      42.799  31.458  29.490  1.00  0.00     0.031 C 
ATOM     61  C   UNL A   1      45.198  31.010  29.059  1.00  0.00     0.037 A 
BRANCH  48  62
ATOM     62  C   UNL A   1      49.157  26.553  27.444  1.00  0.00     0.057 A 
ATOM     63  C   UNL A   1      49.702  26.699  26.161  1.00  0.00     0.134 A 
ATOM     64  C   UNL A   1      49.979  26.002  28.435  1.00  0.00     0.134 A 
ATOM     65  F   UNL A   1      48.968  27.214  25.164  1.00  0.00    -0.206 F 
ATOM     66  C   UNL A   1      51.013  26.311  25.877  1.00  0.00     0.040 A 
ATOM     67  C   UNL A   1      51.298  25.632  28.169  1.00  0.00     0.040 A 
ATOM     68  F   UNL A   1      49.522  25.848  29.688  1.00  0.00    -0.206 F 
ATOM     69  C   UNL A   1      51.817  25.781  26.884  1.00  0.00     0.006 A 
ENDBRANCH  48  62
BRANCH  49  70
ATOM     70  C   UNL A   1      39.592  28.755  29.192  1.00  0.00     0.057 A 
ATOM     71  C   UNL A   1      38.771  29.227  28.161  1.00  0.00     0.134 A 
ATOM     72  C   UNL A   1      39.017  28.605  30.458  1.00  0.00     0.134 A 
ATOM     73  F   UNL A   1      39.265  29.395  26.925  1.00  0.00    -0.206 F 
ATOM     74  C   UNL A   1      37.431  29.544  28.383  1.00  0.00     0.040 A 
ATOM     75  C   UNL A   1      37.672  28.894  30.688  1.00  0.00     0.040 A 
ATOM     76  F   UNL A   1      39.749  28.136  31.482  1.00  0.00    -0.206 F 
ATOM     77  C   UNL A   1      36.876  29.370  29.648  1.00  0.00     0.006 A 
ENDBRANCH  49  70
BRANCH  61  78
ATOM     78  C   UNL A   1      45.470  32.449  29.379  1.00  0.00     0.057 A 
ATOM     79  C   UNL A   1      45.777  32.844  30.687  1.00  0.00     0.134 A 
ATOM     80  C   UNL A   1      45.419  33.444  28.395  1.00  0.00     0.134 A 
ATOM     81  F   UNL A   1      45.837  31.940  31.676  1.00  0.00    -0.206 F 
ATOM     82  C   UNL A   1      46.025  34.180  31.004  1.00  0.00     0.040 A 
ATOM     83  C   UNL A   1      45.688  34.780  28.696  1.00  0.00     0.040 A 
ATOM     84  F   UNL A   1      45.146  33.126  27.120  1.00  0.00    -0.206 F 
ATOM     85  C   UNL A   1      45.989  35.152  30.005  1.00  0.00     0.006 A 
ENDBRANCH  61  78
ENDBRANCH  35  36
ENDBRANCH  27  30
ENDBRANCH  25  26
ENDBRANCH   1  25
TORSDOF 11
ENDMDL
MODEL 2
REMARK VINA RESULT:     -13.2      5.357     10.277
REMARK SMILES Cc1ccc2c(=O)c3cccc(CC(=O)NCCCNC(=O)c4ccc(-c5c6nc(c(-c7c(F)cccc7F)c7ccc([nH]7)c(-c7c(F)cccc7F)c7nc(c(-c8c(F)cccc8F)c8ccc5[nH]8)C=C7)C=C6)cc4)c3oc2c1C
REMARK SMILES IDX 18 1 17 2 16 3 14 4 15 5 13 7 12 8 1 9 2 10 3 11 80 12 4 13
REMARK SMILES IDX 79 14 81 15 5 16 78 17 6 18 77 19 7 20 8 21 9 22 11 23 10 24
REMARK SMILES IDX 19 25 20 26 21 27 22 29 23 30 24 31 76 32 25 33 75 34 26 35
REMARK SMILES IDX 27 36 28 37 69 38 29 39 74 40 68 41 70 42 30 43 73 44 67 45
REMARK SMILES IDX 66 46 31 48 57 49 40 50 56 51 41 52 44 53 55 54 71 55 42 56
REMARK SMILES IDX 43 57 54 59 72 60 45 61 32 62 33 63 38 64 34 65 35 66 37 67
REMARK SMILES IDX 39 68 36 69 58 70 59 71 64 72 60 73 61 74 63 75 65 76 62 77
REMARK SMILES IDX 46 78 47 79 52 80 48 81 49 82 51 83 53 84 50 85
REMARK H PARENT 16 6 20 28 70 47 44 58
REMARK Flexibility Score: inf
ROOT
ATOM      1  C   UNL A   1      31.501  31.994  26.871  1.00  0.00     0.042 C 
ENDROOT
BRANCH   1   2
ATOM      2  C   UNL A   1      31.755  30.490  26.861  1.00  0.00     0.117 C 
BRANCH   2   3
ATOM      3  N   UNL A   1      33.126  30.159  27.201  1.00  0.00    -0.356 N 
ATOM      4  C   UNL A   1      33.811  28.993  27.021  1.00  0.00     0.224 C 
ATOM      5  O   UNL A   1      34.988  28.954  27.386  1.00  0.00    -0.275 OA
ATOM      6  H   UNL A   1      33.639  30.884  27.624  1.00  0.00     0.163 HD
BRANCH   4   7
ATOM      7  C   UNL A   1      33.155  27.810  26.327  1.00  0.00     0.139 C 
BRANCH   7   8
ATOM      8  C   UNL A   1      33.335  27.766  24.825  1.00  0.00     0.005 A 
ATOM      9  C   UNL A   1      32.153  20.554  25.022  1.00  0.00     0.045 C 
ATOM     10  C   UNL A   1      32.411  21.828  24.262  1.00  0.00    -0.044 A 
ATOM     11  C   UNL A   1      32.538  21.751  22.865  1.00  0.00     0.005 A 
ATOM     12  C   UNL A   1      32.571  23.075  24.909  1.00  0.00    -0.005 A 
ATOM     13  C   UNL A   1      32.789  22.893  22.107  1.00  0.00     0.016 A 
ATOM     14  C   UNL A   1      32.807  24.229  24.130  1.00  0.00     0.141 A 
ATOM     15  C   UNL A   1      32.457  23.217  26.407  1.00  0.00     0.049 C 
ATOM     16  C   UNL A   1      32.918  24.126  22.744  1.00  0.00     0.066 A 
ATOM     17  O   UNL A   1      32.914  25.428  24.799  1.00  0.00    -0.455 OA
ATOM     18  C   UNL A   1      33.185  25.338  21.960  1.00  0.00     0.200 A 
ATOM     19  C   UNL A   1      33.193  26.573  24.093  1.00  0.00     0.142 A 
ATOM     20  O   UNL A   1      33.278  25.308  20.739  1.00  0.00    -0.288 OA
ATOM     21  C   UNL A   1      33.345  26.591  22.707  1.00  0.00     0.066 A 
ATOM     22  C   UNL A   1      33.651  27.775  22.031  1.00  0.00     0.016 A 
ATOM     23  C   UNL A   1      33.678  28.946  24.139  1.00  0.00     0.008 A 
ATOM     24  C   UNL A   1      33.826  28.953  22.751  1.00  0.00     0.001 A 
ENDBRANCH   7   8
ENDBRANCH   4   7
ENDBRANCH   2   3
ENDBRANCH   1   2
BRANCH   1  25
ATOM     25  C   UNL A   1      32.733  32.834  27.196  1.00  0.00     0.118 C 
BRANCH  25  26
ATOM     26  N   UNL A   1      32.408  34.189  27.626  1.00  0.00    -0.352 N 
ATOM     27  C   UNL A   1      32.981  34.968  28.604  1.00  0.00     0.251 C 
ATOM     28  H   UNL A   1      31.663  34.612  27.141  1.00  0.00     0.163 HD
ATOM     29  O   UNL A   1      32.465  36.041  28.906  1.00  0.00    -0.269 OA
BRANCH  27  30
ATOM     30  C   UNL A   1      34.190  34.506  29.323  1.00  0.00     0.039 A 
ATOM     31  C   UNL A   1      35.464  34.676  28.779  1.00  0.00     0.014 A 
ATOM     32  C   UNL A   1      34.043  33.885  30.568  1.00  0.00     0.014 A 
ATOM     33  C   UNL A   1      36.560  34.067  29.382  1.00  0.00     0.010 A 
ATOM     34  C   UNL A   1      35.158  33.347  31.216  1.00  0.00     0.010 A 
ATOM     35  C   UNL A   1      36.419  33.382  30.599  1.00  0.00    -0.014 A 
BRANCH  35  36
ATOM     36  C   UNL A   1      37.592  32.680  31.184  1.00  0.00     0.031 A 
ATOM     37  C   UNL A   1      38.117  33.068  32.542  1.00  0.00     0.074 A 
ATOM     38  C   UNL A   1      38.145  31.645  30.523  1.00  0.00     0.049 A 
ATOM     39  N   UNL A   1      39.104  32.543  33.229  1.00  0.00    -0.248 NA
ATOM     40  C   UNL A   1      37.454  34.193  33.219  1.00  0.00     0.031 C 
ATOM     41  C   UNL A   1      37.727  31.164  29.205  1.00  0.00     0.029 A 
ATOM     42  N   UNL A   1      39.160  30.794  30.881  1.00  0.00    -0.354 N 
ATOM     43  C   UNL A   1      39.185  33.279  34.404  1.00  0.00     0.074 A 
ATOM     44  C   UNL A   1      38.175  34.312  34.324  1.00  0.00     0.031 C 
ATOM     45  C   UNL A   1      38.442  30.074  28.889  1.00  0.00     0.029 A 
ATOM     46  C   UNL A   1      39.403  29.811  29.954  1.00  0.00     0.049 A 
ATOM     47  H   UNL A   1      39.665  30.880  31.722  1.00  0.00     0.167 HD
ATOM     48  C   UNL A   1      40.014  33.105  35.461  1.00  0.00     0.037 A 
ATOM     49  C   UNL A   1      40.304  28.810  29.958  1.00  0.00     0.037 A 
ATOM     50  C   UNL A   1      41.005  32.065  35.557  1.00  0.00     0.049 A 
ATOM     51  C   UNL A   1      41.237  28.664  31.126  1.00  0.00     0.074 A 
ATOM     52  C   UNL A   1      41.877  31.795  36.598  1.00  0.00     0.029 A 
ATOM     53  N   UNL A   1      41.253  31.120  34.573  1.00  0.00    -0.354 N 
ATOM     54  N   UNL A   1      41.292  29.361  32.233  1.00  0.00    -0.248 NA
ATOM     55  C   UNL A   1      42.238  27.592  31.039  1.00  0.00     0.031 C 
ATOM     56  C   UNL A   1      42.678  30.707  36.228  1.00  0.00     0.029 A 
ATOM     57  C   UNL A   1      42.277  30.277  34.975  1.00  0.00     0.049 A 
ATOM     58  H   UNL A   1      40.772  31.056  33.717  1.00  0.00     0.167 HD
ATOM     59  C   UNL A   1      42.322  28.806  32.981  1.00  0.00     0.074 A 
ATOM     60  C   UNL A   1      42.849  27.700  32.209  1.00  0.00     0.031 C 
ATOM     61  C   UNL A   1      42.791  29.181  34.195  1.00  0.00     0.037 A 
BRANCH  48  62
ATOM     62  C   UNL A   1      39.889  34.072  36.603  1.00  0.00     0.057 A 
ATOM     63  C   UNL A   1      39.054  33.788  37.692  1.00  0.00     0.134 A 
ATOM     64  C   UNL A   1      40.570  35.296  36.614  1.00  0.00     0.134 A 
ATOM     65  F   UNL A   1      38.368  32.636  37.742  1.00  0.00    -0.206 F 
ATOM     66  C   UNL A   1      38.903  34.687  38.750  1.00  0.00     0.040 A 
ATOM     67  C   UNL A   1      40.445  36.192  37.677  1.00  0.00     0.040 A 
ATOM     68  F   UNL A   1      41.395  35.622  35.608  1.00  0.00    -0.206 F 
ATOM     69  C   UNL A   1      39.605  35.890  38.748  1.00  0.00     0.006 A 
ENDBRANCH  48  62
BRANCH  49  70
ATOM     70  C   UNL A   1      40.373  27.867  28.815  1.00  0.00     0.057 A 
ATOM     71  C   UNL A   1      39.658  26.664  28.819  1.00  0.00     0.134 A 
ATOM     72  C   UNL A   1      41.143  28.157  27.684  1.00  0.00     0.134 A 
ATOM     73  F   UNL A   1      38.903  26.328  29.876  1.00  0.00    -0.206 F 
ATOM     74  C   UNL A   1      39.712  25.779  27.742  1.00  0.00     0.040 A 
ATOM     75  C   UNL A   1      41.187  27.293  26.589  1.00  0.00     0.040 A 
ATOM     76  F   UNL A   1      41.835  29.305  27.613  1.00  0.00    -0.206 F 
ATOM     77  C   UNL A   1      40.472  26.097  26.619  1.00  0.00     0.006 A 
ENDBRANCH  49  70
BRANCH  61  78
ATOM     78  C   UNL A   1      43.916  28.371  34.767  1.00  0.00     0.057 A 
ATOM     79  C   UNL A   1      45.249  28.724  34.519  1.00  0.00     0.134 A 
ATOM     80  C   UNL A   1      43.681  27.236  35.553  1.00  0.00     0.134 A 
ATOM     81  F   UNL A   1      45.542  29.797  33.769  1.00  0.00    -0.206 F 
ATOM     82  C   UNL A   1      46.308  27.976  35.036  1.00  0.00     0.040 A 
ATOM     83  C   UNL A   1      44.732  26.495  36.095  1.00  0.00     0.040 A 
ATOM     84  F   UNL A   1      42.426  26.856  35.840  1.00  0.00    -0.206 F 
ATOM     85  C   UNL A   1      46.050  26.863  35.833  1.00  0.00     0.006 A 
ENDBRANCH  61  78
ENDBRANCH  35  36
ENDBRANCH  27  30
ENDBRANCH  25  26
ENDBRANCH   1  25
TORSDOF 11
ENDMDL
MODEL 3
REMARK VINA RESULT:     -13.1      5.511      9.775
REMARK SMILES Cc1ccc2c(=O)c3cccc(CC(=O)NCCCNC(=O)c4ccc(-c5c6nc(c(-c7c(F)cccc7F)c7ccc([nH]7)c(-c7c(F)cccc7F)c7nc(c(-c8c(F)cccc8F)c8ccc5[nH]8)C=C7)C=C6)cc4)c3oc2c1C
REMARK SMILES IDX 18 1 17 2 16 3 14 4 15 5 13 7 12 8 1 9 2 10 3 11 80 12 4 13
REMARK SMILES IDX 79 14 81 15 5 16 78 17 6 18 77 19 7 20 8 21 9 22 11 23 10 24
REMARK SMILES IDX 19 25 20 26 21 27 22 29 23 30 24 31 76 32 25 33 75 34 26 35
REMARK SMILES IDX 27 36 28 37 69 38 29 39 74 40 68 41 70 42 30 43 73 44 67 45
REMARK SMILES IDX 66 46 31 48 57 49 40 50 56 51 41 52 44 53 55 54 71 55 42 56
REMARK SMILES IDX 43 57 54 59 72 60 45 61 32 62 33 63 38 64 34 65 35 66 37 67
REMARK SMILES IDX 39 68 36 69 58 70 59 71 64 72 60 73 61 74 63 75 65 76 62 77
REMARK SMILES IDX 46 78 47 79 52 80 48 81 49 82 51 83 53 84 50 85
REMARK H PARENT 16 6 20 28 70 47 44 58
REMARK Flexibility Score: inf
ROOT
ATOM      1  C   UNL A   1      31.603  32.018  26.872  1.00  0.00     0.042 C 
ENDROOT
BRANCH   1   2
ATOM      2  C   UNL A   1      31.863  30.515  26.879  1.00  0.00     0.117 C 
BRANCH   2   3
ATOM      3  N   UNL A   1      33.241  30.195  27.203  1.00  0.00    -0.356 N 
ATOM      4  C   UNL A   1      33.926  29.026  27.038  1.00  0.00     0.224 C 
ATOM      5  O   UNL A   1      35.109  28.998  27.383  1.00  0.00    -0.275 OA
ATOM      6  H   UNL A   1      33.759  30.931  27.601  1.00  0.00     0.163 HD
BRANCH   4   7
ATOM      7  C   UNL A   1      33.261  27.826  26.383  1.00  0.00     0.139 C 
BRANCH   7   8
ATOM      8  C   UNL A   1      33.408  27.753  24.879  1.00  0.00     0.005 A 
ATOM      9  C   UNL A   1      32.355  20.527  25.258  1.00  0.00     0.045 C 
ATOM     10  C   UNL A   1      32.574  21.789  24.465  1.00  0.00    -0.044 A 
ATOM     11  C   UNL A   1      32.671  21.683  23.068  1.00  0.00     0.005 A 
ATOM     12  C   UNL A   1      32.727  23.052  25.082  1.00  0.00    -0.005 A 
ATOM     13  C   UNL A   1      32.885  22.812  22.280  1.00  0.00     0.016 A 
ATOM     14  C   UNL A   1      32.926  24.193  24.272  1.00  0.00     0.141 A 
ATOM     15  C   UNL A   1      32.644  23.226  26.578  1.00  0.00     0.049 C 
ATOM     16  C   UNL A   1      33.007  24.061  22.887  1.00  0.00     0.066 A 
ATOM     17  O   UNL A   1      33.027  25.408  24.913  1.00  0.00    -0.455 OA
ATOM     18  C   UNL A   1      33.236  25.259  22.071  1.00  0.00     0.200 A 
ATOM     19  C   UNL A   1      33.270  26.541  24.176  1.00  0.00     0.142 A 
ATOM     20  O   UNL A   1      33.302  25.204  20.849  1.00  0.00    -0.288 OA
ATOM     21  C   UNL A   1      33.391  26.531  22.787  1.00  0.00     0.066 A 
ATOM     22  C   UNL A   1      33.662  27.705  22.079  1.00  0.00     0.016 A 
ATOM     23  C   UNL A   1      33.716  28.923  24.159  1.00  0.00     0.008 A 
ATOM     24  C   UNL A   1      33.832  28.901  22.769  1.00  0.00     0.001 A 
ENDBRANCH   7   8
ENDBRANCH   4   7
ENDBRANCH   2   3
ENDBRANCH   1   2
BRANCH   1  25
ATOM     25  C   UNL A   1      32.821  32.866  27.227  1.00  0.00     0.118 C 
BRANCH  25  26
ATOM     26  N   UNL A   1      32.479  34.230  27.610  1.00  0.00    -0.352 N 
ATOM     27  C   UNL A   1      32.987  35.020  28.615  1.00  0.00     0.251 C 
ATOM     28  H   UNL A   1      31.776  34.652  27.064  1.00  0.00     0.163 HD
ATOM     29  O   UNL A   1      32.461  36.103  28.861  1.00  0.00    -0.269 OA
BRANCH  27  30
ATOM     30  C   UNL A   1      34.134  34.559  29.429  1.00  0.00     0.039 A 
ATOM     31  C   UNL A   1      35.435  34.583  28.923  1.00  0.00     0.014 A 
ATOM     32  C   UNL A   1      33.900  34.088  30.725  1.00  0.00     0.014 A 
ATOM     33  C   UNL A   1      36.464  33.971  29.634  1.00  0.00     0.010 A 
ATOM     34  C   UNL A   1      34.952  33.551  31.473  1.00  0.00     0.010 A 
ATOM     35  C   UNL A   1      36.232  33.434  30.909  1.00  0.00    -0.014 A 
BRANCH  35  36
ATOM     36  C   UNL A   1      37.332  32.722  31.614  1.00  0.00     0.031 A 
ATOM     37  C   UNL A   1      38.032  31.558  30.962  1.00  0.00     0.074 A 
ATOM     38  C   UNL A   1      37.750  33.168  32.815  1.00  0.00     0.049 A 
ATOM     39  N   UNL A   1      39.037  30.842  31.407  1.00  0.00    -0.248 NA
ATOM     40  C   UNL A   1      37.539  31.137  29.642  1.00  0.00     0.031 C 
ATOM     41  C   UNL A   1      37.164  34.289  33.551  1.00  0.00     0.029 A 
ATOM     42  N   UNL A   1      38.783  32.749  33.615  1.00  0.00    -0.354 N 
ATOM     43  C   UNL A   1      39.284  29.884  30.431  1.00  0.00     0.074 A 
ATOM     44  C   UNL A   1      38.301  30.084  29.387  1.00  0.00     0.031 C 
ATOM     45  C   UNL A   1      37.877  34.502  34.667  1.00  0.00     0.029 A 
ATOM     46  C   UNL A   1      38.935  33.502  34.752  1.00  0.00     0.049 A 
ATOM     47  H   UNL A   1      39.359  31.981  33.394  1.00  0.00     0.167 HD
ATOM     48  C   UNL A   1      40.249  28.934  30.397  1.00  0.00     0.037 A 
ATOM     49  C   UNL A   1      39.825  33.397  35.757  1.00  0.00     0.037 A 
ATOM     50  C   UNL A   1      41.243  28.746  31.422  1.00  0.00     0.049 A 
ATOM     51  C   UNL A   1      40.860  32.309  35.713  1.00  0.00     0.074 A 
ATOM     52  C   UNL A   1      42.275  27.824  31.465  1.00  0.00     0.029 A 
ATOM     53  N   UNL A   1      41.331  29.499  32.583  1.00  0.00    -0.354 N 
ATOM     54  N   UNL A   1      41.087  31.420  34.778  1.00  0.00    -0.248 NA
ATOM     55  C   UNL A   1      41.759  32.207  36.871  1.00  0.00     0.031 C 
ATOM     56  C   UNL A   1      42.966  27.996  32.671  1.00  0.00     0.029 A 
ATOM     57  C   UNL A   1      42.388  29.050  33.358  1.00  0.00     0.049 A 
ATOM     58  H   UNL A   1      40.732  30.243  32.820  1.00  0.00     0.167 HD
ATOM     59  C   UNL A   1      42.162  30.664  35.226  1.00  0.00     0.074 A 
ATOM     60  C   UNL A   1      42.555  31.213  36.506  1.00  0.00     0.031 C 
ATOM     61  C   UNL A   1      42.766  29.606  34.631  1.00  0.00     0.037 A 
BRANCH  48  62
ATOM     62  C   UNL A   1      40.270  28.014  29.211  1.00  0.00     0.057 A 
ATOM     63  C   UNL A   1      39.532  26.824  29.217  1.00  0.00     0.134 A 
ATOM     64  C   UNL A   1      41.041  28.290  28.075  1.00  0.00     0.134 A 
ATOM     65  F   UNL A   1      38.776  26.495  30.276  1.00  0.00    -0.206 F 
ATOM     66  C   UNL A   1      39.560  25.942  28.134  1.00  0.00     0.040 A 
ATOM     67  C   UNL A   1      41.060  27.428  26.977  1.00  0.00     0.040 A 
ATOM     68  F   UNL A   1      41.761  29.421  28.000  1.00  0.00    -0.206 F 
ATOM     69  C   UNL A   1      40.321  26.246  27.007  1.00  0.00     0.006 A 
ENDBRANCH  48  62
BRANCH  49  70
ATOM     70  C   UNL A   1      39.776  34.345  36.897  1.00  0.00     0.057 A 
ATOM     71  C   UNL A   1      40.379  35.605  36.823  1.00  0.00     0.134 A 
ATOM     72  C   UNL A   1      39.109  34.017  38.082  1.00  0.00     0.134 A 
ATOM     73  F   UNL A   1      41.036  35.977  35.714  1.00  0.00    -0.206 F 
ATOM     74  C   UNL A   1      40.327  36.504  37.888  1.00  0.00     0.040 A 
ATOM     75  C   UNL A   1      39.027  34.915  39.146  1.00  0.00     0.040 A 
ATOM     76  F   UNL A   1      38.493  32.830  38.206  1.00  0.00    -0.206 F 
ATOM     77  C   UNL A   1      39.642  36.162  39.052  1.00  0.00     0.006 A 
ENDBRANCH  49  70
BRANCH  61  78
ATOM     78  C   UNL A   1      43.928  28.995  35.355  1.00  0.00     0.057 A 
ATOM     79  C   UNL A   1      43.728  27.982  36.301  1.00  0.00     0.134 A 
ATOM     80  C   UNL A   1      45.244  29.416  35.124  1.00  0.00     0.134 A 
ATOM     81  F   UNL A   1      42.491  27.538  36.572  1.00  0.00    -0.206 F 
ATOM     82  C   UNL A   1      44.797  27.408  36.990  1.00  0.00     0.040 A 
ATOM     83  C   UNL A   1      46.323  28.833  35.790  1.00  0.00     0.040 A 
ATOM     84  F   UNL A   1      45.502  30.371  34.218  1.00  0.00    -0.206 F 
ATOM     85  C   UNL A   1      46.100  27.828  36.729  1.00  0.00     0.006 A 
ENDBRANCH  61  78
ENDBRANCH  35  36
ENDBRANCH  27  30
ENDBRANCH  25  26
ENDBRANCH   1  25
TORSDOF 11
ENDMDL
