MODEL 1
REMARK VINA RESULT:     -11.9      0.000      0.000
REMARK SMILES O=C(NCCCNC(=O)[C@@]1([NH2+]C2CC2)CCC[C@@H](Sc2ncn[nH]2)C1)c1ccc(-c2c3nc(c(-c4c(F)cccc4F)c4ccc([nH]4)c(-c4c(F)cccc4F)c4nc(c(-c5c(F)cccc5F)c5ccc2[nH]5)C=C4)C=C3)cc1
REMARK SMILES IDX 5 1 4 2 3 3 1 4 2 5 26 7 27 8 79 9 28 10 78 11 29 12 30 13
REMARK SMILES IDX 31 14 72 15 32 16 77 17 71 18 73 19 33 20 76 21 70 22 69 23
REMARK SMILES IDX 34 25 60 26 43 27 59 28 44 29 47 30 58 31 74 32 45 33 46 34
REMARK SMILES IDX 57 36 75 37 48 38 35 39 36 40 41 41 37 42 38 43 40 44 42 45
REMARK SMILES IDX 39 46 61 47 62 48 67 49 63 50 64 51 66 52 68 53 65 54 49 55
REMARK SMILES IDX 50 56 55 57 51 58 52 59 54 60 56 61 53 62 6 63 7 64 8 65
REMARK SMILES IDX 9 67 10 68 15 69 25 70 16 71 18 72 17 73 11 74 12 77 13 78
REMARK SMILES IDX 14 79 19 80 20 81 21 82 24 83 22 84 23 85
REMARK H PARENT 3 6 73 24 47 35 7 66 11 75 11 76 24 86
REMARK Flexibility Score: inf
ROOT
ATOM      1  C   UNL A   1      37.397  19.882  24.980  1.00  0.00     0.042 C 
ENDROOT
BRANCH   1   2
ATOM      2  C   UNL A   1      38.661  20.417  25.651  1.00  0.00     0.118 C 
BRANCH   2   3
ATOM      3  N   UNL A   1      39.644  19.362  25.837  1.00  0.00    -0.352 N 
ATOM      4  O   UNL A   1      41.703  18.465  25.833  1.00  0.00    -0.269 OA
ATOM      5  C   UNL A   1      40.999  19.452  26.018  1.00  0.00     0.251 C 
ATOM      6  H   UNL A   1      39.282  18.446  25.830  1.00  0.00     0.163 HD
BRANCH   5   7
ATOM      7  C   UNL A   1      41.617  20.722  26.454  1.00  0.00     0.039 A 
ATOM      8  C   UNL A   1      42.028  21.683  25.522  1.00  0.00     0.014 A 
ATOM      9  C   UNL A   1      41.682  21.000  27.822  1.00  0.00     0.014 A 
ATOM     10  C   UNL A   1      42.564  22.892  25.958  1.00  0.00     0.010 A 
ATOM     11  C   UNL A   1      42.168  22.233  28.257  1.00  0.00     0.010 A 
ATOM     12  C   UNL A   1      42.615  23.186  27.328  1.00  0.00    -0.014 A 
BRANCH  12  13
ATOM     13  C   UNL A   1      43.062  24.520  27.794  1.00  0.00     0.031 A 
ATOM     14  C   UNL A   1      42.063  25.566  28.184  1.00  0.00     0.074 A 
ATOM     15  C   UNL A   1      44.380  24.796  27.809  1.00  0.00     0.049 A 
ATOM     16  N   UNL A   1      42.264  26.815  28.516  1.00  0.00    -0.248 NA
ATOM     17  C   UNL A   1      40.650  25.159  28.187  1.00  0.00     0.031 C 
ATOM     18  C   UNL A   1      45.441  23.860  27.437  1.00  0.00     0.029 A 
ATOM     19  N   UNL A   1      45.049  25.949  28.131  1.00  0.00    -0.354 N 
ATOM     20  C   UNL A   1      41.004  27.352  28.746  1.00  0.00     0.074 A 
ATOM     21  C   UNL A   1      40.044  26.297  28.497  1.00  0.00     0.031 C 
ATOM     22  C   UNL A   1      46.627  24.474  27.550  1.00  0.00     0.029 A 
ATOM     23  C   UNL A   1      46.407  25.859  27.954  1.00  0.00     0.049 A 
ATOM     24  H   UNL A   1      44.599  26.762  28.458  1.00  0.00     0.167 HD
ATOM     25  C   UNL A   1      40.683  28.610  29.132  1.00  0.00     0.037 A 
ATOM     26  C   UNL A   1      47.367  26.795  28.068  1.00  0.00     0.037 A 
ATOM     27  C   UNL A   1      41.647  29.649  29.384  1.00  0.00     0.049 A 
ATOM     28  C   UNL A   1      46.987  28.188  28.475  1.00  0.00     0.074 A 
ATOM     29  C   UNL A   1      41.426  30.943  29.826  1.00  0.00     0.029 A 
ATOM     30  N   UNL A   1      43.016  29.515  29.206  1.00  0.00    -0.354 N 
ATOM     31  N   UNL A   1      45.796  28.672  28.733  1.00  0.00    -0.248 NA
ATOM     32  C   UNL A   1      48.077  29.163  28.606  1.00  0.00     0.031 C 
ATOM     33  C   UNL A   1      42.658  31.604  29.874  1.00  0.00     0.029 A 
ATOM     34  C   UNL A   1      43.651  30.710  29.505  1.00  0.00     0.049 A 
ATOM     35  H   UNL A   1      43.469  28.693  28.911  1.00  0.00     0.167 HD
ATOM     36  C   UNL A   1      45.993  30.002  29.076  1.00  0.00     0.074 A 
ATOM     37  C   UNL A   1      47.419  30.247  28.998  1.00  0.00     0.031 C 
ATOM     38  C   UNL A   1      45.073  30.933  29.428  1.00  0.00     0.037 A 
BRANCH  25  39
ATOM     39  C   UNL A   1      39.224  28.934  29.274  1.00  0.00     0.057 A 
ATOM     40  C   UNL A   1      38.464  29.422  28.202  1.00  0.00     0.134 A 
ATOM     41  C   UNL A   1      38.569  28.744  30.496  1.00  0.00     0.134 A 
ATOM     42  F   UNL A   1      39.034  29.638  27.007  1.00  0.00    -0.206 F 
ATOM     43  C   UNL A   1      37.113  29.739  28.351  1.00  0.00     0.040 A 
ATOM     44  C   UNL A   1      37.212  29.034  30.651  1.00  0.00     0.040 A 
ATOM     45  F   UNL A   1      39.236  28.274  31.561  1.00  0.00    -0.206 F 
ATOM     46  C   UNL A   1      36.482  29.541  29.578  1.00  0.00     0.006 A 
ENDBRANCH  25  39
BRANCH  26  47
ATOM     47  C   UNL A   1      48.773  26.427  27.780  1.00  0.00     0.057 A 
ATOM     48  C   UNL A   1      49.625  25.975  28.792  1.00  0.00     0.134 A 
ATOM     49  C   UNL A   1      49.278  26.459  26.474  1.00  0.00     0.134 A 
ATOM     50  F   UNL A   1      49.201  25.936  30.063  1.00  0.00    -0.206 F 
ATOM     51  C   UNL A   1      50.931  25.565  28.517  1.00  0.00     0.040 A 
ATOM     52  C   UNL A   1      50.574  26.032  26.180  1.00  0.00     0.040 A 
ATOM     53  F   UNL A   1      48.505  26.873  25.459  1.00  0.00    -0.206 F 
ATOM     54  C   UNL A   1      51.405  25.584  27.206  1.00  0.00     0.006 A 
ENDBRANCH  26  47
BRANCH  38  55
ATOM     55  C   UNL A   1      45.580  32.297  29.787  1.00  0.00     0.057 A 
ATOM     56  C   UNL A   1      45.994  32.611  31.086  1.00  0.00     0.134 A 
ATOM     57  C   UNL A   1      45.715  33.285  28.803  1.00  0.00     0.134 A 
ATOM     58  F   UNL A   1      45.877  31.711  32.073  1.00  0.00    -0.206 F 
ATOM     59  C   UNL A   1      46.520  33.866  31.397  1.00  0.00     0.040 A 
ATOM     60  C   UNL A   1      46.257  34.536  29.097  1.00  0.00     0.040 A 
ATOM     61  F   UNL A   1      45.340  33.042  27.538  1.00  0.00    -0.206 F 
ATOM     62  C   UNL A   1      46.661  34.829  30.399  1.00  0.00     0.006 A 
ENDBRANCH  38  55
ENDBRANCH  12  13
ENDBRANCH   5   7
ENDBRANCH   2   3
ENDBRANCH   1   2
BRANCH   1  63
ATOM     63  C   UNL A   1      36.306  20.943  24.840  1.00  0.00     0.118 C 
BRANCH  63  64
ATOM     64  N   UNL A   1      35.581  21.110  26.080  1.00  0.00    -0.351 N 
ATOM     65  C   UNL A   1      34.272  21.335  26.372  1.00  0.00     0.281 C 
ATOM     66  H   UNL A   1      36.153  21.048  26.879  1.00  0.00     0.163 HD
ATOM     67  O   UNL A   1      34.038  21.400  27.587  1.00  0.00    -0.268 OA
BRANCH  65  68
ATOM     68  C   UNL A   1      33.118  21.376  25.291  1.00  0.00     0.176 C 
ATOM     69  C   UNL A   1      33.197  22.432  24.163  1.00  0.00     0.079 C 
ATOM     70  C   UNL A   1      33.168  19.957  24.659  1.00  0.00     0.094 C 
ATOM     71  C   UNL A   1      32.152  22.233  23.063  1.00  0.00     0.008 C 
ATOM     72  C   UNL A   1      32.253  19.737  23.450  1.00  0.00     0.061 C 
ATOM     73  C   UNL A   1      32.317  20.864  22.414  1.00  0.00     0.015 C 
BRANCH  68  74
ATOM     74  N   UNL A   1      31.813  21.538  25.984  1.00  0.00    -0.331 N 
ATOM     75  H   UNL A   1      31.792  20.842  26.729  1.00  0.00     0.347 HD
ATOM     76  H   UNL A   1      31.140  21.445  25.222  1.00  0.00     0.347 HD
BRANCH  74  77
ATOM     77  C   UNL A   1      31.436  22.818  26.595  1.00  0.00     0.183 C 
ATOM     78  C   UNL A   1      30.605  23.897  25.957  1.00  0.00     0.071 C 
ATOM     79  C   UNL A   1      30.013  23.045  27.037  1.00  0.00     0.071 C 
ENDBRANCH  74  77
ENDBRANCH  68  74
BRANCH  72  80
ATOM     80  S   UNL A   1      32.528  18.110  22.636  1.00  0.00    -0.083 SA
BRANCH  80  81
ATOM     81  C   UNL A   1      32.991  17.079  23.937  1.00  0.00     0.183 A 
ATOM     82  N   UNL A   1      34.163  16.551  24.186  1.00  0.00    -0.210 NA
ATOM     83  N   UNL A   1      32.115  16.738  24.918  1.00  0.00    -0.254 N 
ATOM     84  C   UNL A   1      33.949  15.880  25.357  1.00  0.00     0.247 A 
ATOM     85  N   UNL A   1      32.701  15.942  25.832  1.00  0.00    -0.162 NA
ATOM     86  H   UNL A   1      31.176  17.034  24.956  1.00  0.00     0.192 HD
ENDBRANCH  80  81
ENDBRANCH  72  80
ENDBRANCH  65  68
ENDBRANCH  63  64
ENDBRANCH   1  63
TORSDOF 14
ENDMDL
MODEL 2
REMARK VINA RESULT:     -11.8      6.049     10.527
REMARK SMILES O=C(NCCCNC(=O)[C@@]1([NH2+]C2CC2)CCC[C@@H](Sc2ncn[nH]2)C1)c1ccc(-c2c3nc(c(-c4c(F)cccc4F)c4ccc([nH]4)c(-c4c(F)cccc4F)c4nc(c(-c5c(F)cccc5F)c5ccc2[nH]5)C=C4)C=C3)cc1
REMARK SMILES IDX 5 1 4 2 3 3 1 4 2 5 26 7 27 8 79 9 28 10 78 11 29 12 30 13
REMARK SMILES IDX 31 14 72 15 32 16 77 17 71 18 73 19 33 20 76 21 70 22 69 23
REMARK SMILES IDX 34 25 60 26 43 27 59 28 44 29 47 30 58 31 74 32 45 33 46 34
REMARK SMILES IDX 57 36 75 37 48 38 35 39 36 40 41 41 37 42 38 43 40 44 42 45
REMARK SMILES IDX 39 46 61 47 62 48 67 49 63 50 64 51 66 52 68 53 65 54 49 55
REMARK SMILES IDX 50 56 55 57 51 58 52 59 54 60 56 61 53 62 6 63 7 64 8 65
REMARK SMILES IDX 9 67 10 68 15 69 25 70 16 71 18 72 17 73 11 74 12 77 13 78
REMARK SMILES IDX 14 79 19 80 20 81 21 82 24 83 22 84 23 85
REMARK H PARENT 3 6 73 24 47 35 7 66 11 75 11 76 24 86
REMARK Flexibility Score: inf
ROOT
ATOM      1  C   UNL A   1      31.457  31.401  26.353  1.00  0.00     0.042 C 
ENDROOT
BRANCH   1   2
ATOM      2  C   UNL A   1      32.710  31.951  27.032  1.00  0.00     0.118 C 
BRANCH   2   3
ATOM      3  N   UNL A   1      32.571  33.370  27.319  1.00  0.00    -0.352 N 
ATOM      4  O   UNL A   1      32.668  35.214  28.598  1.00  0.00    -0.269 OA
ATOM      5  C   UNL A   1      33.145  34.120  28.312  1.00  0.00     0.251 C 
ATOM      6  H   UNL A   1      31.976  33.865  26.711  1.00  0.00     0.163 HD
BRANCH   5   7
ATOM      7  C   UNL A   1      34.343  33.633  29.028  1.00  0.00     0.039 A 
ATOM      8  C   UNL A   1      34.242  32.650  30.018  1.00  0.00     0.014 A 
ATOM      9  C   UNL A   1      35.599  34.091  28.618  1.00  0.00     0.014 A 
ATOM     10  C   UNL A   1      35.391  32.173  30.645  1.00  0.00     0.010 A 
ATOM     11  C   UNL A   1      36.752  33.572  29.208  1.00  0.00     0.010 A 
ATOM     12  C   UNL A   1      36.655  32.612  30.228  1.00  0.00    -0.014 A 
BRANCH  12  13
ATOM     13  C   UNL A   1      37.885  32.013  30.799  1.00  0.00     0.031 A 
ATOM     14  C   UNL A   1      38.606  30.917  30.075  1.00  0.00     0.074 A 
ATOM     15  C   UNL A   1      38.314  32.433  32.004  1.00  0.00     0.049 A 
ATOM     16  N   UNL A   1      39.633  30.208  30.467  1.00  0.00    -0.248 NA
ATOM     17  C   UNL A   1      38.098  30.561  28.743  1.00  0.00     0.031 C 
ATOM     18  C   UNL A   1      37.682  33.483  32.804  1.00  0.00     0.029 A 
ATOM     19  N   UNL A   1      39.368  32.014  32.775  1.00  0.00    -0.354 N 
ATOM     20  C   UNL A   1      39.881  29.306  29.441  1.00  0.00     0.074 A 
ATOM     21  C   UNL A   1      38.885  29.545  28.418  1.00  0.00     0.031 C 
ATOM     22  C   UNL A   1      38.359  33.626  33.952  1.00  0.00     0.029 A 
ATOM     23  C   UNL A   1      39.439  32.646  33.991  1.00  0.00     0.049 A 
ATOM     24  H   UNL A   1      40.011  31.327  32.483  1.00  0.00     0.167 HD
ATOM     25  C   UNL A   1      40.854  28.366  29.364  1.00  0.00     0.037 A 
ATOM     26  C   UNL A   1      40.260  32.437  35.036  1.00  0.00     0.037 A 
ATOM     27  C   UNL A   1      41.845  28.142  30.384  1.00  0.00     0.049 A 
ATOM     28  C   UNL A   1      41.317  31.378  34.938  1.00  0.00     0.074 A 
ATOM     29  C   UNL A   1      42.902  27.248  30.380  1.00  0.00     0.029 A 
ATOM     30  N   UNL A   1      41.892  28.812  31.598  1.00  0.00    -0.354 N 
ATOM     31  N   UNL A   1      41.570  30.559  33.945  1.00  0.00    -0.248 NA
ATOM     32  C   UNL A   1      42.199  31.208  36.100  1.00  0.00     0.031 C 
ATOM     33  C   UNL A   1      43.564  27.348  31.608  1.00  0.00     0.029 A 
ATOM     34  C   UNL A   1      42.946  28.335  32.361  1.00  0.00     0.049 A 
ATOM     35  H   UNL A   1      41.270  29.522  31.876  1.00  0.00     0.167 HD
ATOM     36  C   UNL A   1      42.652  29.792  34.352  1.00  0.00     0.074 A 
ATOM     37  C   UNL A   1      43.010  30.244  35.681  1.00  0.00     0.031 C 
ATOM     38  C   UNL A   1      43.291  28.803  33.680  1.00  0.00     0.037 A 
BRANCH  25  39
ATOM     39  C   UNL A   1      40.871  27.493  28.143  1.00  0.00     0.057 A 
ATOM     40  C   UNL A   1      41.591  27.839  26.992  1.00  0.00     0.134 A 
ATOM     41  C   UNL A   1      40.165  26.284  28.125  1.00  0.00     0.134 A 
ATOM     42  F   UNL A   1      42.277  28.991  26.940  1.00  0.00    -0.206 F 
ATOM     43  C   UNL A   1      41.583  27.028  25.855  1.00  0.00     0.040 A 
ATOM     44  C   UNL A   1      40.170  25.452  27.003  1.00  0.00     0.040 A 
ATOM     45  F   UNL A   1      39.461  25.888  29.195  1.00  0.00    -0.206 F 
ATOM     46  C   UNL A   1      40.874  25.829  25.860  1.00  0.00     0.006 A 
ENDBRANCH  25  39
BRANCH  26  47
ATOM     47  C   UNL A   1      40.092  33.254  36.261  1.00  0.00     0.057 A 
ATOM     48  C   UNL A   1      39.237  32.848  37.291  1.00  0.00     0.134 A 
ATOM     49  C   UNL A   1      40.831  34.428  36.457  1.00  0.00     0.134 A 
ATOM     50  F   UNL A   1      38.496  31.740  37.153  1.00  0.00    -0.206 F 
ATOM     51  C   UNL A   1      39.124  33.579  38.475  1.00  0.00     0.040 A 
ATOM     52  C   UNL A   1      40.743  35.157  37.644  1.00  0.00     0.040 A 
ATOM     53  F   UNL A   1      41.675  34.863  35.511  1.00  0.00    -0.206 F 
ATOM     54  C   UNL A   1      39.885  34.732  38.657  1.00  0.00     0.006 A 
ENDBRANCH  26  47
BRANCH  38  55
ATOM     55  C   UNL A   1      44.466  28.163  34.356  1.00  0.00     0.057 A 
ATOM     56  C   UNL A   1      44.333  26.995  35.115  1.00  0.00     0.134 A 
ATOM     57  C   UNL A   1      45.753  28.689  34.189  1.00  0.00     0.134 A 
ATOM     58  F   UNL A   1      43.124  26.451  35.320  1.00  0.00    -0.206 F 
ATOM     59  C   UNL A   1      45.442  26.373  35.691  1.00  0.00     0.040 A 
ATOM     60  C   UNL A   1      46.871  28.066  34.744  1.00  0.00     0.040 A 
ATOM     61  F   UNL A   1      45.945  29.804  33.469  1.00  0.00    -0.206 F 
ATOM     62  C   UNL A   1      46.716  26.904  35.498  1.00  0.00     0.006 A 
ENDBRANCH  38  55
ENDBRANCH  12  13
ENDBRANCH   5   7
ENDBRANCH   2   3
ENDBRANCH   1   2
BRANCH   1  63
ATOM     63  C   UNL A   1      31.613  29.945  25.914  1.00  0.00     0.118 C 
BRANCH  63  64
ATOM     64  N   UNL A   1      32.508  29.836  24.783  1.00  0.00    -0.351 N 
ATOM     65  C   UNL A   1      32.547  29.015  23.701  1.00  0.00     0.281 C 
ATOM     66  H   UNL A   1      33.241  30.493  24.801  1.00  0.00     0.163 HD
ATOM     67  O   UNL A   1      33.484  29.257  22.927  1.00  0.00    -0.268 OA
BRANCH  65  68
ATOM     68  C   UNL A   1      31.437  27.938  23.366  1.00  0.00     0.176 C 
ATOM     69  C   UNL A   1      31.207  26.778  24.362  1.00  0.00     0.079 C 
ATOM     70  C   UNL A   1      30.137  28.784  23.264  1.00  0.00     0.094 C 
ATOM     71  C   UNL A   1      29.971  25.932  24.044  1.00  0.00     0.008 C 
ATOM     72  C   UNL A   1      28.839  27.986  23.097  1.00  0.00     0.061 C 
ATOM     73  C   UNL A   1      28.716  26.799  24.057  1.00  0.00     0.015 C 
BRANCH  68  74
ATOM     74  N   UNL A   1      31.723  27.350  22.030  1.00  0.00    -0.331 N 
ATOM     75  H   UNL A   1      31.957  28.128  21.414  1.00  0.00     0.347 HD
ATOM     76  H   UNL A   1      30.874  26.819  21.832  1.00  0.00     0.347 HD
BRANCH  74  77
ATOM     77  C   UNL A   1      32.780  26.346  21.858  1.00  0.00     0.183 C 
ATOM     78  C   UNL A   1      32.603  24.854  21.897  1.00  0.00     0.071 C 
ATOM     79  C   UNL A   1      32.844  25.539  20.587  1.00  0.00     0.071 C 
ENDBRANCH  74  77
ENDBRANCH  68  74
BRANCH  72  80
ATOM     80  S   UNL A   1      27.336  29.043  23.198  1.00  0.00    -0.083 SA
BRANCH  80  81
ATOM     81  C   UNL A   1      27.749  30.425  22.257  1.00  0.00     0.183 A 
ATOM     82  N   UNL A   1      28.019  30.495  20.978  1.00  0.00    -0.210 NA
ATOM     83  N   UNL A   1      27.788  31.669  22.804  1.00  0.00    -0.254 N 
ATOM     84  C   UNL A   1      28.221  31.833  20.785  1.00  0.00     0.247 A 
ATOM     85  N   UNL A   1      28.117  32.592  21.880  1.00  0.00    -0.162 NA
ATOM     86  H   UNL A   1      27.600  31.869  23.750  1.00  0.00     0.192 HD
ENDBRANCH  80  81
ENDBRANCH  72  80
ENDBRANCH  65  68
ENDBRANCH  63  64
ENDBRANCH   1  63
TORSDOF 14
ENDMDL
MODEL 3
REMARK VINA RESULT:     -11.8      1.212      6.295
REMARK SMILES O=C(NCCCNC(=O)[C@@]1([NH2+]C2CC2)CCC[C@@H](Sc2ncn[nH]2)C1)c1ccc(-c2c3nc(c(-c4c(F)cccc4F)c4ccc([nH]4)c(-c4c(F)cccc4F)c4nc(c(-c5c(F)cccc5F)c5ccc2[nH]5)C=C4)C=C3)cc1
REMARK SMILES IDX 5 1 4 2 3 3 1 4 2 5 26 7 27 8 79 9 28 10 78 11 29 12 30 13
REMARK SMILES IDX 31 14 72 15 32 16 77 17 71 18 73 19 33 20 76 21 70 22 69 23
REMARK SMILES IDX 34 25 60 26 43 27 59 28 44 29 47 30 58 31 74 32 45 33 46 34
REMARK SMILES IDX 57 36 75 37 48 38 35 39 36 40 41 41 37 42 38 43 40 44 42 45
REMARK SMILES IDX 39 46 61 47 62 48 67 49 63 50 64 51 66 52 68 53 65 54 49 55
REMARK SMILES IDX 50 56 55 57 51 58 52 59 54 60 56 61 53 62 6 63 7 64 8 65
REMARK SMILES IDX 9 67 10 68 15 69 25 70 16 71 18 72 17 73 11 74 12 77 13 78
REMARK SMILES IDX 14 79 19 80 20 81 21 82 24 83 22 84 23 85
REMARK H PARENT 3 6 73 24 47 35 7 66 11 75 11 76 24 86
REMARK Flexibility Score: inf
ROOT
ATOM      1  C   UNL A   1      37.397  19.892  24.978  1.00  0.00     0.042 C 
ENDROOT
BRANCH   1   2
ATOM      2  C   UNL A   1      38.694  20.527  25.474  1.00  0.00     0.118 C 
BRANCH   2   3
ATOM      3  N   UNL A   1      39.701  19.514  25.753  1.00  0.00    -0.352 N 
ATOM      4  O   UNL A   1      41.789  18.712  25.953  1.00  0.00    -0.269 OA
ATOM      5  C   UNL A   1      41.025  19.664  26.072  1.00  0.00     0.251 C 
ATOM      6  H   UNL A   1      39.385  18.584  25.703  1.00  0.00     0.163 HD
BRANCH   5   7
ATOM      7  C   UNL A   1      41.537  20.956  26.576  1.00  0.00     0.039 A 
ATOM      8  C   UNL A   1      42.108  21.895  25.709  1.00  0.00     0.014 A 
ATOM      9  C   UNL A   1      41.339  21.275  27.923  1.00  0.00     0.014 A 
ATOM     10  C   UNL A   1      42.539  23.125  26.200  1.00  0.00     0.010 A 
ATOM     11  C   UNL A   1      41.721  22.528  28.403  1.00  0.00     0.010 A 
ATOM     12  C   UNL A   1      42.327  23.460  27.545  1.00  0.00    -0.014 A 
BRANCH  12  13
ATOM     13  C   UNL A   1      42.664  24.814  28.044  1.00  0.00     0.031 A 
ATOM     14  C   UNL A   1      44.059  25.138  28.487  1.00  0.00     0.074 A 
ATOM     15  C   UNL A   1      41.686  25.733  28.144  1.00  0.00     0.049 A 
ATOM     16  N   UNL A   1      44.514  26.231  29.044  1.00  0.00    -0.248 NA
ATOM     17  C   UNL A   1      45.072  24.091  28.292  1.00  0.00     0.031 C 
ATOM     18  C   UNL A   1      40.290  25.523  27.756  1.00  0.00     0.029 A 
ATOM     19  N   UNL A   1      41.711  27.019  28.621  1.00  0.00    -0.354 N 
ATOM     20  C   UNL A   1      45.861  25.997  29.288  1.00  0.00     0.074 A 
ATOM     21  C   UNL A   1      46.144  24.651  28.835  1.00  0.00     0.031 C 
ATOM     22  C   UNL A   1      39.593  26.639  28.010  1.00  0.00     0.029 A 
ATOM     23  C   UNL A   1      40.479  27.623  28.624  1.00  0.00     0.049 A 
ATOM     24  H   UNL A   1      42.533  27.464  28.930  1.00  0.00     0.167 HD
ATOM     25  C   UNL A   1      46.774  26.832  29.837  1.00  0.00     0.037 A 
ATOM     26  C   UNL A   1      40.095  28.821  29.101  1.00  0.00     0.037 A 
ATOM     27  C   UNL A   1      46.482  28.172  30.277  1.00  0.00     0.049 A 
ATOM     28  C   UNL A   1      41.118  29.723  29.725  1.00  0.00     0.074 A 
ATOM     29  C   UNL A   1      47.348  29.116  30.803  1.00  0.00     0.029 A 
ATOM     30  N   UNL A   1      45.223  28.754  30.252  1.00  0.00    -0.354 N 
ATOM     31  N   UNL A   1      42.398  29.508  29.911  1.00  0.00    -0.248 NA
ATOM     32  C   UNL A   1      40.649  31.028  30.207  1.00  0.00     0.031 C 
ATOM     33  C   UNL A   1      46.605  30.254  31.134  1.00  0.00     0.029 A 
ATOM     34  C   UNL A   1      45.284  30.035  30.775  1.00  0.00     0.049 A 
ATOM     35  H   UNL A   1      44.407  28.321  29.912  1.00  0.00     0.167 HD
ATOM     36  C   UNL A   1      42.893  30.657  30.512  1.00  0.00     0.074 A 
ATOM     37  C   UNL A   1      41.775  31.568  30.657  1.00  0.00     0.031 C 
ATOM     38  C   UNL A   1      44.161  30.930  30.905  1.00  0.00     0.037 A 
BRANCH  25  39
ATOM     39  C   UNL A   1      48.167  26.305  30.019  1.00  0.00     0.057 A 
ATOM     40  C   UNL A   1      49.134  26.399  29.009  1.00  0.00     0.134 A 
ATOM     41  C   UNL A   1      48.549  25.705  31.225  1.00  0.00     0.134 A 
ATOM     42  F   UNL A   1      48.830  26.951  27.825  1.00  0.00    -0.206 F 
ATOM     43  C   UNL A   1      50.421  25.887  29.183  1.00  0.00     0.040 A 
ATOM     44  C   UNL A   1      49.840  25.212  31.419  1.00  0.00     0.040 A 
ATOM     45  F   UNL A   1      47.674  25.589  32.236  1.00  0.00    -0.206 F 
ATOM     46  C   UNL A   1      50.779  25.294  30.392  1.00  0.00     0.006 A 
ENDBRANCH  25  39
BRANCH  26  47
ATOM     47  C   UNL A   1      38.670  29.215  29.003  1.00  0.00     0.057 A 
ATOM     48  C   UNL A   1      38.119  29.648  27.793  1.00  0.00     0.134 A 
ATOM     49  C   UNL A   1      37.810  29.106  30.104  1.00  0.00     0.134 A 
ATOM     50  F   UNL A   1      38.897  29.784  26.709  1.00  0.00    -0.206 F 
ATOM     51  C   UNL A   1      36.763  29.958  27.678  1.00  0.00     0.040 A 
ATOM     52  C   UNL A   1      36.448  29.392  29.999  1.00  0.00     0.040 A 
ATOM     53  F   UNL A   1      38.277  28.686  31.289  1.00  0.00    -0.206 F 
ATOM     54  C   UNL A   1      35.922  29.821  28.782  1.00  0.00     0.006 A 
ENDBRANCH  26  47
BRANCH  38  55
ATOM     55  C   UNL A   1      44.418  32.282  31.501  1.00  0.00     0.057 A 
ATOM     56  C   UNL A   1      44.330  32.509  32.879  1.00  0.00     0.134 A 
ATOM     57  C   UNL A   1      44.820  33.349  30.688  1.00  0.00     0.134 A 
ATOM     58  F   UNL A   1      43.938  31.528  33.706  1.00  0.00    -0.206 F 
ATOM     59  C   UNL A   1      44.630  33.756  33.429  1.00  0.00     0.040 A 
ATOM     60  C   UNL A   1      45.141  34.595  31.229  1.00  0.00     0.040 A 
ATOM     61  F   UNL A   1      44.928  33.192  29.360  1.00  0.00    -0.206 F 
ATOM     62  C   UNL A   1      45.046  34.799  32.605  1.00  0.00     0.006 A 
ENDBRANCH  38  55
ENDBRANCH  12  13
ENDBRANCH   5   7
ENDBRANCH   2   3
ENDBRANCH   1   2
BRANCH   1  63
ATOM     63  C   UNL A   1      36.263  20.905  24.823  1.00  0.00     0.118 C 
BRANCH  63  64
ATOM     64  N   UNL A   1      35.547  21.078  26.067  1.00  0.00    -0.351 N 
ATOM     65  C   UNL A   1      34.242  21.316  26.366  1.00  0.00     0.281 C 
ATOM     66  H   UNL A   1      36.122  21.009  26.863  1.00  0.00     0.163 HD
ATOM     67  O   UNL A   1      34.015  21.382  27.583  1.00  0.00    -0.268 OA
BRANCH  65  68
ATOM     68  C   UNL A   1      33.082  21.370  25.291  1.00  0.00     0.176 C 
ATOM     69  C   UNL A   1      33.160  22.435  24.172  1.00  0.00     0.079 C 
ATOM     70  C   UNL A   1      33.124  19.956  24.648  1.00  0.00     0.094 C 
ATOM     71  C   UNL A   1      32.108  22.249  23.075  1.00  0.00     0.008 C 
ATOM     72  C   UNL A   1      32.202  19.749  23.441  1.00  0.00     0.061 C 
ATOM     73  C   UNL A   1      32.265  20.884  22.415  1.00  0.00     0.015 C 
BRANCH  68  74
ATOM     74  N   UNL A   1      31.781  21.531  25.992  1.00  0.00    -0.331 N 
ATOM     75  H   UNL A   1      31.762  20.831  26.733  1.00  0.00     0.347 HD
ATOM     76  H   UNL A   1      31.104  21.446  25.233  1.00  0.00     0.347 HD
BRANCH  74  77
ATOM     77  C   UNL A   1      31.412  22.808  26.614  1.00  0.00     0.183 C 
ATOM     78  C   UNL A   1      30.598  23.903  25.980  1.00  0.00     0.071 C 
ATOM     79  C   UNL A   1      29.987  23.045  27.045  1.00  0.00     0.071 C 
ENDBRANCH  74  77
ENDBRANCH  68  74
BRANCH  72  80
ATOM     80  S   UNL A   1      32.466  18.128  22.613  1.00  0.00    -0.083 SA
BRANCH  80  81
ATOM     81  C   UNL A   1      33.131  17.140  23.859  1.00  0.00     0.183 A 
ATOM     82  N   UNL A   1      34.389  16.908  24.137  1.00  0.00    -0.210 NA
ATOM     83  N   UNL A   1      32.336  16.503  24.759  1.00  0.00    -0.254 N 
ATOM     84  C   UNL A   1      34.311  16.105  25.240  1.00  0.00     0.247 A 
ATOM     85  N   UNL A   1      33.073  15.805  25.644  1.00  0.00    -0.162 NA
ATOM     86  H   UNL A   1      31.351  16.545  24.762  1.00  0.00     0.192 HD
ENDBRANCH  80  81
ENDBRANCH  72  80
ENDBRANCH  65  68
ENDBRANCH  63  64
ENDBRANCH   1  63
TORSDOF 14
ENDMDL
