MODEL 1
REMARK VINA RESULT:     -12.3      0.000      0.000
REMARK SMILES NS(=O)(=O)c1ccc(N2N=C(C(=O)NCCCNC(=O)c3ccc(-c4c5nc(c(-c6c(F)cccc6F)c6ccc([nH]6)c(-c6c(F)cccc6F)c6nc(c(-c7c(F)cccc7F)c7ccc4[nH]7)C=C6)C=C5)cc3)C[C@H]2c2ccco2)cc1
REMARK SMILES IDX 15 1 14 2 12 3 13 4 11 6 9 7 10 8 76 9 75 10 8 11 5 12 6 13
REMARK SMILES IDX 83 14 7 15 82 16 2 17 3 18 4 19 1 20 77 23 78 24 81 25 79 26
REMARK SMILES IDX 80 27 16 28 17 29 18 30 19 31 20 33 21 34 22 35 74 36 23 37
REMARK SMILES IDX 73 38 24 39 25 40 26 41 67 42 27 43 72 44 66 45 68 46 28 47
REMARK SMILES IDX 71 48 65 49 64 50 29 52 55 53 38 54 54 55 39 56 42 57 53 58
REMARK SMILES IDX 69 59 40 60 41 61 52 63 70 64 43 65 30 66 31 67 36 68 32 69
REMARK SMILES IDX 33 70 35 71 37 72 34 73 56 74 57 75 62 76 58 77 59 78 61 79
REMARK SMILES IDX 63 80 60 81 44 82 45 83 50 84 46 85 47 86 49 87 51 88 48 89
REMARK H PARENT 14 5 1 21 1 22 18 32 68 51 42 62
REMARK Flexibility Score: inf
ROOT
ATOM      1  C   UNL A   1      31.964  27.117  25.882  1.00  0.00     0.118 C 
ENDROOT
BRANCH   1   2
ATOM      2  N   UNL A   1      31.158  26.080  26.502  1.00  0.00    -0.351 N 
ATOM      3  C   UNL A   1      31.168  24.708  26.487  1.00  0.00     0.267 C 
ATOM      4  O   UNL A   1      30.239  24.130  27.048  1.00  0.00    -0.268 OA
ATOM      5  H   UNL A   1      30.436  26.446  27.063  1.00  0.00     0.163 HD
BRANCH   3   6
ATOM      6  C   UNL A   1      32.275  23.874  25.862  1.00  0.00     0.128 C 
ATOM      7  N   UNL A   1      33.491  22.158  25.471  1.00  0.00    -0.254 N 
ATOM      8  N   UNL A   1      32.304  22.582  25.998  1.00  0.00    -0.171 NA
ATOM      9  C   UNL A   1      34.208  23.210  24.734  1.00  0.00     0.180 C 
ATOM     10  C   UNL A   1      33.405  24.461  25.099  1.00  0.00     0.099 C 
BRANCH   7  11
ATOM     11  C   UNL A   1      33.644  20.818  25.113  1.00  0.00     0.060 A 
ATOM     12  C   UNL A   1      33.893  18.089  24.503  1.00  0.00     0.082 A 
ATOM     13  C   UNL A   1      35.039  18.860  24.702  1.00  0.00     0.024 A 
ATOM     14  C   UNL A   1      32.628  18.669  24.569  1.00  0.00     0.024 A 
ATOM     15  C   UNL A   1      34.909  20.223  24.994  1.00  0.00     0.029 A 
ATOM     16  C   UNL A   1      32.514  20.027  24.865  1.00  0.00     0.029 A 
BRANCH  12  17
ATOM     17  S   UNL A   1      34.037  16.362  24.162  1.00  0.00     0.238 S 
ATOM     18  O   UNL A   1      35.050  15.790  25.026  1.00  0.00    -0.207 OA
ATOM     19  O   UNL A   1      34.044  16.176  22.733  1.00  0.00    -0.207 OA
BRANCH  17  20
ATOM     20  N   UNL A   1      32.583  15.739  24.720  1.00  0.00    -0.225 NA
ATOM     21  H   UNL A   1      32.253  15.018  24.079  1.00  0.00     0.137 HD
ATOM     22  H   UNL A   1      31.892  16.488  24.776  1.00  0.00     0.137 HD
ENDBRANCH  17  20
ENDBRANCH  12  17
ENDBRANCH   7  11
BRANCH   9  23
ATOM     23  C   UNL A   1      35.679  23.388  24.994  1.00  0.00     0.128 A 
ATOM     24  C   UNL A   1      36.797  23.326  24.182  1.00  0.00     0.048 A 
ATOM     25  O   UNL A   1      36.071  23.718  26.265  1.00  0.00    -0.467 OA
ATOM     26  C   UNL A   1      37.917  23.599  25.004  1.00  0.00     0.042 A 
ATOM     27  C   UNL A   1      37.420  23.849  26.259  1.00  0.00     0.195 A 
ENDBRANCH   9  23
ENDBRANCH   3   6
ENDBRANCH   1   2
BRANCH   1  28
ATOM     28  C   UNL A   1      32.938  27.733  26.878  1.00  0.00     0.042 C 
BRANCH  28  29
ATOM     29  C   UNL A   1      33.993  28.603  26.208  1.00  0.00     0.118 C 
BRANCH  29  30
ATOM     30  N   UNL A   1      33.828  30.014  26.537  1.00  0.00    -0.352 N 
ATOM     31  C   UNL A   1      34.495  30.800  27.442  1.00  0.00     0.251 C 
ATOM     32  H   UNL A   1      33.123  30.476  26.028  1.00  0.00     0.163 HD
ATOM     33  O   UNL A   1      34.038  31.897  27.745  1.00  0.00    -0.269 OA
BRANCH  31  34
ATOM     34  C   UNL A   1      35.753  30.330  28.056  1.00  0.00     0.039 A 
ATOM     35  C   UNL A   1      35.702  29.668  29.286  1.00  0.00     0.014 A 
ATOM     36  C   UNL A   1      36.984  30.564  27.440  1.00  0.00     0.014 A 
ATOM     37  C   UNL A   1      36.879  29.187  29.863  1.00  0.00     0.010 A 
ATOM     38  C   UNL A   1      38.141  30.003  27.965  1.00  0.00     0.010 A 
ATOM     39  C   UNL A   1      38.103  29.318  29.187  1.00  0.00    -0.014 A 
BRANCH  39  40
ATOM     40  C   UNL A   1      39.358  28.753  29.742  1.00  0.00     0.031 A 
ATOM     41  C   UNL A   1      39.995  29.377  30.953  1.00  0.00     0.074 A 
ATOM     42  C   UNL A   1      39.960  27.726  29.112  1.00  0.00     0.049 A 
ATOM     43  N   UNL A   1      41.130  29.084  31.535  1.00  0.00    -0.248 NA
ATOM     44  C   UNL A   1      39.276  30.501  31.575  1.00  0.00     0.031 C 
ATOM     45  C   UNL A   1      39.467  27.068  27.901  1.00  0.00     0.029 A 
ATOM     46  N   UNL A   1      41.127  27.063  29.398  1.00  0.00    -0.354 N 
ATOM     47  C   UNL A   1      41.268  29.994  32.575  1.00  0.00     0.074 A 
ATOM     48  C   UNL A   1      40.131  30.887  32.510  1.00  0.00     0.031 C 
ATOM     49  C   UNL A   1      40.312  26.081  27.562  1.00  0.00     0.029 A 
ATOM     50  C   UNL A   1      41.426  26.064  28.503  1.00  0.00     0.049 A 
ATOM     51  H   UNL A   1      41.697  27.282  30.170  1.00  0.00     0.167 HD
ATOM     52  C   UNL A   1      42.241  30.064  33.514  1.00  0.00     0.037 A 
ATOM     53  C   UNL A   1      42.484  25.235  28.444  1.00  0.00     0.037 A 
ATOM     54  C   UNL A   1      43.356  29.158  33.589  1.00  0.00     0.049 A 
ATOM     55  C   UNL A   1      43.556  25.338  29.494  1.00  0.00     0.074 A 
ATOM     56  C   UNL A   1      44.361  29.106  34.538  1.00  0.00     0.029 A 
ATOM     57  N   UNL A   1      43.613  28.146  32.675  1.00  0.00    -0.354 N 
ATOM     58  N   UNL A   1      43.637  26.158  30.514  1.00  0.00    -0.248 NA
ATOM     59  C   UNL A   1      44.679  24.397  29.389  1.00  0.00     0.031 C 
ATOM     60  C   UNL A   1      45.256  28.094  34.170  1.00  0.00     0.029 A 
ATOM     61  C   UNL A   1      44.777  27.480  33.024  1.00  0.00     0.049 A 
ATOM     62  H   UNL A   1      43.052  27.934  31.894  1.00  0.00     0.167 HD
ATOM     63  C   UNL A   1      44.802  25.814  31.187  1.00  0.00     0.074 A 
ATOM     64  C   UNL A   1      45.385  24.700  30.468  1.00  0.00     0.031 C 
ATOM     65  C   UNL A   1      45.340  26.368  32.301  1.00  0.00     0.037 A 
BRANCH  52  66
ATOM     66  C   UNL A   1      42.139  31.159  34.538  1.00  0.00     0.057 A 
ATOM     67  C   UNL A   1      41.446  30.983  35.743  1.00  0.00     0.134 A 
ATOM     68  C   UNL A   1      42.770  32.392  34.332  1.00  0.00     0.134 A 
ATOM     69  F   UNL A   1      40.807  29.831  36.000  1.00  0.00    -0.206 F 
ATOM     70  C   UNL A   1      41.358  32.004  36.692  1.00  0.00     0.040 A 
ATOM     71  C   UNL A   1      42.715  33.409  35.286  1.00  0.00     0.040 A 
ATOM     72  F   UNL A   1      43.456  32.627  33.204  1.00  0.00    -0.206 F 
ATOM     73  C   UNL A   1      42.001  33.219  36.467  1.00  0.00     0.006 A 
ENDBRANCH  52  66
BRANCH  53  74
ATOM     74  C   UNL A   1      42.575  24.220  27.363  1.00  0.00     0.057 A 
ATOM     75  C   UNL A   1      42.103  22.917  27.555  1.00  0.00     0.134 A 
ATOM     76  C   UNL A   1      43.140  24.524  26.118  1.00  0.00     0.134 A 
ATOM     77  F   UNL A   1      41.566  22.560  28.731  1.00  0.00    -0.206 F 
ATOM     78  C   UNL A   1      42.210  21.945  26.559  1.00  0.00     0.040 A 
ATOM     79  C   UNL A   1      43.229  23.569  25.104  1.00  0.00     0.040 A 
ATOM     80  F   UNL A   1      43.602  25.757  25.867  1.00  0.00    -0.206 F 
ATOM     81  C   UNL A   1      42.770  22.273  25.326  1.00  0.00     0.006 A 
ENDBRANCH  53  74
BRANCH  65  82
ATOM     82  C   UNL A   1      46.603  25.755  32.832  1.00  0.00     0.057 A 
ATOM     83  C   UNL A   1      46.586  24.728  33.784  1.00  0.00     0.134 A 
ATOM     84  C   UNL A   1      47.852  26.175  32.355  1.00  0.00     0.134 A 
ATOM     85  F   UNL A   1      45.424  24.290  34.291  1.00  0.00    -0.206 F 
ATOM     86  C   UNL A   1      47.768  24.157  34.260  1.00  0.00     0.040 A 
ATOM     87  C   UNL A   1      49.037  25.592  32.800  1.00  0.00     0.040 A 
ATOM     88  F   UNL A   1      47.938  27.149  31.436  1.00  0.00    -0.206 F 
ATOM     89  C   UNL A   1      48.997  24.584  33.761  1.00  0.00     0.006 A 
ENDBRANCH  65  82
ENDBRANCH  39  40
ENDBRANCH  31  34
ENDBRANCH  29  30
ENDBRANCH  28  29
ENDBRANCH   1  28
TORSDOF 14
ENDMDL
MODEL 2
REMARK VINA RESULT:     -12.1      2.031      2.454
REMARK SMILES NS(=O)(=O)c1ccc(N2N=C(C(=O)NCCCNC(=O)c3ccc(-c4c5nc(c(-c6c(F)cccc6F)c6ccc([nH]6)c(-c6c(F)cccc6F)c6nc(c(-c7c(F)cccc7F)c7ccc4[nH]7)C=C6)C=C5)cc3)C[C@H]2c2ccco2)cc1
REMARK SMILES IDX 15 1 14 2 12 3 13 4 11 6 9 7 10 8 76 9 75 10 8 11 5 12 6 13
REMARK SMILES IDX 83 14 7 15 82 16 2 17 3 18 4 19 1 20 77 23 78 24 81 25 79 26
REMARK SMILES IDX 80 27 16 28 17 29 18 30 19 31 20 33 21 34 22 35 74 36 23 37
REMARK SMILES IDX 73 38 24 39 25 40 26 41 67 42 27 43 72 44 66 45 68 46 28 47
REMARK SMILES IDX 71 48 65 49 64 50 29 52 55 53 38 54 54 55 39 56 42 57 53 58
REMARK SMILES IDX 69 59 40 60 41 61 52 63 70 64 43 65 30 66 31 67 36 68 32 69
REMARK SMILES IDX 33 70 35 71 37 72 34 73 56 74 57 75 62 76 58 77 59 78 61 79
REMARK SMILES IDX 63 80 60 81 44 82 45 83 50 84 46 85 47 86 49 87 51 88 48 89
REMARK H PARENT 14 5 1 21 1 22 18 32 68 51 42 62
REMARK Flexibility Score: inf
ROOT
ATOM      1  C   UNL A   1      32.830  28.134  25.029  1.00  0.00     0.118 C 
ENDROOT
BRANCH   1   2
ATOM      2  N   UNL A   1      32.012  27.315  25.907  1.00  0.00    -0.351 N 
ATOM      3  C   UNL A   1      31.905  25.969  26.152  1.00  0.00     0.267 C 
ATOM      4  O   UNL A   1      30.998  25.601  26.897  1.00  0.00    -0.268 OA
ATOM      5  H   UNL A   1      31.391  27.849  26.453  1.00  0.00     0.163 HD
BRANCH   3   6
ATOM      6  C   UNL A   1      32.860  24.925  25.596  1.00  0.00     0.128 C 
ATOM      7  N   UNL A   1      33.669  22.988  25.189  1.00  0.00    -0.254 N 
ATOM      8  N   UNL A   1      32.553  23.663  25.592  1.00  0.00    -0.171 NA
ATOM      9  C   UNL A   1      34.728  23.870  24.676  1.00  0.00     0.180 C 
ATOM     10  C   UNL A   1      34.207  25.256  25.064  1.00  0.00     0.099 C 
BRANCH   7  11
ATOM     11  C   UNL A   1      33.547  21.683  24.710  1.00  0.00     0.060 A 
ATOM     12  C   UNL A   1      33.177  19.056  23.789  1.00  0.00     0.082 A 
ATOM     13  C   UNL A   1      34.091  19.307  24.814  1.00  0.00     0.024 A 
ATOM     14  C   UNL A   1      32.474  20.102  23.195  1.00  0.00     0.024 A 
ATOM     15  C   UNL A   1      34.280  20.620  25.261  1.00  0.00     0.029 A 
ATOM     16  C   UNL A   1      32.669  21.404  23.654  1.00  0.00     0.029 A 
BRANCH  12  17
ATOM     17  S   UNL A   1      32.906  17.403  23.231  1.00  0.00     0.238 S 
ATOM     18  O   UNL A   1      32.253  16.648  24.281  1.00  0.00    -0.207 OA
ATOM     19  O   UNL A   1      34.100  16.939  22.572  1.00  0.00    -0.207 OA
BRANCH  17  20
ATOM     20  N   UNL A   1      31.741  17.588  22.039  1.00  0.00    -0.225 NA
ATOM     21  H   UNL A   1      31.054  18.280  22.339  1.00  0.00     0.137 HD
ATOM     22  H   UNL A   1      31.275  16.695  21.876  1.00  0.00     0.137 HD
ENDBRANCH  17  20
ENDBRANCH  12  17
ENDBRANCH   7  11
BRANCH   9  23
ATOM     23  C   UNL A   1      36.138  23.645  25.153  1.00  0.00     0.128 A 
ATOM     24  C   UNL A   1      37.162  22.823  24.721  1.00  0.00     0.048 A 
ATOM     25  O   UNL A   1      36.588  24.399  26.205  1.00  0.00    -0.467 OA
ATOM     26  C   UNL A   1      38.270  23.066  25.568  1.00  0.00     0.042 A 
ATOM     27  C   UNL A   1      37.875  24.047  26.443  1.00  0.00     0.195 A 
ENDBRANCH   9  23
ENDBRANCH   3   6
ENDBRANCH   1   2
BRANCH   1  28
ATOM     28  C   UNL A   1      34.065  28.657  25.748  1.00  0.00     0.042 C 
BRANCH  28  29
ATOM     29  C   UNL A   1      33.883  28.724  27.259  1.00  0.00     0.118 C 
BRANCH  29  30
ATOM     30  N   UNL A   1      33.875  30.097  27.748  1.00  0.00    -0.352 N 
ATOM     31  C   UNL A   1      34.809  30.786  28.480  1.00  0.00     0.251 C 
ATOM     32  H   UNL A   1      33.069  30.614  27.516  1.00  0.00     0.163 HD
ATOM     33  O   UNL A   1      34.504  31.853  29.003  1.00  0.00    -0.269 OA
BRANCH  31  34
ATOM     34  C   UNL A   1      36.174  30.247  28.646  1.00  0.00     0.039 A 
ATOM     35  C   UNL A   1      37.059  30.294  27.564  1.00  0.00     0.014 A 
ATOM     36  C   UNL A   1      36.576  29.669  29.851  1.00  0.00     0.014 A 
ATOM     37  C   UNL A   1      38.363  29.819  27.716  1.00  0.00     0.010 A 
ATOM     38  C   UNL A   1      37.899  29.287  30.031  1.00  0.00     0.010 A 
ATOM     39  C   UNL A   1      38.804  29.348  28.963  1.00  0.00    -0.014 A 
BRANCH  39  40
ATOM     40  C   UNL A   1      40.205  28.905  29.171  1.00  0.00     0.031 A 
ATOM     41  C   UNL A   1      41.211  29.845  29.777  1.00  0.00     0.074 A 
ATOM     42  C   UNL A   1      40.586  27.684  28.749  1.00  0.00     0.049 A 
ATOM     43  N   UNL A   1      42.495  29.675  29.962  1.00  0.00    -0.248 NA
ATOM     44  C   UNL A   1      40.713  31.163  30.203  1.00  0.00     0.031 C 
ATOM     45  C   UNL A   1      39.715  26.701  28.101  1.00  0.00     0.029 A 
ATOM     46  N   UNL A   1      41.810  27.066  28.790  1.00  0.00    -0.354 N 
ATOM     47  C   UNL A   1      42.959  30.866  30.506  1.00  0.00     0.074 A 
ATOM     48  C   UNL A   1      41.832  31.770  30.569  1.00  0.00     0.031 C 
ATOM     49  C   UNL A   1      40.426  25.596  27.829  1.00  0.00     0.029 A 
ATOM     50  C   UNL A   1      41.810  25.807  28.240  1.00  0.00     0.049 A 
ATOM     51  H   UNL A   1      42.613  27.485  29.176  1.00  0.00     0.167 HD
ATOM     52  C   UNL A   1      44.206  31.169  30.939  1.00  0.00     0.037 A 
ATOM     53  C   UNL A   1      42.815  24.926  28.077  1.00  0.00     0.037 A 
ATOM     54  C   UNL A   1      45.318  30.256  30.897  1.00  0.00     0.049 A 
ATOM     55  C   UNL A   1      44.192  25.290  28.558  1.00  0.00     0.074 A 
ATOM     56  C   UNL A   1      46.605  30.445  31.367  1.00  0.00     0.029 A 
ATOM     57  N   UNL A   1      45.272  28.982  30.350  1.00  0.00    -0.354 N 
ATOM     58  N   UNL A   1      44.602  26.393  29.136  1.00  0.00    -0.248 NA
ATOM     59  C   UNL A   1      45.246  24.284  28.370  1.00  0.00     0.031 C 
ATOM     60  C   UNL A   1      47.354  29.303  31.059  1.00  0.00     0.029 A 
ATOM     61  C   UNL A   1      46.518  28.382  30.448  1.00  0.00     0.049 A 
ATOM     62  H   UNL A   1      44.474  28.566  29.951  1.00  0.00     0.167 HD
ATOM     63  C   UNL A   1      45.950  26.204  29.407  1.00  0.00     0.074 A 
ATOM     64  C   UNL A   1      46.285  24.873  28.943  1.00  0.00     0.031 C 
ATOM     65  C   UNL A   1      46.832  27.053  29.988  1.00  0.00     0.037 A 
BRANCH  52  66
ATOM     66  C   UNL A   1      44.432  32.545  31.496  1.00  0.00     0.057 A 
ATOM     67  C   UNL A   1      44.201  32.845  32.845  1.00  0.00     0.134 A 
ATOM     68  C   UNL A   1      44.917  33.576  30.681  1.00  0.00     0.134 A 
ATOM     69  F   UNL A   1      43.724  31.908  33.679  1.00  0.00    -0.206 F 
ATOM     70  C   UNL A   1      44.416  34.127  33.358  1.00  0.00     0.040 A 
ATOM     71  C   UNL A   1      45.165  34.853  31.188  1.00  0.00     0.040 A 
ATOM     72  F   UNL A   1      45.165  33.359  29.381  1.00  0.00    -0.206 F 
ATOM     73  C   UNL A   1      44.907  35.132  32.529  1.00  0.00     0.006 A 
ENDBRANCH  52  66
BRANCH  53  74
ATOM     74  C   UNL A   1      42.553  23.607  27.448  1.00  0.00     0.057 A 
ATOM     75  C   UNL A   1      42.258  22.482  28.226  1.00  0.00     0.134 A 
ATOM     76  C   UNL A   1      42.598  23.435  26.059  1.00  0.00     0.134 A 
ATOM     77  F   UNL A   1      42.217  22.579  29.564  1.00  0.00    -0.206 F 
ATOM     78  C   UNL A   1      42.041  21.229  27.650  1.00  0.00     0.040 A 
ATOM     79  C   UNL A   1      42.356  22.194  25.468  1.00  0.00     0.040 A 
ATOM     80  F   UNL A   1      42.864  24.476  25.256  1.00  0.00    -0.206 F 
ATOM     81  C   UNL A   1      42.085  21.085  26.265  1.00  0.00     0.006 A 
ENDBRANCH  53  74
BRANCH  65  82
ATOM     82  C   UNL A   1      48.235  26.557  30.189  1.00  0.00     0.057 A 
ATOM     83  C   UNL A   1      48.611  25.839  31.331  1.00  0.00     0.134 A 
ATOM     84  C   UNL A   1      49.211  26.768  29.207  1.00  0.00     0.134 A 
ATOM     85  F   UNL A   1      47.727  25.613  32.315  1.00  0.00    -0.206 F 
ATOM     86  C   UNL A   1      49.915  25.370  31.500  1.00  0.00     0.040 A 
ATOM     87  C   UNL A   1      50.509  26.279  29.350  1.00  0.00     0.040 A 
ATOM     88  F   UNL A   1      48.914  27.441  28.084  1.00  0.00    -0.206 F 
ATOM     89  C   UNL A   1      50.866  25.583  30.503  1.00  0.00     0.006 A 
ENDBRANCH  65  82
ENDBRANCH  39  40
ENDBRANCH  31  34
ENDBRANCH  29  30
ENDBRANCH  28  29
ENDBRANCH   1  28
TORSDOF 14
ENDMDL
MODEL 3
REMARK VINA RESULT:     -12.0      4.398      9.051
REMARK SMILES NS(=O)(=O)c1ccc(N2N=C(C(=O)NCCCNC(=O)c3ccc(-c4c5nc(c(-c6c(F)cccc6F)c6ccc([nH]6)c(-c6c(F)cccc6F)c6nc(c(-c7c(F)cccc7F)c7ccc4[nH]7)C=C6)C=C5)cc3)C[C@H]2c2ccco2)cc1
REMARK SMILES IDX 15 1 14 2 12 3 13 4 11 6 9 7 10 8 76 9 75 10 8 11 5 12 6 13
REMARK SMILES IDX 83 14 7 15 82 16 2 17 3 18 4 19 1 20 77 23 78 24 81 25 79 26
REMARK SMILES IDX 80 27 16 28 17 29 18 30 19 31 20 33 21 34 22 35 74 36 23 37
REMARK SMILES IDX 73 38 24 39 25 40 26 41 67 42 27 43 72 44 66 45 68 46 28 47
REMARK SMILES IDX 71 48 65 49 64 50 29 52 55 53 38 54 54 55 39 56 42 57 53 58
REMARK SMILES IDX 69 59 40 60 41 61 52 63 70 64 43 65 30 66 31 67 36 68 32 69
REMARK SMILES IDX 33 70 35 71 37 72 34 73 56 74 57 75 62 76 58 77 59 78 61 79
REMARK SMILES IDX 63 80 60 81 44 82 45 83 50 84 46 85 47 86 49 87 51 88 48 89
REMARK H PARENT 14 5 1 21 1 22 18 32 68 51 42 62
REMARK Flexibility Score: inf
ROOT
ATOM      1  C   UNL A   1      35.268  23.416  23.504  1.00  0.00     0.118 C 
ENDROOT
BRANCH   1   2
ATOM      2  N   UNL A   1      33.986  22.804  23.201  1.00  0.00    -0.351 N 
ATOM      3  C   UNL A   1      32.675  23.158  23.399  1.00  0.00     0.267 C 
ATOM      4  O   UNL A   1      31.817  22.324  23.115  1.00  0.00    -0.268 OA
ATOM      5  H   UNL A   1      34.079  21.935  22.748  1.00  0.00     0.163 HD
BRANCH   3   6
ATOM      6  C   UNL A   1      32.229  24.521  23.902  1.00  0.00     0.128 C 
ATOM      7  N   UNL A   1      31.607  26.566  23.813  1.00  0.00    -0.254 N 
ATOM      8  N   UNL A   1      31.754  25.417  23.090  1.00  0.00    -0.171 NA
ATOM      9  C   UNL A   1      31.788  26.368  25.259  1.00  0.00     0.180 C 
ATOM     10  C   UNL A   1      32.340  24.942  25.321  1.00  0.00     0.099 C 
BRANCH   7  11
ATOM     11  C   UNL A   1      30.764  27.573  23.340  1.00  0.00     0.060 A 
ATOM     12  C   UNL A   1      29.123  29.679  22.474  1.00  0.00     0.082 A 
ATOM     13  C   UNL A   1      28.548  28.557  23.073  1.00  0.00     0.024 A 
ATOM     14  C   UNL A   1      30.499  29.747  22.269  1.00  0.00     0.024 A 
ATOM     15  C   UNL A   1      29.371  27.504  23.491  1.00  0.00     0.029 A 
ATOM     16  C   UNL A   1      31.306  28.693  22.696  1.00  0.00     0.029 A 
BRANCH  12  17
ATOM     17  S   UNL A   1      28.104  31.029  21.964  1.00  0.00     0.238 S 
ATOM     18  O   UNL A   1      27.173  31.349  23.027  1.00  0.00    -0.207 OA
ATOM     19  O   UNL A   1      27.679  30.796  20.607  1.00  0.00    -0.207 OA
BRANCH  17  20
ATOM     20  N   UNL A   1      29.174  32.319  21.916  1.00  0.00    -0.225 NA
ATOM     21  H   UNL A   1      29.308  32.685  22.859  1.00  0.00     0.137 HD
ATOM     22  H   UNL A   1      28.796  33.053  21.317  1.00  0.00     0.137 HD
ENDBRANCH  17  20
ENDBRANCH  12  17
ENDBRANCH   7  11
BRANCH   9  23
ATOM     23  C   UNL A   1      32.658  27.341  26.010  1.00  0.00     0.128 A 
ATOM     24  C   UNL A   1      34.027  27.485  26.131  1.00  0.00     0.048 A 
ATOM     25  O   UNL A   1      32.042  28.344  26.712  1.00  0.00    -0.467 OA
ATOM     26  C   UNL A   1      34.250  28.604  26.969  1.00  0.00     0.042 A 
ATOM     27  C   UNL A   1      33.009  29.102  27.281  1.00  0.00     0.195 A 
ENDBRANCH   9  23
ENDBRANCH   3   6
ENDBRANCH   1   2
BRANCH   1  28
ATOM     28  C   UNL A   1      36.188  22.446  24.233  1.00  0.00     0.042 C 
BRANCH  28  29
ATOM     29  C   UNL A   1      36.970  23.110  25.359  1.00  0.00     0.118 C 
BRANCH  29  30
ATOM     30  N   UNL A   1      37.987  22.224  25.914  1.00  0.00    -0.352 N 
ATOM     31  C   UNL A   1      39.200  22.512  26.486  1.00  0.00     0.251 C 
ATOM     32  H   UNL A   1      37.768  21.265  25.869  1.00  0.00     0.163 HD
ATOM     33  O   UNL A   1      40.016  21.613  26.661  1.00  0.00    -0.269 OA
BRANCH  31  34
ATOM     34  C   UNL A   1      39.530  23.895  26.883  1.00  0.00     0.039 A 
ATOM     35  C   UNL A   1      39.320  24.289  28.208  1.00  0.00     0.014 A 
ATOM     36  C   UNL A   1      40.015  24.813  25.950  1.00  0.00     0.014 A 
ATOM     37  C   UNL A   1      39.659  25.583  28.607  1.00  0.00     0.010 A 
ATOM     38  C   UNL A   1      40.441  26.068  26.368  1.00  0.00     0.010 A 
ATOM     39  C   UNL A   1      40.258  26.470  27.698  1.00  0.00    -0.014 A 
BRANCH  39  40
ATOM     40  C   UNL A   1      40.694  27.827  28.112  1.00  0.00     0.031 A 
ATOM     41  C   UNL A   1      42.156  28.179  28.123  1.00  0.00     0.074 A 
ATOM     42  C   UNL A   1      39.780  28.714  28.548  1.00  0.00     0.049 A 
ATOM     43  N   UNL A   1      42.740  29.277  28.530  1.00  0.00    -0.248 NA
ATOM     44  C   UNL A   1      43.090  27.148  27.639  1.00  0.00     0.031 C 
ATOM     45  C   UNL A   1      38.338  28.474  28.633  1.00  0.00     0.029 A 
ATOM     46  N   UNL A   1      39.931  29.996  29.014  1.00  0.00    -0.354 N 
ATOM     47  C   UNL A   1      44.103  29.062  28.370  1.00  0.00     0.074 A 
ATOM     48  C   UNL A   1      44.265  27.710  27.882  1.00  0.00     0.031 C 
ATOM     49  C   UNL A   1      37.735  29.580  29.097  1.00  0.00     0.029 A 
ATOM     50  C   UNL A   1      38.747  30.589  29.385  1.00  0.00     0.049 A 
ATOM     51  H   UNL A   1      40.802  30.448  29.078  1.00  0.00     0.167 HD
ATOM     52  C   UNL A   1      45.126  29.923  28.584  1.00  0.00     0.037 A 
ATOM     53  C   UNL A   1      38.508  31.806  29.907  1.00  0.00     0.037 A 
ATOM     54  C   UNL A   1      44.958  31.276  29.045  1.00  0.00     0.049 A 
ATOM     55  C   UNL A   1      39.663  32.741  30.144  1.00  0.00     0.074 A 
ATOM     56  C   UNL A   1      45.925  32.247  29.235  1.00  0.00     0.029 A 
ATOM     57  N   UNL A   1      43.742  31.846  29.391  1.00  0.00    -0.354 N 
ATOM     58  N   UNL A   1      40.941  32.550  29.921  1.00  0.00    -0.248 NA
ATOM     59  C   UNL A   1      39.341  34.062  30.700  1.00  0.00     0.031 C 
ATOM     60  C   UNL A   1      45.299  33.391  29.745  1.00  0.00     0.029 A 
ATOM     61  C   UNL A   1      43.937  33.150  29.818  1.00  0.00     0.049 A 
ATOM     62  H   UNL A   1      42.870  31.391  29.341  1.00  0.00     0.167 HD
ATOM     63  C   UNL A   1      41.572  33.734  30.280  1.00  0.00     0.074 A 
ATOM     64  C   UNL A   1      40.532  34.641  30.722  1.00  0.00     0.031 C 
ATOM     65  C   UNL A   1      42.890  34.043  30.247  1.00  0.00     0.037 A 
BRANCH  52  66
ATOM     66  C   UNL A   1      46.519  29.425  28.321  1.00  0.00     0.057 A 
ATOM     67  C   UNL A   1      47.281  28.798  29.316  1.00  0.00     0.134 A 
ATOM     68  C   UNL A   1      47.093  29.544  27.049  1.00  0.00     0.134 A 
ATOM     69  F   UNL A   1      46.798  28.662  30.560  1.00  0.00    -0.206 F 
ATOM     70  C   UNL A   1      48.574  28.334  29.064  1.00  0.00     0.040 A 
ATOM     71  C   UNL A   1      48.373  29.058  26.777  1.00  0.00     0.040 A 
ATOM     72  F   UNL A   1      46.418  30.128  26.048  1.00  0.00    -0.206 F 
ATOM     73  C   UNL A   1      49.120  28.457  27.788  1.00  0.00     0.006 A 
ENDBRANCH  52  66
BRANCH  53  74
ATOM     74  C   UNL A   1      37.118  32.221  30.223  1.00  0.00     0.057 A 
ATOM     75  C   UNL A   1      36.555  31.963  31.478  1.00  0.00     0.134 A 
ATOM     76  C   UNL A   1      36.317  32.878  29.281  1.00  0.00     0.134 A 
ATOM     77  F   UNL A   1      37.266  31.322  32.417  1.00  0.00    -0.206 F 
ATOM     78  C   UNL A   1      35.240  32.320  31.778  1.00  0.00     0.040 A 
ATOM     79  C   UNL A   1      35.009  33.266  29.576  1.00  0.00     0.040 A 
ATOM     80  F   UNL A   1      36.801  33.166  28.064  1.00  0.00    -0.206 F 
ATOM     81  C   UNL A   1      34.464  32.978  30.825  1.00  0.00     0.006 A 
ENDBRANCH  53  74
BRANCH  65  82
ATOM     82  C   UNL A   1      43.282  35.431  30.664  1.00  0.00     0.057 A 
ATOM     83  C   UNL A   1      43.536  35.760  32.002  1.00  0.00     0.134 A 
ATOM     84  C   UNL A   1      43.446  36.440  29.707  1.00  0.00     0.134 A 
ATOM     85  F   UNL A   1      43.384  34.842  32.969  1.00  0.00    -0.206 F 
ATOM     86  C   UNL A   1      43.914  37.051  32.375  1.00  0.00     0.040 A 
ATOM     87  C   UNL A   1      43.852  37.726  30.064  1.00  0.00     0.040 A 
ATOM     88  F   UNL A   1      43.228  36.189  28.407  1.00  0.00    -0.206 F 
ATOM     89  C   UNL A   1      44.081  38.035  31.403  1.00  0.00     0.006 A 
ENDBRANCH  65  82
ENDBRANCH  39  40
ENDBRANCH  31  34
ENDBRANCH  29  30
ENDBRANCH  28  29
ENDBRANCH   1  28
TORSDOF 14
ENDMDL
