MODEL 1
REMARK VINA RESULT:     -11.1      0.000      0.000
REMARK SMILES O=C(NCCCNC(=O)c1cccc(Br)c1C(F)(F)F)c1ccc(-c2c3nc(c(-c4c(F)cccc4F)c4ccc([nH]4)c(-c4c(F)cccc4F)c4nc(c(-c5c(F)cccc5F)c5ccc2[nH]5)C=C4)C=C3)cc1
REMARK SMILES IDX 4 1 3 2 1 3 2 4 21 6 22 7 74 8 23 9 73 10 24 11 25 12 26 13
REMARK SMILES IDX 67 14 27 15 72 16 66 17 68 18 28 19 71 20 65 21 64 22 29 24
REMARK SMILES IDX 55 25 38 26 54 27 39 28 42 29 53 30 69 31 40 32 41 33 52 35
REMARK SMILES IDX 70 36 43 37 30 38 31 39 36 40 32 41 33 42 35 43 37 44 34 45
REMARK SMILES IDX 56 46 57 47 62 48 58 49 59 50 61 51 63 52 60 53 44 54 45 55
REMARK SMILES IDX 50 56 46 57 47 58 49 59 51 60 48 61 5 62 6 63 7 64 8 65 9 67
REMARK SMILES IDX 10 68 11 69 16 70 12 71 14 72 13 73 15 74 17 75 18 76 19 77
REMARK SMILES IDX 20 78
REMARK H PARENT 3 5 68 23 42 34 7 66
REMARK Flexibility Score: inf
ROOT
ATOM      1  C   UNL A   1      39.065  19.885  26.041  1.00  0.00     0.118 C 
ENDROOT
BRANCH   1   2
ATOM      2  N   UNL A   1      40.320  19.186  25.799  1.00  0.00    -0.352 N 
ATOM      3  O   UNL A   1      42.527  18.890  25.492  1.00  0.00    -0.269 OA
ATOM      4  C   UNL A   1      41.622  19.609  25.911  1.00  0.00     0.251 C 
ATOM      5  H   UNL A   1      40.218  18.252  25.506  1.00  0.00     0.163 HD
BRANCH   4   6
ATOM      6  C   UNL A   1      41.950  20.924  26.506  1.00  0.00     0.039 A 
ATOM      7  C   UNL A   1      41.972  21.111  27.888  1.00  0.00     0.014 A 
ATOM      8  C   UNL A   1      42.291  21.986  25.659  1.00  0.00     0.014 A 
ATOM      9  C   UNL A   1      42.169  22.383  28.415  1.00  0.00     0.010 A 
ATOM     10  C   UNL A   1      42.585  23.244  26.195  1.00  0.00     0.010 A 
ATOM     11  C   UNL A   1      42.492  23.461  27.577  1.00  0.00    -0.014 A 
BRANCH  11  12
ATOM     12  C   UNL A   1      42.786  24.786  28.180  1.00  0.00     0.031 A 
ATOM     13  C   UNL A   1      44.189  25.181  28.550  1.00  0.00     0.074 A 
ATOM     14  C   UNL A   1      41.772  25.654  28.361  1.00  0.00     0.049 A 
ATOM     15  N   UNL A   1      44.620  26.312  29.050  1.00  0.00    -0.248 NA
ATOM     16  C   UNL A   1      45.244  24.178  28.339  1.00  0.00     0.031 C 
ATOM     17  C   UNL A   1      40.365  25.379  28.057  1.00  0.00     0.029 A 
ATOM     18  N   UNL A   1      41.766  26.946  28.820  1.00  0.00    -0.354 N 
ATOM     19  C   UNL A   1      45.988  26.153  29.231  1.00  0.00     0.074 A 
ATOM     20  C   UNL A   1      46.313  24.806  28.810  1.00  0.00     0.031 C 
ATOM     21  C   UNL A   1      39.643  26.484  28.286  1.00  0.00     0.029 A 
ATOM     22  C   UNL A   1      40.520  27.525  28.806  1.00  0.00     0.049 A 
ATOM     23  H   UNL A   1      42.576  27.413  29.130  1.00  0.00     0.167 HD
ATOM     24  C   UNL A   1      46.889  27.049  29.698  1.00  0.00     0.037 A 
ATOM     25  C   UNL A   1      40.126  28.756  29.178  1.00  0.00     0.037 A 
ATOM     26  C   UNL A   1      46.566  28.396  30.097  1.00  0.00     0.049 A 
ATOM     27  C   UNL A   1      41.142  29.725  29.702  1.00  0.00     0.074 A 
ATOM     28  C   UNL A   1      47.419  29.392  30.543  1.00  0.00     0.029 A 
ATOM     29  N   UNL A   1      45.287  28.934  30.102  1.00  0.00    -0.354 N 
ATOM     30  N   UNL A   1      42.437  29.567  29.837  1.00  0.00    -0.248 NA
ATOM     31  C   UNL A   1      40.643  31.037  30.132  1.00  0.00     0.031 C 
ATOM     32  C   UNL A   1      46.651  30.520  30.853  1.00  0.00     0.029 A 
ATOM     33  C   UNL A   1      45.325  30.240  30.564  1.00  0.00     0.049 A 
ATOM     34  H   UNL A   1      44.474  28.458  29.818  1.00  0.00     0.167 HD
ATOM     35  C   UNL A   1      42.910  30.762  30.361  1.00  0.00     0.074 A 
ATOM     36  C   UNL A   1      41.766  31.642  30.498  1.00  0.00     0.031 C 
ATOM     37  C   UNL A   1      44.177  31.097  30.703  1.00  0.00     0.037 A 
BRANCH  24  38
ATOM     38  C   UNL A   1      48.316  26.600  29.818  1.00  0.00     0.057 A 
ATOM     39  C   UNL A   1      48.781  25.903  30.940  1.00  0.00     0.134 A 
ATOM     40  C   UNL A   1      49.226  26.831  28.778  1.00  0.00     0.134 A 
ATOM     41  F   UNL A   1      47.964  25.660  31.977  1.00  0.00    -0.206 F 
ATOM     42  C   UNL A   1      50.104  25.469  31.033  1.00  0.00     0.040 A 
ATOM     43  C   UNL A   1      50.546  26.382  28.849  1.00  0.00     0.040 A 
ATOM     44  F   UNL A   1      48.844  27.486  27.672  1.00  0.00    -0.206 F 
ATOM     45  C   UNL A   1      50.989  25.702  29.982  1.00  0.00     0.006 A 
ENDBRANCH  24  38
BRANCH  25  46
ATOM     46  C   UNL A   1      38.696  29.131  29.062  1.00  0.00     0.057 A 
ATOM     47  C   UNL A   1      37.843  29.078  30.169  1.00  0.00     0.134 A 
ATOM     48  C   UNL A   1      38.157  29.578  27.849  1.00  0.00     0.134 A 
ATOM     49  F   UNL A   1      38.301  28.643  31.352  1.00  0.00    -0.206 F 
ATOM     50  C   UNL A   1      36.502  29.451  30.075  1.00  0.00     0.040 A 
ATOM     51  C   UNL A   1      36.824  29.975  27.746  1.00  0.00     0.040 A 
ATOM     52  F   UNL A   1      38.927  29.658  26.754  1.00  0.00    -0.206 F 
ATOM     53  C   UNL A   1      35.991  29.909  28.861  1.00  0.00     0.006 A 
ENDBRANCH  25  46
BRANCH  37  54
ATOM     54  C   UNL A   1      44.388  32.478  31.248  1.00  0.00     0.057 A 
ATOM     55  C   UNL A   1      44.341  32.738  32.623  1.00  0.00     0.134 A 
ATOM     56  C   UNL A   1      44.657  33.551  30.391  1.00  0.00     0.134 A 
ATOM     57  F   UNL A   1      44.071  31.752  33.492  1.00  0.00    -0.206 F 
ATOM     58  C   UNL A   1      44.536  34.025  33.127  1.00  0.00     0.040 A 
ATOM     59  C   UNL A   1      44.875  34.839  30.885  1.00  0.00     0.040 A 
ATOM     60  F   UNL A   1      44.719  33.366  29.064  1.00  0.00    -0.206 F 
ATOM     61  C   UNL A   1      44.809  35.079  32.256  1.00  0.00     0.006 A 
ENDBRANCH  37  54
ENDBRANCH  11  12
ENDBRANCH   4   6
ENDBRANCH   1   2
BRANCH   1  62
ATOM     62  C   UNL A   1      38.067  19.732  24.901  1.00  0.00     0.042 C 
BRANCH  62  63
ATOM     63  C   UNL A   1      37.095  20.894  24.753  1.00  0.00     0.118 C 
BRANCH  63  64
ATOM     64  N   UNL A   1      36.283  21.107  25.942  1.00  0.00    -0.352 N 
ATOM     65  C   UNL A   1      34.978  21.498  26.073  1.00  0.00     0.251 C 
ATOM     66  H   UNL A   1      36.750  20.942  26.793  1.00  0.00     0.163 HD
ATOM     67  O   UNL A   1      34.494  21.676  27.187  1.00  0.00    -0.269 OA
BRANCH  65  68
ATOM     68  C   UNL A   1      34.121  21.689  24.885  1.00  0.00     0.053 A 
ATOM     69  C   UNL A   1      33.330  20.602  24.479  1.00  0.00     0.014 A 
ATOM     70  C   UNL A   1      34.017  22.951  24.255  1.00  0.00     0.082 A 
ATOM     71  C   UNL A   1      32.472  20.727  23.395  1.00  0.00     0.002 A 
ATOM     72  C   UNL A   1      33.097  23.067  23.199  1.00  0.00     0.031 A 
ATOM     73  C   UNL A   1      32.356  21.958  22.758  1.00  0.00     0.016 A 
ATOM     74  Br  UNL A   1      32.719  24.699  22.298  1.00  0.00    -0.050 Br
BRANCH  70  75
ATOM     75  C   UNL A   1      34.846  24.110  24.759  1.00  0.00     0.418 C 
ATOM     76  F   UNL A   1      34.712  24.314  26.097  1.00  0.00    -0.166 F 
ATOM     77  F   UNL A   1      36.180  23.966  24.512  1.00  0.00    -0.166 F 
ATOM     78  F   UNL A   1      34.546  25.308  24.179  1.00  0.00    -0.166 F 
ENDBRANCH  70  75
ENDBRANCH  65  68
ENDBRANCH  63  64
ENDBRANCH  62  63
ENDBRANCH   1  62
TORSDOF 11
ENDMDL
MODEL 2
REMARK VINA RESULT:     -11.0      0.373      1.485
REMARK SMILES O=C(NCCCNC(=O)c1cccc(Br)c1C(F)(F)F)c1ccc(-c2c3nc(c(-c4c(F)cccc4F)c4ccc([nH]4)c(-c4c(F)cccc4F)c4nc(c(-c5c(F)cccc5F)c5ccc2[nH]5)C=C4)C=C3)cc1
REMARK SMILES IDX 4 1 3 2 1 3 2 4 21 6 22 7 74 8 23 9 73 10 24 11 25 12 26 13
REMARK SMILES IDX 67 14 27 15 72 16 66 17 68 18 28 19 71 20 65 21 64 22 29 24
REMARK SMILES IDX 55 25 38 26 54 27 39 28 42 29 53 30 69 31 40 32 41 33 52 35
REMARK SMILES IDX 70 36 43 37 30 38 31 39 36 40 32 41 33 42 35 43 37 44 34 45
REMARK SMILES IDX 56 46 57 47 62 48 58 49 59 50 61 51 63 52 60 53 44 54 45 55
REMARK SMILES IDX 50 56 46 57 47 58 49 59 51 60 48 61 5 62 6 63 7 64 8 65 9 67
REMARK SMILES IDX 10 68 11 69 16 70 12 71 14 72 13 73 15 74 17 75 18 76 19 77
REMARK SMILES IDX 20 78
REMARK H PARENT 3 5 68 23 42 34 7 66
REMARK Flexibility Score: inf
ROOT
ATOM      1  C   UNL A   1      38.845  20.078  25.779  1.00  0.00     0.118 C 
ENDROOT
BRANCH   1   2
ATOM      2  N   UNL A   1      40.050  19.259  25.756  1.00  0.00    -0.352 N 
ATOM      3  O   UNL A   1      42.240  18.755  25.785  1.00  0.00    -0.269 OA
ATOM      4  C   UNL A   1      41.358  19.574  26.033  1.00  0.00     0.251 C 
ATOM      5  H   UNL A   1      39.901  18.320  25.499  1.00  0.00     0.163 HD
BRANCH   4   6
ATOM      6  C   UNL A   1      41.723  20.891  26.600  1.00  0.00     0.039 A 
ATOM      7  C   UNL A   1      41.722  21.114  27.978  1.00  0.00     0.014 A 
ATOM      8  C   UNL A   1      42.123  21.916  25.734  1.00  0.00     0.014 A 
ATOM      9  C   UNL A   1      41.957  22.390  28.476  1.00  0.00     0.010 A 
ATOM     10  C   UNL A   1      42.454  23.175  26.244  1.00  0.00     0.010 A 
ATOM     11  C   UNL A   1      42.339  23.433  27.618  1.00  0.00    -0.014 A 
BRANCH  11  12
ATOM     12  C   UNL A   1      42.671  24.761  28.194  1.00  0.00     0.031 A 
ATOM     13  C   UNL A   1      44.089  25.136  28.524  1.00  0.00     0.074 A 
ATOM     14  C   UNL A   1      41.678  25.650  28.385  1.00  0.00     0.049 A 
ATOM     15  N   UNL A   1      44.552  26.266  28.997  1.00  0.00    -0.248 NA
ATOM     16  C   UNL A   1      45.121  24.111  28.305  1.00  0.00     0.031 C 
ATOM     17  C   UNL A   1      40.259  25.397  28.117  1.00  0.00     0.029 A 
ATOM     18  N   UNL A   1      41.705  26.949  28.824  1.00  0.00    -0.354 N 
ATOM     19  C   UNL A   1      45.921  26.085  29.149  1.00  0.00     0.074 A 
ATOM     20  C   UNL A   1      46.212  24.726  28.741  1.00  0.00     0.031 C 
ATOM     21  C   UNL A   1      39.562  26.518  28.346  1.00  0.00     0.029 A 
ATOM     22  C   UNL A   1      40.471  27.551  28.829  1.00  0.00     0.049 A 
ATOM     23  H   UNL A   1      42.531  27.405  29.107  1.00  0.00     0.167 HD
ATOM     24  C   UNL A   1      46.849  26.972  29.581  1.00  0.00     0.037 A 
ATOM     25  C   UNL A   1      40.107  28.794  29.191  1.00  0.00     0.037 A 
ATOM     26  C   UNL A   1      46.559  28.330  29.967  1.00  0.00     0.049 A 
ATOM     27  C   UNL A   1      41.153  29.752  29.676  1.00  0.00     0.074 A 
ATOM     28  C   UNL A   1      47.441  29.317  30.377  1.00  0.00     0.029 A 
ATOM     29  N   UNL A   1      45.292  28.891  29.992  1.00  0.00    -0.354 N 
ATOM     30  N   UNL A   1      42.447  29.573  29.784  1.00  0.00    -0.248 NA
ATOM     31  C   UNL A   1      40.688  31.079  30.097  1.00  0.00     0.031 C 
ATOM     32  C   UNL A   1      46.700  30.463  30.687  1.00  0.00     0.029 A 
ATOM     33  C   UNL A   1      45.364  30.203  30.433  1.00  0.00     0.049 A 
ATOM     34  H   UNL A   1      44.463  28.426  29.735  1.00  0.00     0.167 HD
ATOM     35  C   UNL A   1      42.954  30.767  30.278  1.00  0.00     0.074 A 
ATOM     36  C   UNL A   1      41.830  31.669  30.427  1.00  0.00     0.031 C 
ATOM     37  C   UNL A   1      44.234  31.084  30.586  1.00  0.00     0.037 A 
BRANCH  24  38
ATOM     38  C   UNL A   1      48.270  26.498  29.674  1.00  0.00     0.057 A 
ATOM     39  C   UNL A   1      49.184  26.690  28.630  1.00  0.00     0.134 A 
ATOM     40  C   UNL A   1      48.740  25.880  30.841  1.00  0.00     0.134 A 
ATOM     41  F   UNL A   1      48.795  27.264  27.482  1.00  0.00    -0.206 F 
ATOM     42  C   UNL A   1      50.510  26.266  28.735  1.00  0.00     0.040 A 
ATOM     43  C   UNL A   1      50.069  25.472  30.966  1.00  0.00     0.040 A 
ATOM     44  F   UNL A   1      47.919  25.673  31.880  1.00  0.00    -0.206 F 
ATOM     45  C   UNL A   1      50.958  25.662  29.909  1.00  0.00     0.006 A 
ENDBRANCH  24  38
BRANCH  25  46
ATOM     46  C   UNL A   1      38.682  29.194  29.102  1.00  0.00     0.057 A 
ATOM     47  C   UNL A   1      37.852  29.162  30.227  1.00  0.00     0.134 A 
ATOM     48  C   UNL A   1      38.126  29.642  27.898  1.00  0.00     0.134 A 
ATOM     49  F   UNL A   1      38.326  28.727  31.404  1.00  0.00    -0.206 F 
ATOM     50  C   UNL A   1      36.516  29.558  30.158  1.00  0.00     0.040 A 
ATOM     51  C   UNL A   1      36.798  30.063  27.820  1.00  0.00     0.040 A 
ATOM     52  F   UNL A   1      38.874  29.702  26.787  1.00  0.00    -0.206 F 
ATOM     53  C   UNL A   1      35.988  30.018  28.953  1.00  0.00     0.006 A 
ENDBRANCH  25  46
BRANCH  37  54
ATOM     54  C   UNL A   1      44.483  32.468  31.103  1.00  0.00     0.057 A 
ATOM     55  C   UNL A   1      44.734  33.540  30.237  1.00  0.00     0.134 A 
ATOM     56  C   UNL A   1      44.452  32.734  32.477  1.00  0.00     0.134 A 
ATOM     57  F   UNL A   1      44.791  33.343  28.911  1.00  0.00    -0.206 F 
ATOM     58  C   UNL A   1      44.966  34.827  30.723  1.00  0.00     0.040 A 
ATOM     59  C   UNL A   1      44.662  34.022  32.973  1.00  0.00     0.040 A 
ATOM     60  F   UNL A   1      44.213  31.751  33.357  1.00  0.00    -0.206 F 
ATOM     61  C   UNL A   1      44.926  35.072  32.095  1.00  0.00     0.006 A 
ENDBRANCH  37  54
ENDBRANCH  11  12
ENDBRANCH   4   6
ENDBRANCH   1   2
BRANCH   1  62
ATOM     62  C   UNL A   1      37.740  19.541  24.880  1.00  0.00     0.042 C 
BRANCH  62  63
ATOM     63  C   UNL A   1      36.606  20.522  24.618  1.00  0.00     0.118 C 
BRANCH  63  64
ATOM     64  N   UNL A   1      35.663  20.603  25.723  1.00  0.00    -0.352 N 
ATOM     65  C   UNL A   1      34.443  21.219  25.811  1.00  0.00     0.251 C 
ATOM     66  H   UNL A   1      35.949  20.138  26.542  1.00  0.00     0.163 HD
ATOM     67  O   UNL A   1      33.824  21.216  26.871  1.00  0.00    -0.269 OA
BRANCH  65  68
ATOM     68  C   UNL A   1      33.838  21.875  24.634  1.00  0.00     0.053 A 
ATOM     69  C   UNL A   1      32.933  21.121  23.869  1.00  0.00     0.014 A 
ATOM     70  C   UNL A   1      34.074  23.242  24.359  1.00  0.00     0.082 A 
ATOM     71  C   UNL A   1      32.298  21.690  22.774  1.00  0.00     0.002 A 
ATOM     72  C   UNL A   1      33.372  23.810  23.281  1.00  0.00     0.031 A 
ATOM     73  C   UNL A   1      32.518  23.032  22.483  1.00  0.00     0.016 A 
ATOM     74  Br  UNL A   1      33.454  25.653  22.817  1.00  0.00    -0.050 Br
BRANCH  70  75
ATOM     75  C   UNL A   1      35.013  24.032  25.241  1.00  0.00     0.418 C 
ATOM     76  F   UNL A   1      36.322  23.748  25.010  1.00  0.00    -0.166 F 
ATOM     77  F   UNL A   1      34.871  25.383  25.106  1.00  0.00    -0.166 F 
ATOM     78  F   UNL A   1      34.830  23.830  26.578  1.00  0.00    -0.166 F 
ENDBRANCH  70  75
ENDBRANCH  65  68
ENDBRANCH  63  64
ENDBRANCH  62  63
ENDBRANCH   1  62
TORSDOF 11
ENDMDL
MODEL 3
REMARK VINA RESULT:     -11.0      4.934      9.451
REMARK SMILES O=C(NCCCNC(=O)c1cccc(Br)c1C(F)(F)F)c1ccc(-c2c3nc(c(-c4c(F)cccc4F)c4ccc([nH]4)c(-c4c(F)cccc4F)c4nc(c(-c5c(F)cccc5F)c5ccc2[nH]5)C=C4)C=C3)cc1
REMARK SMILES IDX 4 1 3 2 1 3 2 4 21 6 22 7 74 8 23 9 73 10 24 11 25 12 26 13
REMARK SMILES IDX 67 14 27 15 72 16 66 17 68 18 28 19 71 20 65 21 64 22 29 24
REMARK SMILES IDX 55 25 38 26 54 27 39 28 42 29 53 30 69 31 40 32 41 33 52 35
REMARK SMILES IDX 70 36 43 37 30 38 31 39 36 40 32 41 33 42 35 43 37 44 34 45
REMARK SMILES IDX 56 46 57 47 62 48 58 49 59 50 61 51 63 52 60 53 44 54 45 55
REMARK SMILES IDX 50 56 46 57 47 58 49 59 51 60 48 61 5 62 6 63 7 64 8 65 9 67
REMARK SMILES IDX 10 68 11 69 16 70 12 71 14 72 13 73 15 74 17 75 18 76 19 77
REMARK SMILES IDX 20 78
REMARK H PARENT 3 5 68 23 42 34 7 66
REMARK Flexibility Score: inf
ROOT
ATOM      1  C   UNL A   1      32.677  32.862  26.881  1.00  0.00     0.118 C 
ENDROOT
BRANCH   1   2
ATOM      2  N   UNL A   1      32.539  34.107  27.626  1.00  0.00    -0.352 N 
ATOM      3  O   UNL A   1      32.812  35.592  29.291  1.00  0.00    -0.269 OA
ATOM      4  C   UNL A   1      33.213  34.576  28.727  1.00  0.00     0.251 C 
ATOM      5  H   UNL A   1      31.846  34.716  27.281  1.00  0.00     0.163 HD
BRANCH   4   6
ATOM      6  C   UNL A   1      34.397  33.865  29.259  1.00  0.00     0.039 A 
ATOM      7  C   UNL A   1      34.264  32.732  30.062  1.00  0.00     0.014 A 
ATOM      8  C   UNL A   1      35.675  34.316  28.906  1.00  0.00     0.014 A 
ATOM      9  C   UNL A   1      35.388  32.154  30.641  1.00  0.00     0.010 A 
ATOM     10  C   UNL A   1      36.809  33.674  29.412  1.00  0.00     0.010 A 
ATOM     11  C   UNL A   1      36.675  32.608  30.313  1.00  0.00    -0.014 A 
BRANCH  11  12
ATOM     12  C   UNL A   1      37.856  31.909  30.878  1.00  0.00     0.031 A 
ATOM     13  C   UNL A   1      38.342  32.200  32.272  1.00  0.00     0.074 A 
ATOM     14  C   UNL A   1      38.474  30.973  30.132  1.00  0.00     0.049 A 
ATOM     15  N   UNL A   1      39.334  31.652  32.928  1.00  0.00    -0.248 NA
ATOM     16  C   UNL A   1      37.630  33.244  33.024  1.00  0.00     0.031 C 
ATOM     17  C   UNL A   1      38.105  30.614  28.760  1.00  0.00     0.029 A 
ATOM     18  N   UNL A   1      39.521  30.138  30.423  1.00  0.00    -0.354 N 
ATOM     19  C   UNL A   1      39.378  32.294  34.159  1.00  0.00     0.074 A 
ATOM     20  C   UNL A   1      38.328  33.291  34.150  1.00  0.00     0.031 C 
ATOM     21  C   UNL A   1      38.876  29.598  28.350  1.00  0.00     0.029 A 
ATOM     22  C   UNL A   1      39.829  29.271  29.403  1.00  0.00     0.049 A 
ATOM     23  H   UNL A   1      40.005  30.158  31.281  1.00  0.00     0.167 HD
ATOM     24  C   UNL A   1      40.212  32.066  35.202  1.00  0.00     0.037 A 
ATOM     25  C   UNL A   1      40.780  28.323  29.320  1.00  0.00     0.037 A 
ATOM     26  C   UNL A   1      41.243  31.059  35.215  1.00  0.00     0.049 A 
ATOM     27  C   UNL A   1      41.697  28.101  30.485  1.00  0.00     0.074 A 
ATOM     28  C   UNL A   1      42.109  30.725  36.243  1.00  0.00     0.029 A 
ATOM     29  N   UNL A   1      41.547  30.225  34.150  1.00  0.00    -0.354 N 
ATOM     30  N   UNL A   1      41.705  28.696  31.653  1.00  0.00    -0.248 NA
ATOM     31  C   UNL A   1      42.741  27.082  30.318  1.00  0.00     0.031 C 
ATOM     32  C   UNL A   1      42.963  29.716  35.785  1.00  0.00     0.029 A 
ATOM     33  C   UNL A   1      42.604  29.394  34.486  1.00  0.00     0.049 A 
ATOM     34  H   UNL A   1      41.082  30.225  33.282  1.00  0.00     0.167 HD
ATOM     35  C   UNL A   1      42.748  28.120  32.364  1.00  0.00     0.074 A 
ATOM     36  C   UNL A   1      43.335  27.113  31.503  1.00  0.00     0.031 C 
ATOM     37  C   UNL A   1      43.183  28.404  33.615  1.00  0.00     0.037 A 
BRANCH  24  38
ATOM     38  C   UNL A   1      40.056  32.934  36.417  1.00  0.00     0.057 A 
ATOM     39  C   UNL A   1      39.117  32.646  37.416  1.00  0.00     0.134 A 
ATOM     40  C   UNL A   1      40.884  34.048  36.609  1.00  0.00     0.134 A 
ATOM     41  F   UNL A   1      38.286  31.601  37.288  1.00  0.00    -0.206 F 
ATOM     42  C   UNL A   1      38.995  33.446  38.554  1.00  0.00     0.040 A 
ATOM     43  C   UNL A   1      40.785  34.842  37.752  1.00  0.00     0.040 A 
ATOM     44  F   UNL A   1      41.807  34.375  35.693  1.00  0.00    -0.206 F 
ATOM     45  C   UNL A   1      39.836  34.544  38.727  1.00  0.00     0.006 A 
ENDBRANCH  24  38
BRANCH  25  46
ATOM     46  C   UNL A   1      40.902  27.517  28.082  1.00  0.00     0.057 A 
ATOM     47  C   UNL A   1      41.704  27.945  27.019  1.00  0.00     0.134 A 
ATOM     48  C   UNL A   1      40.243  26.290  27.945  1.00  0.00     0.134 A 
ATOM     49  F   UNL A   1      42.347  29.119  27.088  1.00  0.00    -0.206 F 
ATOM     50  C   UNL A   1      41.843  27.182  25.859  1.00  0.00     0.040 A 
ATOM     51  C   UNL A   1      40.391  25.506  26.800  1.00  0.00     0.040 A 
ATOM     52  F   UNL A   1      39.466  25.824  28.934  1.00  0.00    -0.206 F 
ATOM     53  C   UNL A   1      41.191  25.954  25.751  1.00  0.00     0.006 A 
ENDBRANCH  25  46
BRANCH  37  54
ATOM     54  C   UNL A   1      44.343  27.605  34.125  1.00  0.00     0.057 A 
ATOM     55  C   UNL A   1      44.160  26.370  34.759  1.00  0.00     0.134 A 
ATOM     56  C   UNL A   1      45.654  28.066  33.965  1.00  0.00     0.134 A 
ATOM     57  F   UNL A   1      42.925  25.884  34.956  1.00  0.00    -0.206 F 
ATOM     58  C   UNL A   1      45.242  25.629  35.235  1.00  0.00     0.040 A 
ATOM     59  C   UNL A   1      46.747  27.324  34.418  1.00  0.00     0.040 A 
ATOM     60  F   UNL A   1      45.896  29.239  33.362  1.00  0.00    -0.206 F 
ATOM     61  C   UNL A   1      46.541  26.104  35.060  1.00  0.00     0.006 A 
ENDBRANCH  37  54
ENDBRANCH  11  12
ENDBRANCH   4   6
ENDBRANCH   1   2
BRANCH   1  62
ATOM     62  C   UNL A   1      31.381  32.066  26.805  1.00  0.00     0.042 C 
BRANCH  62  63
ATOM     63  C   UNL A   1      31.567  30.586  26.504  1.00  0.00     0.118 C 
BRANCH  63  64
ATOM     64  N   UNL A   1      32.455  30.345  25.377  1.00  0.00    -0.352 N 
ATOM     65  C   UNL A   1      32.479  29.328  24.460  1.00  0.00     0.251 C 
ATOM     66  H   UNL A   1      33.156  31.026  25.253  1.00  0.00     0.163 HD
ATOM     67  O   UNL A   1      33.362  29.283  23.609  1.00  0.00    -0.269 OA
BRANCH  65  68
ATOM     68  C   UNL A   1      31.433  28.285  24.459  1.00  0.00     0.053 A 
ATOM     69  C   UNL A   1      30.350  28.457  23.582  1.00  0.00     0.014 A 
ATOM     70  C   UNL A   1      31.579  27.105  25.226  1.00  0.00     0.082 A 
ATOM     71  C   UNL A   1      29.354  27.494  23.501  1.00  0.00     0.002 A 
ATOM     72  C   UNL A   1      30.587  26.119  25.081  1.00  0.00     0.031 A 
ATOM     73  C   UNL A   1      29.475  26.328  24.249  1.00  0.00     0.016 A 
ATOM     74  Br  UNL A   1      30.653  24.417  25.928  1.00  0.00    -0.050 Br
BRANCH  70  75
ATOM     75  C   UNL A   1      32.788  26.935  26.115  1.00  0.00     0.418 C 
ATOM     76  F   UNL A   1      32.720  27.680  27.251  1.00  0.00    -0.166 F 
ATOM     77  F   UNL A   1      32.996  25.643  26.501  1.00  0.00    -0.166 F 
ATOM     78  F   UNL A   1      33.970  27.281  25.527  1.00  0.00    -0.166 F 
ENDBRANCH  70  75
ENDBRANCH  65  68
ENDBRANCH  63  64
ENDBRANCH  62  63
ENDBRANCH   1  62
TORSDOF 11
ENDMDL
