MODEL 1
REMARK VINA RESULT:     -11.7      0.000      0.000
REMARK SMILES COc1ccc([C@@H]2CC[NH2+][C@H]2C(=O)NCCCNC(=O)c2ccc(-c3c4nc(c(-c5c(F)cccc5F)c5ccc([nH]5)c(-c5c(F)cccc5F)c5nc(c(-c6c(F)cccc6F)c6ccc3[nH]6)C=C5)C=C4)cc2)c2ccccc12
REMARK SMILES IDX 16 1 15 2 14 3 12 4 13 5 11 7 7 8 8 9 9 10 10 11 6 14 3 15
REMARK SMILES IDX 4 16 80 17 5 18 75 19 79 20 76 21 78 22 77 23 2 24 1 25
REMARK SMILES IDX 17 26 18 27 19 28 20 30 21 31 22 32 74 33 23 34 73 35 24 36
REMARK SMILES IDX 25 37 26 38 67 39 27 40 72 41 66 42 68 43 28 44 71 45 65 46
REMARK SMILES IDX 64 47 29 49 55 50 38 51 54 52 39 53 42 54 53 55 69 56 40 57
REMARK SMILES IDX 41 58 52 60 70 61 43 62 30 63 31 64 36 65 32 66 33 67 35 68
REMARK SMILES IDX 37 69 34 70 56 71 57 72 62 73 58 74 59 75 61 76 63 77 60 78
REMARK SMILES IDX 44 79 45 80 50 81 46 82 47 83 49 84 51 85 48 86
REMARK H PARENT 14 6 10 12 10 13 18 29 68 48 42 59
REMARK Flexibility Score: inf
ROOT
ATOM      1  C   UNL A   1      34.137  28.412  25.754  1.00  0.00     0.042 C 
ENDROOT
BRANCH   1   2
ATOM      2  C   UNL A   1      32.982  28.339  24.760  1.00  0.00     0.118 C 
BRANCH   2   3
ATOM      3  N   UNL A   1      33.390  27.803  23.473  1.00  0.00    -0.351 N 
ATOM      4  C   UNL A   1      33.391  26.539  22.957  1.00  0.00     0.278 C 
ATOM      5  O   UNL A   1      33.857  26.417  21.820  1.00  0.00    -0.268 OA
ATOM      6  H   UNL A   1      33.733  28.485  22.852  1.00  0.00     0.163 HD
BRANCH   4   7
ATOM      7  C   UNL A   1      32.861  25.306  23.727  1.00  0.00     0.280 C 
ATOM      8  C   UNL A   1      33.831  24.803  24.803  1.00  0.00     0.094 C 
ATOM      9  C   UNL A   1      33.077  24.997  26.124  1.00  0.00     0.076 C 
ATOM     10  C   UNL A   1      31.612  25.132  25.748  1.00  0.00     0.262 C 
ATOM     11  N   UNL A   1      31.550  25.590  24.364  1.00  0.00    -0.335 N 
ATOM     12  H   UNL A   1      31.363  26.593  24.338  1.00  0.00     0.346 HD
ATOM     13  H   UNL A   1      30.802  25.109  23.864  1.00  0.00     0.346 HD
BRANCH   8  14
ATOM     14  C   UNL A   1      34.285  23.348  24.645  1.00  0.00    -0.030 A 
ATOM     15  C   UNL A   1      34.844  20.582  24.749  1.00  0.00     0.126 A 
ATOM     16  C   UNL A   1      33.592  21.028  24.335  1.00  0.00     0.047 A 
ATOM     17  C   UNL A   1      35.865  21.513  25.058  1.00  0.00     0.024 A 
ATOM     18  C   UNL A   1      33.322  22.390  24.276  1.00  0.00     0.009 A 
ATOM     19  C   UNL A   1      35.605  22.911  24.974  1.00  0.00    -0.011 A 
ATOM     20  C   UNL A   1      37.152  21.074  25.445  1.00  0.00     0.012 A 
ATOM     21  C   UNL A   1      36.693  23.789  25.225  1.00  0.00     0.009 A 
ATOM     22  C   UNL A   1      38.188  21.966  25.705  1.00  0.00     0.001 A 
ATOM     23  C   UNL A   1      37.961  23.325  25.580  1.00  0.00     0.001 A 
BRANCH  15  24
ATOM     24  O   UNL A   1      35.148  19.251  24.917  1.00  0.00    -0.496 OA
ATOM     25  C   UNL A   1      34.259  18.314  24.323  1.00  0.00     0.278 C 
ENDBRANCH  15  24
ENDBRANCH   8  14
ENDBRANCH   4   7
ENDBRANCH   2   3
ENDBRANCH   1   2
BRANCH   1  26
ATOM     26  C   UNL A   1      33.683  28.584  27.198  1.00  0.00     0.118 C 
BRANCH  26  27
ATOM     27  N   UNL A   1      33.670  29.984  27.604  1.00  0.00    -0.352 N 
ATOM     28  C   UNL A   1      34.611  30.720  28.275  1.00  0.00     0.251 C 
ATOM     29  H   UNL A   1      32.857  30.480  27.356  1.00  0.00     0.163 HD
ATOM     30  O   UNL A   1      34.307  31.827  28.721  1.00  0.00    -0.269 OA
BRANCH  28  31
ATOM     31  C   UNL A   1      35.981  30.200  28.478  1.00  0.00     0.039 A 
ATOM     32  C   UNL A   1      36.886  30.244  27.412  1.00  0.00     0.014 A 
ATOM     33  C   UNL A   1      36.364  29.628  29.694  1.00  0.00     0.014 A 
ATOM     34  C   UNL A   1      38.188  29.770  27.585  1.00  0.00     0.010 A 
ATOM     35  C   UNL A   1      37.683  29.228  29.889  1.00  0.00     0.010 A 
ATOM     36  C   UNL A   1      38.606  29.287  28.834  1.00  0.00    -0.014 A 
BRANCH  36  37
ATOM     37  C   UNL A   1      39.998  28.826  29.063  1.00  0.00     0.031 A 
ATOM     38  C   UNL A   1      41.019  29.770  29.638  1.00  0.00     0.074 A 
ATOM     39  C   UNL A   1      40.363  27.588  28.679  1.00  0.00     0.049 A 
ATOM     40  N   UNL A   1      42.304  29.594  29.809  1.00  0.00    -0.248 NA
ATOM     41  C   UNL A   1      40.535  31.097  30.049  1.00  0.00     0.031 C 
ATOM     42  C   UNL A   1      39.476  26.595  28.069  1.00  0.00     0.029 A 
ATOM     43  N   UNL A   1      41.581  26.960  28.728  1.00  0.00    -0.354 N 
ATOM     44  C   UNL A   1      42.785  30.793  30.322  1.00  0.00     0.074 A 
ATOM     45  C   UNL A   1      41.662  31.702  30.393  1.00  0.00     0.031 C 
ATOM     46  C   UNL A   1      40.176  25.479  27.814  1.00  0.00     0.029 A 
ATOM     47  C   UNL A   1      41.566  25.689  28.204  1.00  0.00     0.049 A 
ATOM     48  H   UNL A   1      42.390  27.378  29.104  1.00  0.00     0.167 HD
ATOM     49  C   UNL A   1      44.044  31.099  30.717  1.00  0.00     0.037 A 
ATOM     50  C   UNL A   1      42.565  24.801  28.042  1.00  0.00     0.037 A 
ATOM     51  C   UNL A   1      45.150  30.181  30.676  1.00  0.00     0.049 A 
ATOM     52  C   UNL A   1      43.952  25.165  28.491  1.00  0.00     0.074 A 
ATOM     53  C   UNL A   1      46.448  30.375  31.115  1.00  0.00     0.029 A 
ATOM     54  N   UNL A   1      45.087  28.893  30.165  1.00  0.00    -0.354 N 
ATOM     55  N   UNL A   1      44.380  26.281  29.032  1.00  0.00    -0.248 NA
ATOM     56  C   UNL A   1      44.996  24.145  28.312  1.00  0.00     0.031 C 
ATOM     57  C   UNL A   1      47.182  29.218  30.832  1.00  0.00     0.029 A 
ATOM     58  C   UNL A   1      46.330  28.287  30.260  1.00  0.00     0.049 A 
ATOM     59  H   UNL A   1      44.281  28.471  29.791  1.00  0.00     0.167 HD
ATOM     60  C   UNL A   1      45.732  26.087  29.284  1.00  0.00     0.074 A 
ATOM     61  C   UNL A   1      46.051  24.744  28.846  1.00  0.00     0.031 C 
ATOM     62  C   UNL A   1      46.627  26.946  29.829  1.00  0.00     0.037 A 
BRANCH  49  63
ATOM     63  C   UNL A   1      44.289  32.488  31.230  1.00  0.00     0.057 A 
ATOM     64  C   UNL A   1      44.656  33.538  30.378  1.00  0.00     0.134 A 
ATOM     65  C   UNL A   1      44.124  32.789  32.589  1.00  0.00     0.134 A 
ATOM     66  F   UNL A   1      44.843  33.317  29.068  1.00  0.00    -0.206 F 
ATOM     67  C   UNL A   1      44.875  34.830  30.861  1.00  0.00     0.040 A 
ATOM     68  C   UNL A   1      44.314  34.081  33.080  1.00  0.00     0.040 A 
ATOM     69  F   UNL A   1      43.768  31.832  33.459  1.00  0.00    -0.206 F 
ATOM     70  C   UNL A   1      44.697  35.105  32.215  1.00  0.00     0.006 A 
ENDBRANCH  49  63
BRANCH  50  71
ATOM     71  C   UNL A   1      42.284  23.472  27.442  1.00  0.00     0.057 A 
ATOM     72  C   UNL A   1      41.944  22.378  28.244  1.00  0.00     0.134 A 
ATOM     73  C   UNL A   1      42.350  23.264  26.059  1.00  0.00     0.134 A 
ATOM     74  F   UNL A   1      41.882  22.512  29.577  1.00  0.00    -0.206 F 
ATOM     75  C   UNL A   1      41.695  21.118  27.695  1.00  0.00     0.040 A 
ATOM     76  C   UNL A   1      42.081  22.017  25.496  1.00  0.00     0.040 A 
ATOM     77  F   UNL A   1      42.664  24.276  25.236  1.00  0.00    -0.206 F 
ATOM     78  C   UNL A   1      41.759  20.938  26.316  1.00  0.00     0.006 A 
ENDBRANCH  50  71
BRANCH  62  79
ATOM     79  C   UNL A   1      48.029  26.447  30.019  1.00  0.00     0.057 A 
ATOM     80  C   UNL A   1      49.020  26.635  29.049  1.00  0.00     0.134 A 
ATOM     81  C   UNL A   1      48.401  25.812  31.212  1.00  0.00     0.134 A 
ATOM     82  F   UNL A   1      48.724  27.223  27.880  1.00  0.00    -0.206 F 
ATOM     83  C   UNL A   1      50.329  26.193  29.249  1.00  0.00     0.040 A 
ATOM     84  C   UNL A   1      49.712  25.389  31.434  1.00  0.00     0.040 A 
ATOM     85  F   UNL A   1      47.502  25.608  32.186  1.00  0.00    -0.206 F 
ATOM     86  C   UNL A   1      50.679  25.574  30.448  1.00  0.00     0.006 A 
ENDBRANCH  62  79
ENDBRANCH  36  37
ENDBRANCH  28  31
ENDBRANCH  26  27
ENDBRANCH   1  26
TORSDOF 12
ENDMDL
MODEL 2
REMARK VINA RESULT:     -11.7      4.070      9.538
REMARK SMILES COc1ccc([C@@H]2CC[NH2+][C@H]2C(=O)NCCCNC(=O)c2ccc(-c3c4nc(c(-c5c(F)cccc5F)c5ccc([nH]5)c(-c5c(F)cccc5F)c5nc(c(-c6c(F)cccc6F)c6ccc3[nH]6)C=C5)C=C4)cc2)c2ccccc12
REMARK SMILES IDX 16 1 15 2 14 3 12 4 13 5 11 7 7 8 8 9 9 10 10 11 6 14 3 15
REMARK SMILES IDX 4 16 80 17 5 18 75 19 79 20 76 21 78 22 77 23 2 24 1 25
REMARK SMILES IDX 17 26 18 27 19 28 20 30 21 31 22 32 74 33 23 34 73 35 24 36
REMARK SMILES IDX 25 37 26 38 67 39 27 40 72 41 66 42 68 43 28 44 71 45 65 46
REMARK SMILES IDX 64 47 29 49 55 50 38 51 54 52 39 53 42 54 53 55 69 56 40 57
REMARK SMILES IDX 41 58 52 60 70 61 43 62 30 63 31 64 36 65 32 66 33 67 35 68
REMARK SMILES IDX 37 69 34 70 56 71 57 72 62 73 58 74 59 75 61 76 63 77 60 78
REMARK SMILES IDX 44 79 45 80 50 81 46 82 47 83 49 84 51 85 48 86
REMARK H PARENT 14 6 10 12 10 13 18 29 68 48 42 59
REMARK Flexibility Score: inf
ROOT
ATOM      1  C   UNL A   1      41.837  19.965  27.362  1.00  0.00     0.042 C 
ENDROOT
BRANCH   1   2
ATOM      2  C   UNL A   1      41.984  19.654  25.876  1.00  0.00     0.118 C 
BRANCH   2   3
ATOM      3  N   UNL A   1      43.344  19.840  25.401  1.00  0.00    -0.351 N 
ATOM      4  C   UNL A   1      44.152  20.938  25.320  1.00  0.00     0.278 C 
ATOM      5  O   UNL A   1      45.264  20.757  24.812  1.00  0.00    -0.268 OA
ATOM      6  H   UNL A   1      43.764  19.013  25.072  1.00  0.00     0.163 HD
BRANCH   4   7
ATOM      7  C   UNL A   1      43.731  22.342  25.813  1.00  0.00     0.280 C 
ATOM      8  C   UNL A   1      44.921  23.224  26.212  1.00  0.00     0.094 C 
ATOM      9  C   UNL A   1      44.880  24.397  25.224  1.00  0.00     0.076 C 
ATOM     10  C   UNL A   1      43.475  24.405  24.649  1.00  0.00     0.262 C 
ATOM     11  N   UNL A   1      42.932  23.057  24.785  1.00  0.00    -0.335 N 
ATOM     12  H   UNL A   1      42.996  22.565  23.893  1.00  0.00     0.346 HD
ATOM     13  H   UNL A   1      41.951  23.096  25.063  1.00  0.00     0.346 HD
BRANCH   8  14
ATOM     14  C   UNL A   1      44.902  23.731  27.658  1.00  0.00    -0.030 A 
ATOM     15  C   UNL A   1      44.571  25.016  30.151  1.00  0.00     0.126 A 
ATOM     16  C   UNL A   1      43.528  24.276  29.601  1.00  0.00     0.047 A 
ATOM     17  C   UNL A   1      45.825  25.075  29.495  1.00  0.00     0.024 A 
ATOM     18  C   UNL A   1      43.696  23.637  28.378  1.00  0.00     0.009 A 
ATOM     19  C   UNL A   1      46.014  24.400  28.255  1.00  0.00    -0.011 A 
ATOM     20  C   UNL A   1      46.904  25.792  30.061  1.00  0.00     0.012 A 
ATOM     21  C   UNL A   1      47.316  24.438  27.689  1.00  0.00     0.009 A 
ATOM     22  C   UNL A   1      48.161  25.825  29.464  1.00  0.00     0.001 A 
ATOM     23  C   UNL A   1      48.370  25.135  28.284  1.00  0.00     0.001 A 
BRANCH  15  24
ATOM     24  O   UNL A   1      44.442  25.745  31.310  1.00  0.00    -0.496 OA
ATOM     25  C   UNL A   1      43.643  26.918  31.240  1.00  0.00     0.278 C 
ENDBRANCH  15  24
ENDBRANCH   8  14
ENDBRANCH   4   7
ENDBRANCH   2   3
ENDBRANCH   1   2
BRANCH   1  26
ATOM     26  C   UNL A   1      41.107  21.274  27.637  1.00  0.00     0.118 C 
BRANCH  26  27
ATOM     27  N   UNL A   1      39.962  21.456  26.753  1.00  0.00    -0.352 N 
ATOM     28  C   UNL A   1      39.227  22.579  26.477  1.00  0.00     0.251 C 
ATOM     29  H   UNL A   1      39.671  20.644  26.278  1.00  0.00     0.163 HD
ATOM     30  O   UNL A   1      38.157  22.468  25.876  1.00  0.00    -0.269 OA
BRANCH  28  31
ATOM     31  C   UNL A   1      39.696  23.918  26.895  1.00  0.00     0.039 A 
ATOM     32  C   UNL A   1      40.183  24.798  25.924  1.00  0.00     0.014 A 
ATOM     33  C   UNL A   1      39.701  24.292  28.241  1.00  0.00     0.014 A 
ATOM     34  C   UNL A   1      40.620  26.072  26.296  1.00  0.00     0.010 A 
ATOM     35  C   UNL A   1      40.062  25.588  28.601  1.00  0.00     0.010 A 
ATOM     36  C   UNL A   1      40.533  26.488  27.633  1.00  0.00    -0.014 A 
BRANCH  36  37
ATOM     37  C   UNL A   1      40.939  27.853  28.050  1.00  0.00     0.031 A 
ATOM     38  C   UNL A   1      42.389  28.251  28.016  1.00  0.00     0.074 A 
ATOM     39  C   UNL A   1      40.016  28.705  28.534  1.00  0.00     0.049 A 
ATOM     40  N   UNL A   1      42.955  29.351  28.441  1.00  0.00    -0.248 NA
ATOM     41  C   UNL A   1      43.331  27.269  27.455  1.00  0.00     0.031 C 
ATOM     42  C   UNL A   1      38.584  28.421  28.659  1.00  0.00     0.029 A 
ATOM     43  N   UNL A   1      40.146  29.978  29.029  1.00  0.00    -0.354 N 
ATOM     44  C   UNL A   1      44.318  29.184  28.222  1.00  0.00     0.074 A 
ATOM     45  C   UNL A   1      44.498  27.860  27.668  1.00  0.00     0.031 C 
ATOM     46  C   UNL A   1      37.968  29.492  29.182  1.00  0.00     0.029 A 
ATOM     47  C   UNL A   1      38.963  30.522  29.467  1.00  0.00     0.049 A 
ATOM     48  H   UNL A   1      41.006  30.456  29.068  1.00  0.00     0.167 HD
ATOM     49  C   UNL A   1      45.324  30.063  28.445  1.00  0.00     0.037 A 
ATOM     50  C   UNL A   1      38.711  31.711  30.047  1.00  0.00     0.037 A 
ATOM     51  C   UNL A   1      45.136  31.392  28.965  1.00  0.00     0.049 A 
ATOM     52  C   UNL A   1      39.845  32.669  30.280  1.00  0.00     0.074 A 
ATOM     53  C   UNL A   1      46.084  32.381  29.164  1.00  0.00     0.029 A 
ATOM     54  N   UNL A   1      43.917  31.916  29.368  1.00  0.00    -0.354 N 
ATOM     55  N   UNL A   1      41.120  32.522  30.011  1.00  0.00    -0.248 NA
ATOM     56  C   UNL A   1      39.505  33.962  30.893  1.00  0.00     0.031 C 
ATOM     57  C   UNL A   1      45.445  33.490  29.726  1.00  0.00     0.029 A 
ATOM     58  C   UNL A   1      44.092  33.209  29.834  1.00  0.00     0.049 A 
ATOM     59  H   UNL A   1      43.057  31.441  29.329  1.00  0.00     0.167 HD
ATOM     60  C   UNL A   1      41.728  33.711  30.394  1.00  0.00     0.074 A 
ATOM     61  C   UNL A   1      40.682  34.571  30.904  1.00  0.00     0.031 C 
ATOM     62  C   UNL A   1      43.037  34.056  30.328  1.00  0.00     0.037 A 
BRANCH  49  63
ATOM     63  C   UNL A   1      46.720  29.614  28.123  1.00  0.00     0.057 A 
ATOM     64  C   UNL A   1      47.184  29.530  26.804  1.00  0.00     0.134 A 
ATOM     65  C   UNL A   1      47.622  29.296  29.146  1.00  0.00     0.134 A 
ATOM     66  F   UNL A   1      46.367  29.808  25.776  1.00  0.00    -0.206 F 
ATOM     67  C   UNL A   1      48.487  29.119  26.513  1.00  0.00     0.040 A 
ATOM     68  C   UNL A   1      48.935  28.911  28.869  1.00  0.00     0.040 A 
ATOM     69  F   UNL A   1      47.246  29.363  30.432  1.00  0.00    -0.206 F 
ATOM     70  C   UNL A   1      49.368  28.815  27.548  1.00  0.00     0.006 A 
ENDBRANCH  49  63
BRANCH  50  71
ATOM     71  C   UNL A   1      37.322  32.068  30.431  1.00  0.00     0.057 A 
ATOM     72  C   UNL A   1      36.823  31.754  31.700  1.00  0.00     0.134 A 
ATOM     73  C   UNL A   1      36.463  32.728  29.544  1.00  0.00     0.134 A 
ATOM     74  F   UNL A   1      37.593  31.106  32.586  1.00  0.00    -0.206 F 
ATOM     75  C   UNL A   1      35.513  32.067  32.068  1.00  0.00     0.040 A 
ATOM     76  C   UNL A   1      35.160  33.069  29.908  1.00  0.00     0.040 A 
ATOM     77  F   UNL A   1      36.885  33.063  28.316  1.00  0.00    -0.206 F 
ATOM     78  C   UNL A   1      34.680  32.731  31.172  1.00  0.00     0.006 A 
ENDBRANCH  50  71
BRANCH  62  79
ATOM     79  C   UNL A   1      43.407  35.437  30.783  1.00  0.00     0.057 A 
ATOM     80  C   UNL A   1      43.735  35.714  32.115  1.00  0.00     0.134 A 
ATOM     81  C   UNL A   1      43.480  36.492  29.863  1.00  0.00     0.134 A 
ATOM     82  F   UNL A   1      43.671  34.751  33.046  1.00  0.00    -0.206 F 
ATOM     83  C   UNL A   1      44.107  36.998  32.521  1.00  0.00     0.040 A 
ATOM     84  C   UNL A   1      43.874  37.772  30.253  1.00  0.00     0.040 A 
ATOM     85  F   UNL A   1      43.186  36.291  28.570  1.00  0.00    -0.206 F 
ATOM     86  C   UNL A   1      44.184  38.029  31.586  1.00  0.00     0.006 A 
ENDBRANCH  62  79
ENDBRANCH  36  37
ENDBRANCH  28  31
ENDBRANCH  26  27
ENDBRANCH   1  26
TORSDOF 12
ENDMDL
MODEL 3
REMARK VINA RESULT:     -11.4      3.680      7.741
REMARK SMILES COc1ccc([C@@H]2CC[NH2+][C@H]2C(=O)NCCCNC(=O)c2ccc(-c3c4nc(c(-c5c(F)cccc5F)c5ccc([nH]5)c(-c5c(F)cccc5F)c5nc(c(-c6c(F)cccc6F)c6ccc3[nH]6)C=C5)C=C4)cc2)c2ccccc12
REMARK SMILES IDX 16 1 15 2 14 3 12 4 13 5 11 7 7 8 8 9 9 10 10 11 6 14 3 15
REMARK SMILES IDX 4 16 80 17 5 18 75 19 79 20 76 21 78 22 77 23 2 24 1 25
REMARK SMILES IDX 17 26 18 27 19 28 20 30 21 31 22 32 74 33 23 34 73 35 24 36
REMARK SMILES IDX 25 37 26 38 67 39 27 40 72 41 66 42 68 43 28 44 71 45 65 46
REMARK SMILES IDX 64 47 29 49 55 50 38 51 54 52 39 53 42 54 53 55 69 56 40 57
REMARK SMILES IDX 41 58 52 60 70 61 43 62 30 63 31 64 36 65 32 66 33 67 35 68
REMARK SMILES IDX 37 69 34 70 56 71 57 72 62 73 58 74 59 75 61 76 63 77 60 78
REMARK SMILES IDX 44 79 45 80 50 81 46 82 47 83 49 84 51 85 48 86
REMARK H PARENT 14 6 10 12 10 13 18 29 68 48 42 59
REMARK Flexibility Score: inf
ROOT
ATOM      1  C   UNL A   1      31.437  32.021  26.863  1.00  0.00     0.042 C 
ENDROOT
BRANCH   1   2
ATOM      2  C   UNL A   1      31.700  30.519  26.888  1.00  0.00     0.118 C 
BRANCH   2   3
ATOM      3  N   UNL A   1      32.973  30.188  27.503  1.00  0.00    -0.351 N 
ATOM      4  C   UNL A   1      33.957  29.302  27.169  1.00  0.00     0.278 C 
ATOM      5  O   UNL A   1      34.913  29.234  27.948  1.00  0.00    -0.268 OA
ATOM      6  H   UNL A   1      33.162  30.702  28.320  1.00  0.00     0.163 HD
BRANCH   4   7
ATOM      7  C   UNL A   1      33.907  28.412  25.905  1.00  0.00     0.280 C 
ATOM      8  C   UNL A   1      32.802  27.349  25.958  1.00  0.00     0.094 C 
ATOM      9  C   UNL A   1      31.858  27.715  24.805  1.00  0.00     0.076 C 
ATOM     10  C   UNL A   1      32.660  28.618  23.885  1.00  0.00     0.262 C 
ATOM     11  N   UNL A   1      33.723  29.228  24.677  1.00  0.00    -0.335 N 
ATOM     12  H   UNL A   1      33.465  30.181  24.931  1.00  0.00     0.346 HD
ATOM     13  H   UNL A   1      34.591  29.260  24.142  1.00  0.00     0.346 HD
BRANCH   8  14
ATOM     14  C   UNL A   1      33.283  25.900  25.827  1.00  0.00    -0.030 A 
ATOM     15  C   UNL A   1      34.199  23.328  25.106  1.00  0.00     0.126 A 
ATOM     16  C   UNL A   1      35.070  24.414  25.081  1.00  0.00     0.047 A 
ATOM     17  C   UNL A   1      32.866  23.495  25.554  1.00  0.00     0.024 A 
ATOM     18  C   UNL A   1      34.619  25.677  25.445  1.00  0.00     0.009 A 
ATOM     19  C   UNL A   1      32.404  24.781  25.955  1.00  0.00    -0.011 A 
ATOM     20  C   UNL A   1      31.981  22.394  25.619  1.00  0.00     0.012 A 
ATOM     21  C   UNL A   1      31.081  24.865  26.465  1.00  0.00     0.009 A 
ATOM     22  C   UNL A   1      30.682  22.519  26.103  1.00  0.00     0.001 A 
ATOM     23  C   UNL A   1      30.237  23.754  26.541  1.00  0.00     0.001 A 
BRANCH  15  24
ATOM     24  O   UNL A   1      34.555  22.072  24.672  1.00  0.00    -0.496 OA
ATOM     25  C   UNL A   1      35.931  21.862  24.385  1.00  0.00     0.278 C 
ENDBRANCH  15  24
ENDBRANCH   8  14
ENDBRANCH   4   7
ENDBRANCH   2   3
ENDBRANCH   1   2
BRANCH   1  26
ATOM     26  C   UNL A   1      32.709  32.859  26.869  1.00  0.00     0.118 C 
BRANCH  26  27
ATOM     27  N   UNL A   1      32.531  34.117  27.584  1.00  0.00    -0.352 N 
ATOM     28  C   UNL A   1      33.140  34.585  28.718  1.00  0.00     0.251 C 
ATOM     29  H   UNL A   1      31.867  34.728  27.188  1.00  0.00     0.163 HD
ATOM     30  O   UNL A   1      32.679  35.576  29.287  1.00  0.00    -0.269 OA
BRANCH  28  31
ATOM     31  C   UNL A   1      34.336  33.914  29.272  1.00  0.00     0.039 A 
ATOM     32  C   UNL A   1      35.603  34.383  28.912  1.00  0.00     0.014 A 
ATOM     33  C   UNL A   1      34.216  32.798  30.105  1.00  0.00     0.014 A 
ATOM     34  C   UNL A   1      36.745  33.771  29.433  1.00  0.00     0.010 A 
ATOM     35  C   UNL A   1      35.352  32.239  30.685  1.00  0.00     0.010 A 
ATOM     36  C   UNL A   1      36.628  32.715  30.348  1.00  0.00    -0.014 A 
BRANCH  36  37
ATOM     37  C   UNL A   1      37.823  32.080  30.960  1.00  0.00     0.031 A 
ATOM     38  C   UNL A   1      38.554  30.989  30.227  1.00  0.00     0.074 A 
ATOM     39  C   UNL A   1      38.199  32.427  32.205  1.00  0.00     0.049 A 
ATOM     40  N   UNL A   1      39.545  30.239  30.635  1.00  0.00    -0.248 NA
ATOM     41  C   UNL A   1      38.091  30.684  28.864  1.00  0.00     0.031 C 
ATOM     42  C   UNL A   1      37.543  33.440  33.036  1.00  0.00     0.029 A 
ATOM     43  N   UNL A   1      39.213  31.954  32.997  1.00  0.00    -0.354 N 
ATOM     44  C   UNL A   1      39.807  29.358  29.592  1.00  0.00     0.074 A 
ATOM     45  C   UNL A   1      38.843  29.638  28.551  1.00  0.00     0.031 C 
ATOM     46  C   UNL A   1      38.181  33.520  34.215  1.00  0.00     0.029 A 
ATOM     47  C   UNL A   1      39.262  32.540  34.239  1.00  0.00     0.049 A 
ATOM     48  H   UNL A   1      39.847  31.259  32.704  1.00  0.00     0.167 HD
ATOM     49  C   UNL A   1      40.776  28.417  29.504  1.00  0.00     0.037 A 
ATOM     50  C   UNL A   1      40.077  32.304  35.284  1.00  0.00     0.037 A 
ATOM     51  C   UNL A   1      41.754  28.165  30.528  1.00  0.00     0.049 A 
ATOM     52  C   UNL A   1      41.147  31.255  35.159  1.00  0.00     0.074 A 
ATOM     53  C   UNL A   1      42.817  27.278  30.506  1.00  0.00     0.029 A 
ATOM     54  N   UNL A   1      41.788  28.801  31.760  1.00  0.00    -0.354 N 
ATOM     55  N   UNL A   1      41.422  30.473  34.144  1.00  0.00    -0.248 NA
ATOM     56  C   UNL A   1      42.023  31.059  36.324  1.00  0.00     0.031 C 
ATOM     57  C   UNL A   1      43.470  27.349  31.741  1.00  0.00     0.029 A 
ATOM     58  C   UNL A   1      42.843  28.313  32.515  1.00  0.00     0.049 A 
ATOM     59  H   UNL A   1      41.158  29.497  32.055  1.00  0.00     0.167 HD
ATOM     60  C   UNL A   1      42.518  29.714  34.535  1.00  0.00     0.074 A 
ATOM     61  C   UNL A   1      42.863  30.137  35.876  1.00  0.00     0.031 C 
ATOM     62  C   UNL A   1      43.178  28.754  33.843  1.00  0.00     0.037 A 
BRANCH  49  63
ATOM     63  C   UNL A   1      40.826  27.589  28.252  1.00  0.00     0.057 A 
ATOM     64  C   UNL A   1      40.117  26.387  28.132  1.00  0.00     0.134 A 
ATOM     65  C   UNL A   1      41.564  28.017  27.141  1.00  0.00     0.134 A 
ATOM     66  F   UNL A   1      39.400  25.914  29.162  1.00  0.00    -0.206 F 
ATOM     67  C   UNL A   1      40.162  25.626  26.961  1.00  0.00     0.040 A 
ATOM     68  C   UNL A   1      41.595  27.279  25.956  1.00  0.00     0.040 A 
ATOM     69  F   UNL A   1      42.261  29.162  27.186  1.00  0.00    -0.206 F 
ATOM     70  C   UNL A   1      40.897  26.076  25.867  1.00  0.00     0.006 A 
ENDBRANCH  49  63
BRANCH  50  71
ATOM     71  C   UNL A   1      39.925  33.089  36.535  1.00  0.00     0.057 A 
ATOM     72  C   UNL A   1      40.672  34.252  36.750  1.00  0.00     0.134 A 
ATOM     73  C   UNL A   1      39.034  32.698  37.541  1.00  0.00     0.134 A 
ATOM     74  F   UNL A   1      41.555  34.667  35.830  1.00  0.00    -0.206 F 
ATOM     75  C   UNL A   1      40.552  34.990  37.929  1.00  0.00     0.040 A 
ATOM     76  C   UNL A   1      38.886  33.439  38.714  1.00  0.00     0.040 A 
ATOM     77  F   UNL A   1      38.283  31.597  37.391  1.00  0.00    -0.206 F 
ATOM     78  C   UNL A   1      39.653  34.586  38.913  1.00  0.00     0.006 A 
ENDBRANCH  50  71
BRANCH  62  79
ATOM     79  C   UNL A   1      44.364  28.121  34.509  1.00  0.00     0.057 A 
ATOM     80  C   UNL A   1      44.253  26.942  35.255  1.00  0.00     0.134 A 
ATOM     81  C   UNL A   1      45.642  28.676  34.361  1.00  0.00     0.134 A 
ATOM     82  F   UNL A   1      43.055  26.368  35.446  1.00  0.00    -0.206 F 
ATOM     83  C   UNL A   1      45.369  26.346  35.845  1.00  0.00     0.040 A 
ATOM     84  C   UNL A   1      46.768  28.076  34.925  1.00  0.00     0.040 A 
ATOM     85  F   UNL A   1      45.818  29.801  33.651  1.00  0.00    -0.206 F 
ATOM     86  C   UNL A   1      46.632  26.909  35.674  1.00  0.00     0.006 A 
ENDBRANCH  62  79
ENDBRANCH  36  37
ENDBRANCH  28  31
ENDBRANCH  26  27
ENDBRANCH   1  26
TORSDOF 12
ENDMDL
