MODEL 1
REMARK VINA RESULT:     -12.3      0.000      0.000
REMARK SMILES Cc1cc(C)c2c(c1)C=C(C(=O)NCCCNC(=O)c1ccc(-c3c4nc(c(-c5c(F)cccc5F)c5ccc([nH]5)c(-c5c(F)cccc5F)c5nc(c(-c6c(F)cccc6F)c6ccc3[nH]6)C=C5)C=C4)cc1)[C@@H](C(F)(F)F)O2
REMARK SMILES IDX 15 1 14 2 13 3 11 4 12 5 10 7 1 8 2 9 3 10 8 11 4 12 7 13
REMARK SMILES IDX 5 14 6 15 9 16 79 17 74 18 75 19 76 20 77 21 78 22 16 23
REMARK SMILES IDX 17 24 18 25 19 27 20 28 21 29 73 30 22 31 72 32 23 33 24 34
REMARK SMILES IDX 25 35 66 36 26 37 71 38 65 39 67 40 27 41 70 42 64 43 63 44
REMARK SMILES IDX 28 46 54 47 37 48 53 49 38 50 41 51 52 52 68 53 39 54 40 55
REMARK SMILES IDX 51 57 69 58 42 59 29 60 30 61 35 62 31 63 32 64 34 65 36 66
REMARK SMILES IDX 33 67 55 68 56 69 61 70 57 71 58 72 60 73 62 74 59 75 43 76
REMARK SMILES IDX 44 77 49 78 45 79 46 80 48 81 50 82 47 83
REMARK H PARENT 13 6 17 26 67 45 41 56
REMARK Flexibility Score: inf
ROOT
ATOM      1  C   UNL A   1      37.706  19.615  24.952  1.00  0.00     0.042 C 
ENDROOT
BRANCH   1   2
ATOM      2  C   UNL A   1      36.624  20.641  24.650  1.00  0.00     0.118 C 
BRANCH   2   3
ATOM      3  N   UNL A   1      35.674  20.763  25.745  1.00  0.00    -0.352 N 
ATOM      4  C   UNL A   1      34.681  21.608  26.107  1.00  0.00     0.251 C 
ATOM      5  O   UNL A   1      34.105  21.322  27.161  1.00  0.00    -0.270 OA
ATOM      6  H   UNL A   1      35.782  20.034  26.398  1.00  0.00     0.163 HD
BRANCH   4   7
ATOM      7  C   UNL A   1      34.263  22.814  25.338  1.00  0.00     0.067 C 
ATOM      8  C   UNL A   1      33.619  28.942  25.878  1.00  0.00     0.044 C 
ATOM      9  C   UNL A   1      33.620  27.607  25.194  1.00  0.00    -0.050 A 
ATOM     10  C   UNL A   1      33.312  27.518  23.829  1.00  0.00     0.010 A 
ATOM     11  C   UNL A   1      33.993  26.450  25.894  1.00  0.00     0.015 A 
ATOM     12  C   UNL A   1      33.353  26.288  23.163  1.00  0.00    -0.008 A 
ATOM     13  C   UNL A   1      34.031  25.213  25.245  1.00  0.00     0.018 A 
ATOM     14  C   UNL A   1      33.011  26.189  21.705  1.00  0.00     0.048 C 
ATOM     15  C   UNL A   1      33.709  25.145  23.886  1.00  0.00     0.130 A 
ATOM     16  C   UNL A   1      34.437  24.001  25.947  1.00  0.00     0.025 C 
ATOM     17  O   UNL A   1      33.779  23.972  23.187  1.00  0.00    -0.475 OA
ATOM     18  C   UNL A   1      33.654  22.758  23.967  1.00  0.00     0.314 C 
BRANCH  18  19
ATOM     19  C   UNL A   1      32.179  22.311  23.986  1.00  0.00     0.429 C 
ATOM     20  F   UNL A   1      32.097  20.962  23.849  1.00  0.00    -0.167 F 
ATOM     21  F   UNL A   1      31.559  22.612  25.152  1.00  0.00    -0.167 F 
ATOM     22  F   UNL A   1      31.445  22.866  22.998  1.00  0.00    -0.167 F 
ENDBRANCH  18  19
ENDBRANCH   4   7
ENDBRANCH   2   3
ENDBRANCH   1   2
BRANCH   1  23
ATOM     23  C   UNL A   1      38.856  20.219  25.744  1.00  0.00     0.118 C 
BRANCH  23  24
ATOM     24  N   UNL A   1      39.977  19.287  25.862  1.00  0.00    -0.352 N 
ATOM     25  C   UNL A   1      41.305  19.527  26.096  1.00  0.00     0.251 C 
ATOM     26  H   UNL A   1      39.739  18.338  25.758  1.00  0.00     0.163 HD
ATOM     27  O   UNL A   1      42.136  18.647  25.870  1.00  0.00    -0.269 OA
BRANCH  25  28
ATOM     28  C   UNL A   1      41.738  20.835  26.617  1.00  0.00     0.039 A 
ATOM     29  C   UNL A   1      42.192  21.813  25.729  1.00  0.00     0.014 A 
ATOM     30  C   UNL A   1      41.721  21.083  27.991  1.00  0.00     0.014 A 
ATOM     31  C   UNL A   1      42.570  23.062  26.220  1.00  0.00     0.010 A 
ATOM     32  C   UNL A   1      41.996  22.356  28.467  1.00  0.00     0.010 A 
ATOM     33  C   UNL A   1      42.441  23.353  27.588  1.00  0.00    -0.014 A 
BRANCH  33  34
ATOM     34  C   UNL A   1      42.803  24.682  28.134  1.00  0.00     0.031 A 
ATOM     35  C   UNL A   1      41.732  25.720  28.334  1.00  0.00     0.074 A 
ATOM     36  C   UNL A   1      44.093  24.969  28.388  1.00  0.00     0.049 A 
ATOM     37  N   UNL A   1      41.852  26.961  28.727  1.00  0.00    -0.248 NA
ATOM     38  C   UNL A   1      40.347  25.322  28.026  1.00  0.00     0.031 C 
ATOM     39  C   UNL A   1      45.220  24.055  28.183  1.00  0.00     0.029 A 
ATOM     40  N   UNL A   1      44.679  26.114  28.867  1.00  0.00    -0.354 N 
ATOM     41  C   UNL A   1      40.569  27.491  28.699  1.00  0.00     0.074 A 
ATOM     42  C   UNL A   1      39.690  26.460  28.195  1.00  0.00     0.031 C 
ATOM     43  C   UNL A   1      46.355  24.665  28.561  1.00  0.00     0.029 A 
ATOM     44  C   UNL A   1      46.043  26.024  28.995  1.00  0.00     0.049 A 
ATOM     45  H   UNL A   1      44.168  26.923  29.097  1.00  0.00     0.167 HD
ATOM     46  C   UNL A   1      40.156  28.717  29.092  1.00  0.00     0.037 A 
ATOM     47  C   UNL A   1      46.941  26.938  29.408  1.00  0.00     0.037 A 
ATOM     48  C   UNL A   1      41.030  29.720  29.634  1.00  0.00     0.049 A 
ATOM     49  C   UNL A   1      46.453  28.295  29.836  1.00  0.00     0.074 A 
ATOM     50  C   UNL A   1      40.700  30.971  30.124  1.00  0.00     0.029 A 
ATOM     51  N   UNL A   1      42.404  29.586  29.762  1.00  0.00    -0.354 N 
ATOM     52  N   UNL A   1      45.227  28.757  29.871  1.00  0.00    -0.248 NA
ATOM     53  C   UNL A   1      47.469  29.257  30.285  1.00  0.00     0.031 C 
ATOM     54  C   UNL A   1      41.879  31.614  30.504  1.00  0.00     0.029 A 
ATOM     55  C   UNL A   1      42.939  30.743  30.300  1.00  0.00     0.049 A 
ATOM     56  H   UNL A   1      42.921  28.788  29.508  1.00  0.00     0.167 HD
ATOM     57  C   UNL A   1      45.320  30.051  30.366  1.00  0.00     0.074 A 
ATOM     58  C   UNL A   1      46.722  30.294  30.637  1.00  0.00     0.031 C 
ATOM     59  C   UNL A   1      44.337  30.960  30.572  1.00  0.00     0.037 A 
BRANCH  46  60
ATOM     60  C   UNL A   1      38.696  29.042  28.981  1.00  0.00     0.057 A 
ATOM     61  C   UNL A   1      37.835  28.936  30.080  1.00  0.00     0.134 A 
ATOM     62  C   UNL A   1      38.166  29.556  27.791  1.00  0.00     0.134 A 
ATOM     63  F   UNL A   1      38.277  28.437  31.244  1.00  0.00    -0.206 F 
ATOM     64  C   UNL A   1      36.498  29.328  29.999  1.00  0.00     0.040 A 
ATOM     65  C   UNL A   1      36.838  29.976  27.706  1.00  0.00     0.040 A 
ATOM     66  F   UNL A   1      38.938  29.686  26.701  1.00  0.00    -0.206 F 
ATOM     67  C   UNL A   1      36.001  29.863  28.813  1.00  0.00     0.006 A 
ENDBRANCH  46  60
BRANCH  47  68
ATOM     68  C   UNL A   1      48.385  26.594  29.458  1.00  0.00     0.057 A 
ATOM     69  C   UNL A   1      48.953  26.019  30.602  1.00  0.00     0.134 A 
ATOM     70  C   UNL A   1      49.234  26.831  28.371  1.00  0.00     0.134 A 
ATOM     71  F   UNL A   1      48.196  25.781  31.684  1.00  0.00    -0.206 F 
ATOM     72  C   UNL A   1      50.313  25.711  30.669  1.00  0.00     0.040 A 
ATOM     73  C   UNL A   1      50.590  26.502  28.414  1.00  0.00     0.040 A 
ATOM     74  F   UNL A   1      48.753  27.371  27.241  1.00  0.00    -0.206 F 
ATOM     75  C   UNL A   1      51.135  25.948  29.570  1.00  0.00     0.006 A 
ENDBRANCH  47  68
BRANCH  59  76
ATOM     76  C   UNL A   1      44.727  32.294  31.134  1.00  0.00     0.057 A 
ATOM     77  C   UNL A   1      45.048  33.374  30.304  1.00  0.00     0.134 A 
ATOM     78  C   UNL A   1      44.694  32.524  32.516  1.00  0.00     0.134 A 
ATOM     79  F   UNL A   1      45.106  33.216  28.972  1.00  0.00    -0.206 F 
ATOM     80  C   UNL A   1      45.333  34.636  30.828  1.00  0.00     0.040 A 
ATOM     81  C   UNL A   1      44.949  33.787  33.050  1.00  0.00     0.040 A 
ATOM     82  F   UNL A   1      44.380  31.534  33.364  1.00  0.00    -0.206 F 
ATOM     83  C   UNL A   1      45.272  34.846  32.205  1.00  0.00     0.006 A 
ENDBRANCH  59  76
ENDBRANCH  33  34
ENDBRANCH  25  28
ENDBRANCH  23  24
ENDBRANCH   1  23
TORSDOF 11
ENDMDL
MODEL 2
REMARK VINA RESULT:     -12.2      0.291      6.325
REMARK SMILES Cc1cc(C)c2c(c1)C=C(C(=O)NCCCNC(=O)c1ccc(-c3c4nc(c(-c5c(F)cccc5F)c5ccc([nH]5)c(-c5c(F)cccc5F)c5nc(c(-c6c(F)cccc6F)c6ccc3[nH]6)C=C5)C=C4)cc1)[C@@H](C(F)(F)F)O2
REMARK SMILES IDX 15 1 14 2 13 3 11 4 12 5 10 7 1 8 2 9 3 10 8 11 4 12 7 13
REMARK SMILES IDX 5 14 6 15 9 16 79 17 74 18 75 19 76 20 77 21 78 22 16 23
REMARK SMILES IDX 17 24 18 25 19 27 20 28 21 29 73 30 22 31 72 32 23 33 24 34
REMARK SMILES IDX 25 35 66 36 26 37 71 38 65 39 67 40 27 41 70 42 64 43 63 44
REMARK SMILES IDX 28 46 54 47 37 48 53 49 38 50 41 51 52 52 68 53 39 54 40 55
REMARK SMILES IDX 51 57 69 58 42 59 29 60 30 61 35 62 31 63 32 64 34 65 36 66
REMARK SMILES IDX 33 67 55 68 56 69 61 70 57 71 58 72 60 73 62 74 59 75 43 76
REMARK SMILES IDX 44 77 49 78 45 79 46 80 48 81 50 82 47 83
REMARK H PARENT 13 6 17 26 67 45 41 56
REMARK Flexibility Score: inf
ROOT
ATOM      1  C   UNL A   1      37.525  19.497  25.006  1.00  0.00     0.042 C 
ENDROOT
BRANCH   1   2
ATOM      2  C   UNL A   1      36.405  20.469  24.669  1.00  0.00     0.118 C 
BRANCH   2   3
ATOM      3  N   UNL A   1      35.504  20.668  25.795  1.00  0.00    -0.352 N 
ATOM      4  C   UNL A   1      34.571  21.573  26.172  1.00  0.00     0.251 C 
ATOM      5  O   UNL A   1      34.021  21.342  27.253  1.00  0.00    -0.270 OA
ATOM      6  H   UNL A   1      35.597  19.949  26.461  1.00  0.00     0.163 HD
BRANCH   4   7
ATOM      7  C   UNL A   1      34.189  22.782  25.388  1.00  0.00     0.067 C 
ATOM      8  C   UNL A   1      33.617  28.921  25.892  1.00  0.00     0.044 C 
ATOM      9  C   UNL A   1      33.617  27.582  25.214  1.00  0.00    -0.050 A 
ATOM     10  C   UNL A   1      33.341  27.493  23.841  1.00  0.00     0.010 A 
ATOM     11  C   UNL A   1      33.956  26.423  25.926  1.00  0.00     0.015 A 
ATOM     12  C   UNL A   1      33.382  26.260  23.181  1.00  0.00    -0.008 A 
ATOM     13  C   UNL A   1      33.994  25.184  25.282  1.00  0.00     0.018 A 
ATOM     14  C   UNL A   1      33.074  26.161  21.715  1.00  0.00     0.048 C 
ATOM     15  C   UNL A   1      33.704  25.115  23.916  1.00  0.00     0.130 A 
ATOM     16  C   UNL A   1      34.365  23.969  25.998  1.00  0.00     0.025 C 
ATOM     17  O   UNL A   1      33.775  23.938  23.223  1.00  0.00    -0.475 OA
ATOM     18  C   UNL A   1      33.614  22.730  24.003  1.00  0.00     0.314 C 
BRANCH  18  19
ATOM     19  C   UNL A   1      32.133  22.303  23.987  1.00  0.00     0.429 C 
ATOM     20  F   UNL A   1      32.034  20.962  23.796  1.00  0.00    -0.167 F 
ATOM     21  F   UNL A   1      31.502  22.567  25.157  1.00  0.00    -0.167 F 
ATOM     22  F   UNL A   1      31.419  22.906  23.013  1.00  0.00    -0.167 F 
ENDBRANCH  18  19
ENDBRANCH   4   7
ENDBRANCH   2   3
ENDBRANCH   1   2
BRANCH   1  23
ATOM     23  C   UNL A   1      38.798  20.219  25.420  1.00  0.00     0.118 C 
BRANCH  23  24
ATOM     24  N   UNL A   1      39.881  19.280  25.708  1.00  0.00    -0.352 N 
ATOM     25  C   UNL A   1      41.179  19.514  26.081  1.00  0.00     0.251 C 
ATOM     26  H   UNL A   1      39.639  18.330  25.622  1.00  0.00     0.163 HD
ATOM     27  O   UNL A   1      42.014  18.614  25.993  1.00  0.00    -0.269 OA
BRANCH  25  28
ATOM     28  C   UNL A   1      41.573  20.840  26.587  1.00  0.00     0.039 A 
ATOM     29  C   UNL A   1      42.114  21.779  25.707  1.00  0.00     0.014 A 
ATOM     30  C   UNL A   1      41.434  21.143  27.943  1.00  0.00     0.014 A 
ATOM     31  C   UNL A   1      42.456  23.046  26.180  1.00  0.00     0.010 A 
ATOM     32  C   UNL A   1      41.675  22.433  28.391  1.00  0.00     0.010 A 
ATOM     33  C   UNL A   1      42.206  23.392  27.518  1.00  0.00    -0.014 A 
BRANCH  33  34
ATOM     34  C   UNL A   1      42.528  24.740  28.041  1.00  0.00     0.031 A 
ATOM     35  C   UNL A   1      43.941  25.063  28.444  1.00  0.00     0.074 A 
ATOM     36  C   UNL A   1      41.542  25.642  28.207  1.00  0.00     0.049 A 
ATOM     37  N   UNL A   1      44.411  26.153  28.992  1.00  0.00    -0.248 NA
ATOM     38  C   UNL A   1      44.954  24.015  28.233  1.00  0.00     0.031 C 
ATOM     39  C   UNL A   1      40.128  25.419  27.897  1.00  0.00     0.029 A 
ATOM     40  N   UNL A   1      41.577  26.928  28.687  1.00  0.00    -0.354 N 
ATOM     41  C   UNL A   1      45.763  25.916  29.200  1.00  0.00     0.074 A 
ATOM     42  C   UNL A   1      46.031  24.560  28.778  1.00  0.00     0.031 C 
ATOM     43  C   UNL A   1      39.437  26.538  28.167  1.00  0.00     0.029 A 
ATOM     44  C   UNL A   1      40.349  27.542  28.706  1.00  0.00     0.049 A 
ATOM     45  H   UNL A   1      42.405  27.367  28.987  1.00  0.00     0.167 HD
ATOM     46  C   UNL A   1      46.704  26.766  29.669  1.00  0.00     0.037 A 
ATOM     47  C   UNL A   1      39.998  28.775  29.120  1.00  0.00     0.037 A 
ATOM     48  C   UNL A   1      46.437  28.128  30.044  1.00  0.00     0.049 A 
ATOM     49  C   UNL A   1      41.066  29.698  29.640  1.00  0.00     0.074 A 
ATOM     50  C   UNL A   1      47.334  29.092  30.468  1.00  0.00     0.029 A 
ATOM     51  N   UNL A   1      45.184  28.719  30.035  1.00  0.00    -0.354 N 
ATOM     52  N   UNL A   1      42.353  29.483  29.765  1.00  0.00    -0.248 NA
ATOM     53  C   UNL A   1      40.636  31.034  30.075  1.00  0.00     0.031 C 
ATOM     54  C   UNL A   1      46.617  30.252  30.763  1.00  0.00     0.029 A 
ATOM     55  C   UNL A   1      45.280  30.028  30.473  1.00  0.00     0.049 A 
ATOM     56  H   UNL A   1      44.350  28.274  29.760  1.00  0.00     0.167 HD
ATOM     57  C   UNL A   1      42.890  30.661  30.268  1.00  0.00     0.074 A 
ATOM     58  C   UNL A   1      41.791  31.594  30.407  1.00  0.00     0.031 C 
ATOM     59  C   UNL A   1      44.174  30.944  30.592  1.00  0.00     0.037 A 
BRANCH  46  60
ATOM     60  C   UNL A   1      48.115  26.270  29.780  1.00  0.00     0.057 A 
ATOM     61  C   UNL A   1      49.029  26.413  28.729  1.00  0.00     0.134 A 
ATOM     62  C   UNL A   1      48.591  25.732  30.982  1.00  0.00     0.134 A 
ATOM     63  F   UNL A   1      48.633  26.909  27.547  1.00  0.00    -0.206 F 
ATOM     64  C   UNL A   1      50.365  26.037  28.868  1.00  0.00     0.040 A 
ATOM     65  C   UNL A   1      49.931  25.376  31.142  1.00  0.00     0.040 A 
ATOM     66  F   UNL A   1      47.768  25.570  32.030  1.00  0.00    -0.206 F 
ATOM     67  C   UNL A   1      50.822  25.529  30.083  1.00  0.00     0.006 A 
ENDBRANCH  46  60
BRANCH  47  68
ATOM     68  C   UNL A   1      38.582  29.213  29.039  1.00  0.00     0.057 A 
ATOM     69  C   UNL A   1      38.034  29.670  27.834  1.00  0.00     0.134 A 
ATOM     70  C   UNL A   1      37.741  29.189  30.158  1.00  0.00     0.134 A 
ATOM     71  F   UNL A   1      38.791  29.732  26.729  1.00  0.00    -0.206 F 
ATOM     72  C   UNL A   1      36.709  30.105  27.750  1.00  0.00     0.040 A 
ATOM     73  C   UNL A   1      36.407  29.594  30.082  1.00  0.00     0.040 A 
ATOM     74  F   UNL A   1      38.200  28.753  31.341  1.00  0.00    -0.206 F 
ATOM     75  C   UNL A   1      35.890  30.062  28.876  1.00  0.00     0.006 A 
ENDBRANCH  47  68
BRANCH  59  76
ATOM     76  C   UNL A   1      44.476  32.318  31.111  1.00  0.00     0.057 A 
ATOM     77  C   UNL A   1      44.742  33.386  30.246  1.00  0.00     0.134 A 
ATOM     78  C   UNL A   1      44.410  32.594  32.483  1.00  0.00     0.134 A 
ATOM     79  F   UNL A   1      44.827  33.186  28.922  1.00  0.00    -0.206 F 
ATOM     80  C   UNL A   1      44.943  34.680  30.729  1.00  0.00     0.040 A 
ATOM     81  C   UNL A   1      44.580  33.888  32.975  1.00  0.00     0.040 A 
ATOM     82  F   UNL A   1      44.144  31.616  33.362  1.00  0.00    -0.206 F 
ATOM     83  C   UNL A   1      44.850  34.935  32.096  1.00  0.00     0.006 A 
ENDBRANCH  59  76
ENDBRANCH  33  34
ENDBRANCH  25  28
ENDBRANCH  23  24
ENDBRANCH   1  23
TORSDOF 11
ENDMDL
MODEL 3
REMARK VINA RESULT:     -12.1      1.437      2.115
REMARK SMILES Cc1cc(C)c2c(c1)C=C(C(=O)NCCCNC(=O)c1ccc(-c3c4nc(c(-c5c(F)cccc5F)c5ccc([nH]5)c(-c5c(F)cccc5F)c5nc(c(-c6c(F)cccc6F)c6ccc3[nH]6)C=C5)C=C4)cc1)[C@@H](C(F)(F)F)O2
REMARK SMILES IDX 15 1 14 2 13 3 11 4 12 5 10 7 1 8 2 9 3 10 8 11 4 12 7 13
REMARK SMILES IDX 5 14 6 15 9 16 79 17 74 18 75 19 76 20 77 21 78 22 16 23
REMARK SMILES IDX 17 24 18 25 19 27 20 28 21 29 73 30 22 31 72 32 23 33 24 34
REMARK SMILES IDX 25 35 66 36 26 37 71 38 65 39 67 40 27 41 70 42 64 43 63 44
REMARK SMILES IDX 28 46 54 47 37 48 53 49 38 50 41 51 52 52 68 53 39 54 40 55
REMARK SMILES IDX 51 57 69 58 42 59 29 60 30 61 35 62 31 63 32 64 34 65 36 66
REMARK SMILES IDX 33 67 55 68 56 69 61 70 57 71 58 72 60 73 62 74 59 75 43 76
REMARK SMILES IDX 44 77 49 78 45 79 46 80 48 81 50 82 47 83
REMARK H PARENT 13 6 17 26 67 45 41 56
REMARK Flexibility Score: inf
ROOT
ATOM      1  C   UNL A   1      37.851  19.580  25.002  1.00  0.00     0.042 C 
ENDROOT
BRANCH   1   2
ATOM      2  C   UNL A   1      36.797  20.634  24.697  1.00  0.00     0.118 C 
BRANCH   2   3
ATOM      3  N   UNL A   1      35.762  20.676  25.718  1.00  0.00    -0.352 N 
ATOM      4  C   UNL A   1      34.695  21.453  26.019  1.00  0.00     0.251 C 
ATOM      5  O   UNL A   1      34.061  21.110  27.021  1.00  0.00    -0.270 OA
ATOM      6  H   UNL A   1      35.865  19.941  26.365  1.00  0.00     0.163 HD
BRANCH   4   7
ATOM      7  C   UNL A   1      34.265  22.650  25.241  1.00  0.00     0.067 C 
ATOM      8  C   UNL A   1      33.650  28.787  25.706  1.00  0.00     0.044 C 
ATOM      9  C   UNL A   1      33.632  27.441  25.042  1.00  0.00    -0.050 A 
ATOM     10  C   UNL A   1      33.293  27.334  23.685  1.00  0.00     0.010 A 
ATOM     11  C   UNL A   1      34.017  26.294  25.750  1.00  0.00     0.015 A 
ATOM     12  C   UNL A   1      33.317  26.094  23.037  1.00  0.00    -0.008 A 
ATOM     13  C   UNL A   1      34.038  25.048  25.119  1.00  0.00     0.018 A 
ATOM     14  C   UNL A   1      32.943  25.976  21.588  1.00  0.00     0.048 C 
ATOM     15  C   UNL A   1      33.686  24.960  23.768  1.00  0.00     0.130 A 
ATOM     16  C   UNL A   1      34.456  23.845  25.829  1.00  0.00     0.025 C 
ATOM     17  O   UNL A   1      33.737  23.777  23.085  1.00  0.00    -0.475 OA
ATOM     18  C   UNL A   1      33.626  22.576  23.885  1.00  0.00     0.314 C 
BRANCH  18  19
ATOM     19  C   UNL A   1      32.150  22.133  23.943  1.00  0.00     0.429 C 
ATOM     20  F   UNL A   1      32.063  20.781  23.851  1.00  0.00    -0.167 F 
ATOM     21  F   UNL A   1      31.550  22.474  25.108  1.00  0.00    -0.167 F 
ATOM     22  F   UNL A   1      31.402  22.657  22.949  1.00  0.00    -0.167 F 
ENDBRANCH  18  19
ENDBRANCH   4   7
ENDBRANCH   2   3
ENDBRANCH   1   2
BRANCH   1  23
ATOM     23  C   UNL A   1      39.038  20.164  25.752  1.00  0.00     0.118 C 
BRANCH  23  24
ATOM     24  N   UNL A   1      40.081  19.164  25.972  1.00  0.00    -0.352 N 
ATOM     25  C   UNL A   1      41.435  19.316  26.122  1.00  0.00     0.251 C 
ATOM     26  H   UNL A   1      39.760  18.235  26.022  1.00  0.00     0.163 HD
ATOM     27  O   UNL A   1      42.178  18.342  26.005  1.00  0.00    -0.269 OA
BRANCH  25  28
ATOM     28  C   UNL A   1      41.999  20.643  26.424  1.00  0.00     0.039 A 
ATOM     29  C   UNL A   1      42.314  21.510  25.376  1.00  0.00     0.014 A 
ATOM     30  C   UNL A   1      42.243  21.017  27.747  1.00  0.00     0.014 A 
ATOM     31  C   UNL A   1      42.817  22.779  25.664  1.00  0.00     0.010 A 
ATOM     32  C   UNL A   1      42.642  22.313  28.036  1.00  0.00     0.010 A 
ATOM     33  C   UNL A   1      42.952  23.201  26.997  1.00  0.00    -0.014 A 
BRANCH  33  34
ATOM     34  C   UNL A   1      43.451  24.554  27.333  1.00  0.00     0.031 A 
ATOM     35  C   UNL A   1      42.483  25.613  27.785  1.00  0.00     0.074 A 
ATOM     36  C   UNL A   1      44.757  24.841  27.173  1.00  0.00     0.049 A 
ATOM     37  N   UNL A   1      42.707  26.873  28.052  1.00  0.00    -0.248 NA
ATOM     38  C   UNL A   1      41.072  25.213  27.928  1.00  0.00     0.031 C 
ATOM     39  C   UNL A   1      45.777  23.905  26.692  1.00  0.00     0.029 A 
ATOM     40  N   UNL A   1      45.451  26.005  27.389  1.00  0.00    -0.354 N 
ATOM     41  C   UNL A   1      41.471  27.414  28.379  1.00  0.00     0.074 A 
ATOM     42  C   UNL A   1      40.488  26.366  28.220  1.00  0.00     0.031 C 
ATOM     43  C   UNL A   1      46.969  24.523  26.678  1.00  0.00     0.029 A 
ATOM     44  C   UNL A   1      46.792  25.907  27.108  1.00  0.00     0.049 A 
ATOM     45  H   UNL A   1      45.028  26.831  27.715  1.00  0.00     0.167 HD
ATOM     46  C   UNL A   1      41.186  28.665  28.807  1.00  0.00     0.037 A 
ATOM     47  C   UNL A   1      47.767  26.833  27.181  1.00  0.00     0.037 A 
ATOM     48  C   UNL A   1      42.176  29.688  29.006  1.00  0.00     0.049 A 
ATOM     49  C   UNL A   1      47.420  28.217  27.658  1.00  0.00     0.074 A 
ATOM     50  C   UNL A   1      41.999  30.967  29.500  1.00  0.00     0.029 A 
ATOM     51  N   UNL A   1      43.526  29.546  28.725  1.00  0.00    -0.354 N 
ATOM     52  N   UNL A   1      46.257  28.694  28.031  1.00  0.00    -0.248 NA
ATOM     53  C   UNL A   1      48.518  29.192  27.727  1.00  0.00     0.031 C 
ATOM     54  C   UNL A   1      43.234  31.617  29.473  1.00  0.00     0.029 A 
ATOM     55  C   UNL A   1      44.190  30.726  29.011  1.00  0.00     0.049 A 
ATOM     56  H   UNL A   1      43.949  28.730  28.373  1.00  0.00     0.167 HD
ATOM     57  C   UNL A   1      46.487  30.013  28.401  1.00  0.00     0.074 A 
ATOM     58  C   UNL A   1      47.903  30.255  28.227  1.00  0.00     0.031 C 
ATOM     59  C   UNL A   1      45.604  30.942  28.840  1.00  0.00     0.037 A 
BRANCH  46  60
ATOM     60  C   UNL A   1      39.758  28.998  29.120  1.00  0.00     0.057 A 
ATOM     61  C   UNL A   1      38.860  29.392  28.120  1.00  0.00     0.134 A 
ATOM     62  C   UNL A   1      39.252  28.833  30.415  1.00  0.00     0.134 A 
ATOM     63  F   UNL A   1      39.285  29.582  26.861  1.00  0.00    -0.206 F 
ATOM     64  C   UNL A   1      37.510  29.611  28.397  1.00  0.00     0.040 A 
ATOM     65  C   UNL A   1      37.899  29.023  30.699  1.00  0.00     0.040 A 
ATOM     66  F   UNL A   1      40.058  28.454  31.418  1.00  0.00    -0.206 F 
ATOM     67  C   UNL A   1      37.024  29.412  29.687  1.00  0.00     0.006 A 
ENDBRANCH  46  60
BRANCH  47  68
ATOM     68  C   UNL A   1      49.162  26.477  26.817  1.00  0.00     0.057 A 
ATOM     69  C   UNL A   1      49.650  26.697  25.523  1.00  0.00     0.134 A 
ATOM     70  C   UNL A   1      50.040  25.907  27.746  1.00  0.00     0.134 A 
ATOM     71  F   UNL A   1      48.854  27.225  24.582  1.00  0.00    -0.206 F 
ATOM     72  C   UNL A   1      50.953  26.346  25.162  1.00  0.00     0.040 A 
ATOM     73  C   UNL A   1      51.353  25.578  27.407  1.00  0.00     0.040 A 
ATOM     74  F   UNL A   1      49.639  25.678  29.005  1.00  0.00    -0.206 F 
ATOM     75  C   UNL A   1      51.811  25.790  26.108  1.00  0.00     0.006 A 
ENDBRANCH  47  68
BRANCH  59  76
ATOM     76  C   UNL A   1      46.136  32.302  29.183  1.00  0.00     0.057 A 
ATOM     77  C   UNL A   1      46.154  33.340  28.245  1.00  0.00     0.134 A 
ATOM     78  C   UNL A   1      46.549  32.598  30.488  1.00  0.00     0.134 A 
ATOM     79  F   UNL A   1      45.779  33.118  26.976  1.00  0.00    -0.206 F 
ATOM     80  C   UNL A   1      46.576  34.625  28.590  1.00  0.00     0.040 A 
ATOM     81  C   UNL A   1      46.945  33.885  30.853  1.00  0.00     0.040 A 
ATOM     82  F   UNL A   1      46.541  31.650  31.437  1.00  0.00    -0.206 F 
ATOM     83  C   UNL A   1      46.961  34.902  29.900  1.00  0.00     0.006 A 
ENDBRANCH  59  76
ENDBRANCH  33  34
ENDBRANCH  25  28
ENDBRANCH  23  24
ENDBRANCH   1  23
TORSDOF 11
ENDMDL
