MODEL 1
REMARK VINA RESULT:     -11.2      0.000      0.000
REMARK SMILES CC/C(=C/C(=O)[C@H](Cc1ccc(Cl)cc1Cl)C(=O)NCCCNC(=O)c1ccc(-c2c3nc(c(-c4c(F)cccc4F)c4ccc([nH]4)c(-c4c(F)cccc4F)c4nc(c(-c5c(F)cccc5F)c5ccc2[nH]5)C=C4)C=C3)cc1)N(C)C
REMARK SMILES IDX 20 1 19 2 17 3 18 4 7 6 5 7 6 8 4 9 3 10 2 11 1 12 80 13
REMARK SMILES IDX 81 14 82 15 8 16 9 17 10 18 15 19 11 20 14 21 16 22 12 23
REMARK SMILES IDX 13 24 21 25 22 26 23 27 24 28 25 30 26 31 27 32 79 33 28 34
REMARK SMILES IDX 78 35 29 36 30 37 31 38 72 39 32 40 77 41 71 42 73 43 33 44
REMARK SMILES IDX 76 45 70 46 69 47 34 49 60 50 43 51 59 52 44 53 47 54 58 55
REMARK SMILES IDX 74 56 45 57 46 58 57 60 75 61 48 62 35 63 36 64 41 65 37 66
REMARK SMILES IDX 38 67 40 68 42 69 39 70 61 71 62 72 67 73 63 74 64 75 66 76
REMARK SMILES IDX 68 77 65 78 49 79 50 80 55 81 51 82 52 83 54 84 56 85 53 86
REMARK H PARENT 19 5 23 29 73 48 47 59
REMARK Flexibility Score: inf
ROOT
ATOM      1  C   UNL A   1      31.408  30.340  25.824  1.00  0.00     0.117 C 
ENDROOT
BRANCH   1   2
ATOM      2  N   UNL A   1      32.553  30.068  24.985  1.00  0.00    -0.355 N 
ATOM      3  C   UNL A   1      32.862  28.994  24.223  1.00  0.00     0.231 C 
ATOM      4  O   UNL A   1      34.062  28.841  23.975  1.00  0.00    -0.274 OA
ATOM      5  H   UNL A   1      33.226  30.788  24.966  1.00  0.00     0.163 HD
BRANCH   3   6
ATOM      6  C   UNL A   1      31.810  28.045  23.662  1.00  0.00     0.154 C 
BRANCH   6   7
ATOM      7  C   UNL A   1      30.808  28.824  22.809  1.00  0.00     0.170 C 
ATOM      8  O   UNL A   1      31.153  29.702  22.017  1.00  0.00    -0.294 OA
BRANCH   7   9
ATOM      9  C   UNL A   1      29.372  28.410  22.829  1.00  0.00     0.069 C 
ATOM     10  C   UNL A   1      28.278  29.203  22.845  1.00  0.00     0.016 C 
BRANCH  10  11
ATOM     11  C   UNL A   1      26.985  28.519  23.301  1.00  0.00     0.050 C 
ATOM     12  C   UNL A   1      27.234  27.118  23.862  1.00  0.00     0.010 C 
ENDBRANCH  10  11
BRANCH  10  13
ATOM     13  N   UNL A   1      28.197  30.569  22.516  1.00  0.00    -0.381 N 
ATOM     14  C   UNL A   1      28.029  31.050  21.136  1.00  0.00     0.143 C 
ATOM     15  C   UNL A   1      28.313  31.663  23.482  1.00  0.00     0.143 C 
ENDBRANCH  10  13
ENDBRANCH   7   9
ENDBRANCH   6   7
BRANCH   6  16
ATOM     16  C   UNL A   1      31.121  27.079  24.651  1.00  0.00     0.059 C 
BRANCH  16  17
ATOM     17  C   UNL A   1      31.264  25.574  24.444  1.00  0.00    -0.028 A 
ATOM     18  C   UNL A   1      30.378  24.842  23.640  1.00  0.00     0.007 A 
ATOM     19  C   UNL A   1      32.363  24.875  24.987  1.00  0.00     0.045 A 
ATOM     20  C   UNL A   1      30.685  23.551  23.208  1.00  0.00     0.021 A 
ATOM     21  C   UNL A   1      32.650  23.562  24.595  1.00  0.00     0.041 A 
ATOM     22  Cl  UNL A   1      33.423  25.608  26.138  1.00  0.00    -0.084 Cl
ATOM     23  C   UNL A   1      31.839  22.929  23.661  1.00  0.00     0.042 A 
ATOM     24  Cl  UNL A   1      32.264  21.381  23.049  1.00  0.00    -0.084 Cl
ENDBRANCH  16  17
ENDBRANCH   6  16
ENDBRANCH   3   6
ENDBRANCH   1   2
BRANCH   1  25
ATOM     25  C   UNL A   1      31.339  31.817  26.206  1.00  0.00     0.042 C 
BRANCH  25  26
ATOM     26  C   UNL A   1      32.578  32.340  26.928  1.00  0.00     0.118 C 
BRANCH  26  27
ATOM     27  N   UNL A   1      32.415  33.717  27.365  1.00  0.00    -0.352 N 
ATOM     28  C   UNL A   1      33.074  34.385  28.365  1.00  0.00     0.251 C 
ATOM     29  H   UNL A   1      31.740  34.241  26.876  1.00  0.00     0.163 HD
ATOM     30  O   UNL A   1      32.668  35.472  28.756  1.00  0.00    -0.269 OA
BRANCH  28  31
ATOM     31  C   UNL A   1      34.264  33.768  28.980  1.00  0.00     0.039 A 
ATOM     32  C   UNL A   1      34.084  32.740  29.905  1.00  0.00     0.014 A 
ATOM     33  C   UNL A   1      35.548  34.202  28.637  1.00  0.00     0.014 A 
ATOM     34  C   UNL A   1      35.200  32.118  30.462  1.00  0.00     0.010 A 
ATOM     35  C   UNL A   1      36.659  33.526  29.131  1.00  0.00     0.010 A 
ATOM     36  C   UNL A   1      36.495  32.490  30.063  1.00  0.00    -0.014 A 
BRANCH  36  37
ATOM     37  C   UNL A   1      37.685  31.818  30.638  1.00  0.00     0.031 A 
ATOM     38  C   UNL A   1      38.154  32.165  32.022  1.00  0.00     0.074 A 
ATOM     39  C   UNL A   1      38.355  30.910  29.904  1.00  0.00     0.049 A 
ATOM     40  N   UNL A   1      39.162  31.678  32.702  1.00  0.00    -0.248 NA
ATOM     41  C   UNL A   1      37.402  33.212  32.732  1.00  0.00     0.031 C 
ATOM     42  C   UNL A   1      38.020  30.514  28.535  1.00  0.00     0.029 A 
ATOM     43  N   UNL A   1      39.455  30.150  30.212  1.00  0.00    -0.354 N 
ATOM     44  C   UNL A   1      39.166  32.362  33.911  1.00  0.00     0.074 A 
ATOM     45  C   UNL A   1      38.106  33.343  33.845  1.00  0.00     0.031 C 
ATOM     46  C   UNL A   1      38.869  29.553  28.137  1.00  0.00     0.029 A 
ATOM     47  C   UNL A   1      39.830  29.295  29.205  1.00  0.00     0.049 A 
ATOM     48  H   UNL A   1      39.929  30.211  31.072  1.00  0.00     0.167 HD
ATOM     49  C   UNL A   1      39.962  32.171  34.991  1.00  0.00     0.037 A 
ATOM     50  C   UNL A   1      40.835  28.401  29.151  1.00  0.00     0.037 A 
ATOM     51  C   UNL A   1      41.017  31.194  35.050  1.00  0.00     0.049 A 
ATOM     52  C   UNL A   1      41.735  28.237  30.344  1.00  0.00     0.074 A 
ATOM     53  C   UNL A   1      41.859  30.894  36.107  1.00  0.00     0.029 A 
ATOM     54  N   UNL A   1      41.386  30.364  33.999  1.00  0.00    -0.354 N 
ATOM     55  N   UNL A   1      41.688  28.841  31.507  1.00  0.00    -0.248 NA
ATOM     56  C   UNL A   1      42.827  27.263  30.216  1.00  0.00     0.031 C 
ATOM     57  C   UNL A   1      42.771  29.924  35.678  1.00  0.00     0.029 A 
ATOM     58  C   UNL A   1      42.460  29.573  34.374  1.00  0.00     0.049 A 
ATOM     59  H   UNL A   1      40.948  30.342  33.118  1.00  0.00     0.167 HD
ATOM     60  C   UNL A   1      42.721  28.297  32.261  1.00  0.00     0.074 A 
ATOM     61  C   UNL A   1      43.368  27.307  31.425  1.00  0.00     0.031 C 
ATOM     62  C   UNL A   1      43.095  28.590  33.532  1.00  0.00     0.037 A 
BRANCH  49  63
ATOM     63  C   UNL A   1      39.718  33.050  36.185  1.00  0.00     0.057 A 
ATOM     64  C   UNL A   1      38.795  32.704  37.184  1.00  0.00     0.134 A 
ATOM     65  C   UNL A   1      40.407  34.259  36.339  1.00  0.00     0.134 A 
ATOM     66  F   UNL A   1      38.092  31.566  37.095  1.00  0.00    -0.206 F 
ATOM     67  C   UNL A   1      38.536  33.548  38.265  1.00  0.00     0.040 A 
ATOM     68  C   UNL A   1      40.181  35.095  37.434  1.00  0.00     0.040 A 
ATOM     69  F   UNL A   1      41.311  34.650  35.428  1.00  0.00    -0.206 F 
ATOM     70  C   UNL A   1      39.234  34.747  38.395  1.00  0.00     0.006 A 
ENDBRANCH  49  63
BRANCH  50  71
ATOM     71  C   UNL A   1      41.016  27.562  27.939  1.00  0.00     0.057 A 
ATOM     72  C   UNL A   1      41.775  28.019  26.856  1.00  0.00     0.134 A 
ATOM     73  C   UNL A   1      40.444  26.289  27.836  1.00  0.00     0.134 A 
ATOM     74  F   UNL A   1      42.334  29.238  26.888  1.00  0.00    -0.206 F 
ATOM     75  C   UNL A   1      41.949  27.246  25.708  1.00  0.00     0.040 A 
ATOM     76  C   UNL A   1      40.632  25.494  26.704  1.00  0.00     0.040 A 
ATOM     77  F   UNL A   1      39.712  25.790  28.843  1.00  0.00    -0.206 F 
ATOM     78  C   UNL A   1      41.381  25.975  25.631  1.00  0.00     0.006 A 
ENDBRANCH  50  71
BRANCH  62  79
ATOM     79  C   UNL A   1      44.236  27.801  34.110  1.00  0.00     0.057 A 
ATOM     80  C   UNL A   1      45.557  28.264  34.071  1.00  0.00     0.134 A 
ATOM     81  C   UNL A   1      44.000  26.574  34.745  1.00  0.00     0.134 A 
ATOM     82  F   UNL A   1      45.853  29.424  33.467  1.00  0.00    -0.206 F 
ATOM     83  C   UNL A   1      46.606  27.522  34.618  1.00  0.00     0.040 A 
ATOM     84  C   UNL A   1      45.036  25.839  35.322  1.00  0.00     0.040 A 
ATOM     85  F   UNL A   1      42.757  26.076  34.827  1.00  0.00    -0.206 F 
ATOM     86  C   UNL A   1      46.346  26.309  35.253  1.00  0.00     0.006 A 
ENDBRANCH  62  79
ENDBRANCH  36  37
ENDBRANCH  28  31
ENDBRANCH  26  27
ENDBRANCH  25  26
ENDBRANCH   1  25
TORSDOF 16
ENDMDL
MODEL 2
REMARK VINA RESULT:     -11.2      1.272      2.076
REMARK SMILES CC/C(=C/C(=O)[C@H](Cc1ccc(Cl)cc1Cl)C(=O)NCCCNC(=O)c1ccc(-c2c3nc(c(-c4c(F)cccc4F)c4ccc([nH]4)c(-c4c(F)cccc4F)c4nc(c(-c5c(F)cccc5F)c5ccc2[nH]5)C=C4)C=C3)cc1)N(C)C
REMARK SMILES IDX 20 1 19 2 17 3 18 4 7 6 5 7 6 8 4 9 3 10 2 11 1 12 80 13
REMARK SMILES IDX 81 14 82 15 8 16 9 17 10 18 15 19 11 20 14 21 16 22 12 23
REMARK SMILES IDX 13 24 21 25 22 26 23 27 24 28 25 30 26 31 27 32 79 33 28 34
REMARK SMILES IDX 78 35 29 36 30 37 31 38 72 39 32 40 77 41 71 42 73 43 33 44
REMARK SMILES IDX 76 45 70 46 69 47 34 49 60 50 43 51 59 52 44 53 47 54 58 55
REMARK SMILES IDX 74 56 45 57 46 58 57 60 75 61 48 62 35 63 36 64 41 65 37 66
REMARK SMILES IDX 38 67 40 68 42 69 39 70 61 71 62 72 67 73 63 74 64 75 66 76
REMARK SMILES IDX 68 77 65 78 49 79 50 80 55 81 51 82 52 83 54 84 56 85 53 86
REMARK H PARENT 19 5 23 29 73 48 47 59
REMARK Flexibility Score: inf
ROOT
ATOM      1  C   UNL A   1      31.895  30.306  26.884  1.00  0.00     0.117 C 
ENDROOT
BRANCH   1   2
ATOM      2  N   UNL A   1      33.320  30.085  26.985  1.00  0.00    -0.355 N 
ATOM      3  C   UNL A   1      34.068  28.985  26.743  1.00  0.00     0.231 C 
ATOM      4  O   UNL A   1      35.161  28.944  27.317  1.00  0.00    -0.274 OA
ATOM      5  H   UNL A   1      33.835  30.870  27.283  1.00  0.00     0.163 HD
BRANCH   3   6
ATOM      6  C   UNL A   1      33.629  27.875  25.796  1.00  0.00     0.154 C 
BRANCH   6   7
ATOM      7  C   UNL A   1      33.309  28.462  24.420  1.00  0.00     0.170 C 
ATOM      8  O   UNL A   1      33.385  29.667  24.179  1.00  0.00    -0.294 OA
BRANCH   7   9
ATOM      9  C   UNL A   1      33.034  27.526  23.287  1.00  0.00     0.069 C 
ATOM     10  C   UNL A   1      31.845  27.250  22.708  1.00  0.00     0.016 C 
BRANCH  10  11
ATOM     11  C   UNL A   1      31.806  25.956  21.889  1.00  0.00     0.050 C 
ATOM     12  C   UNL A   1      32.962  25.015  22.231  1.00  0.00     0.010 C 
ENDBRANCH  10  11
BRANCH  10  13
ATOM     13  N   UNL A   1      30.652  27.992  22.786  1.00  0.00    -0.381 N 
ATOM     14  C   UNL A   1      29.421  27.467  23.395  1.00  0.00     0.143 C 
ATOM     15  C   UNL A   1      30.477  29.340  22.239  1.00  0.00     0.143 C 
ENDBRANCH  10  13
ENDBRANCH   7   9
ENDBRANCH   6   7
BRANCH   6  16
ATOM     16  C   UNL A   1      32.538  26.902  26.294  1.00  0.00     0.059 C 
BRANCH  16  17
ATOM     17  C   UNL A   1      32.698  25.407  26.034  1.00  0.00    -0.028 A 
ATOM     18  C   UNL A   1      33.953  24.811  25.845  1.00  0.00     0.007 A 
ATOM     19  C   UNL A   1      31.580  24.547  26.070  1.00  0.00     0.045 A 
ATOM     20  C   UNL A   1      34.120  23.427  25.917  1.00  0.00     0.021 A 
ATOM     21  C   UNL A   1      31.738  23.157  26.095  1.00  0.00     0.041 A 
ATOM     22  Cl  UNL A   1      29.966  25.163  26.113  1.00  0.00    -0.084 Cl
ATOM     23  C   UNL A   1      33.013  22.608  26.077  1.00  0.00     0.042 A 
ATOM     24  Cl  UNL A   1      33.233  20.915  26.267  1.00  0.00    -0.084 Cl
ENDBRANCH  16  17
ENDBRANCH   6  16
ENDBRANCH   3   6
ENDBRANCH   1   2
BRANCH   1  25
ATOM     25  C   UNL A   1      31.563  31.797  26.889  1.00  0.00     0.042 C 
BRANCH  25  26
ATOM     26  C   UNL A   1      32.783  32.714  26.878  1.00  0.00     0.118 C 
BRANCH  26  27
ATOM     27  N   UNL A   1      32.508  33.996  27.505  1.00  0.00    -0.352 N 
ATOM     28  C   UNL A   1      33.073  34.543  28.629  1.00  0.00     0.251 C 
ATOM     29  H   UNL A   1      31.821  34.547  27.063  1.00  0.00     0.163 HD
ATOM     30  O   UNL A   1      32.577  35.531  29.154  1.00  0.00    -0.269 OA
BRANCH  28  31
ATOM     31  C   UNL A   1      34.273  33.912  29.210  1.00  0.00     0.039 A 
ATOM     32  C   UNL A   1      34.108  32.876  30.127  1.00  0.00     0.014 A 
ATOM     33  C   UNL A   1      35.552  34.343  28.842  1.00  0.00     0.014 A 
ATOM     34  C   UNL A   1      35.232  32.241  30.652  1.00  0.00     0.010 A 
ATOM     35  C   UNL A   1      36.669  33.655  29.303  1.00  0.00     0.010 A 
ATOM     36  C   UNL A   1      36.521  32.610  30.228  1.00  0.00    -0.014 A 
BRANCH  36  37
ATOM     37  C   UNL A   1      37.719  31.925  30.768  1.00  0.00     0.031 A 
ATOM     38  C   UNL A   1      38.240  32.277  32.132  1.00  0.00     0.074 A 
ATOM     39  C   UNL A   1      38.350  31.000  30.020  1.00  0.00     0.049 A 
ATOM     40  N   UNL A   1      39.264  31.781  32.781  1.00  0.00    -0.248 NA
ATOM     41  C   UNL A   1      37.529  33.342  32.857  1.00  0.00     0.031 C 
ATOM     42  C   UNL A   1      37.963  30.597  28.667  1.00  0.00     0.029 A 
ATOM     43  N   UNL A   1      39.448  30.226  30.297  1.00  0.00    -0.354 N 
ATOM     44  C   UNL A   1      39.319  32.474  33.983  1.00  0.00     0.074 A 
ATOM     45  C   UNL A   1      38.272  33.471  33.945  1.00  0.00     0.031 C 
ATOM     46  C   UNL A   1      38.783  29.620  28.249  1.00  0.00     0.029 A 
ATOM     47  C   UNL A   1      39.776  29.357  29.286  1.00  0.00     0.049 A 
ATOM     48  H   UNL A   1      39.953  30.287  31.140  1.00  0.00     0.167 HD
ATOM     49  C   UNL A   1      40.149  32.281  35.037  1.00  0.00     0.037 A 
ATOM     50  C   UNL A   1      40.765  28.447  29.206  1.00  0.00     0.037 A 
ATOM     51  C   UNL A   1      41.191  31.288  35.070  1.00  0.00     0.049 A 
ATOM     52  C   UNL A   1      41.703  28.280  30.369  1.00  0.00     0.074 A 
ATOM     53  C   UNL A   1      42.063  30.985  36.100  1.00  0.00     0.029 A 
ATOM     54  N   UNL A   1      41.511  30.444  34.014  1.00  0.00    -0.354 N 
ATOM     55  N   UNL A   1      41.705  28.894  31.528  1.00  0.00    -0.248 NA
ATOM     56  C   UNL A   1      42.775  27.288  30.214  1.00  0.00     0.031 C 
ATOM     57  C   UNL A   1      42.946  29.997  35.649  1.00  0.00     0.029 A 
ATOM     58  C   UNL A   1      42.585  29.640  34.359  1.00  0.00     0.049 A 
ATOM     59  H   UNL A   1      41.043  30.421  33.149  1.00  0.00     0.167 HD
ATOM     60  C   UNL A   1      42.754  28.342  32.251  1.00  0.00     0.074 A 
ATOM     61  C   UNL A   1      43.358  27.334  31.403  1.00  0.00     0.031 C 
ATOM     62  C   UNL A   1      43.176  28.640  33.505  1.00  0.00     0.037 A 
BRANCH  49  63
ATOM     63  C   UNL A   1      39.959  33.174  36.231  1.00  0.00     0.057 A 
ATOM     64  C   UNL A   1      39.075  32.845  37.270  1.00  0.00     0.134 A 
ATOM     65  C   UNL A   1      40.661  34.381  36.343  1.00  0.00     0.134 A 
ATOM     66  F   UNL A   1      38.362  31.710  37.222  1.00  0.00    -0.206 F 
ATOM     67  C   UNL A   1      38.866  33.702  38.352  1.00  0.00     0.040 A 
ATOM     68  C   UNL A   1      40.485  35.230  37.438  1.00  0.00     0.040 A 
ATOM     69  F   UNL A   1      41.529  34.756  35.392  1.00  0.00    -0.206 F 
ATOM     70  C   UNL A   1      39.575  34.897  38.440  1.00  0.00     0.006 A 
ENDBRANCH  49  63
BRANCH  50  71
ATOM     71  C   UNL A   1      40.892  27.595  27.997  1.00  0.00     0.057 A 
ATOM     72  C   UNL A   1      41.675  28.001  26.911  1.00  0.00     0.134 A 
ATOM     73  C   UNL A   1      40.243  26.359  27.899  1.00  0.00     0.134 A 
ATOM     74  F   UNL A   1      42.308  29.184  26.938  1.00  0.00    -0.206 F 
ATOM     75  C   UNL A   1      41.799  27.215  25.764  1.00  0.00     0.040 A 
ATOM     76  C   UNL A   1      40.380  25.551  26.769  1.00  0.00     0.040 A 
ATOM     77  F   UNL A   1      39.484  25.909  28.908  1.00  0.00    -0.206 F 
ATOM     78  C   UNL A   1      41.154  25.982  25.693  1.00  0.00     0.006 A 
ENDBRANCH  50  71
BRANCH  62  79
ATOM     79  C   UNL A   1      44.324  27.838  34.052  1.00  0.00     0.057 A 
ATOM     80  C   UNL A   1      44.133  26.611  34.699  1.00  0.00     0.134 A 
ATOM     81  C   UNL A   1      45.642  28.288  33.896  1.00  0.00     0.134 A 
ATOM     82  F   UNL A   1      42.896  26.129  34.892  1.00  0.00    -0.206 F 
ATOM     83  C   UNL A   1      45.209  25.873  35.196  1.00  0.00     0.040 A 
ATOM     84  C   UNL A   1      46.727  27.544  34.361  1.00  0.00     0.040 A 
ATOM     85  F   UNL A   1      45.898  29.450  33.277  1.00  0.00    -0.206 F 
ATOM     86  C   UNL A   1      46.512  26.336  35.021  1.00  0.00     0.006 A 
ENDBRANCH  62  79
ENDBRANCH  36  37
ENDBRANCH  28  31
ENDBRANCH  26  27
ENDBRANCH  25  26
ENDBRANCH   1  25
TORSDOF 16
ENDMDL
MODEL 3
REMARK VINA RESULT:     -11.1      2.754      4.128
REMARK SMILES CC/C(=C/C(=O)[C@H](Cc1ccc(Cl)cc1Cl)C(=O)NCCCNC(=O)c1ccc(-c2c3nc(c(-c4c(F)cccc4F)c4ccc([nH]4)c(-c4c(F)cccc4F)c4nc(c(-c5c(F)cccc5F)c5ccc2[nH]5)C=C4)C=C3)cc1)N(C)C
REMARK SMILES IDX 20 1 19 2 17 3 18 4 7 6 5 7 6 8 4 9 3 10 2 11 1 12 80 13
REMARK SMILES IDX 81 14 82 15 8 16 9 17 10 18 15 19 11 20 14 21 16 22 12 23
REMARK SMILES IDX 13 24 21 25 22 26 23 27 24 28 25 30 26 31 27 32 79 33 28 34
REMARK SMILES IDX 78 35 29 36 30 37 31 38 72 39 32 40 77 41 71 42 73 43 33 44
REMARK SMILES IDX 76 45 70 46 69 47 34 49 60 50 43 51 59 52 44 53 47 54 58 55
REMARK SMILES IDX 74 56 45 57 46 58 57 60 75 61 48 62 35 63 36 64 41 65 37 66
REMARK SMILES IDX 38 67 40 68 42 69 39 70 61 71 62 72 67 73 63 74 64 75 66 76
REMARK SMILES IDX 68 77 65 78 49 79 50 80 55 81 51 82 52 83 54 84 56 85 53 86
REMARK H PARENT 19 5 23 29 73 48 47 59
REMARK Flexibility Score: inf
ROOT
ATOM      1  C   UNL A   1      31.880  27.693  26.174  1.00  0.00     0.117 C 
ENDROOT
BRANCH   1   2
ATOM      2  N   UNL A   1      31.098  26.619  26.742  1.00  0.00    -0.355 N 
ATOM      3  C   UNL A   1      30.844  25.369  26.291  1.00  0.00     0.231 C 
ATOM      4  O   UNL A   1      29.823  24.837  26.737  1.00  0.00    -0.274 OA
ATOM      5  H   UNL A   1      30.675  26.834  27.605  1.00  0.00     0.163 HD
BRANCH   3   6
ATOM      6  C   UNL A   1      31.767  24.631  25.330  1.00  0.00     0.154 C 
BRANCH   6   7
ATOM      7  C   UNL A   1      31.075  24.451  23.978  1.00  0.00     0.170 C 
ATOM      8  O   UNL A   1      30.870  23.344  23.480  1.00  0.00    -0.294 OA
BRANCH   7   9
ATOM      9  C   UNL A   1      30.495  25.652  23.302  1.00  0.00     0.069 C 
ATOM     10  C   UNL A   1      31.136  26.566  22.540  1.00  0.00     0.016 C 
BRANCH  10  11
ATOM     11  C   UNL A   1      30.393  27.893  22.355  1.00  0.00     0.050 C 
ATOM     12  C   UNL A   1      29.187  28.020  23.286  1.00  0.00     0.010 C 
ENDBRANCH  10  11
BRANCH  10  13
ATOM     13  N   UNL A   1      32.394  26.447  21.923  1.00  0.00    -0.381 N 
ATOM     14  C   UNL A   1      33.611  27.079  22.456  1.00  0.00     0.143 C 
ATOM     15  C   UNL A   1      32.638  25.730  20.668  1.00  0.00     0.143 C 
ENDBRANCH  10  13
ENDBRANCH   7   9
ENDBRANCH   6   7
BRANCH   6  16
ATOM     16  C   UNL A   1      32.428  23.330  25.834  1.00  0.00     0.059 C 
BRANCH  16  17
ATOM     17  C   UNL A   1      33.898  23.068  25.515  1.00  0.00    -0.028 A 
ATOM     18  C   UNL A   1      34.916  23.949  25.909  1.00  0.00     0.007 A 
ATOM     19  C   UNL A   1      34.295  21.870  24.887  1.00  0.00     0.045 A 
ATOM     20  C   UNL A   1      36.258  23.564  25.892  1.00  0.00     0.021 A 
ATOM     21  C   UNL A   1      35.644  21.499  24.823  1.00  0.00     0.041 A 
ATOM     22  Cl  UNL A   1      33.142  20.787  24.190  1.00  0.00    -0.084 Cl
ATOM     23  C   UNL A   1      36.612  22.324  25.380  1.00  0.00     0.042 A 
ATOM     24  Cl  UNL A   1      38.251  21.814  25.454  1.00  0.00    -0.084 Cl
ENDBRANCH  16  17
ENDBRANCH   6  16
ENDBRANCH   3   6
ENDBRANCH   1   2
BRANCH   1  25
ATOM     25  C   UNL A   1      33.258  27.781  26.826  1.00  0.00     0.042 C 
BRANCH  25  26
ATOM     26  C   UNL A   1      34.183  28.826  26.206  1.00  0.00     0.118 C 
BRANCH  26  27
ATOM     27  N   UNL A   1      33.876  30.169  26.670  1.00  0.00    -0.352 N 
ATOM     28  C   UNL A   1      34.496  30.904  27.648  1.00  0.00     0.251 C 
ATOM     29  H   UNL A   1      33.119  30.612  26.221  1.00  0.00     0.163 HD
ATOM     30  O   UNL A   1      33.981  31.930  28.073  1.00  0.00    -0.269 OA
BRANCH  28  31
ATOM     31  C   UNL A   1      35.781  30.431  28.197  1.00  0.00     0.039 A 
ATOM     32  C   UNL A   1      35.770  29.647  29.350  1.00  0.00     0.014 A 
ATOM     33  C   UNL A   1      36.987  30.757  27.568  1.00  0.00     0.014 A 
ATOM     34  C   UNL A   1      36.972  29.157  29.855  1.00  0.00     0.010 A 
ATOM     35  C   UNL A   1      38.176  30.200  28.027  1.00  0.00     0.010 A 
ATOM     36  C   UNL A   1      38.182  29.410  29.187  1.00  0.00    -0.014 A 
BRANCH  36  37
ATOM     37  C   UNL A   1      39.461  28.874  29.710  1.00  0.00     0.031 A 
ATOM     38  C   UNL A   1      40.085  29.472  30.938  1.00  0.00     0.074 A 
ATOM     39  C   UNL A   1      40.071  27.861  29.065  1.00  0.00     0.049 A 
ATOM     40  N   UNL A   1      41.190  29.134  31.555  1.00  0.00    -0.248 NA
ATOM     41  C   UNL A   1      39.386  30.616  31.545  1.00  0.00     0.031 C 
ATOM     42  C   UNL A   1      39.583  27.219  27.844  1.00  0.00     0.029 A 
ATOM     43  N   UNL A   1      41.231  27.189  29.355  1.00  0.00    -0.354 N 
ATOM     44  C   UNL A   1      41.317  30.023  32.614  1.00  0.00     0.074 A 
ATOM     45  C   UNL A   1      40.218  30.957  32.516  1.00  0.00     0.031 C 
ATOM     46  C   UNL A   1      40.414  26.219  27.512  1.00  0.00     0.029 A 
ATOM     47  C   UNL A   1      41.511  26.174  28.474  1.00  0.00     0.049 A 
ATOM     48  H   UNL A   1      41.807  27.412  30.121  1.00  0.00     0.167 HD
ATOM     49  C   UNL A   1      42.250  30.044  33.596  1.00  0.00     0.037 A 
ATOM     50  C   UNL A   1      42.538  25.304  28.446  1.00  0.00     0.037 A 
ATOM     51  C   UNL A   1      43.344  29.113  33.688  1.00  0.00     0.049 A 
ATOM     52  C   UNL A   1      43.587  25.373  29.521  1.00  0.00     0.074 A 
ATOM     53  C   UNL A   1      44.323  29.024  34.661  1.00  0.00     0.029 A 
ATOM     54  N   UNL A   1      43.612  28.115  32.760  1.00  0.00    -0.354 N 
ATOM     55  N   UNL A   1      43.661  26.175  30.556  1.00  0.00    -0.248 NA
ATOM     56  C   UNL A   1      44.693  24.412  29.425  1.00  0.00     0.031 C 
ATOM     57  C   UNL A   1      45.214  28.009  34.294  1.00  0.00     0.029 A 
ATOM     58  C   UNL A   1      44.756  27.424  33.124  1.00  0.00     0.049 A 
ATOM     59  H   UNL A   1      43.068  27.927  31.961  1.00  0.00     0.167 HD
ATOM     60  C   UNL A   1      44.802  25.795  31.253  1.00  0.00     0.074 A 
ATOM     61  C   UNL A   1      45.380  24.682  30.526  1.00  0.00     0.031 C 
ATOM     62  C   UNL A   1      45.321  26.317  32.392  1.00  0.00     0.037 A 
BRANCH  49  63
ATOM     63  C   UNL A   1      42.122  31.119  34.639  1.00  0.00     0.057 A 
ATOM     64  C   UNL A   1      41.317  30.955  35.777  1.00  0.00     0.134 A 
ATOM     65  C   UNL A   1      42.804  32.334  34.505  1.00  0.00     0.134 A 
ATOM     66  F   UNL A   1      40.626  29.821  35.964  1.00  0.00    -0.206 F 
ATOM     67  C   UNL A   1      41.162  31.976  36.717  1.00  0.00     0.040 A 
ATOM     68  C   UNL A   1      42.684  33.349  35.456  1.00  0.00     0.040 A 
ATOM     69  F   UNL A   1      43.599  32.557  33.447  1.00  0.00    -0.206 F 
ATOM     70  C   UNL A   1      41.851  33.176  36.560  1.00  0.00     0.006 A 
ENDBRANCH  49  63
BRANCH  50  71
ATOM     71  C   UNL A   1      42.599  24.264  27.388  1.00  0.00     0.057 A 
ATOM     72  C   UNL A   1      43.190  24.535  26.149  1.00  0.00     0.134 A 
ATOM     73  C   UNL A   1      42.080  22.980  27.589  1.00  0.00     0.134 A 
ATOM     74  F   UNL A   1      43.690  25.753  25.890  1.00  0.00    -0.206 F 
ATOM     75  C   UNL A   1      43.250  23.572  25.141  1.00  0.00     0.040 A 
ATOM     76  C   UNL A   1      42.157  21.999  26.599  1.00  0.00     0.040 A 
ATOM     77  F   UNL A   1      41.509  22.655  28.757  1.00  0.00    -0.206 F 
ATOM     78  C   UNL A   1      42.737  22.296  25.367  1.00  0.00     0.006 A 
ENDBRANCH  50  71
BRANCH  62  79
ATOM     79  C   UNL A   1      46.556  25.666  32.945  1.00  0.00     0.057 A 
ATOM     80  C   UNL A   1      46.493  24.616  33.871  1.00  0.00     0.134 A 
ATOM     81  C   UNL A   1      47.827  26.074  32.517  1.00  0.00     0.134 A 
ATOM     82  F   UNL A   1      45.309  24.186  34.332  1.00  0.00    -0.206 F 
ATOM     83  C   UNL A   1      47.650  24.015  34.372  1.00  0.00     0.040 A 
ATOM     84  C   UNL A   1      48.988  25.460  32.987  1.00  0.00     0.040 A 
ATOM     85  F   UNL A   1      47.960  27.066  31.624  1.00  0.00    -0.206 F 
ATOM     86  C   UNL A   1      48.902  24.432  33.924  1.00  0.00     0.006 A 
ENDBRANCH  62  79
ENDBRANCH  36  37
ENDBRANCH  28  31
ENDBRANCH  26  27
ENDBRANCH  25  26
ENDBRANCH   1  25
TORSDOF 16
ENDMDL
