MODEL 1
REMARK VINA RESULT:     -12.2      0.000      0.000
REMARK SMILES CCN(C(=O)Cc1c(C(=O)NCCCNC(=O)c2ccc(-c3c4nc(c(-c5c(F)cccc5F)c5ccc([nH]5)c(-c5c(F)cccc5F)c5nc(c(-c6c(F)cccc6F)c6ccc3[nH]6)C=C5)C=C4)cc2)[nH]c2ccc(Cl)cc12)c1ccc(C)c(C)c1
REMARK SMILES IDX 12 1 11 2 9 3 10 4 8 6 7 7 79 8 72 9 73 10 78 11 74 13 76 14
REMARK SMILES IDX 75 15 77 16 6 17 4 18 5 19 3 20 2 21 1 22 80 23 81 24 87 25
REMARK SMILES IDX 82 26 85 27 83 28 86 29 84 30 13 31 14 32 15 33 16 34 17 36
REMARK SMILES IDX 18 37 19 38 71 39 20 40 70 41 21 42 22 43 23 44 64 45 24 46
REMARK SMILES IDX 69 47 63 48 65 49 25 50 68 51 62 52 61 53 26 55 52 56 35 57
REMARK SMILES IDX 51 58 36 59 39 60 50 61 66 62 37 63 38 64 49 66 67 67 40 68
REMARK SMILES IDX 27 69 28 70 33 71 29 72 30 73 32 74 34 75 31 76 53 77 54 78
REMARK SMILES IDX 59 79 55 80 56 81 58 82 60 83 57 84 41 85 42 86 47 87 43 88
REMARK SMILES IDX 44 89 46 90 48 91 45 92
REMARK H PARENT 11 5 72 12 15 35 65 54 39 65
REMARK Flexibility Score: inf
ROOT
ATOM      1  C   UNL A   1      32.024  27.925  27.415  1.00  0.00     0.118 C 
ENDROOT
BRANCH   1   2
ATOM      2  N   UNL A   1      31.057  26.958  26.934  1.00  0.00    -0.351 N 
ATOM      3  C   UNL A   1      31.160  25.641  26.586  1.00  0.00     0.268 C 
ATOM      4  O   UNL A   1      30.109  24.996  26.570  1.00  0.00    -0.268 OA
ATOM      5  H   UNL A   1      30.147  27.322  26.839  1.00  0.00     0.163 HD
BRANCH   3   6
ATOM      6  C   UNL A   1      32.428  24.981  26.348  1.00  0.00     0.109 A 
ATOM      7  C   UNL A   1      33.497  25.184  25.474  1.00  0.00    -0.000 A 
ATOM      8  C   UNL A   1      34.420  24.094  25.673  1.00  0.00     0.005 A 
ATOM      9  N   UNL A   1      32.652  23.764  26.962  1.00  0.00    -0.350 N 
ATOM     10  C   UNL A   1      33.844  23.211  26.579  1.00  0.00     0.046 A 
ATOM     11  C   UNL A   1      35.670  23.750  25.111  1.00  0.00     0.031 A 
ATOM     12  H   UNL A   1      32.029  23.345  27.600  1.00  0.00     0.167 HD
ATOM     13  C   UNL A   1      34.431  21.992  26.944  1.00  0.00     0.028 A 
ATOM     14  C   UNL A   1      36.269  22.537  25.464  1.00  0.00     0.041 A 
ATOM     15  C   UNL A   1      35.659  21.667  26.362  1.00  0.00     0.022 A 
ATOM     16  Cl  UNL A   1      37.779  22.108  24.754  1.00  0.00    -0.084 Cl
BRANCH   7  17
ATOM     17  C   UNL A   1      33.697  26.258  24.447  1.00  0.00     0.139 C 
BRANCH  17  18
ATOM     18  C   UNL A   1      33.098  25.931  23.084  1.00  0.00     0.231 C 
ATOM     19  O   UNL A   1      33.808  26.072  22.081  1.00  0.00    -0.274 OA
BRANCH  18  20
ATOM     20  N   UNL A   1      31.779  25.472  22.993  1.00  0.00    -0.312 N 
BRANCH  20  21
ATOM     21  C   UNL A   1      31.377  24.074  22.789  1.00  0.00     0.122 C 
ATOM     22  C   UNL A   1      32.525  23.078  22.788  1.00  0.00     0.028 C 
ENDBRANCH  20  21
BRANCH  20  23
ATOM     23  C   UNL A   1      30.735  26.450  23.088  1.00  0.00     0.044 A 
ATOM     24  C   UNL A   1      29.496  26.094  23.633  1.00  0.00     0.026 A 
ATOM     25  C   UNL A   1      30.901  27.742  22.586  1.00  0.00     0.030 A 
ATOM     26  C   UNL A   1      28.440  27.003  23.658  1.00  0.00     0.006 A 
ATOM     27  C   UNL A   1      29.828  28.655  22.558  1.00  0.00    -0.046 A 
ATOM     28  C   UNL A   1      28.589  28.286  23.116  1.00  0.00    -0.048 A 
ATOM     29  C   UNL A   1      30.026  29.984  21.881  1.00  0.00     0.044 C 
ATOM     30  C   UNL A   1      27.378  29.178  23.067  1.00  0.00     0.044 C 
ENDBRANCH  20  23
ENDBRANCH  18  20
ENDBRANCH  17  18
ENDBRANCH   7  17
ENDBRANCH   3   6
ENDBRANCH   1   2
BRANCH   1  31
ATOM     31  C   UNL A   1      32.202  29.169  26.533  1.00  0.00     0.042 C 
BRANCH  31  32
ATOM     32  C   UNL A   1      33.606  29.780  26.495  1.00  0.00     0.118 C 
BRANCH  32  33
ATOM     33  N   UNL A   1      33.662  31.020  27.253  1.00  0.00    -0.352 N 
ATOM     34  C   UNL A   1      34.520  31.415  28.247  1.00  0.00     0.251 C 
ATOM     35  H   UNL A   1      32.973  31.681  27.014  1.00  0.00     0.163 HD
ATOM     36  O   UNL A   1      34.225  32.397  28.928  1.00  0.00    -0.269 OA
BRANCH  34  37
ATOM     37  C   UNL A   1      35.796  30.710  28.525  1.00  0.00     0.039 A 
ATOM     38  C   UNL A   1      35.794  29.705  29.502  1.00  0.00     0.014 A 
ATOM     39  C   UNL A   1      37.012  31.111  27.959  1.00  0.00     0.014 A 
ATOM     40  C   UNL A   1      36.991  29.110  29.913  1.00  0.00     0.010 A 
ATOM     41  C   UNL A   1      38.209  30.493  28.348  1.00  0.00     0.010 A 
ATOM     42  C   UNL A   1      38.211  29.506  29.346  1.00  0.00    -0.014 A 
BRANCH  42  43
ATOM     43  C   UNL A   1      39.492  28.942  29.848  1.00  0.00     0.031 A 
ATOM     44  C   UNL A   1      40.134  29.506  31.086  1.00  0.00     0.074 A 
ATOM     45  C   UNL A   1      40.094  27.933  29.193  1.00  0.00     0.049 A 
ATOM     46  N   UNL A   1      41.263  29.168  31.660  1.00  0.00    -0.248 NA
ATOM     47  C   UNL A   1      39.422  30.602  31.759  1.00  0.00     0.031 C 
ATOM     48  C   UNL A   1      39.601  27.304  27.970  1.00  0.00     0.029 A 
ATOM     49  N   UNL A   1      41.263  27.265  29.467  1.00  0.00    -0.354 N 
ATOM     50  C   UNL A   1      41.411  30.026  32.741  1.00  0.00     0.074 A 
ATOM     51  C   UNL A   1      40.263  30.908  32.739  1.00  0.00     0.031 C 
ATOM     52  C   UNL A   1      40.459  26.338  27.599  1.00  0.00     0.029 A 
ATOM     53  C   UNL A   1      41.567  26.290  28.551  1.00  0.00     0.049 A 
ATOM     54  H   UNL A   1      41.827  27.467  30.249  1.00  0.00     0.167 HD
ATOM     55  C   UNL A   1      42.407  30.076  33.658  1.00  0.00     0.037 A 
ATOM     56  C   UNL A   1      42.620  25.454  28.481  1.00  0.00     0.037 A 
ATOM     57  C   UNL A   1      43.529  29.177  33.706  1.00  0.00     0.049 A 
ATOM     58  C   UNL A   1      43.690  25.497  29.534  1.00  0.00     0.074 A 
ATOM     59  C   UNL A   1      44.542  29.110  34.648  1.00  0.00     0.029 A 
ATOM     60  N   UNL A   1      43.785  28.186  32.774  1.00  0.00    -0.354 N 
ATOM     61  N   UNL A   1      43.791  26.286  30.575  1.00  0.00    -0.248 NA
ATOM     62  C   UNL A   1      44.791  24.531  29.401  1.00  0.00     0.031 C 
ATOM     63  C   UNL A   1      45.424  28.089  34.274  1.00  0.00     0.029 A 
ATOM     64  C   UNL A   1      44.947  27.512  33.108  1.00  0.00     0.049 A 
ATOM     65  H   UNL A   1      43.224  27.990  31.989  1.00  0.00     0.167 HD
ATOM     66  C   UNL A   1      44.959  25.908  31.225  1.00  0.00     0.074 A 
ATOM     67  C   UNL A   1      45.529  24.813  30.468  1.00  0.00     0.031 C 
ATOM     68  C   UNL A   1      45.508  26.427  32.348  1.00  0.00     0.037 A 
BRANCH  55  69
ATOM     69  C   UNL A   1      42.329  31.156  34.691  1.00  0.00     0.057 A 
ATOM     70  C   UNL A   1      42.891  32.421  34.476  1.00  0.00     0.134 A 
ATOM     71  C   UNL A   1      41.662  30.935  35.901  1.00  0.00     0.134 A 
ATOM     72  F   UNL A   1      43.552  32.686  33.339  1.00  0.00    -0.206 F 
ATOM     73  C   UNL A   1      42.806  33.426  35.440  1.00  0.00     0.040 A 
ATOM     74  C   UNL A   1      41.557  31.935  36.867  1.00  0.00     0.040 A 
ATOM     75  F   UNL A   1      41.101  29.744  36.161  1.00  0.00    -0.206 F 
ATOM     76  C   UNL A   1      42.134  33.184  36.638  1.00  0.00     0.006 A 
ENDBRANCH  55  69
BRANCH  56  77
ATOM     77  C   UNL A   1      42.711  24.490  27.363  1.00  0.00     0.057 A 
ATOM     78  C   UNL A   1      43.302  24.849  26.147  1.00  0.00     0.134 A 
ATOM     79  C   UNL A   1      42.214  23.189  27.488  1.00  0.00     0.134 A 
ATOM     80  F   UNL A   1      43.775  26.091  25.969  1.00  0.00    -0.206 F 
ATOM     81  C   UNL A   1      43.394  23.946  25.089  1.00  0.00     0.040 A 
ATOM     82  C   UNL A   1      42.309  22.270  26.443  1.00  0.00     0.040 A 
ATOM     83  F   UNL A   1      41.634  22.793  28.631  1.00  0.00    -0.206 F 
ATOM     84  C   UNL A   1      42.900  22.650  25.238  1.00  0.00     0.006 A 
ENDBRANCH  56  77
BRANCH  68  85
ATOM     85  C   UNL A   1      46.787  25.815  32.830  1.00  0.00     0.057 A 
ATOM     86  C   UNL A   1      48.028  26.273  32.374  1.00  0.00     0.134 A 
ATOM     87  C   UNL A   1      46.778  24.788  33.782  1.00  0.00     0.134 A 
ATOM     88  F   UNL A   1      48.098  27.246  31.454  1.00  0.00    -0.206 F 
ATOM     89  C   UNL A   1      49.222  25.721  32.843  1.00  0.00     0.040 A 
ATOM     90  C   UNL A   1      47.966  24.237  34.265  1.00  0.00     0.040 A 
ATOM     91  F   UNL A   1      45.619  24.310  34.256  1.00  0.00    -0.206 F 
ATOM     92  C   UNL A   1      49.192  24.703  33.794  1.00  0.00     0.006 A 
ENDBRANCH  68  85
ENDBRANCH  42  43
ENDBRANCH  34  37
ENDBRANCH  32  33
ENDBRANCH  31  32
ENDBRANCH   1  31
TORSDOF 15
ENDMDL
MODEL 2
REMARK VINA RESULT:     -12.0      3.410      8.486
REMARK SMILES CCN(C(=O)Cc1c(C(=O)NCCCNC(=O)c2ccc(-c3c4nc(c(-c5c(F)cccc5F)c5ccc([nH]5)c(-c5c(F)cccc5F)c5nc(c(-c6c(F)cccc6F)c6ccc3[nH]6)C=C5)C=C4)cc2)[nH]c2ccc(Cl)cc12)c1ccc(C)c(C)c1
REMARK SMILES IDX 12 1 11 2 9 3 10 4 8 6 7 7 79 8 72 9 73 10 78 11 74 13 76 14
REMARK SMILES IDX 75 15 77 16 6 17 4 18 5 19 3 20 2 21 1 22 80 23 81 24 87 25
REMARK SMILES IDX 82 26 85 27 83 28 86 29 84 30 13 31 14 32 15 33 16 34 17 36
REMARK SMILES IDX 18 37 19 38 71 39 20 40 70 41 21 42 22 43 23 44 64 45 24 46
REMARK SMILES IDX 69 47 63 48 65 49 25 50 68 51 62 52 61 53 26 55 52 56 35 57
REMARK SMILES IDX 51 58 36 59 39 60 50 61 66 62 37 63 38 64 49 66 67 67 40 68
REMARK SMILES IDX 27 69 28 70 33 71 29 72 30 73 32 74 34 75 31 76 53 77 54 78
REMARK SMILES IDX 59 79 55 80 56 81 58 82 60 83 57 84 41 85 42 86 47 87 43 88
REMARK SMILES IDX 44 89 46 90 48 91 45 92
REMARK H PARENT 11 5 72 12 15 35 65 54 39 65
REMARK Flexibility Score: inf
ROOT
ATOM      1  C   UNL A   1      37.022  23.345  23.802  1.00  0.00     0.118 C 
ENDROOT
BRANCH   1   2
ATOM      2  N   UNL A   1      35.754  22.984  23.202  1.00  0.00    -0.351 N 
ATOM      3  C   UNL A   1      34.569  23.652  23.067  1.00  0.00     0.268 C 
ATOM      4  O   UNL A   1      33.803  23.235  22.196  1.00  0.00    -0.268 OA
ATOM      5  H   UNL A   1      35.743  22.079  22.815  1.00  0.00     0.163 HD
BRANCH   3   6
ATOM      6  C   UNL A   1      34.248  24.852  23.813  1.00  0.00     0.109 A 
ATOM      7  C   UNL A   1      33.910  25.129  25.138  1.00  0.00    -0.000 A 
ATOM      8  C   UNL A   1      33.599  26.536  25.211  1.00  0.00     0.005 A 
ATOM      9  N   UNL A   1      34.040  26.020  23.105  1.00  0.00    -0.350 N 
ATOM     10  C   UNL A   1      33.654  27.050  23.921  1.00  0.00     0.046 A 
ATOM     11  C   UNL A   1      33.211  27.402  26.258  1.00  0.00     0.031 A 
ATOM     12  H   UNL A   1      34.156  26.103  22.131  1.00  0.00     0.167 HD
ATOM     13  C   UNL A   1      33.326  28.375  23.607  1.00  0.00     0.028 A 
ATOM     14  C   UNL A   1      32.880  28.728  25.961  1.00  0.00     0.041 A 
ATOM     15  C   UNL A   1      32.931  29.209  24.657  1.00  0.00     0.022 A 
ATOM     16  Cl  UNL A   1      32.380  29.774  27.235  1.00  0.00    -0.084 Cl
BRANCH   7  17
ATOM     17  C   UNL A   1      33.799  24.198  26.307  1.00  0.00     0.139 C 
BRANCH  17  18
ATOM     18  C   UNL A   1      32.460  23.474  26.397  1.00  0.00     0.231 C 
ATOM     19  O   UNL A   1      31.782  23.616  27.422  1.00  0.00    -0.274 OA
BRANCH  18  20
ATOM     20  N   UNL A   1      32.022  22.681  25.330  1.00  0.00    -0.312 N 
BRANCH  20  21
ATOM     21  C   UNL A   1      30.920  23.017  24.417  1.00  0.00     0.122 C 
ATOM     22  C   UNL A   1      30.666  24.506  24.252  1.00  0.00     0.028 C 
ENDBRANCH  20  21
BRANCH  20  23
ATOM     23  C   UNL A   1      32.691  21.431  25.121  1.00  0.00     0.044 A 
ATOM     24  C   UNL A   1      33.942  21.204  25.706  1.00  0.00     0.026 A 
ATOM     25  C   UNL A   1      32.152  20.448  24.287  1.00  0.00     0.030 A 
ATOM     26  C   UNL A   1      34.649  20.031  25.447  1.00  0.00     0.006 A 
ATOM     27  C   UNL A   1      32.876  19.281  23.976  1.00  0.00    -0.046 A 
ATOM     28  C   UNL A   1      34.131  19.063  24.577  1.00  0.00    -0.048 A 
ATOM     29  C   UNL A   1      32.306  18.323  22.966  1.00  0.00     0.044 C 
ATOM     30  C   UNL A   1      34.994  17.875  24.249  1.00  0.00     0.044 C 
ENDBRANCH  20  23
ENDBRANCH  18  20
ENDBRANCH  17  18
ENDBRANCH   7  17
ENDBRANCH   3   6
ENDBRANCH   1   2
BRANCH   1  31
ATOM     31  C   UNL A   1      37.319  22.685  25.156  1.00  0.00     0.042 C 
BRANCH  31  32
ATOM     32  C   UNL A   1      38.003  23.564  26.207  1.00  0.00     0.118 C 
BRANCH  32  33
ATOM     33  N   UNL A   1      39.451  23.459  26.121  1.00  0.00    -0.352 N 
ATOM     34  C   UNL A   1      40.430  24.322  26.541  1.00  0.00     0.251 C 
ATOM     35  H   UNL A   1      39.780  22.637  25.692  1.00  0.00     0.163 HD
ATOM     36  O   UNL A   1      41.580  24.156  26.134  1.00  0.00    -0.269 OA
BRANCH  34  37
ATOM     37  C   UNL A   1      40.158  25.442  27.478  1.00  0.00     0.039 A 
ATOM     38  C   UNL A   1      40.946  26.596  27.371  1.00  0.00     0.014 A 
ATOM     39  C   UNL A   1      39.256  25.325  28.542  1.00  0.00     0.014 A 
ATOM     40  C   UNL A   1      40.838  27.621  28.317  1.00  0.00     0.010 A 
ATOM     41  C   UNL A   1      39.125  26.365  29.472  1.00  0.00     0.010 A 
ATOM     42  C   UNL A   1      39.933  27.510  29.382  1.00  0.00    -0.014 A 
BRANCH  42  43
ATOM     43  C   UNL A   1      39.884  28.554  30.439  1.00  0.00     0.031 A 
ATOM     44  C   UNL A   1      40.798  28.469  31.631  1.00  0.00     0.074 A 
ATOM     45  C   UNL A   1      39.014  29.576  30.346  1.00  0.00     0.049 A 
ATOM     46  N   UNL A   1      40.882  29.266  32.669  1.00  0.00    -0.248 NA
ATOM     47  C   UNL A   1      41.730  27.332  31.669  1.00  0.00     0.031 C 
ATOM     48  C   UNL A   1      38.054  29.775  29.263  1.00  0.00     0.029 A 
ATOM     49  N   UNL A   1      38.795  30.639  31.189  1.00  0.00    -0.354 N 
ATOM     50  C   UNL A   1      41.852  28.713  33.494  1.00  0.00     0.074 A 
ATOM     51  C   UNL A   1      42.321  27.507  32.843  1.00  0.00     0.031 C 
ATOM     52  C   UNL A   1      37.350  30.894  29.505  1.00  0.00     0.029 A 
ATOM     53  C   UNL A   1      37.800  31.482  30.764  1.00  0.00     0.049 A 
ATOM     54  H   UNL A   1      39.305  30.781  32.019  1.00  0.00     0.167 HD
ATOM     55  C   UNL A   1      42.316  29.166  34.683  1.00  0.00     0.037 A 
ATOM     56  C   UNL A   1      37.302  32.600  31.326  1.00  0.00     0.037 A 
ATOM     57  C   UNL A   1      41.898  30.386  35.320  1.00  0.00     0.049 A 
ATOM     58  C   UNL A   1      37.863  33.109  32.622  1.00  0.00     0.074 A 
ATOM     59  C   UNL A   1      42.375  30.957  36.488  1.00  0.00     0.029 A 
ATOM     60  N   UNL A   1      40.907  31.225  34.842  1.00  0.00    -0.354 N 
ATOM     61  N   UNL A   1      38.812  32.597  33.367  1.00  0.00    -0.248 NA
ATOM     62  C   UNL A   1      37.285  34.352  33.154  1.00  0.00     0.031 C 
ATOM     63  C   UNL A   1      41.656  32.135  36.727  1.00  0.00     0.029 A 
ATOM     64  C   UNL A   1      40.745  32.301  35.698  1.00  0.00     0.049 A 
ATOM     65  H   UNL A   1      40.391  31.078  34.016  1.00  0.00     0.167 HD
ATOM     66  C   UNL A   1      38.949  33.457  34.449  1.00  0.00     0.074 A 
ATOM     67  C   UNL A   1      37.995  34.529  34.261  1.00  0.00     0.031 C 
ATOM     68  C   UNL A   1      39.792  33.361  35.505  1.00  0.00     0.037 A 
BRANCH  55  69
ATOM     69  C   UNL A   1      43.335  28.322  35.383  1.00  0.00     0.057 A 
ATOM     70  C   UNL A   1      42.966  27.345  36.315  1.00  0.00     0.134 A 
ATOM     71  C   UNL A   1      44.697  28.473  35.100  1.00  0.00     0.134 A 
ATOM     72  F   UNL A   1      41.675  27.163  36.634  1.00  0.00    -0.206 F 
ATOM     73  C   UNL A   1      43.921  26.556  36.957  1.00  0.00     0.040 A 
ATOM     74  C   UNL A   1      45.662  27.682  35.723  1.00  0.00     0.040 A 
ATOM     75  F   UNL A   1      45.111  29.392  34.213  1.00  0.00    -0.206 F 
ATOM     76  C   UNL A   1      45.274  26.722  36.657  1.00  0.00     0.006 A 
ENDBRANCH  55  69
BRANCH  56  77
ATOM     77  C   UNL A   1      36.203  33.326  30.651  1.00  0.00     0.057 A 
ATOM     78  C   UNL A   1      34.881  33.198  31.088  1.00  0.00     0.134 A 
ATOM     79  C   UNL A   1      36.453  34.165  29.561  1.00  0.00     0.134 A 
ATOM     80  F   UNL A   1      34.585  32.389  32.117  1.00  0.00    -0.206 F 
ATOM     81  C   UNL A   1      33.839  33.880  30.461  1.00  0.00     0.040 A 
ATOM     82  C   UNL A   1      35.423  34.863  28.930  1.00  0.00     0.040 A 
ATOM     83  F   UNL A   1      37.703  34.320  29.099  1.00  0.00    -0.206 F 
ATOM     84  C   UNL A   1      34.111  34.720  29.380  1.00  0.00     0.006 A 
ENDBRANCH  56  77
BRANCH  68  85
ATOM     85  C   UNL A   1      39.724  34.446  36.535  1.00  0.00     0.057 A 
ATOM     86  C   UNL A   1      38.945  34.303  37.689  1.00  0.00     0.134 A 
ATOM     87  C   UNL A   1      40.468  35.622  36.390  1.00  0.00     0.134 A 
ATOM     88  F   UNL A   1      38.201  33.203  37.876  1.00  0.00    -0.206 F 
ATOM     89  C   UNL A   1      38.901  35.302  38.663  1.00  0.00     0.040 A 
ATOM     90  C   UNL A   1      40.441  36.622  37.362  1.00  0.00     0.040 A 
ATOM     91  F   UNL A   1      41.234  35.813  35.305  1.00  0.00    -0.206 F 
ATOM     92  C   UNL A   1      39.655  36.464  38.502  1.00  0.00     0.006 A 
ENDBRANCH  68  85
ENDBRANCH  42  43
ENDBRANCH  34  37
ENDBRANCH  32  33
ENDBRANCH  31  32
ENDBRANCH   1  31
TORSDOF 15
ENDMDL
MODEL 3
REMARK VINA RESULT:     -11.8      3.819      8.364
REMARK SMILES CCN(C(=O)Cc1c(C(=O)NCCCNC(=O)c2ccc(-c3c4nc(c(-c5c(F)cccc5F)c5ccc([nH]5)c(-c5c(F)cccc5F)c5nc(c(-c6c(F)cccc6F)c6ccc3[nH]6)C=C5)C=C4)cc2)[nH]c2ccc(Cl)cc12)c1ccc(C)c(C)c1
REMARK SMILES IDX 12 1 11 2 9 3 10 4 8 6 7 7 79 8 72 9 73 10 78 11 74 13 76 14
REMARK SMILES IDX 75 15 77 16 6 17 4 18 5 19 3 20 2 21 1 22 80 23 81 24 87 25
REMARK SMILES IDX 82 26 85 27 83 28 86 29 84 30 13 31 14 32 15 33 16 34 17 36
REMARK SMILES IDX 18 37 19 38 71 39 20 40 70 41 21 42 22 43 23 44 64 45 24 46
REMARK SMILES IDX 69 47 63 48 65 49 25 50 68 51 62 52 61 53 26 55 52 56 35 57
REMARK SMILES IDX 51 58 36 59 39 60 50 61 66 62 37 63 38 64 49 66 67 67 40 68
REMARK SMILES IDX 27 69 28 70 33 71 29 72 30 73 32 74 34 75 31 76 53 77 54 78
REMARK SMILES IDX 59 79 55 80 56 81 58 82 60 83 57 84 41 85 42 86 47 87 43 88
REMARK SMILES IDX 44 89 46 90 48 91 45 92
REMARK H PARENT 11 5 72 12 15 35 65 54 39 65
REMARK Flexibility Score: inf
ROOT
ATOM      1  C   UNL A   1      36.512  23.004  23.627  1.00  0.00     0.118 C 
ENDROOT
BRANCH   1   2
ATOM      2  N   UNL A   1      35.302  22.996  22.830  1.00  0.00    -0.351 N 
ATOM      3  C   UNL A   1      34.305  23.913  22.651  1.00  0.00     0.268 C 
ATOM      4  O   UNL A   1      33.610  23.776  21.642  1.00  0.00    -0.268 OA
ATOM      5  H   UNL A   1      35.172  22.166  22.316  1.00  0.00     0.163 HD
BRANCH   3   6
ATOM      6  C   UNL A   1      34.116  25.057  23.520  1.00  0.00     0.109 A 
ATOM      7  C   UNL A   1      33.929  25.234  24.892  1.00  0.00    -0.000 A 
ATOM      8  C   UNL A   1      33.691  26.640  25.109  1.00  0.00     0.005 A 
ATOM      9  N   UNL A   1      33.890  26.288  22.934  1.00  0.00    -0.350 N 
ATOM     10  C   UNL A   1      33.638  27.258  23.865  1.00  0.00     0.046 A 
ATOM     11  C   UNL A   1      33.453  27.430  26.256  1.00  0.00     0.031 A 
ATOM     12  H   UNL A   1      33.910  26.448  21.962  1.00  0.00     0.167 HD
ATOM     13  C   UNL A   1      33.340  28.617  23.694  1.00  0.00     0.028 A 
ATOM     14  C   UNL A   1      33.154  28.787  26.103  1.00  0.00     0.041 A 
ATOM     15  C   UNL A   1      33.093  29.373  24.843  1.00  0.00     0.022 A 
ATOM     16  Cl  UNL A   1      32.835  29.741  27.502  1.00  0.00    -0.084 Cl
BRANCH   7  17
ATOM     17  C   UNL A   1      33.896  24.213  25.988  1.00  0.00     0.139 C 
BRANCH  17  18
ATOM     18  C   UNL A   1      32.520  23.597  26.219  1.00  0.00     0.231 C 
ATOM     19  O   UNL A   1      32.114  23.486  27.382  1.00  0.00    -0.274 OA
BRANCH  18  20
ATOM     20  N   UNL A   1      31.748  23.185  25.128  1.00  0.00    -0.312 N 
BRANCH  20  21
ATOM     21  C   UNL A   1      30.639  23.945  24.534  1.00  0.00     0.122 C 
ATOM     22  C   UNL A   1      30.328  25.260  25.230  1.00  0.00     0.028 C 
ENDBRANCH  20  21
BRANCH  20  23
ATOM     23  C   UNL A   1      32.050  21.907  24.553  1.00  0.00     0.044 A 
ATOM     24  C   UNL A   1      31.927  21.718  23.171  1.00  0.00     0.026 A 
ATOM     25  C   UNL A   1      32.405  20.816  25.350  1.00  0.00     0.030 A 
ATOM     26  C   UNL A   1      32.134  20.463  22.601  1.00  0.00     0.006 A 
ATOM     27  C   UNL A   1      32.567  19.532  24.795  1.00  0.00    -0.046 A 
ATOM     28  C   UNL A   1      32.446  19.358  23.402  1.00  0.00    -0.048 A 
ATOM     29  C   UNL A   1      32.813  18.370  25.718  1.00  0.00     0.044 C 
ATOM     30  C   UNL A   1      32.541  18.010  22.740  1.00  0.00     0.044 C 
ENDBRANCH  20  23
ENDBRANCH  18  20
ENDBRANCH  17  18
ENDBRANCH   7  17
ENDBRANCH   3   6
ENDBRANCH   1   2
BRANCH   1  31
ATOM     31  C   UNL A   1      36.572  21.947  24.740  1.00  0.00     0.042 C 
BRANCH  31  32
ATOM     32  C   UNL A   1      37.333  22.339  26.010  1.00  0.00     0.118 C 
BRANCH  32  33
ATOM     33  N   UNL A   1      38.643  21.708  26.054  1.00  0.00    -0.352 N 
ATOM     34  C   UNL A   1      39.881  22.247  26.296  1.00  0.00     0.251 C 
ATOM     35  H   UNL A   1      38.640  20.739  25.883  1.00  0.00     0.163 HD
ATOM     36  O   UNL A   1      40.879  21.580  26.028  1.00  0.00    -0.269 OA
BRANCH  34  37
ATOM     37  C   UNL A   1      40.059  23.600  26.881  1.00  0.00     0.039 A 
ATOM     38  C   UNL A   1      39.861  24.709  26.046  1.00  0.00     0.014 A 
ATOM     39  C   UNL A   1      40.558  23.797  28.173  1.00  0.00     0.014 A 
ATOM     40  C   UNL A   1      40.159  25.999  26.496  1.00  0.00     0.010 A 
ATOM     41  C   UNL A   1      40.827  25.093  28.635  1.00  0.00     0.010 A 
ATOM     42  C   UNL A   1      40.653  26.202  27.792  1.00  0.00    -0.014 A 
BRANCH  42  43
ATOM     43  C   UNL A   1      41.059  27.561  28.238  1.00  0.00     0.031 A 
ATOM     44  C   UNL A   1      42.503  27.977  28.183  1.00  0.00     0.074 A 
ATOM     45  C   UNL A   1      40.141  28.425  28.707  1.00  0.00     0.049 A 
ATOM     46  N   UNL A   1      43.055  29.107  28.554  1.00  0.00    -0.248 NA
ATOM     47  C   UNL A   1      43.456  26.990  27.653  1.00  0.00     0.031 C 
ATOM     48  C   UNL A   1      38.711  28.152  28.840  1.00  0.00     0.029 A 
ATOM     49  N   UNL A   1      40.282  29.712  29.168  1.00  0.00    -0.354 N 
ATOM     50  C   UNL A   1      44.416  28.957  28.332  1.00  0.00     0.074 A 
ATOM     51  C   UNL A   1      44.611  27.623  27.803  1.00  0.00     0.031 C 
ATOM     52  C   UNL A   1      38.105  29.240  29.346  1.00  0.00     0.029 A 
ATOM     53  C   UNL A   1      39.104  30.280  29.584  1.00  0.00     0.049 A 
ATOM     54  H   UNL A   1      41.147  30.182  29.195  1.00  0.00     0.167 HD
ATOM     55  C   UNL A   1      45.416  29.845  28.543  1.00  0.00     0.037 A 
ATOM     56  C   UNL A   1      38.855  31.497  30.101  1.00  0.00     0.037 A 
ATOM     57  C   UNL A   1      45.237  31.190  29.021  1.00  0.00     0.049 A 
ATOM     58  C   UNL A   1      39.973  32.483  30.284  1.00  0.00     0.074 A 
ATOM     59  C   UNL A   1      46.189  32.182  29.188  1.00  0.00     0.029 A 
ATOM     60  N   UNL A   1      44.023  31.734  29.404  1.00  0.00    -0.354 N 
ATOM     61  N   UNL A   1      41.250  32.339  30.026  1.00  0.00    -0.248 NA
ATOM     62  C   UNL A   1      39.613  33.802  30.828  1.00  0.00     0.031 C 
ATOM     63  C   UNL A   1      45.553  33.322  29.693  1.00  0.00     0.029 A 
ATOM     64  C   UNL A   1      44.203  33.042  29.823  1.00  0.00     0.049 A 
ATOM     65  H   UNL A   1      43.160  31.261  29.384  1.00  0.00     0.167 HD
ATOM     66  C   UNL A   1      41.844  33.547  30.369  1.00  0.00     0.074 A 
ATOM     67  C   UNL A   1      40.788  34.418  30.843  1.00  0.00     0.031 C 
ATOM     68  C   UNL A   1      43.149  33.899  30.297  1.00  0.00     0.037 A 
BRANCH  55  69
ATOM     69  C   UNL A   1      46.811  29.381  28.262  1.00  0.00     0.057 A 
ATOM     70  C   UNL A   1      47.373  29.475  26.982  1.00  0.00     0.134 A 
ATOM     71  C   UNL A   1      47.607  28.860  29.288  1.00  0.00     0.134 A 
ATOM     72  F   UNL A   1      46.653  29.957  25.958  1.00  0.00    -0.206 F 
ATOM     73  C   UNL A   1      48.677  29.049  26.730  1.00  0.00     0.040 A 
ATOM     74  C   UNL A   1      48.917  28.443  29.052  1.00  0.00     0.040 A 
ATOM     75  F   UNL A   1      47.123  28.748  30.535  1.00  0.00    -0.206 F 
ATOM     76  C   UNL A   1      49.454  28.535  27.769  1.00  0.00     0.006 A 
ENDBRANCH  55  69
BRANCH  56  77
ATOM     77  C   UNL A   1      37.472  31.857  30.483  1.00  0.00     0.057 A 
ATOM     78  C   UNL A   1      36.982  31.581  31.764  1.00  0.00     0.134 A 
ATOM     79  C   UNL A   1      36.614  32.489  29.577  1.00  0.00     0.134 A 
ATOM     80  F   UNL A   1      37.759  30.958  32.662  1.00  0.00    -0.206 F 
ATOM     81  C   UNL A   1      35.681  31.919  32.132  1.00  0.00     0.040 A 
ATOM     82  C   UNL A   1      35.313  32.844  29.935  1.00  0.00     0.040 A 
ATOM     83  F   UNL A   1      37.031  32.773  28.334  1.00  0.00    -0.206 F 
ATOM     84  C   UNL A   1      34.844  32.558  31.217  1.00  0.00     0.006 A 
ENDBRANCH  56  77
BRANCH  68  85
ATOM     85  C   UNL A   1      43.510  35.284  30.736  1.00  0.00     0.057 A 
ATOM     86  C   UNL A   1      43.527  36.351  29.832  1.00  0.00     0.134 A 
ATOM     87  C   UNL A   1      43.807  35.558  32.076  1.00  0.00     0.134 A 
ATOM     88  F   UNL A   1      43.263  36.147  28.532  1.00  0.00    -0.206 F 
ATOM     89  C   UNL A   1      43.838  37.648  30.245  1.00  0.00     0.040 A 
ATOM     90  C   UNL A   1      44.108  36.852  32.503  1.00  0.00     0.040 A 
ATOM     91  F   UNL A   1      43.804  34.575  32.989  1.00  0.00    -0.206 F 
ATOM     92  C   UNL A   1      44.125  37.901  31.585  1.00  0.00     0.006 A 
ENDBRANCH  68  85
ENDBRANCH  42  43
ENDBRANCH  34  37
ENDBRANCH  32  33
ENDBRANCH  31  32
ENDBRANCH   1  31
TORSDOF 15
ENDMDL
