MODEL 1
REMARK VINA RESULT:     -13.5      0.000      0.000
REMARK SMILES Cc1cccc(OC2(C(=O)NCCCNC(=O)c3ccc(-c4c5nc(c(-c6c(F)cccc6F)c6ccc([nH]6)c(-c6c(F)cccc6F)c6nc(c(-c7c(F)cccc7F)c7ccc4[nH]7)C=C6)C=C5)cc3)CCN(C(=O)c3cnc[nH]c3=O)CC2)c1
REMARK SMILES IDX 13 1 12 2 11 3 9 4 10 5 8 7 72 8 85 9 73 10 84 11 74 12
REMARK SMILES IDX 75 13 76 14 7 15 6 16 1 17 2 18 3 19 86 20 4 21 5 22 77 23
REMARK SMILES IDX 78 24 82 25 79 26 81 27 83 28 80 29 14 31 15 32 16 33 17 35
REMARK SMILES IDX 18 36 19 37 71 38 20 39 70 40 21 41 22 42 23 43 64 44 24 45
REMARK SMILES IDX 69 46 63 47 65 48 25 49 68 50 62 51 61 52 26 54 52 55 35 56
REMARK SMILES IDX 51 57 36 58 39 59 50 60 66 61 37 62 38 63 49 65 67 66 40 67
REMARK SMILES IDX 27 68 28 69 33 70 29 71 30 72 32 73 34 74 31 75 53 76 54 77
REMARK SMILES IDX 59 78 55 79 56 80 58 81 60 82 57 83 41 84 42 85 47 86 43 87
REMARK SMILES IDX 44 88 46 89 48 90 45 91
REMARK H PARENT 11 6 81 30 15 34 65 53 39 64
REMARK Flexibility Score: inf
ROOT
ATOM      1  C   UNL A   1      38.142  21.951  25.688  1.00  0.00     0.042 C 
ENDROOT
BRANCH   1   2
ATOM      2  C   UNL A   1      36.660  21.793  25.334  1.00  0.00     0.118 C 
BRANCH   2   3
ATOM      3  N   UNL A   1      35.786  21.712  26.506  1.00  0.00    -0.353 N 
ATOM      4  C   UNL A   1      34.435  21.809  26.712  1.00  0.00     0.264 C 
ATOM      5  O   UNL A   1      34.082  21.544  27.869  1.00  0.00    -0.270 OA
ATOM      6  H   UNL A   1      36.284  21.551  27.340  1.00  0.00     0.163 HD
BRANCH   4   7
ATOM      7  C   UNL A   1      33.377  22.179  25.611  1.00  0.00     0.190 C 
ATOM      8  C   UNL A   1      31.953  22.049  26.150  1.00  0.00     0.080 C 
ATOM      9  C   UNL A   1      33.630  23.643  25.148  1.00  0.00     0.080 C 
ATOM     10  C   UNL A   1      30.880  22.626  25.250  1.00  0.00     0.124 C 
ATOM     11  C   UNL A   1      32.496  24.152  24.242  1.00  0.00     0.124 C 
ATOM     12  N   UNL A   1      31.229  23.997  24.948  1.00  0.00    -0.338 N 
ATOM     13  C   UNL A   1      30.653  25.016  25.686  1.00  0.00     0.261 C 
ATOM     14  O   UNL A   1      30.234  24.866  26.831  1.00  0.00    -0.269 OA
BRANCH   7  15
ATOM     15  O   UNL A   1      33.724  21.412  24.438  1.00  0.00    -0.477 OA
BRANCH  15  16
ATOM     16  C   UNL A   1      33.618  20.100  24.127  1.00  0.00     0.121 A 
ATOM     17  C   UNL A   1      34.749  16.551  24.917  1.00  0.00     0.044 C 
ATOM     18  C   UNL A   1      33.995  17.696  24.303  1.00  0.00    -0.047 A 
ATOM     19  C   UNL A   1      32.899  17.450  23.476  1.00  0.00     0.003 A 
ATOM     20  C   UNL A   1      34.368  19.024  24.582  1.00  0.00     0.049 A 
ATOM     21  C   UNL A   1      32.176  18.515  22.953  1.00  0.00     0.004 A 
ATOM     22  C   UNL A   1      32.529  19.825  23.289  1.00  0.00     0.046 A 
ENDBRANCH  15  16
ENDBRANCH   7  15
BRANCH  13  23
ATOM     23  C   UNL A   1      30.528  26.309  24.995  1.00  0.00     0.123 A 
ATOM     24  C   UNL A   1      29.642  26.465  24.003  1.00  0.00     0.132 A 
ATOM     25  C   UNL A   1      31.406  27.451  25.309  1.00  0.00     0.263 A 
ATOM     26  N   UNL A   1      29.453  27.626  23.290  1.00  0.00    -0.246 NA
ATOM     27  N   UNL A   1      31.183  28.571  24.559  1.00  0.00    -0.312 N 
ATOM     28  O   UNL A   1      32.286  27.417  26.161  1.00  0.00    -0.269 OA
ATOM     29  C   UNL A   1      30.225  28.615  23.590  1.00  0.00     0.199 A 
ATOM     30  H   UNL A   1      31.732  29.372  24.723  1.00  0.00     0.171 HD
ENDBRANCH  13  23
ENDBRANCH   4   7
ENDBRANCH   2   3
ENDBRANCH   1   2
BRANCH   1  31
ATOM     31  C   UNL A   1      38.591  23.364  26.019  1.00  0.00     0.118 C 
BRANCH  31  32
ATOM     32  N   UNL A   1      40.042  23.479  26.180  1.00  0.00    -0.352 N 
ATOM     33  C   UNL A   1      40.751  24.479  26.830  1.00  0.00     0.251 C 
ATOM     34  H   UNL A   1      40.580  22.759  25.779  1.00  0.00     0.163 HD
ATOM     35  O   UNL A   1      41.945  24.387  27.053  1.00  0.00    -0.269 OA
BRANCH  33  36
ATOM     36  C   UNL A   1      39.972  25.633  27.323  1.00  0.00     0.039 A 
ATOM     37  C   UNL A   1      40.228  26.869  26.730  1.00  0.00     0.014 A 
ATOM     38  C   UNL A   1      39.360  25.532  28.574  1.00  0.00     0.014 A 
ATOM     39  C   UNL A   1      40.120  28.015  27.509  1.00  0.00     0.010 A 
ATOM     40  C   UNL A   1      39.300  26.671  29.362  1.00  0.00     0.010 A 
ATOM     41  C   UNL A   1      39.780  27.889  28.860  1.00  0.00    -0.014 A 
BRANCH  41  42
ATOM     42  C   UNL A   1      40.118  28.931  29.829  1.00  0.00     0.031 A 
ATOM     43  C   UNL A   1      39.134  29.955  30.228  1.00  0.00     0.074 A 
ATOM     44  C   UNL A   1      41.366  29.000  30.352  1.00  0.00     0.049 A 
ATOM     45  N   UNL A   1      39.456  31.163  30.556  1.00  0.00    -0.248 NA
ATOM     46  C   UNL A   1      37.700  29.702  30.263  1.00  0.00     0.031 C 
ATOM     47  C   UNL A   1      41.825  29.881  31.423  1.00  0.00     0.029 A 
ATOM     48  N   UNL A   1      42.546  28.430  29.844  1.00  0.00    -0.354 N 
ATOM     49  C   UNL A   1      38.336  31.767  31.064  1.00  0.00     0.074 A 
ATOM     50  C   UNL A   1      37.254  30.837  30.815  1.00  0.00     0.031 C 
ATOM     51  C   UNL A   1      43.148  30.062  31.293  1.00  0.00     0.029 A 
ATOM     52  C   UNL A   1      43.566  29.381  30.082  1.00  0.00     0.049 A 
ATOM     53  H   UNL A   1      42.642  27.551  29.411  1.00  0.00     0.167 HD
ATOM     54  C   UNL A   1      38.435  32.942  31.744  1.00  0.00     0.037 A 
ATOM     55  C   UNL A   1      44.278  29.937  29.061  1.00  0.00     0.037 A 
ATOM     56  C   UNL A   1      39.804  33.433  31.832  1.00  0.00     0.049 A 
ATOM     57  C   UNL A   1      44.152  31.441  28.941  1.00  0.00     0.074 A 
ATOM     58  C   UNL A   1      40.791  33.382  32.803  1.00  0.00     0.029 A 
ATOM     59  N   UNL A   1      40.430  33.858  30.677  1.00  0.00    -0.354 N 
ATOM     60  N   UNL A   1      43.430  32.189  29.727  1.00  0.00    -0.248 NA
ATOM     61  C   UNL A   1      44.751  32.204  27.843  1.00  0.00     0.031 C 
ATOM     62  C   UNL A   1      42.022  33.778  32.210  1.00  0.00     0.029 A 
ATOM     63  C   UNL A   1      41.780  34.072  30.881  1.00  0.00     0.049 A 
ATOM     64  H   UNL A   1      39.973  33.992  29.815  1.00  0.00     0.167 HD
ATOM     65  C   UNL A   1      43.386  33.462  29.219  1.00  0.00     0.074 A 
ATOM     66  C   UNL A   1      44.241  33.429  28.049  1.00  0.00     0.031 C 
ATOM     67  C   UNL A   1      42.608  34.446  29.751  1.00  0.00     0.037 A 
BRANCH  54  68
ATOM     68  C   UNL A   1      37.278  33.516  32.508  1.00  0.00     0.057 A 
ATOM     69  C   UNL A   1      36.237  34.200  31.858  1.00  0.00     0.134 A 
ATOM     70  C   UNL A   1      37.167  33.447  33.907  1.00  0.00     0.134 A 
ATOM     71  F   UNL A   1      36.177  34.283  30.523  1.00  0.00    -0.206 F 
ATOM     72  C   UNL A   1      35.215  34.855  32.556  1.00  0.00     0.040 A 
ATOM     73  C   UNL A   1      36.181  34.140  34.620  1.00  0.00     0.040 A 
ATOM     74  F   UNL A   1      38.010  32.694  34.632  1.00  0.00    -0.206 F 
ATOM     75  C   UNL A   1      35.206  34.860  33.943  1.00  0.00     0.006 A 
ENDBRANCH  54  68
BRANCH  55  76
ATOM     76  C   UNL A   1      44.495  29.009  27.924  1.00  0.00     0.057 A 
ATOM     77  C   UNL A   1      45.433  27.972  28.063  1.00  0.00     0.134 A 
ATOM     78  C   UNL A   1      43.599  28.921  26.859  1.00  0.00     0.134 A 
ATOM     79  F   UNL A   1      46.322  27.993  29.070  1.00  0.00    -0.206 F 
ATOM     80  C   UNL A   1      45.416  26.846  27.237  1.00  0.00     0.040 A 
ATOM     81  C   UNL A   1      43.578  27.804  26.018  1.00  0.00     0.040 A 
ATOM     82  F   UNL A   1      42.663  29.863  26.673  1.00  0.00    -0.206 F 
ATOM     83  C   UNL A   1      44.464  26.747  26.229  1.00  0.00     0.006 A 
ENDBRANCH  55  76
BRANCH  67  84
ATOM     84  C   UNL A   1      42.567  35.847  29.218  1.00  0.00     0.057 A 
ATOM     85  C   UNL A   1      41.713  36.226  28.173  1.00  0.00     0.134 A 
ATOM     86  C   UNL A   1      43.477  36.828  29.654  1.00  0.00     0.134 A 
ATOM     87  F   UNL A   1      40.840  35.354  27.646  1.00  0.00    -0.206 F 
ATOM     88  C   UNL A   1      41.740  37.511  27.619  1.00  0.00     0.040 A 
ATOM     89  C   UNL A   1      43.545  38.099  29.078  1.00  0.00     0.040 A 
ATOM     90  F   UNL A   1      44.323  36.599  30.669  1.00  0.00    -0.206 F 
ATOM     91  C   UNL A   1      42.667  38.449  28.062  1.00  0.00     0.006 A 
ENDBRANCH  67  84
ENDBRANCH  41  42
ENDBRANCH  33  36
ENDBRANCH  31  32
ENDBRANCH   1  31
TORSDOF 13
ENDMDL
MODEL 2
REMARK VINA RESULT:     -13.5      3.730      9.662
REMARK SMILES Cc1cccc(OC2(C(=O)NCCCNC(=O)c3ccc(-c4c5nc(c(-c6c(F)cccc6F)c6ccc([nH]6)c(-c6c(F)cccc6F)c6nc(c(-c7c(F)cccc7F)c7ccc4[nH]7)C=C6)C=C5)cc3)CCN(C(=O)c3cnc[nH]c3=O)CC2)c1
REMARK SMILES IDX 13 1 12 2 11 3 9 4 10 5 8 7 72 8 85 9 73 10 84 11 74 12
REMARK SMILES IDX 75 13 76 14 7 15 6 16 1 17 2 18 3 19 86 20 4 21 5 22 77 23
REMARK SMILES IDX 78 24 82 25 79 26 81 27 83 28 80 29 14 31 15 32 16 33 17 35
REMARK SMILES IDX 18 36 19 37 71 38 20 39 70 40 21 41 22 42 23 43 64 44 24 45
REMARK SMILES IDX 69 46 63 47 65 48 25 49 68 50 62 51 61 52 26 54 52 55 35 56
REMARK SMILES IDX 51 57 36 58 39 59 50 60 66 61 37 62 38 63 49 65 67 66 40 67
REMARK SMILES IDX 27 68 28 69 33 70 29 71 30 72 32 73 34 74 31 75 53 76 54 77
REMARK SMILES IDX 59 78 55 79 56 80 58 81 60 82 57 83 41 84 42 85 47 86 43 87
REMARK SMILES IDX 44 88 46 89 48 90 45 91
REMARK H PARENT 11 6 81 30 15 34 65 53 39 64
REMARK Flexibility Score: inf
ROOT
ATOM      1  C   UNL A   1      33.322  30.745  27.411  1.00  0.00     0.042 C 
ENDROOT
BRANCH   1   2
ATOM      2  C   UNL A   1      32.807  29.615  26.515  1.00  0.00     0.118 C 
BRANCH   2   3
ATOM      3  N   UNL A   1      33.379  29.632  25.167  1.00  0.00    -0.353 N 
ATOM      4  C   UNL A   1      33.190  28.893  24.029  1.00  0.00     0.264 C 
ATOM      5  O   UNL A   1      33.797  29.328  23.040  1.00  0.00    -0.270 OA
ATOM      6  H   UNL A   1      34.057  30.336  25.052  1.00  0.00     0.163 HD
BRANCH   4   7
ATOM      7  C   UNL A   1      32.269  27.625  23.916  1.00  0.00     0.190 C 
ATOM      8  C   UNL A   1      32.307  27.041  22.505  1.00  0.00     0.080 C 
ATOM      9  C   UNL A   1      32.760  26.560  24.938  1.00  0.00     0.080 C 
ATOM     10  C   UNL A   1      31.658  25.679  22.365  1.00  0.00     0.124 C 
ATOM     11  C   UNL A   1      32.054  25.209  24.727  1.00  0.00     0.124 C 
ATOM     12  N   UNL A   1      32.249  24.791  23.343  1.00  0.00    -0.338 N 
ATOM     13  C   UNL A   1      33.272  23.946  22.952  1.00  0.00     0.261 C 
ATOM     14  O   UNL A   1      34.015  24.180  22.002  1.00  0.00    -0.269 OA
BRANCH   7  15
ATOM     15  O   UNL A   1      30.982  28.007  24.450  1.00  0.00    -0.477 OA
BRANCH  15  16
ATOM     16  C   UNL A   1      29.967  28.757  23.966  1.00  0.00     0.121 A 
ATOM     17  C   UNL A   1      28.789  32.239  22.971  1.00  0.00     0.044 C 
ATOM     18  C   UNL A   1      28.809  30.749  23.164  1.00  0.00    -0.047 A 
ATOM     19  C   UNL A   1      27.802  29.958  22.611  1.00  0.00     0.003 A 
ATOM     20  C   UNL A   1      29.858  30.139  23.876  1.00  0.00     0.049 A 
ATOM     21  C   UNL A   1      27.855  28.576  22.751  1.00  0.00     0.004 A 
ATOM     22  C   UNL A   1      28.936  27.986  23.412  1.00  0.00     0.046 A 
ENDBRANCH  15  16
ENDBRANCH   7  15
BRANCH  13  23
ATOM     23  C   UNL A   1      33.401  22.702  23.727  1.00  0.00     0.123 A 
ATOM     24  C   UNL A   1      32.443  21.767  23.673  1.00  0.00     0.132 A 
ATOM     25  C   UNL A   1      34.533  22.463  24.639  1.00  0.00     0.263 A 
ATOM     26  N   UNL A   1      32.462  20.578  24.363  1.00  0.00    -0.246 NA
ATOM     27  N   UNL A   1      34.492  21.273  25.309  1.00  0.00    -0.312 N 
ATOM     28  O   UNL A   1      35.446  23.262  24.813  1.00  0.00    -0.269 OA
ATOM     29  C   UNL A   1      33.470  20.386  25.147  1.00  0.00     0.199 A 
ATOM     30  H   UNL A   1      35.223  21.049  25.930  1.00  0.00     0.171 HD
ENDBRANCH  13  23
ENDBRANCH   4   7
ENDBRANCH   2   3
ENDBRANCH   1   2
BRANCH   1  31
ATOM     31  C   UNL A   1      34.831  30.811  27.582  1.00  0.00     0.118 C 
BRANCH  31  32
ATOM     32  N   UNL A   1      35.234  31.322  28.895  1.00  0.00    -0.352 N 
ATOM     33  C   UNL A   1      36.276  30.879  29.698  1.00  0.00     0.251 C 
ATOM     34  H   UNL A   1      34.702  32.070  29.250  1.00  0.00     0.163 HD
ATOM     35  O   UNL A   1      36.630  31.487  30.692  1.00  0.00    -0.269 OA
BRANCH  33  36
ATOM     36  C   UNL A   1      37.001  29.675  29.243  1.00  0.00     0.039 A 
ATOM     37  C   UNL A   1      37.355  28.744  30.219  1.00  0.00     0.014 A 
ATOM     38  C   UNL A   1      37.638  29.716  28.001  1.00  0.00     0.014 A 
ATOM     39  C   UNL A   1      38.535  28.029  30.057  1.00  0.00     0.010 A 
ATOM     40  C   UNL A   1      38.839  29.038  27.866  1.00  0.00     0.010 A 
ATOM     41  C   UNL A   1      39.334  28.280  28.937  1.00  0.00    -0.014 A 
BRANCH  41  42
ATOM     42  C   UNL A   1      40.762  27.963  28.935  1.00  0.00     0.031 A 
ATOM     43  C   UNL A   1      41.271  26.720  28.326  1.00  0.00     0.074 A 
ATOM     44  C   UNL A   1      41.647  28.795  29.534  1.00  0.00     0.049 A 
ATOM     45  N   UNL A   1      42.311  26.088  28.760  1.00  0.00    -0.248 NA
ATOM     46  C   UNL A   1      40.626  26.074  27.190  1.00  0.00     0.031 C 
ATOM     47  C   UNL A   1      43.106  28.700  29.504  1.00  0.00     0.029 A 
ATOM     48  N   UNL A   1      41.386  29.780  30.502  1.00  0.00    -0.354 N 
ATOM     49  C   UNL A   1      42.614  25.112  27.846  1.00  0.00     0.074 A 
ATOM     50  C   UNL A   1      41.508  25.107  26.912  1.00  0.00     0.031 C 
ATOM     51  C   UNL A   1      43.598  29.308  30.593  1.00  0.00     0.029 A 
ATOM     52  C   UNL A   1      42.474  29.730  31.406  1.00  0.00     0.049 A 
ATOM     53  H   UNL A   1      40.607  30.381  30.543  1.00  0.00     0.167 HD
ATOM     54  C   UNL A   1      43.815  24.472  27.895  1.00  0.00     0.037 A 
ATOM     55  C   UNL A   1      42.292  29.443  32.726  1.00  0.00     0.037 A 
ATOM     56  C   UNL A   1      44.661  24.934  28.987  1.00  0.00     0.049 A 
ATOM     57  C   UNL A   1      43.003  28.197  33.211  1.00  0.00     0.074 A 
ATOM     58  C   UNL A   1      45.714  25.828  29.086  1.00  0.00     0.029 A 
ATOM     59  N   UNL A   1      44.275  24.658  30.284  1.00  0.00    -0.354 N 
ATOM     60  N   UNL A   1      43.740  27.425  32.462  1.00  0.00    -0.248 NA
ATOM     61  C   UNL A   1      42.839  27.664  34.566  1.00  0.00     0.031 C 
ATOM     62  C   UNL A   1      45.952  26.088  30.464  1.00  0.00     0.029 A 
ATOM     63  C   UNL A   1      45.044  25.350  31.200  1.00  0.00     0.049 A 
ATOM     64  H   UNL A   1      43.544  24.045  30.527  1.00  0.00     0.167 HD
ATOM     65  C   UNL A   1      44.063  26.293  33.165  1.00  0.00     0.074 A 
ATOM     66  C   UNL A   1      43.494  26.494  34.483  1.00  0.00     0.031 C 
ATOM     67  C   UNL A   1      44.723  25.238  32.609  1.00  0.00     0.037 A 
BRANCH  54  68
ATOM     68  C   UNL A   1      44.277  23.570  26.788  1.00  0.00     0.057 A 
ATOM     69  C   UNL A   1      45.218  24.000  25.837  1.00  0.00     0.134 A 
ATOM     70  C   UNL A   1      43.788  22.267  26.600  1.00  0.00     0.134 A 
ATOM     71  F   UNL A   1      45.818  25.193  25.931  1.00  0.00    -0.206 F 
ATOM     72  C   UNL A   1      45.569  23.228  24.723  1.00  0.00     0.040 A 
ATOM     73  C   UNL A   1      44.090  21.504  25.464  1.00  0.00     0.040 A 
ATOM     74  F   UNL A   1      43.005  21.682  27.520  1.00  0.00    -0.206 F 
ATOM     75  C   UNL A   1      44.976  21.992  24.512  1.00  0.00     0.006 A 
ENDBRANCH  54  68
BRANCH  55  76
ATOM     76  C   UNL A   1      41.009  29.954  33.267  1.00  0.00     0.057 A 
ATOM     77  C   UNL A   1      40.887  31.326  33.544  1.00  0.00     0.134 A 
ATOM     78  C   UNL A   1      39.832  29.206  33.213  1.00  0.00     0.134 A 
ATOM     79  F   UNL A   1      41.980  32.104  33.606  1.00  0.00    -0.206 F 
ATOM     80  C   UNL A   1      39.642  31.947  33.664  1.00  0.00     0.040 A 
ATOM     81  C   UNL A   1      38.580  29.814  33.342  1.00  0.00     0.040 A 
ATOM     82  F   UNL A   1      39.868  27.895  32.936  1.00  0.00    -0.206 F 
ATOM     83  C   UNL A   1      38.482  31.192  33.531  1.00  0.00     0.006 A 
ENDBRANCH  55  76
BRANCH  67  84
ATOM     84  C   UNL A   1      45.101  24.004  33.373  1.00  0.00     0.057 A 
ATOM     85  C   UNL A   1      44.203  22.950  33.584  1.00  0.00     0.134 A 
ATOM     86  C   UNL A   1      46.342  23.895  34.029  1.00  0.00     0.134 A 
ATOM     87  F   UNL A   1      42.973  22.975  33.047  1.00  0.00    -0.206 F 
ATOM     88  C   UNL A   1      44.530  21.840  34.371  1.00  0.00     0.040 A 
ATOM     89  C   UNL A   1      46.662  22.815  34.855  1.00  0.00     0.040 A 
ATOM     90  F   UNL A   1      47.298  24.822  33.880  1.00  0.00    -0.206 F 
ATOM     91  C   UNL A   1      45.758  21.775  35.021  1.00  0.00     0.006 A 
ENDBRANCH  67  84
ENDBRANCH  41  42
ENDBRANCH  33  36
ENDBRANCH  31  32
ENDBRANCH   1  31
TORSDOF 13
ENDMDL
MODEL 3
REMARK VINA RESULT:     -13.5      1.536      2.166
REMARK SMILES Cc1cccc(OC2(C(=O)NCCCNC(=O)c3ccc(-c4c5nc(c(-c6c(F)cccc6F)c6ccc([nH]6)c(-c6c(F)cccc6F)c6nc(c(-c7c(F)cccc7F)c7ccc4[nH]7)C=C6)C=C5)cc3)CCN(C(=O)c3cnc[nH]c3=O)CC2)c1
REMARK SMILES IDX 13 1 12 2 11 3 9 4 10 5 8 7 72 8 85 9 73 10 84 11 74 12
REMARK SMILES IDX 75 13 76 14 7 15 6 16 1 17 2 18 3 19 86 20 4 21 5 22 77 23
REMARK SMILES IDX 78 24 82 25 79 26 81 27 83 28 80 29 14 31 15 32 16 33 17 35
REMARK SMILES IDX 18 36 19 37 71 38 20 39 70 40 21 41 22 42 23 43 64 44 24 45
REMARK SMILES IDX 69 46 63 47 65 48 25 49 68 50 62 51 61 52 26 54 52 55 35 56
REMARK SMILES IDX 51 57 36 58 39 59 50 60 66 61 37 62 38 63 49 65 67 66 40 67
REMARK SMILES IDX 27 68 28 69 33 70 29 71 30 72 32 73 34 74 31 75 53 76 54 77
REMARK SMILES IDX 59 78 55 79 56 80 58 81 60 82 57 83 41 84 42 85 47 86 43 87
REMARK SMILES IDX 44 88 46 89 48 90 45 91
REMARK H PARENT 11 6 81 30 15 34 65 53 39 64
REMARK Flexibility Score: inf
ROOT
ATOM      1  C   UNL A   1      39.128  21.838  25.810  1.00  0.00     0.042 C 
ENDROOT
BRANCH   1   2
ATOM      2  C   UNL A   1      37.610  21.835  25.606  1.00  0.00     0.118 C 
BRANCH   2   3
ATOM      3  N   UNL A   1      37.206  22.145  24.232  1.00  0.00    -0.353 N 
ATOM      4  C   UNL A   1      36.133  22.775  23.661  1.00  0.00     0.264 C 
ATOM      5  O   UNL A   1      36.241  22.946  22.439  1.00  0.00    -0.270 OA
ATOM      6  H   UNL A   1      37.855  21.825  23.565  1.00  0.00     0.163 HD
BRANCH   4   7
ATOM      7  C   UNL A   1      34.869  23.292  24.438  1.00  0.00     0.190 C 
ATOM      8  C   UNL A   1      35.230  24.447  25.371  1.00  0.00     0.080 C 
ATOM      9  C   UNL A   1      33.808  23.767  23.404  1.00  0.00     0.080 C 
ATOM     10  C   UNL A   1      34.042  25.176  25.966  1.00  0.00     0.124 C 
ATOM     11  C   UNL A   1      32.639  24.496  24.089  1.00  0.00     0.124 C 
ATOM     12  N   UNL A   1      33.177  25.594  24.885  1.00  0.00    -0.338 N 
ATOM     13  C   UNL A   1      33.275  26.888  24.408  1.00  0.00     0.261 C 
ATOM     14  O   UNL A   1      34.297  27.565  24.497  1.00  0.00    -0.269 OA
BRANCH   7  15
ATOM     15  O   UNL A   1      34.244  22.128  25.021  1.00  0.00    -0.477 OA
BRANCH  15  16
ATOM     16  C   UNL A   1      33.951  20.898  24.541  1.00  0.00     0.121 A 
ATOM     17  C   UNL A   1      34.796  17.186  24.599  1.00  0.00     0.044 C 
ATOM     18  C   UNL A   1      34.087  18.475  24.294  1.00  0.00    -0.047 A 
ATOM     19  C   UNL A   1      32.860  18.460  23.631  1.00  0.00     0.003 A 
ATOM     20  C   UNL A   1      34.640  19.703  24.701  1.00  0.00     0.049 A 
ATOM     21  C   UNL A   1      32.187  19.653  23.398  1.00  0.00     0.004 A 
ATOM     22  C   UNL A   1      32.726  20.857  23.862  1.00  0.00     0.046 A 
ENDBRANCH  15  16
ENDBRANCH   7  15
BRANCH  13  23
ATOM     23  C   UNL A   1      32.049  27.441  23.810  1.00  0.00     0.123 A 
ATOM     24  C   UNL A   1      31.736  27.173  22.536  1.00  0.00     0.132 A 
ATOM     25  C   UNL A   1      31.164  28.358  24.550  1.00  0.00     0.263 A 
ATOM     26  N   UNL A   1      30.623  27.645  21.882  1.00  0.00    -0.246 NA
ATOM     27  N   UNL A   1      30.082  28.807  23.845  1.00  0.00    -0.312 N 
ATOM     28  O   UNL A   1      31.368  28.717  25.704  1.00  0.00    -0.269 OA
ATOM     29  C   UNL A   1      29.856  28.437  22.553  1.00  0.00     0.199 A 
ATOM     30  H   UNL A   1      29.447  29.418  24.284  1.00  0.00     0.171 HD
ENDBRANCH  13  23
ENDBRANCH   4   7
ENDBRANCH   2   3
ENDBRANCH   1   2
BRANCH   1  31
ATOM     31  C   UNL A   1      39.642  22.766  26.898  1.00  0.00     0.118 C 
BRANCH  31  32
ATOM     32  N   UNL A   1      41.020  23.204  26.670  1.00  0.00    -0.352 N 
ATOM     33  C   UNL A   1      41.518  24.499  26.696  1.00  0.00     0.251 C 
ATOM     34  H   UNL A   1      41.674  22.493  26.477  1.00  0.00     0.163 HD
ATOM     35  O   UNL A   1      42.712  24.736  26.662  1.00  0.00    -0.269 OA
BRANCH  33  36
ATOM     36  C   UNL A   1      40.532  25.588  26.854  1.00  0.00     0.039 A 
ATOM     37  C   UNL A   1      40.840  26.811  26.259  1.00  0.00     0.014 A 
ATOM     38  C   UNL A   1      39.594  25.486  27.883  1.00  0.00     0.014 A 
ATOM     39  C   UNL A   1      40.411  27.978  26.882  1.00  0.00     0.010 A 
ATOM     40  C   UNL A   1      39.209  26.652  28.528  1.00  0.00     0.010 A 
ATOM     41  C   UNL A   1      39.706  27.887  28.086  1.00  0.00    -0.014 A 
BRANCH  41  42
ATOM     42  C   UNL A   1      39.656  29.007  29.024  1.00  0.00     0.031 A 
ATOM     43  C   UNL A   1      38.609  30.042  28.928  1.00  0.00     0.074 A 
ATOM     44  C   UNL A   1      40.603  29.139  29.984  1.00  0.00     0.049 A 
ATOM     45  N   UNL A   1      38.796  31.277  29.258  1.00  0.00    -0.248 NA
ATOM     46  C   UNL A   1      37.270  29.767  28.423  1.00  0.00     0.031 C 
ATOM     47  C   UNL A   1      40.623  30.110  31.076  1.00  0.00     0.029 A 
ATOM     48  N   UNL A   1      41.880  28.552  30.021  1.00  0.00    -0.354 N 
ATOM     49  C   UNL A   1      37.574  31.899  29.242  1.00  0.00     0.074 A 
ATOM     50  C   UNL A   1      36.661  30.933  28.667  1.00  0.00     0.031 C 
ATOM     51  C   UNL A   1      41.895  30.303  31.456  1.00  0.00     0.029 A 
ATOM     52  C   UNL A   1      42.741  29.537  30.560  1.00  0.00     0.049 A 
ATOM     53  H   UNL A   1      42.124  27.644  29.730  1.00  0.00     0.167 HD
ATOM     54  C   UNL A   1      37.419  33.126  29.811  1.00  0.00     0.037 A 
ATOM     55  C   UNL A   1      43.801  30.023  29.855  1.00  0.00     0.037 A 
ATOM     56  C   UNL A   1      38.652  33.647  30.385  1.00  0.00     0.049 A 
ATOM     57  C   UNL A   1      43.753  31.511  29.577  1.00  0.00     0.074 A 
ATOM     58  C   UNL A   1      39.184  33.689  31.663  1.00  0.00     0.029 A 
ATOM     59  N   UNL A   1      39.684  33.990  29.533  1.00  0.00    -0.354 N 
ATOM     60  N   UNL A   1      42.794  32.306  29.959  1.00  0.00    -0.248 NA
ATOM     61  C   UNL A   1      44.742  32.195  28.740  1.00  0.00     0.031 C 
ATOM     62  C   UNL A   1      40.554  34.059  31.565  1.00  0.00     0.029 A 
ATOM     63  C   UNL A   1      40.851  34.244  30.228  1.00  0.00     0.049 A 
ATOM     64  H   UNL A   1      39.600  34.048  28.554  1.00  0.00     0.167 HD
ATOM     65  C   UNL A   1      42.969  33.533  29.374  1.00  0.00     0.074 A 
ATOM     66  C   UNL A   1      44.210  33.424  28.635  1.00  0.00     0.031 C 
ATOM     67  C   UNL A   1      42.059  34.542  29.482  1.00  0.00     0.037 A 
BRANCH  54  68
ATOM     68  C   UNL A   1      36.064  33.737  30.018  1.00  0.00     0.057 A 
ATOM     69  C   UNL A   1      35.295  34.200  28.936  1.00  0.00     0.134 A 
ATOM     70  C   UNL A   1      35.487  33.924  31.286  1.00  0.00     0.134 A 
ATOM     71  F   UNL A   1      35.690  34.026  27.669  1.00  0.00    -0.206 F 
ATOM     72  C   UNL A   1      34.089  34.890  29.110  1.00  0.00     0.040 A 
ATOM     73  C   UNL A   1      34.309  34.656  31.477  1.00  0.00     0.040 A 
ATOM     74  F   UNL A   1      36.044  33.392  32.384  1.00  0.00    -0.206 F 
ATOM     75  C   UNL A   1      33.611  35.154  30.385  1.00  0.00     0.006 A 
ENDBRANCH  54  68
BRANCH  55  76
ATOM     76  C   UNL A   1      44.430  29.013  28.969  1.00  0.00     0.057 A 
ATOM     77  C   UNL A   1      44.098  29.007  27.603  1.00  0.00     0.134 A 
ATOM     78  C   UNL A   1      45.558  28.288  29.356  1.00  0.00     0.134 A 
ATOM     79  F   UNL A   1      43.027  29.688  27.164  1.00  0.00    -0.206 F 
ATOM     80  C   UNL A   1      44.909  28.388  26.649  1.00  0.00     0.040 A 
ATOM     81  C   UNL A   1      46.372  27.655  28.412  1.00  0.00     0.040 A 
ATOM     82  F   UNL A   1      45.947  28.262  30.638  1.00  0.00    -0.206 F 
ATOM     83  C   UNL A   1      46.069  27.736  27.053  1.00  0.00     0.006 A 
ENDBRANCH  55  76
BRANCH  67  84
ATOM     84  C   UNL A   1      42.248  35.896  28.866  1.00  0.00     0.057 A 
ATOM     85  C   UNL A   1      41.752  36.215  27.594  1.00  0.00     0.134 A 
ATOM     86  C   UNL A   1      43.046  36.880  29.479  1.00  0.00     0.134 A 
ATOM     87  F   UNL A   1      41.022  35.331  26.897  1.00  0.00    -0.206 F 
ATOM     88  C   UNL A   1      42.007  37.450  26.985  1.00  0.00     0.040 A 
ATOM     89  C   UNL A   1      43.344  38.097  28.862  1.00  0.00     0.040 A 
ATOM     90  F   UNL A   1      43.550  36.708  30.709  1.00  0.00    -0.206 F 
ATOM     91  C   UNL A   1      42.816  38.391  27.613  1.00  0.00     0.006 A 
ENDBRANCH  67  84
ENDBRANCH  41  42
ENDBRANCH  33  36
ENDBRANCH  31  32
ENDBRANCH   1  31
TORSDOF 13
ENDMDL
