MODEL 1
REMARK VINA RESULT:      -9.4      0.000      0.000
REMARK SMILES CCSc1cccc(-c2ccc([C@@H](C)C(=O)NCCCNC(=O)c3ccc(-c4c5nc(c(-c6c(F)cccc6F)c6ccc([nH]6)c(-c6c(F)cccc6F)c6nc(c(-c7c(F)cccc7F)c7ccc4[nH]7)C=C6)C=C5)cc3)cc2)c1
REMARK SMILES IDX 18 1 17 2 15 3 16 4 13 6 14 7 12 8 9 9 10 10 79 11 11 12
REMARK SMILES IDX 78 13 8 14 4 15 5 16 80 17 6 18 7 19 3 20 2 21 1 22 19 23
REMARK SMILES IDX 20 24 21 25 22 26 23 28 24 29 25 30 77 31 26 32 76 33 27 34
REMARK SMILES IDX 28 35 29 36 70 37 30 38 75 39 69 40 71 41 31 42 74 43 68 44
REMARK SMILES IDX 67 45 32 47 58 48 41 49 57 50 42 51 45 52 56 53 72 54 43 55
REMARK SMILES IDX 44 56 55 58 73 59 46 60 33 61 34 62 39 63 35 64 36 65 38 66
REMARK SMILES IDX 40 67 37 68 59 69 60 70 65 71 61 72 62 73 64 74 66 75 63 76
REMARK SMILES IDX 47 77 48 78 53 79 49 80 50 81 52 82 54 83 51 84
REMARK H PARENT 17 5 21 27 71 46 45 57
REMARK Flexibility Score: inf
ROOT
ATOM      1  C   UNL A   1      44.785  19.590  24.474  1.00  0.00     0.117 C 
ENDROOT
BRANCH   1   2
ATOM      2  N   UNL A   1      45.377  20.493  25.442  1.00  0.00    -0.356 N 
ATOM      3  C   UNL A   1      45.367  21.850  25.550  1.00  0.00     0.227 C 
ATOM      4  O   UNL A   1      46.051  22.326  26.465  1.00  0.00    -0.274 OA
ATOM      5  H   UNL A   1      45.883  20.039  26.155  1.00  0.00     0.163 HD
BRANCH   3   6
ATOM      6  C   UNL A   1      44.568  22.784  24.627  1.00  0.00     0.105 C 
ATOM      7  C   UNL A   1      44.689  22.457  23.139  1.00  0.00     0.023 C 
BRANCH   6   8
ATOM      8  C   UNL A   1      44.700  24.253  24.992  1.00  0.00    -0.036 A 
ATOM      9  C   UNL A   1      44.842  26.982  25.843  1.00  0.00    -0.018 A 
ATOM     10  C   UNL A   1      45.980  26.162  25.788  1.00  0.00     0.009 A 
ATOM     11  C   UNL A   1      43.631  26.408  25.426  1.00  0.00     0.009 A 
ATOM     12  C   UNL A   1      45.917  24.839  25.336  1.00  0.00     0.005 A 
ATOM     13  C   UNL A   1      43.556  25.065  25.028  1.00  0.00     0.005 A 
BRANCH   9  14
ATOM     14  C   UNL A   1      44.934  28.381  26.325  1.00  0.00    -0.017 A 
ATOM     15  C   UNL A   1      46.246  30.363  26.916  1.00  0.00     0.008 A 
ATOM     16  C   UNL A   1      45.076  31.073  27.180  1.00  0.00     0.015 A 
ATOM     17  C   UNL A   1      46.171  29.036  26.470  1.00  0.00     0.023 A 
ATOM     18  C   UNL A   1      43.841  30.450  27.048  1.00  0.00     0.002 A 
ATOM     19  C   UNL A   1      43.775  29.117  26.640  1.00  0.00     0.009 A 
BRANCH  15  20
ATOM     20  S   UNL A   1      47.819  31.162  27.176  1.00  0.00    -0.126 SA
BRANCH  20  21
ATOM     21  C   UNL A   1      47.401  32.857  26.643  1.00  0.00     0.071 C 
ATOM     22  C   UNL A   1      48.633  33.701  26.358  1.00  0.00     0.016 C 
ENDBRANCH  20  21
ENDBRANCH  15  20
ENDBRANCH   9  14
ENDBRANCH   6   8
ENDBRANCH   3   6
ENDBRANCH   1   2
BRANCH   1  23
ATOM     23  C   UNL A   1      44.120  18.389  25.139  1.00  0.00     0.042 C 
BRANCH  23  24
ATOM     24  C   UNL A   1      43.206  18.760  26.299  1.00  0.00     0.118 C 
BRANCH  24  25
ATOM     25  N   UNL A   1      41.806  18.822  25.899  1.00  0.00    -0.352 N 
ATOM     26  C   UNL A   1      40.845  19.767  26.167  1.00  0.00     0.251 C 
ATOM     27  H   UNL A   1      41.499  18.067  25.348  1.00  0.00     0.163 HD
ATOM     28  O   UNL A   1      39.670  19.521  25.911  1.00  0.00    -0.269 OA
BRANCH  26  29
ATOM     29  C   UNL A   1      41.207  21.069  26.771  1.00  0.00     0.039 A 
ATOM     30  C   UNL A   1      41.532  21.118  28.132  1.00  0.00     0.014 A 
ATOM     31  C   UNL A   1      41.181  22.247  26.022  1.00  0.00     0.014 A 
ATOM     32  C   UNL A   1      41.888  22.335  28.722  1.00  0.00     0.010 A 
ATOM     33  C   UNL A   1      41.618  23.442  26.588  1.00  0.00     0.010 A 
ATOM     34  C   UNL A   1      41.964  23.501  27.946  1.00  0.00    -0.014 A 
BRANCH  34  35
ATOM     35  C   UNL A   1      42.363  24.808  28.532  1.00  0.00     0.031 A 
ATOM     36  C   UNL A   1      41.340  25.901  28.680  1.00  0.00     0.074 A 
ATOM     37  C   UNL A   1      43.651  25.038  28.852  1.00  0.00     0.049 A 
ATOM     38  N   UNL A   1      41.507  27.153  29.024  1.00  0.00    -0.248 NA
ATOM     39  C   UNL A   1      39.945  25.545  28.372  1.00  0.00     0.031 C 
ATOM     40  C   UNL A   1      44.745  24.075  28.719  1.00  0.00     0.029 A 
ATOM     41  N   UNL A   1      44.262  26.170  29.334  1.00  0.00    -0.354 N 
ATOM     42  C   UNL A   1      40.248  27.735  28.953  1.00  0.00     0.074 A 
ATOM     43  C   UNL A   1      39.336  26.716  28.481  1.00  0.00     0.031 C 
ATOM     44  C   UNL A   1      45.891  24.654  29.113  1.00  0.00     0.029 A 
ATOM     45  C   UNL A   1      45.622  26.039  29.485  1.00  0.00     0.049 A 
ATOM     46  H   UNL A   1      43.773  26.996  29.551  1.00  0.00     0.167 HD
ATOM     47  C   UNL A   1      39.878  28.997  29.277  1.00  0.00     0.037 A 
ATOM     48  C   UNL A   1      46.549  26.941  29.859  1.00  0.00     0.037 A 
ATOM     49  C   UNL A   1      40.782  30.001  29.770  1.00  0.00     0.049 A 
ATOM     50  C   UNL A   1      46.114  28.339  30.206  1.00  0.00     0.074 A 
ATOM     51  C   UNL A   1      40.502  31.300  30.157  1.00  0.00     0.029 A 
ATOM     52  N   UNL A   1      42.144  29.813  29.954  1.00  0.00    -0.354 N 
ATOM     53  N   UNL A   1      44.913  28.864  30.175  1.00  0.00    -0.248 NA
ATOM     54  C   UNL A   1      47.163  29.271  30.647  1.00  0.00     0.031 C 
ATOM     55  C   UNL A   1      41.700  31.909  30.544  1.00  0.00     0.029 A 
ATOM     56  C   UNL A   1      42.717  30.974  30.443  1.00  0.00     0.049 A 
ATOM     57  H   UNL A   1      42.630  28.978  29.763  1.00  0.00     0.167 HD
ATOM     58  C   UNL A   1      45.056  30.171  30.624  1.00  0.00     0.074 A 
ATOM     59  C   UNL A   1      46.459  30.358  30.929  1.00  0.00     0.031 C 
ATOM     60  C   UNL A   1      44.111  31.132  30.768  1.00  0.00     0.037 A 
BRANCH  47  61
ATOM     61  C   UNL A   1      38.429  29.356  29.121  1.00  0.00     0.057 A 
ATOM     62  C   UNL A   1      37.549  29.349  30.213  1.00  0.00     0.134 A 
ATOM     63  C   UNL A   1      37.913  29.749  27.881  1.00  0.00     0.134 A 
ATOM     64  F   UNL A   1      37.976  28.970  31.427  1.00  0.00    -0.206 F 
ATOM     65  C   UNL A   1      36.205  29.697  30.071  1.00  0.00     0.040 A 
ATOM     66  C   UNL A   1      36.577  30.126  27.732  1.00  0.00     0.040 A 
ATOM     67  F   UNL A   1      38.700  29.786  26.796  1.00  0.00    -0.206 F 
ATOM     68  C   UNL A   1      35.718  30.095  28.828  1.00  0.00     0.006 A 
ENDBRANCH  47  61
BRANCH  48  69
ATOM     69  C   UNL A   1      47.982  26.556  29.929  1.00  0.00     0.057 A 
ATOM     70  C   UNL A   1      48.515  25.957  31.076  1.00  0.00     0.134 A 
ATOM     71  C   UNL A   1      48.856  26.797  28.862  1.00  0.00     0.134 A 
ATOM     72  F   UNL A   1      47.732  25.717  32.138  1.00  0.00    -0.206 F 
ATOM     73  C   UNL A   1      49.871  25.637  31.172  1.00  0.00     0.040 A 
ATOM     74  C   UNL A   1      50.208  26.457  28.934  1.00  0.00     0.040 A 
ATOM     75  F   UNL A   1      48.406  27.359  27.732  1.00  0.00    -0.206 F 
ATOM     76  C   UNL A   1      50.721  25.885  30.095  1.00  0.00     0.006 A 
ENDBRANCH  48  69
BRANCH  60  77
ATOM     77  C   UNL A   1      44.548  32.451  31.331  1.00  0.00     0.057 A 
ATOM     78  C   UNL A   1      44.981  33.500  30.512  1.00  0.00     0.134 A 
ATOM     79  C   UNL A   1      44.479  32.689  32.710  1.00  0.00     0.134 A 
ATOM     80  F   UNL A   1      45.081  33.332  29.185  1.00  0.00    -0.206 F 
ATOM     81  C   UNL A   1      45.348  34.737  31.048  1.00  0.00     0.040 A 
ATOM     82  C   UNL A   1      44.817  33.928  33.254  1.00  0.00     0.040 A 
ATOM     83  F   UNL A   1      44.063  31.727  33.548  1.00  0.00    -0.206 F 
ATOM     84  C   UNL A   1      45.257  34.955  32.422  1.00  0.00     0.006 A 
ENDBRANCH  60  77
ENDBRANCH  34  35
ENDBRANCH  26  29
ENDBRANCH  24  25
ENDBRANCH  23  24
ENDBRANCH   1  23
TORSDOF 14
ENDMDL
MODEL 2
REMARK VINA RESULT:      -9.2      3.660      9.303
REMARK SMILES CCSc1cccc(-c2ccc([C@@H](C)C(=O)NCCCNC(=O)c3ccc(-c4c5nc(c(-c6c(F)cccc6F)c6ccc([nH]6)c(-c6c(F)cccc6F)c6nc(c(-c7c(F)cccc7F)c7ccc4[nH]7)C=C6)C=C5)cc3)cc2)c1
REMARK SMILES IDX 18 1 17 2 15 3 16 4 13 6 14 7 12 8 9 9 10 10 79 11 11 12
REMARK SMILES IDX 78 13 8 14 4 15 5 16 80 17 6 18 7 19 3 20 2 21 1 22 19 23
REMARK SMILES IDX 20 24 21 25 22 26 23 28 24 29 25 30 77 31 26 32 76 33 27 34
REMARK SMILES IDX 28 35 29 36 70 37 30 38 75 39 69 40 71 41 31 42 74 43 68 44
REMARK SMILES IDX 67 45 32 47 58 48 41 49 57 50 42 51 45 52 56 53 72 54 43 55
REMARK SMILES IDX 44 56 55 58 73 59 46 60 33 61 34 62 39 63 35 64 36 65 38 66
REMARK SMILES IDX 40 67 37 68 59 69 60 70 65 71 61 72 62 73 64 74 66 75 63 76
REMARK SMILES IDX 47 77 48 78 53 79 49 80 50 81 52 82 54 83 51 84
REMARK H PARENT 17 5 21 27 71 46 45 57
REMARK Flexibility Score: inf
ROOT
ATOM      1  C   UNL A   1      35.530  32.045  31.704  1.00  0.00     0.117 C 
ENDROOT
BRANCH   1   2
ATOM      2  N   UNL A   1      36.866  32.604  31.636  1.00  0.00    -0.356 N 
ATOM      3  C   UNL A   1      37.962  32.450  32.429  1.00  0.00     0.227 C 
ATOM      4  O   UNL A   1      38.944  33.143  32.137  1.00  0.00    -0.274 OA
ATOM      5  H   UNL A   1      37.008  33.209  30.872  1.00  0.00     0.163 HD
BRANCH   3   6
ATOM      6  C   UNL A   1      38.035  31.484  33.622  1.00  0.00     0.105 C 
ATOM      7  C   UNL A   1      37.858  32.149  34.986  1.00  0.00     0.023 C 
BRANCH   6   8
ATOM      8  C   UNL A   1      39.173  30.482  33.520  1.00  0.00    -0.036 A 
ATOM      9  C   UNL A   1      41.307  28.574  33.524  1.00  0.00    -0.018 A 
ATOM     10  C   UNL A   1      40.063  28.294  32.938  1.00  0.00     0.009 A 
ATOM     11  C   UNL A   1      41.468  29.853  34.081  1.00  0.00     0.009 A 
ATOM     12  C   UNL A   1      39.032  29.240  32.902  1.00  0.00     0.005 A 
ATOM     13  C   UNL A   1      40.417  30.782  34.096  1.00  0.00     0.005 A 
BRANCH   9  14
ATOM     14  C   UNL A   1      42.384  27.556  33.549  1.00  0.00    -0.017 A 
ATOM     15  C   UNL A   1      43.490  25.631  34.583  1.00  0.00     0.008 A 
ATOM     16  C   UNL A   1      44.409  25.581  33.535  1.00  0.00     0.015 A 
ATOM     17  C   UNL A   1      42.475  26.597  34.575  1.00  0.00     0.023 A 
ATOM     18  C   UNL A   1      44.344  26.518  32.511  1.00  0.00     0.002 A 
ATOM     19  C   UNL A   1      43.353  27.500  32.528  1.00  0.00     0.009 A 
BRANCH  15  20
ATOM     20  S   UNL A   1      43.650  24.470  35.927  1.00  0.00    -0.126 SA
BRANCH  20  21
ATOM     21  C   UNL A   1      44.970  23.399  35.261  1.00  0.00     0.071 C 
ATOM     22  C   UNL A   1      44.428  22.126  34.631  1.00  0.00     0.016 C 
ENDBRANCH  20  21
ENDBRANCH  15  20
ENDBRANCH   9  14
ENDBRANCH   6   8
ENDBRANCH   3   6
ENDBRANCH   1   2
BRANCH   1  23
ATOM     23  C   UNL A   1      34.563  32.747  30.756  1.00  0.00     0.042 C 
BRANCH  23  24
ATOM     24  C   UNL A   1      34.943  32.616  29.287  1.00  0.00     0.118 C 
BRANCH  24  25
ATOM     25  N   UNL A   1      34.267  31.500  28.639  1.00  0.00    -0.352 N 
ATOM     26  C   UNL A   1      34.773  30.335  28.116  1.00  0.00     0.251 C 
ATOM     27  H   UNL A   1      33.290  31.596  28.565  1.00  0.00     0.163 HD
ATOM     28  O   UNL A   1      34.053  29.622  27.424  1.00  0.00    -0.269 OA
BRANCH  26  29
ATOM     29  C   UNL A   1      36.177  29.937  28.366  1.00  0.00     0.039 A 
ATOM     30  C   UNL A   1      36.511  29.368  29.601  1.00  0.00     0.014 A 
ATOM     31  C   UNL A   1      37.173  30.160  27.414  1.00  0.00     0.014 A 
ATOM     32  C   UNL A   1      37.828  28.974  29.855  1.00  0.00     0.010 A 
ATOM     33  C   UNL A   1      38.465  29.689  27.633  1.00  0.00     0.010 A 
ATOM     34  C   UNL A   1      38.809  29.102  28.860  1.00  0.00    -0.014 A 
BRANCH  34  35
ATOM     35  C   UNL A   1      40.214  28.670  29.084  1.00  0.00     0.031 A 
ATOM     36  C   UNL A   1      41.209  29.640  29.660  1.00  0.00     0.074 A 
ATOM     37  C   UNL A   1      40.612  27.442  28.697  1.00  0.00     0.049 A 
ATOM     38  N   UNL A   1      42.505  29.518  29.796  1.00  0.00    -0.248 NA
ATOM     39  C   UNL A   1      40.678  30.935  30.119  1.00  0.00     0.031 C 
ATOM     40  C   UNL A   1      39.754  26.424  28.090  1.00  0.00     0.029 A 
ATOM     41  N   UNL A   1      41.851  26.853  28.735  1.00  0.00    -0.354 N 
ATOM     42  C   UNL A   1      42.943  30.721  30.334  1.00  0.00     0.074 A 
ATOM     43  C   UNL A   1      41.786  31.581  30.449  1.00  0.00     0.031 C 
ATOM     44  C   UNL A   1      40.490  25.335  27.816  1.00  0.00     0.029 A 
ATOM     45  C   UNL A   1      41.878  25.592  28.187  1.00  0.00     0.049 A 
ATOM     46  H   UNL A   1      42.645  27.292  29.117  1.00  0.00     0.167 HD
ATOM     47  C   UNL A   1      44.193  31.070  30.722  1.00  0.00     0.037 A 
ATOM     48  C   UNL A   1      42.909  24.750  27.987  1.00  0.00     0.037 A 
ATOM     49  C   UNL A   1      45.338  30.204  30.630  1.00  0.00     0.049 A 
ATOM     50  C   UNL A   1      44.290  25.164  28.420  1.00  0.00     0.074 A 
ATOM     51  C   UNL A   1      46.641  30.451  31.025  1.00  0.00     0.029 A 
ATOM     52  N   UNL A   1      45.313  28.917  30.113  1.00  0.00    -0.354 N 
ATOM     53  N   UNL A   1      44.683  26.289  28.967  1.00  0.00    -0.248 NA
ATOM     54  C   UNL A   1      45.371  24.189  28.214  1.00  0.00     0.031 C 
ATOM     55  C   UNL A   1      47.412  29.326  30.717  1.00  0.00     0.029 A 
ATOM     56  C   UNL A   1      46.578  28.361  30.175  1.00  0.00     0.049 A 
ATOM     57  H   UNL A   1      44.513  28.468  29.756  1.00  0.00     0.167 HD
ATOM     58  C   UNL A   1      46.045  26.144  29.201  1.00  0.00     0.074 A 
ATOM     59  C   UNL A   1      46.409  24.819  28.746  1.00  0.00     0.031 C 
ATOM     60  C   UNL A   1      46.916  27.029  29.742  1.00  0.00     0.037 A 
BRANCH  47  61
ATOM     61  C   UNL A   1      44.382  32.444  31.296  1.00  0.00     0.057 A 
ATOM     62  C   UNL A   1      44.602  33.559  30.475  1.00  0.00     0.134 A 
ATOM     63  C   UNL A   1      44.305  32.665  32.676  1.00  0.00     0.134 A 
ATOM     64  F   UNL A   1      44.699  33.415  29.145  1.00  0.00    -0.206 F 
ATOM     65  C   UNL A   1      44.764  34.838  31.008  1.00  0.00     0.040 A 
ATOM     66  C   UNL A   1      44.437  33.944  33.219  1.00  0.00     0.040 A 
ATOM     67  F   UNL A   1      44.089  31.645  33.519  1.00  0.00    -0.206 F 
ATOM     68  C   UNL A   1      44.673  35.034  32.385  1.00  0.00     0.006 A 
ENDBRANCH  47  61
BRANCH  48  69
ATOM     69  C   UNL A   1      42.682  23.428  27.349  1.00  0.00     0.057 A 
ATOM     70  C   UNL A   1      42.326  22.308  28.110  1.00  0.00     0.134 A 
ATOM     71  C   UNL A   1      42.836  23.247  25.970  1.00  0.00     0.134 A 
ATOM     72  F   UNL A   1      42.182  22.414  29.439  1.00  0.00    -0.206 F 
ATOM     73  C   UNL A   1      42.160  21.050  27.528  1.00  0.00     0.040 A 
ATOM     74  C   UNL A   1      42.646  22.001  25.370  1.00  0.00     0.040 A 
ATOM     75  F   UNL A   1      43.166  24.281  25.183  1.00  0.00    -0.206 F 
ATOM     76  C   UNL A   1      42.317  20.895  26.151  1.00  0.00     0.006 A 
ENDBRANCH  48  69
BRANCH  60  77
ATOM     77  C   UNL A   1      48.334  26.578  29.927  1.00  0.00     0.057 A 
ATOM     78  C   UNL A   1      49.329  26.852  28.981  1.00  0.00     0.134 A 
ATOM     79  C   UNL A   1      48.717  25.908  31.097  1.00  0.00     0.134 A 
ATOM     80  F   UNL A   1      49.024  27.479  27.835  1.00  0.00    -0.206 F 
ATOM     81  C   UNL A   1      50.653  26.459  29.184  1.00  0.00     0.040 A 
ATOM     82  C   UNL A   1      50.041  25.534  31.323  1.00  0.00     0.040 A 
ATOM     83  F   UNL A   1      47.812  25.624  32.046  1.00  0.00    -0.206 F 
ATOM     84  C   UNL A   1      51.013  25.807  30.363  1.00  0.00     0.006 A 
ENDBRANCH  60  77
ENDBRANCH  34  35
ENDBRANCH  26  29
ENDBRANCH  24  25
ENDBRANCH  23  24
ENDBRANCH   1  23
TORSDOF 14
ENDMDL
MODEL 3
REMARK VINA RESULT:      -9.2      3.994      9.381
REMARK SMILES CCSc1cccc(-c2ccc([C@@H](C)C(=O)NCCCNC(=O)c3ccc(-c4c5nc(c(-c6c(F)cccc6F)c6ccc([nH]6)c(-c6c(F)cccc6F)c6nc(c(-c7c(F)cccc7F)c7ccc4[nH]7)C=C6)C=C5)cc3)cc2)c1
REMARK SMILES IDX 18 1 17 2 15 3 16 4 13 6 14 7 12 8 9 9 10 10 79 11 11 12
REMARK SMILES IDX 78 13 8 14 4 15 5 16 80 17 6 18 7 19 3 20 2 21 1 22 19 23
REMARK SMILES IDX 20 24 21 25 22 26 23 28 24 29 25 30 77 31 26 32 76 33 27 34
REMARK SMILES IDX 28 35 29 36 70 37 30 38 75 39 69 40 71 41 31 42 74 43 68 44
REMARK SMILES IDX 67 45 32 47 58 48 41 49 57 50 42 51 45 52 56 53 72 54 43 55
REMARK SMILES IDX 44 56 55 58 73 59 46 60 33 61 34 62 39 63 35 64 36 65 38 66
REMARK SMILES IDX 40 67 37 68 59 69 60 70 65 71 61 72 62 73 64 74 66 75 63 76
REMARK SMILES IDX 47 77 48 78 53 79 49 80 50 81 52 82 54 83 51 84
REMARK H PARENT 17 5 21 27 71 46 45 57
REMARK Flexibility Score: inf
ROOT
ATOM      1  C   UNL A   1      34.022  34.151  30.141  1.00  0.00     0.117 C 
ENDROOT
BRANCH   1   2
ATOM      2  N   UNL A   1      34.467  34.997  31.231  1.00  0.00    -0.356 N 
ATOM      3  C   UNL A   1      35.359  34.794  32.239  1.00  0.00     0.227 C 
ATOM      4  O   UNL A   1      35.455  35.705  33.070  1.00  0.00    -0.274 OA
ATOM      5  H   UNL A   1      34.044  35.887  31.245  1.00  0.00     0.163 HD
BRANCH   3   6
ATOM      6  C   UNL A   1      36.227  33.534  32.382  1.00  0.00     0.105 C 
ATOM      7  C   UNL A   1      36.256  32.942  33.791  1.00  0.00     0.023 C 
BRANCH   6   8
ATOM      8  C   UNL A   1      37.574  33.644  31.686  1.00  0.00    -0.036 A 
ATOM      9  C   UNL A   1      40.178  33.717  30.501  1.00  0.00    -0.018 A 
ATOM     10  C   UNL A   1      39.060  33.228  29.806  1.00  0.00     0.009 A 
ATOM     11  C   UNL A   1      39.951  34.202  31.798  1.00  0.00     0.009 A 
ATOM     12  C   UNL A   1      37.780  33.228  30.371  1.00  0.00     0.005 A 
ATOM     13  C   UNL A   1      38.679  34.150  32.387  1.00  0.00     0.005 A 
BRANCH   9  14
ATOM     14  C   UNL A   1      41.524  33.708  29.880  1.00  0.00    -0.017 A 
ATOM     15  C   UNL A   1      43.598  32.553  29.276  1.00  0.00     0.008 A 
ATOM     16  C   UNL A   1      44.061  33.698  28.629  1.00  0.00     0.015 A 
ATOM     17  C   UNL A   1      42.331  32.555  29.875  1.00  0.00     0.023 A 
ATOM     18  C   UNL A   1      43.286  34.852  28.621  1.00  0.00     0.002 A 
ATOM     19  C   UNL A   1      42.041  34.858  29.253  1.00  0.00     0.009 A 
BRANCH  15  20
ATOM     20  S   UNL A   1      44.650  31.115  29.343  1.00  0.00    -0.126 SA
BRANCH  20  21
ATOM     21  C   UNL A   1      43.421  29.812  28.983  1.00  0.00     0.071 C 
ATOM     22  C   UNL A   1      43.020  29.776  27.518  1.00  0.00     0.016 C 
ENDBRANCH  20  21
ENDBRANCH  15  20
ENDBRANCH   9  14
ENDBRANCH   6   8
ENDBRANCH   3   6
ENDBRANCH   1   2
BRANCH   1  23
ATOM     23  C   UNL A   1      34.591  34.597  28.797  1.00  0.00     0.042 C 
BRANCH  23  24
ATOM     24  C   UNL A   1      35.275  33.478  28.022  1.00  0.00     0.118 C 
BRANCH  24  25
ATOM     25  N   UNL A   1      34.372  32.368  27.745  1.00  0.00    -0.352 N 
ATOM     26  C   UNL A   1      34.601  31.014  27.749  1.00  0.00     0.251 C 
ATOM     27  H   UNL A   1      33.451  32.631  27.519  1.00  0.00     0.163 HD
ATOM     28  O   UNL A   1      33.755  30.258  27.279  1.00  0.00    -0.269 OA
BRANCH  26  29
ATOM     29  C   UNL A   1      35.857  30.456  28.300  1.00  0.00     0.039 A 
ATOM     30  C   UNL A   1      35.825  29.815  29.545  1.00  0.00     0.014 A 
ATOM     31  C   UNL A   1      37.071  30.600  27.626  1.00  0.00     0.014 A 
ATOM     32  C   UNL A   1      36.997  29.271  30.080  1.00  0.00     0.010 A 
ATOM     33  C   UNL A   1      38.218  29.983  28.117  1.00  0.00     0.010 A 
ATOM     34  C   UNL A   1      38.197  29.323  29.354  1.00  0.00    -0.014 A 
BRANCH  34  35
ATOM     35  C   UNL A   1      39.456  28.733  29.879  1.00  0.00     0.031 A 
ATOM     36  C   UNL A   1      40.107  29.328  31.098  1.00  0.00     0.074 A 
ATOM     37  C   UNL A   1      40.054  27.722  29.218  1.00  0.00     0.049 A 
ATOM     38  N   UNL A   1      41.274  29.065  31.628  1.00  0.00    -0.248 NA
ATOM     39  C   UNL A   1      39.355  30.382  31.798  1.00  0.00     0.031 C 
ATOM     40  C   UNL A   1      39.546  27.084  28.003  1.00  0.00     0.029 A 
ATOM     41  N   UNL A   1      41.237  27.071  29.464  1.00  0.00    -0.354 N 
ATOM     42  C   UNL A   1      41.403  29.931  32.706  1.00  0.00     0.074 A 
ATOM     43  C   UNL A   1      40.222  30.766  32.723  1.00  0.00     0.031 C 
ATOM     44  C   UNL A   1      40.408  26.132  27.612  1.00  0.00     0.029 A 
ATOM     45  C   UNL A   1      41.549  26.120  28.522  1.00  0.00     0.049 A 
ATOM     46  H   UNL A   1      41.809  27.267  30.242  1.00  0.00     0.167 HD
ATOM     47  C   UNL A   1      42.403  30.008  33.616  1.00  0.00     0.037 A 
ATOM     48  C   UNL A   1      42.642  25.344  28.395  1.00  0.00     0.037 A 
ATOM     49  C   UNL A   1      43.565  29.160  33.612  1.00  0.00     0.049 A 
ATOM     50  C   UNL A   1      43.743  25.454  29.415  1.00  0.00     0.074 A 
ATOM     51  C   UNL A   1      44.620  29.137  34.508  1.00  0.00     0.029 A 
ATOM     52  N   UNL A   1      43.819  28.177  32.667  1.00  0.00    -0.354 N 
ATOM     53  N   UNL A   1      43.832  26.248  30.454  1.00  0.00    -0.248 NA
ATOM     54  C   UNL A   1      44.894  24.554  29.249  1.00  0.00     0.031 C 
ATOM     55  C   UNL A   1      45.529  28.161  34.087  1.00  0.00     0.029 A 
ATOM     56  C   UNL A   1      45.016  27.545  32.956  1.00  0.00     0.049 A 
ATOM     57  H   UNL A   1      43.235  27.962  31.905  1.00  0.00     0.167 HD
ATOM     58  C   UNL A   1      45.027  25.921  31.082  1.00  0.00     0.074 A 
ATOM     59  C   UNL A   1      45.625  24.850  30.314  1.00  0.00     0.031 C 
ATOM     60  C   UNL A   1      45.581  26.461  32.195  1.00  0.00     0.037 A 
BRANCH  47  61
ATOM     61  C   UNL A   1      42.274  31.037  34.702  1.00  0.00     0.057 A 
ATOM     62  C   UNL A   1      41.806  30.701  35.980  1.00  0.00     0.134 A 
ATOM     63  C   UNL A   1      42.657  32.365  34.484  1.00  0.00     0.134 A 
ATOM     64  F   UNL A   1      41.410  29.448  36.251  1.00  0.00    -0.206 F 
ATOM     65  C   UNL A   1      41.699  31.654  36.993  1.00  0.00     0.040 A 
ATOM     66  C   UNL A   1      42.582  33.322  35.498  1.00  0.00     0.040 A 
ATOM     67  F   UNL A   1      43.122  32.754  33.288  1.00  0.00    -0.206 F 
ATOM     68  C   UNL A   1      42.096  32.969  36.755  1.00  0.00     0.006 A 
ENDBRANCH  47  61
BRANCH  48  69
ATOM     69  C   UNL A   1      42.754  24.391  27.261  1.00  0.00     0.057 A 
ATOM     70  C   UNL A   1      42.340  23.060  27.390  1.00  0.00     0.134 A 
ATOM     71  C   UNL A   1      43.297  24.780  26.031  1.00  0.00     0.134 A 
ATOM     72  F   UNL A   1      41.828  22.622  28.551  1.00  0.00    -0.206 F 
ATOM     73  C   UNL A   1      42.488  22.143  26.349  1.00  0.00     0.040 A 
ATOM     74  C   UNL A   1      43.425  23.880  24.971  1.00  0.00     0.040 A 
ATOM     75  F   UNL A   1      43.703  26.043  25.839  1.00  0.00    -0.206 F 
ATOM     76  C   UNL A   1      43.029  22.555  25.132  1.00  0.00     0.006 A 
ENDBRANCH  48  69
BRANCH  60  77
ATOM     77  C   UNL A   1      46.869  25.867  32.683  1.00  0.00     0.057 A 
ATOM     78  C   UNL A   1      46.899  24.842  33.635  1.00  0.00     0.134 A 
ATOM     79  C   UNL A   1      48.092  26.294  32.149  1.00  0.00     0.134 A 
ATOM     80  F   UNL A   1      45.763  24.398  34.194  1.00  0.00    -0.206 F 
ATOM     81  C   UNL A   1      48.104  24.272  34.052  1.00  0.00     0.040 A 
ATOM     82  C   UNL A   1      49.300  25.714  32.538  1.00  0.00     0.040 A 
ATOM     83  F   UNL A   1      48.130  27.267  31.226  1.00  0.00    -0.206 F 
ATOM     84  C   UNL A   1      49.307  24.702  33.495  1.00  0.00     0.006 A 
ENDBRANCH  60  77
ENDBRANCH  34  35
ENDBRANCH  26  29
ENDBRANCH  24  25
ENDBRANCH  23  24
ENDBRANCH   1  23
TORSDOF 14
ENDMDL
