MODEL 1
REMARK VINA RESULT:     -10.5      0.000      0.000
REMARK SMILES CCCN(CC)S(=O)(=O)c1ccc(C(=O)NCCCNC(=O)c2ccc(-c3c4nc(c(-c5c(F)cccc5F)c5ccc([nH]5)c(-c5c(F)cccc5F)c5nc(c(-c6c(F)cccc6F)c6ccc3[nH]6)C=C5)C=C4)cc2)o1
REMARK SMILES IDX 17 1 16 2 14 3 15 4 13 6 10 7 11 8 77 9 12 10 7 11 8 12 9 13
REMARK SMILES IDX 4 14 3 15 2 16 1 17 5 18 6 19 18 20 19 21 20 22 21 23 22 25
REMARK SMILES IDX 23 26 24 27 76 28 25 29 75 30 26 31 27 32 28 33 69 34 29 35
REMARK SMILES IDX 74 36 68 37 70 38 30 39 73 40 67 41 66 42 31 44 57 45 40 46
REMARK SMILES IDX 56 47 41 48 44 49 55 50 71 51 42 52 43 53 54 55 72 56 45 57
REMARK SMILES IDX 32 58 33 59 38 60 34 61 35 62 37 63 39 64 36 65 58 66 59 67
REMARK SMILES IDX 64 68 60 69 61 70 63 71 65 72 62 73 46 74 47 75 52 76 48 77
REMARK SMILES IDX 49 78 51 79 53 80 50 81
REMARK H PARENT 16 5 20 24 70 43 44 54
REMARK Flexibility Score: inf
ROOT
ATOM      1  C   UNL A   1      36.145  20.466  24.919  1.00  0.00     0.118 C 
ENDROOT
BRANCH   1   2
ATOM      2  N   UNL A   1      34.954  19.712  25.247  1.00  0.00    -0.349 N 
ATOM      3  C   UNL A   1      33.616  20.013  25.146  1.00  0.00     0.287 C 
ATOM      4  O   UNL A   1      32.851  19.106  25.483  1.00  0.00    -0.266 OA
ATOM      5  H   UNL A   1      35.135  18.816  25.610  1.00  0.00     0.163 HD
BRANCH   3   6
ATOM      6  C   UNL A   1      33.144  21.300  24.660  1.00  0.00     0.193 A 
ATOM      7  C   UNL A   1      32.153  23.290  25.008  1.00  0.00     0.234 A 
ATOM      8  C   UNL A   1      32.425  23.182  23.652  1.00  0.00     0.065 A 
ATOM      9  O   UNL A   1      32.611  22.136  25.607  1.00  0.00    -0.438 OA
ATOM     10  C   UNL A   1      33.086  21.946  23.441  1.00  0.00     0.058 A 
BRANCH   7  11
ATOM     11  S   UNL A   1      31.310  24.549  25.975  1.00  0.00     0.276 S 
ATOM     12  O   UNL A   1      31.028  23.936  27.255  1.00  0.00    -0.204 OA
ATOM     13  O   UNL A   1      30.249  24.987  25.096  1.00  0.00    -0.204 OA
BRANCH  11  14
ATOM     14  N   UNL A   1      32.361  25.880  26.249  1.00  0.00    -0.195 NA
BRANCH  14  15
ATOM     15  C   UNL A   1      33.648  25.824  25.477  1.00  0.00     0.102 C 
BRANCH  15  16
ATOM     16  C   UNL A   1      33.789  26.968  24.471  1.00  0.00     0.013 C 
ATOM     17  C   UNL A   1      33.448  26.562  23.039  1.00  0.00     0.005 C 
ENDBRANCH  15  16
ENDBRANCH  14  15
BRANCH  14  18
ATOM     18  C   UNL A   1      31.759  27.247  26.221  1.00  0.00     0.099 C 
ATOM     19  C   UNL A   1      31.867  28.018  27.523  1.00  0.00     0.022 C 
ENDBRANCH  14  18
ENDBRANCH  11  14
ENDBRANCH   7  11
ENDBRANCH   3   6
ENDBRANCH   1   2
BRANCH   1  20
ATOM     20  C   UNL A   1      37.396  19.588  24.924  1.00  0.00     0.042 C 
BRANCH  20  21
ATOM     21  C   UNL A   1      38.611  20.255  25.574  1.00  0.00     0.118 C 
BRANCH  21  22
ATOM     22  N   UNL A   1      39.734  19.340  25.707  1.00  0.00    -0.352 N 
ATOM     23  C   UNL A   1      41.034  19.596  26.060  1.00  0.00     0.251 C 
ATOM     24  H   UNL A   1      39.529  18.396  25.516  1.00  0.00     0.163 HD
ATOM     25  O   UNL A   1      41.876  18.707  25.952  1.00  0.00    -0.269 OA
BRANCH  23  26
ATOM     26  C   UNL A   1      41.443  20.929  26.555  1.00  0.00     0.039 A 
ATOM     27  C   UNL A   1      41.369  21.177  27.932  1.00  0.00     0.014 A 
ATOM     28  C   UNL A   1      41.811  21.956  25.679  1.00  0.00     0.014 A 
ATOM     29  C   UNL A   1      41.695  22.439  28.434  1.00  0.00     0.010 A 
ATOM     30  C   UNL A   1      42.159  23.210  26.185  1.00  0.00     0.010 A 
ATOM     31  C   UNL A   1      42.098  23.463  27.564  1.00  0.00    -0.014 A 
BRANCH  31  32
ATOM     32  C   UNL A   1      42.428  24.811  28.084  1.00  0.00     0.031 A 
ATOM     33  C   UNL A   1      43.842  25.151  28.456  1.00  0.00     0.074 A 
ATOM     34  C   UNL A   1      41.452  25.720  28.254  1.00  0.00     0.049 A 
ATOM     35  N   UNL A   1      44.311  26.242  29.004  1.00  0.00    -0.248 NA
ATOM     36  C   UNL A   1      44.861  24.124  28.185  1.00  0.00     0.031 C 
ATOM     37  C   UNL A   1      40.038  25.514  27.940  1.00  0.00     0.029 A 
ATOM     38  N   UNL A   1      41.505  27.002  28.739  1.00  0.00    -0.354 N 
ATOM     39  C   UNL A   1      45.672  26.026  29.171  1.00  0.00     0.074 A 
ATOM     40  C   UNL A   1      45.955  24.698  28.664  1.00  0.00     0.031 C 
ATOM     41  C   UNL A   1      39.358  26.634  28.237  1.00  0.00     0.029 A 
ATOM     42  C   UNL A   1      40.284  27.626  28.776  1.00  0.00     0.049 A 
ATOM     43  H   UNL A   1      42.340  27.432  29.035  1.00  0.00     0.167 HD
ATOM     44  C   UNL A   1      46.602  26.857  29.699  1.00  0.00     0.037 A 
ATOM     45  C   UNL A   1      39.950  28.858  29.201  1.00  0.00     0.037 A 
ATOM     46  C   UNL A   1      46.339  28.186  30.178  1.00  0.00     0.049 A 
ATOM     47  C   UNL A   1      41.006  29.775  29.742  1.00  0.00     0.074 A 
ATOM     48  C   UNL A   1      47.225  29.101  30.721  1.00  0.00     0.029 A 
ATOM     49  N   UNL A   1      45.095  28.795  30.159  1.00  0.00    -0.354 N 
ATOM     50  N   UNL A   1      42.287  29.553  29.901  1.00  0.00    -0.248 NA
ATOM     51  C   UNL A   1      40.568  31.115  30.164  1.00  0.00     0.031 C 
ATOM     52  C   UNL A   1      46.514  30.267  31.034  1.00  0.00     0.029 A 
ATOM     53  C   UNL A   1      45.189  30.077  30.674  1.00  0.00     0.049 A 
ATOM     54  H   UNL A   1      44.266  28.380  29.827  1.00  0.00     0.167 HD
ATOM     55  C   UNL A   1      42.809  30.723  30.434  1.00  0.00     0.074 A 
ATOM     56  C   UNL A   1      41.710  31.656  30.564  1.00  0.00     0.031 C 
ATOM     57  C   UNL A   1      44.088  30.994  30.789  1.00  0.00     0.037 A 
BRANCH  44  58
ATOM     58  C   UNL A   1      47.999  26.334  29.796  1.00  0.00     0.057 A 
ATOM     59  C   UNL A   1      48.904  26.462  28.737  1.00  0.00     0.134 A 
ATOM     60  C   UNL A   1      48.449  25.712  30.967  1.00  0.00     0.134 A 
ATOM     61  F   UNL A   1      48.523  27.036  27.585  1.00  0.00    -0.206 F 
ATOM     62  C   UNL A   1      50.210  25.979  28.835  1.00  0.00     0.040 A 
ATOM     63  C   UNL A   1      49.754  25.235  31.081  1.00  0.00     0.040 A 
ATOM     64  F   UNL A   1      47.624  25.558  32.015  1.00  0.00    -0.206 F 
ATOM     65  C   UNL A   1      50.639  25.366  30.012  1.00  0.00     0.006 A 
ENDBRANCH  44  58
BRANCH  45  66
ATOM     66  C   UNL A   1      38.541  29.301  29.119  1.00  0.00     0.057 A 
ATOM     67  C   UNL A   1      37.995  29.732  27.906  1.00  0.00     0.134 A 
ATOM     68  C   UNL A   1      37.711  29.295  30.245  1.00  0.00     0.134 A 
ATOM     69  F   UNL A   1      38.753  29.771  26.801  1.00  0.00    -0.206 F 
ATOM     70  C   UNL A   1      36.668  30.150  27.815  1.00  0.00     0.040 A 
ATOM     71  C   UNL A   1      36.380  29.703  30.166  1.00  0.00     0.040 A 
ATOM     72  F   UNL A   1      38.185  28.891  31.433  1.00  0.00    -0.206 F 
ATOM     73  C   UNL A   1      35.855  30.133  28.948  1.00  0.00     0.006 A 
ENDBRANCH  45  66
BRANCH  57  74
ATOM     74  C   UNL A   1      44.364  32.358  31.335  1.00  0.00     0.057 A 
ATOM     75  C   UNL A   1      44.303  32.617  32.709  1.00  0.00     0.134 A 
ATOM     76  C   UNL A   1      44.720  33.411  30.485  1.00  0.00     0.134 A 
ATOM     77  F   UNL A   1      43.956  31.647  33.569  1.00  0.00    -0.206 F 
ATOM     78  C   UNL A   1      44.582  33.884  33.220  1.00  0.00     0.040 A 
ATOM     79  C   UNL A   1      45.008  34.681  30.987  1.00  0.00     0.040 A 
ATOM     80  F   UNL A   1      44.790  33.221  29.159  1.00  0.00    -0.206 F 
ATOM     81  C   UNL A   1      44.938  34.920  32.358  1.00  0.00     0.006 A 
ENDBRANCH  57  74
ENDBRANCH  31  32
ENDBRANCH  23  26
ENDBRANCH  21  22
ENDBRANCH  20  21
ENDBRANCH   1  20
TORSDOF 15
ENDMDL
MODEL 2
REMARK VINA RESULT:     -10.5      0.352      6.442
REMARK SMILES CCCN(CC)S(=O)(=O)c1ccc(C(=O)NCCCNC(=O)c2ccc(-c3c4nc(c(-c5c(F)cccc5F)c5ccc([nH]5)c(-c5c(F)cccc5F)c5nc(c(-c6c(F)cccc6F)c6ccc3[nH]6)C=C5)C=C4)cc2)o1
REMARK SMILES IDX 17 1 16 2 14 3 15 4 13 6 10 7 11 8 77 9 12 10 7 11 8 12 9 13
REMARK SMILES IDX 4 14 3 15 2 16 1 17 5 18 6 19 18 20 19 21 20 22 21 23 22 25
REMARK SMILES IDX 23 26 24 27 76 28 25 29 75 30 26 31 27 32 28 33 69 34 29 35
REMARK SMILES IDX 74 36 68 37 70 38 30 39 73 40 67 41 66 42 31 44 57 45 40 46
REMARK SMILES IDX 56 47 41 48 44 49 55 50 71 51 42 52 43 53 54 55 72 56 45 57
REMARK SMILES IDX 32 58 33 59 38 60 34 61 35 62 37 63 39 64 36 65 58 66 59 67
REMARK SMILES IDX 64 68 60 69 61 70 63 71 65 72 62 73 46 74 47 75 52 76 48 77
REMARK SMILES IDX 49 78 51 79 53 80 50 81
REMARK H PARENT 16 5 20 24 70 43 44 54
REMARK Flexibility Score: inf
ROOT
ATOM      1  C   UNL A   1      36.214  20.701  24.975  1.00  0.00     0.118 C 
ENDROOT
BRANCH   1   2
ATOM      2  N   UNL A   1      35.013  19.940  25.247  1.00  0.00    -0.349 N 
ATOM      3  C   UNL A   1      33.679  20.238  25.096  1.00  0.00     0.287 C 
ATOM      4  O   UNL A   1      32.905  19.325  25.393  1.00  0.00    -0.266 OA
ATOM      5  H   UNL A   1      35.183  19.041  25.609  1.00  0.00     0.163 HD
BRANCH   3   6
ATOM      6  C   UNL A   1      33.223  21.529  24.605  1.00  0.00     0.193 A 
ATOM      7  C   UNL A   1      32.220  23.516  24.935  1.00  0.00     0.234 A 
ATOM      8  C   UNL A   1      32.535  23.418  23.587  1.00  0.00     0.065 A 
ATOM      9  O   UNL A   1      32.660  22.359  25.540  1.00  0.00    -0.438 OA
ATOM     10  C   UNL A   1      33.202  22.183  23.388  1.00  0.00     0.058 A 
BRANCH   7  11
ATOM     11  S   UNL A   1      31.348  24.768  25.884  1.00  0.00     0.276 S 
ATOM     12  O   UNL A   1      30.988  24.134  27.133  1.00  0.00    -0.204 OA
ATOM     13  O   UNL A   1      30.342  25.243  24.960  1.00  0.00    -0.204 OA
BRANCH  11  14
ATOM     14  N   UNL A   1      32.404  26.076  26.241  1.00  0.00    -0.195 NA
BRANCH  14  15
ATOM     15  C   UNL A   1      33.664  26.096  25.425  1.00  0.00     0.102 C 
BRANCH  15  16
ATOM     16  C   UNL A   1      33.796  27.356  24.567  1.00  0.00     0.013 C 
ATOM     17  C   UNL A   1      33.333  27.160  23.126  1.00  0.00     0.005 C 
ENDBRANCH  15  16
ENDBRANCH  14  15
BRANCH  14  18
ATOM     18  C   UNL A   1      31.797  27.436  26.357  1.00  0.00     0.099 C 
ATOM     19  C   UNL A   1      31.947  28.088  27.718  1.00  0.00     0.022 C 
ENDBRANCH  14  18
ENDBRANCH  11  14
ENDBRANCH   7  11
ENDBRANCH   3   6
ENDBRANCH   1   2
BRANCH   1  20
ATOM     20  C   UNL A   1      37.449  19.806  24.881  1.00  0.00     0.042 C 
BRANCH  20  21
ATOM     21  C   UNL A   1      38.682  20.386  25.578  1.00  0.00     0.118 C 
BRANCH  21  22
ATOM     22  N   UNL A   1      39.772  19.427  25.652  1.00  0.00    -0.352 N 
ATOM     23  C   UNL A   1      41.087  19.621  25.992  1.00  0.00     0.251 C 
ATOM     24  H   UNL A   1      39.531  18.499  25.424  1.00  0.00     0.163 HD
ATOM     25  O   UNL A   1      41.894  18.708  25.831  1.00  0.00    -0.269 OA
BRANCH  23  26
ATOM     26  C   UNL A   1      41.552  20.916  26.536  1.00  0.00     0.039 A 
ATOM     27  C   UNL A   1      41.461  21.127  27.918  1.00  0.00     0.014 A 
ATOM     28  C   UNL A   1      41.990  21.948  25.700  1.00  0.00     0.014 A 
ATOM     29  C   UNL A   1      41.839  22.355  28.466  1.00  0.00     0.010 A 
ATOM     30  C   UNL A   1      42.391  23.167  26.251  1.00  0.00     0.010 A 
ATOM     31  C   UNL A   1      42.312  23.382  27.636  1.00  0.00    -0.014 A 
BRANCH  31  32
ATOM     32  C   UNL A   1      42.699  24.695  28.203  1.00  0.00     0.031 A 
ATOM     33  C   UNL A   1      41.659  25.750  28.441  1.00  0.00     0.074 A 
ATOM     34  C   UNL A   1      43.991  24.951  28.475  1.00  0.00     0.049 A 
ATOM     35  N   UNL A   1      41.814  26.984  28.848  1.00  0.00    -0.248 NA
ATOM     36  C   UNL A   1      40.263  25.373  28.174  1.00  0.00     0.031 C 
ATOM     37  C   UNL A   1      45.099  24.016  28.283  1.00  0.00     0.029 A 
ATOM     38  N   UNL A   1      44.588  26.083  28.969  1.00  0.00    -0.354 N 
ATOM     39  C   UNL A   1      40.542  27.540  28.861  1.00  0.00     0.074 A 
ATOM     40  C   UNL A   1      39.625  26.508  28.421  1.00  0.00     0.031 C 
ATOM     41  C   UNL A   1      46.243  24.613  28.660  1.00  0.00     0.029 A 
ATOM     42  C   UNL A   1      45.949  25.973  29.102  1.00  0.00     0.049 A 
ATOM     43  H   UNL A   1      44.087  26.899  29.203  1.00  0.00     0.167 HD
ATOM     44  C   UNL A   1      40.172  28.796  29.206  1.00  0.00     0.037 A 
ATOM     45  C   UNL A   1      46.857  26.870  29.528  1.00  0.00     0.037 A 
ATOM     46  C   UNL A   1      41.068  29.818  29.672  1.00  0.00     0.049 A 
ATOM     47  C   UNL A   1      46.414  28.240  29.946  1.00  0.00     0.074 A 
ATOM     48  C   UNL A   1      40.775  31.117  30.053  1.00  0.00     0.029 A 
ATOM     49  N   UNL A   1      42.433  29.651  29.831  1.00  0.00    -0.354 N 
ATOM     50  N   UNL A   1      45.209  28.754  29.945  1.00  0.00    -0.248 NA
ATOM     51  C   UNL A   1      47.461  29.157  30.425  1.00  0.00     0.031 C 
ATOM     52  C   UNL A   1      41.969  31.739  30.441  1.00  0.00     0.029 A 
ATOM     53  C   UNL A   1      42.998  30.821  30.311  1.00  0.00     0.049 A 
ATOM     54  H   UNL A   1      42.929  28.824  29.634  1.00  0.00     0.167 HD
ATOM     55  C   UNL A   1      45.350  30.048  30.425  1.00  0.00     0.074 A 
ATOM     56  C   UNL A   1      46.755  30.241  30.717  1.00  0.00     0.031 C 
ATOM     57  C   UNL A   1      44.396  30.993  30.603  1.00  0.00     0.037 A 
BRANCH  44  58
ATOM     58  C   UNL A   1      38.720  29.132  29.078  1.00  0.00     0.057 A 
ATOM     59  C   UNL A   1      37.870  29.142  30.188  1.00  0.00     0.134 A 
ATOM     60  C   UNL A   1      38.173  29.467  27.833  1.00  0.00     0.134 A 
ATOM     61  F   UNL A   1      38.336  28.815  31.403  1.00  0.00    -0.206 F 
ATOM     62  C   UNL A   1      36.517  29.464  30.064  1.00  0.00     0.040 A 
ATOM     63  C   UNL A   1      36.826  29.801  27.698  1.00  0.00     0.040 A 
ATOM     64  F   UNL A   1      38.940  29.470  26.732  1.00  0.00    -0.206 F 
ATOM     65  C   UNL A   1      35.993  29.798  28.816  1.00  0.00     0.006 A 
ENDBRANCH  44  58
BRANCH  45  66
ATOM     66  C   UNL A   1      48.284  26.489  29.592  1.00  0.00     0.057 A 
ATOM     67  C   UNL A   1      48.801  25.833  30.712  1.00  0.00     0.134 A 
ATOM     68  C   UNL A   1      49.158  26.766  28.535  1.00  0.00     0.134 A 
ATOM     69  F   UNL A   1      48.010  25.558  31.759  1.00  0.00    -0.206 F 
ATOM     70  C   UNL A   1      50.146  25.466  30.784  1.00  0.00     0.040 A 
ATOM     71  C   UNL A   1      50.502  26.398  28.589  1.00  0.00     0.040 A 
ATOM     72  F   UNL A   1      48.712  27.395  27.437  1.00  0.00    -0.206 F 
ATOM     73  C   UNL A   1      50.999  25.747  29.718  1.00  0.00     0.006 A 
ENDBRANCH  45  66
BRANCH  57  74
ATOM     74  C   UNL A   1      44.842  32.310  31.151  1.00  0.00     0.057 A 
ATOM     75  C   UNL A   1      45.235  33.354  30.306  1.00  0.00     0.134 A 
ATOM     76  C   UNL A   1      44.852  32.546  32.530  1.00  0.00     0.134 A 
ATOM     77  F   UNL A   1      45.255  33.180  28.975  1.00  0.00    -0.206 F 
ATOM     78  C   UNL A   1      45.630  34.590  30.816  1.00  0.00     0.040 A 
ATOM     79  C   UNL A   1      45.239  33.781  33.052  1.00  0.00     0.040 A 
ATOM     80  F   UNL A   1      44.489  31.581  33.388  1.00  0.00    -0.206 F 
ATOM     81  C   UNL A   1      45.630  34.807  32.193  1.00  0.00     0.006 A 
ENDBRANCH  57  74
ENDBRANCH  31  32
ENDBRANCH  23  26
ENDBRANCH  21  22
ENDBRANCH  20  21
ENDBRANCH   1  20
TORSDOF 15
ENDMDL
MODEL 3
REMARK VINA RESULT:     -10.5      4.220      9.216
REMARK SMILES CCCN(CC)S(=O)(=O)c1ccc(C(=O)NCCCNC(=O)c2ccc(-c3c4nc(c(-c5c(F)cccc5F)c5ccc([nH]5)c(-c5c(F)cccc5F)c5nc(c(-c6c(F)cccc6F)c6ccc3[nH]6)C=C5)C=C4)cc2)o1
REMARK SMILES IDX 17 1 16 2 14 3 15 4 13 6 10 7 11 8 77 9 12 10 7 11 8 12 9 13
REMARK SMILES IDX 4 14 3 15 2 16 1 17 5 18 6 19 18 20 19 21 20 22 21 23 22 25
REMARK SMILES IDX 23 26 24 27 76 28 25 29 75 30 26 31 27 32 28 33 69 34 29 35
REMARK SMILES IDX 74 36 68 37 70 38 30 39 73 40 67 41 66 42 31 44 57 45 40 46
REMARK SMILES IDX 56 47 41 48 44 49 55 50 71 51 42 52 43 53 54 55 72 56 45 57
REMARK SMILES IDX 32 58 33 59 38 60 34 61 35 62 37 63 39 64 36 65 58 66 59 67
REMARK SMILES IDX 64 68 60 69 61 70 63 71 65 72 62 73 46 74 47 75 52 76 48 77
REMARK SMILES IDX 49 78 51 79 53 80 50 81
REMARK H PARENT 16 5 20 24 70 43 44 54
REMARK Flexibility Score: inf
ROOT
ATOM      1  C   UNL A   1      31.059  30.420  25.107  1.00  0.00     0.118 C 
ENDROOT
BRANCH   1   2
ATOM      2  N   UNL A   1      30.326  30.441  23.859  1.00  0.00    -0.349 N 
ATOM      3  C   UNL A   1      29.913  29.437  23.015  1.00  0.00     0.287 C 
ATOM      4  O   UNL A   1      29.260  29.812  22.039  1.00  0.00    -0.266 OA
ATOM      5  H   UNL A   1      30.076  31.344  23.558  1.00  0.00     0.163 HD
BRANCH   3   6
ATOM      6  C   UNL A   1      30.213  28.036  23.270  1.00  0.00     0.193 A 
ATOM      7  C   UNL A   1      31.628  26.287  23.220  1.00  0.00     0.234 A 
ATOM      8  C   UNL A   1      30.400  25.828  23.675  1.00  0.00     0.065 A 
ATOM      9  O   UNL A   1      31.496  27.640  22.991  1.00  0.00    -0.438 OA
ATOM     10  C   UNL A   1      29.521  26.939  23.744  1.00  0.00     0.058 A 
BRANCH   7  11
ATOM     11  S   UNL A   1      33.173  25.446  22.855  1.00  0.00     0.276 S 
ATOM     12  O   UNL A   1      33.827  26.247  21.844  1.00  0.00    -0.204 OA
ATOM     13  O   UNL A   1      32.755  24.087  22.590  1.00  0.00    -0.204 OA
BRANCH  11  14
ATOM     14  N   UNL A   1      34.178  25.432  24.249  1.00  0.00    -0.195 NA
BRANCH  14  15
ATOM     15  C   UNL A   1      33.505  25.912  25.503  1.00  0.00     0.102 C 
BRANCH  15  16
ATOM     16  C   UNL A   1      33.764  27.393  25.787  1.00  0.00     0.013 C 
ATOM     17  C   UNL A   1      32.912  27.951  26.924  1.00  0.00     0.005 C 
ENDBRANCH  15  16
ENDBRANCH  14  15
BRANCH  14  18
ATOM     18  C   UNL A   1      34.996  24.207  24.493  1.00  0.00     0.099 C 
ATOM     19  C   UNL A   1      34.935  23.672  25.912  1.00  0.00     0.022 C 
ENDBRANCH  14  18
ENDBRANCH  11  14
ENDBRANCH   7  11
ENDBRANCH   3   6
ENDBRANCH   1   2
BRANCH   1  20
ATOM     20  C   UNL A   1      30.929  31.738  25.869  1.00  0.00     0.042 C 
BRANCH  20  21
ATOM     21  C   UNL A   1      32.122  32.040  26.779  1.00  0.00     0.118 C 
BRANCH  21  22
ATOM     22  N   UNL A   1      32.182  33.444  27.156  1.00  0.00    -0.352 N 
ATOM     23  C   UNL A   1      33.044  34.084  28.009  1.00  0.00     0.251 C 
ATOM     24  H   UNL A   1      31.503  34.020  26.735  1.00  0.00     0.163 HD
ATOM     25  O   UNL A   1      32.825  35.251  28.326  1.00  0.00    -0.269 OA
BRANCH  23  26
ATOM     26  C   UNL A   1      34.226  33.389  28.566  1.00  0.00     0.039 A 
ATOM     27  C   UNL A   1      34.067  32.078  29.032  1.00  0.00     0.014 A 
ATOM     28  C   UNL A   1      35.456  34.038  28.714  1.00  0.00     0.014 A 
ATOM     29  C   UNL A   1      35.144  31.405  29.613  1.00  0.00     0.010 A 
ATOM     30  C   UNL A   1      36.540  33.356  29.273  1.00  0.00     0.010 A 
ATOM     31  C   UNL A   1      36.390  32.039  29.732  1.00  0.00    -0.014 A 
BRANCH  31  32
ATOM     32  C   UNL A   1      37.535  31.342  30.364  1.00  0.00     0.031 A 
ATOM     33  C   UNL A   1      37.869  31.592  31.805  1.00  0.00     0.074 A 
ATOM     34  C   UNL A   1      38.295  30.507  29.633  1.00  0.00     0.049 A 
ATOM     35  N   UNL A   1      38.878  31.144  32.508  1.00  0.00    -0.248 NA
ATOM     36  C   UNL A   1      36.955  32.471  32.552  1.00  0.00     0.031 C 
ATOM     37  C   UNL A   1      38.084  30.184  28.222  1.00  0.00     0.029 A 
ATOM     38  N   UNL A   1      39.407  29.783  29.981  1.00  0.00    -0.354 N 
ATOM     39  C   UNL A   1      38.738  31.707  33.770  1.00  0.00     0.074 A 
ATOM     40  C   UNL A   1      37.545  32.528  33.737  1.00  0.00     0.031 C 
ATOM     41  C   UNL A   1      39.034  29.320  27.826  1.00  0.00     0.029 A 
ATOM     42  C   UNL A   1      39.926  29.045  28.948  1.00  0.00     0.049 A 
ATOM     43  H   UNL A   1      39.796  29.793  30.886  1.00  0.00     0.167 HD
ATOM     44  C   UNL A   1      39.532  31.553  34.856  1.00  0.00     0.037 A 
ATOM     45  C   UNL A   1      41.005  28.241  28.910  1.00  0.00     0.037 A 
ATOM     46  C   UNL A   1      40.700  30.718  34.909  1.00  0.00     0.049 A 
ATOM     47  C   UNL A   1      41.842  28.054  30.140  1.00  0.00     0.074 A 
ATOM     48  C   UNL A   1      41.558  30.498  35.974  1.00  0.00     0.029 A 
ATOM     49  N   UNL A   1      41.168  29.956  33.852  1.00  0.00    -0.354 N 
ATOM     50  N   UNL A   1      41.702  28.599  31.323  1.00  0.00    -0.248 NA
ATOM     51  C   UNL A   1      42.990  27.141  30.028  1.00  0.00     0.031 C 
ATOM     52  C   UNL A   1      42.550  29.601  35.558  1.00  0.00     0.029 A 
ATOM     53  C   UNL A   1      42.300  29.258  34.239  1.00  0.00     0.049 A 
ATOM     54  H   UNL A   1      40.757  29.915  32.959  1.00  0.00     0.167 HD
ATOM     55  C   UNL A   1      42.737  28.092  32.097  1.00  0.00     0.074 A 
ATOM     56  C   UNL A   1      43.492  27.189  31.254  1.00  0.00     0.031 C 
ATOM     57  C   UNL A   1      43.034  28.358  33.391  1.00  0.00     0.037 A 
BRANCH  44  58
ATOM     58  C   UNL A   1      39.158  32.326  36.081  1.00  0.00     0.057 A 
ATOM     59  C   UNL A   1      38.290  31.799  37.043  1.00  0.00     0.134 A 
ATOM     60  C   UNL A   1      39.687  33.603  36.307  1.00  0.00     0.134 A 
ATOM     61  F   UNL A   1      37.742  30.586  36.870  1.00  0.00    -0.206 F 
ATOM     62  C   UNL A   1      37.951  32.521  38.188  1.00  0.00     0.040 A 
ATOM     63  C   UNL A   1      39.363  34.329  37.453  1.00  0.00     0.040 A 
ATOM     64  F   UNL A   1      40.521  34.162  35.417  1.00  0.00    -0.206 F 
ATOM     65  C   UNL A   1      38.491  33.789  38.397  1.00  0.00     0.006 A 
ENDBRANCH  44  58
BRANCH  45  66
ATOM     66  C   UNL A   1      41.347  27.538  27.655  1.00  0.00     0.057 A 
ATOM     67  C   UNL A   1      40.882  26.242  27.410  1.00  0.00     0.134 A 
ATOM     68  C   UNL A   1      42.136  28.146  26.673  1.00  0.00     0.134 A 
ATOM     69  F   UNL A   1      40.136  25.608  28.326  1.00  0.00    -0.206 F 
ATOM     70  C   UNL A   1      41.196  25.568  26.230  1.00  0.00     0.040 A 
ATOM     71  C   UNL A   1      42.450  27.488  25.484  1.00  0.00     0.040 A 
ATOM     72  F   UNL A   1      42.607  29.388  26.858  1.00  0.00    -0.206 F 
ATOM     73  C   UNL A   1      41.980  26.194  25.261  1.00  0.00     0.006 A 
ENDBRANCH  45  66
BRANCH  57  74
ATOM     74  C   UNL A   1      44.216  27.651  33.973  1.00  0.00     0.057 A 
ATOM     75  C   UNL A   1      44.092  26.388  34.559  1.00  0.00     0.134 A 
ATOM     76  C   UNL A   1      45.491  28.227  33.921  1.00  0.00     0.134 A 
ATOM     77  F   UNL A   1      42.891  25.794  34.646  1.00  0.00    -0.206 F 
ATOM     78  C   UNL A   1      45.198  25.719  35.082  1.00  0.00     0.040 A 
ATOM     79  C   UNL A   1      46.606  27.564  34.434  1.00  0.00     0.040 A 
ATOM     80  F   UNL A   1      45.669  29.438  33.373  1.00  0.00    -0.206 F 
ATOM     81  C   UNL A   1      46.461  26.307  35.018  1.00  0.00     0.006 A 
ENDBRANCH  57  74
ENDBRANCH  31  32
ENDBRANCH  23  26
ENDBRANCH  21  22
ENDBRANCH  20  21
ENDBRANCH   1  20
TORSDOF 15
ENDMDL
