MODEL 1
REMARK VINA RESULT:     -10.4      0.000      0.000
REMARK SMILES C=CCN(CC(=O)NCCCNC(=O)c1ccc(-c2c3nc(c(-c4c(F)cccc4F)c4ccc([nH]4)c(-c4c(F)cccc4F)c4nc(c(-c5c(F)cccc5F)c5ccc2[nH]5)C=C4)C=C3)cc1)C(=O)[C@@H]1Cc2ccccc21
REMARK SMILES IDX 9 1 8 2 6 3 7 4 5 6 4 7 3 8 2 9 1 10 69 11 70 12 71 13 72 14
REMARK SMILES IDX 78 15 73 16 77 17 74 18 76 19 75 20 10 21 11 22 12 23 13 24
REMARK SMILES IDX 14 26 15 27 16 28 68 29 17 30 67 31 18 32 19 33 20 34 61 35
REMARK SMILES IDX 21 36 66 37 60 38 62 39 22 40 65 41 59 42 58 43 23 45 49 46
REMARK SMILES IDX 32 47 48 48 33 49 36 50 47 51 63 52 34 53 35 54 46 56 64 57
REMARK SMILES IDX 37 58 24 59 25 60 30 61 26 62 27 63 29 64 31 65 28 66 50 67
REMARK SMILES IDX 51 68 56 69 52 70 53 71 55 72 57 73 54 74 38 75 39 76 44 77
REMARK SMILES IDX 40 78 41 79 43 80 45 81 42 82
REMARK H PARENT 8 5 12 25 62 44 36 55
REMARK Flexibility Score: inf
ROOT
ATOM      1  C   UNL A   1      31.869  27.745  25.972  1.00  0.00     0.117 C 
ENDROOT
BRANCH   1   2
ATOM      2  N   UNL A   1      30.812  26.777  26.171  1.00  0.00    -0.354 N 
ATOM      3  C   UNL A   1      30.763  25.458  25.830  1.00  0.00     0.239 C 
ATOM      4  O   UNL A   1      30.057  24.738  26.544  1.00  0.00    -0.273 OA
ATOM      5  H   UNL A   1      30.007  27.122  26.621  1.00  0.00     0.163 HD
BRANCH   3   6
ATOM      6  C   UNL A   1      31.620  24.833  24.710  1.00  0.00     0.219 C 
BRANCH   6   7
ATOM      7  N   UNL A   1      32.810  24.097  25.141  1.00  0.00    -0.329 N 
BRANCH   7   8
ATOM      8  C   UNL A   1      32.609  22.766  25.712  1.00  0.00     0.147 C 
BRANCH   8   9
ATOM      9  C   UNL A   1      33.178  22.697  27.098  1.00  0.00    -0.014 C 
ATOM     10  C   UNL A   1      34.149  21.842  27.449  1.00  0.00     0.006 C 
ENDBRANCH   8   9
ENDBRANCH   7   8
BRANCH   7  11
ATOM     11  C   UNL A   1      34.131  24.577  25.055  1.00  0.00     0.231 C 
ATOM     12  O   UNL A   1      34.429  25.581  25.731  1.00  0.00    -0.274 OA
BRANCH  11  13
ATOM     13  C   UNL A   1      35.242  23.917  24.222  1.00  0.00     0.113 C 
ATOM     14  C   UNL A   1      35.247  22.497  23.579  1.00  0.00     0.054 C 
ATOM     15  C   UNL A   1      36.437  23.453  25.020  1.00  0.00    -0.032 A 
ATOM     16  C   UNL A   1      36.490  22.235  24.385  1.00  0.00    -0.043 A 
ATOM     17  C   UNL A   1      37.364  23.830  25.963  1.00  0.00     0.005 A 
ATOM     18  C   UNL A   1      37.484  21.321  24.644  1.00  0.00     0.004 A 
ATOM     19  C   UNL A   1      38.383  22.921  26.253  1.00  0.00     0.000 A 
ATOM     20  C   UNL A   1      38.447  21.677  25.592  1.00  0.00     0.000 A 
ENDBRANCH  11  13
ENDBRANCH   7  11
ENDBRANCH   6   7
ENDBRANCH   3   6
ENDBRANCH   1   2
BRANCH   1  21
ATOM     21  C   UNL A   1      32.638  28.102  27.236  1.00  0.00     0.042 C 
BRANCH  21  22
ATOM     22  C   UNL A   1      33.903  28.919  27.007  1.00  0.00     0.118 C 
BRANCH  22  23
ATOM     23  N   UNL A   1      33.864  30.221  27.658  1.00  0.00    -0.352 N 
ATOM     24  C   UNL A   1      34.778  30.842  28.472  1.00  0.00     0.251 C 
ATOM     25  H   UNL A   1      33.046  30.741  27.486  1.00  0.00     0.163 HD
ATOM     26  O   UNL A   1      34.455  31.865  29.068  1.00  0.00    -0.269 OA
BRANCH  24  27
ATOM     27  C   UNL A   1      36.138  30.288  28.649  1.00  0.00     0.039 A 
ATOM     28  C   UNL A   1      37.031  30.338  27.574  1.00  0.00     0.014 A 
ATOM     29  C   UNL A   1      36.527  29.687  29.848  1.00  0.00     0.014 A 
ATOM     30  C   UNL A   1      38.330  29.847  27.724  1.00  0.00     0.010 A 
ATOM     31  C   UNL A   1      37.845  29.274  30.024  1.00  0.00     0.010 A 
ATOM     32  C   UNL A   1      38.760  29.346  28.963  1.00  0.00    -0.014 A 
BRANCH  32  33
ATOM     33  C   UNL A   1      40.160  28.897  29.171  1.00  0.00     0.031 A 
ATOM     34  C   UNL A   1      41.178  29.832  29.763  1.00  0.00     0.074 A 
ATOM     35  C   UNL A   1      40.532  27.668  28.761  1.00  0.00     0.049 A 
ATOM     36  N   UNL A   1      42.460  29.650  29.948  1.00  0.00    -0.248 NA
ATOM     37  C   UNL A   1      40.694  31.160  30.176  1.00  0.00     0.031 C 
ATOM     38  C   UNL A   1      39.650  26.684  28.130  1.00  0.00     0.029 A 
ATOM     39  N   UNL A   1      41.753  27.042  28.802  1.00  0.00    -0.354 N 
ATOM     40  C   UNL A   1      42.939  30.840  30.482  1.00  0.00     0.074 A 
ATOM     41  C   UNL A   1      41.820  31.756  30.541  1.00  0.00     0.031 C 
ATOM     42  C   UNL A   1      40.354  25.572  27.862  1.00  0.00     0.029 A 
ATOM     43  C   UNL A   1      41.742  25.778  28.263  1.00  0.00     0.049 A 
ATOM     44  H   UNL A   1      42.560  27.458  29.182  1.00  0.00     0.167 HD
ATOM     45  C   UNL A   1      44.191  31.136  30.905  1.00  0.00     0.037 A 
ATOM     46  C   UNL A   1      42.739  24.890  28.098  1.00  0.00     0.037 A 
ATOM     47  C   UNL A   1      45.296  30.215  30.862  1.00  0.00     0.049 A 
ATOM     48  C   UNL A   1      44.124  25.246  28.564  1.00  0.00     0.074 A 
ATOM     49  C   UNL A   1      46.590  30.399  31.320  1.00  0.00     0.029 A 
ATOM     50  N   UNL A   1      45.240  28.937  30.326  1.00  0.00    -0.354 N 
ATOM     51  N   UNL A   1      44.547  26.350  29.132  1.00  0.00    -0.248 NA
ATOM     52  C   UNL A   1      45.169  24.231  28.374  1.00  0.00     0.031 C 
ATOM     53  C   UNL A   1      47.329  29.252  31.015  1.00  0.00     0.029 A 
ATOM     54  C   UNL A   1      46.482  28.331  30.420  1.00  0.00     0.049 A 
ATOM     55  H   UNL A   1      44.437  28.523  29.935  1.00  0.00     0.167 HD
ATOM     56  C   UNL A   1      45.896  26.150  29.395  1.00  0.00     0.074 A 
ATOM     57  C   UNL A   1      46.218  24.815  28.936  1.00  0.00     0.031 C 
ATOM     58  C   UNL A   1      46.786  26.995  29.970  1.00  0.00     0.037 A 
BRANCH  45  59
ATOM     59  C   UNL A   1      44.432  32.515  31.450  1.00  0.00     0.057 A 
ATOM     60  C   UNL A   1      44.273  32.810  32.811  1.00  0.00     0.134 A 
ATOM     61  C   UNL A   1      44.862  33.551  30.613  1.00  0.00     0.134 A 
ATOM     62  F   UNL A   1      43.854  31.866  33.668  1.00  0.00    -0.206 F 
ATOM     63  C   UNL A   1      44.503  34.093  33.313  1.00  0.00     0.040 A 
ATOM     64  C   UNL A   1      45.125  34.830  31.107  1.00  0.00     0.040 A 
ATOM     65  F   UNL A   1      45.043  33.337  29.301  1.00  0.00    -0.206 F 
ATOM     66  C   UNL A   1      44.938  35.105  32.460  1.00  0.00     0.006 A 
ENDBRANCH  45  59
BRANCH  46  67
ATOM     67  C   UNL A   1      42.463  23.568  27.482  1.00  0.00     0.057 A 
ATOM     68  C   UNL A   1      42.170  22.449  28.272  1.00  0.00     0.134 A 
ATOM     69  C   UNL A   1      42.488  23.386  26.093  1.00  0.00     0.134 A 
ATOM     70  F   UNL A   1      42.148  22.555  29.608  1.00  0.00    -0.206 F 
ATOM     71  C   UNL A   1      41.932  21.196  27.707  1.00  0.00     0.040 A 
ATOM     72  C   UNL A   1      42.226  22.144  25.513  1.00  0.00     0.040 A 
ATOM     73  F   UNL A   1      42.754  24.419  25.280  1.00  0.00    -0.206 F 
ATOM     74  C   UNL A   1      41.955  21.043  26.321  1.00  0.00     0.006 A 
ENDBRANCH  46  67
BRANCH  58  75
ATOM     75  C   UNL A   1      48.183  26.489  30.178  1.00  0.00     0.057 A 
ATOM     76  C   UNL A   1      48.559  25.797  31.336  1.00  0.00     0.134 A 
ATOM     77  C   UNL A   1      49.154  26.657  29.181  1.00  0.00     0.134 A 
ATOM     78  F   UNL A   1      47.681  25.614  32.333  1.00  0.00    -0.206 F 
ATOM     79  C   UNL A   1      49.856  25.309  31.505  1.00  0.00     0.040 A 
ATOM     80  C   UNL A   1      50.445  26.149  29.326  1.00  0.00     0.040 A 
ATOM     81  F   UNL A   1      48.858  27.303  28.043  1.00  0.00    -0.206 F 
ATOM     82  C   UNL A   1      50.802  25.477  30.494  1.00  0.00     0.006 A 
ENDBRANCH  58  75
ENDBRANCH  32  33
ENDBRANCH  24  27
ENDBRANCH  22  23
ENDBRANCH  21  22
ENDBRANCH   1  21
TORSDOF 15
ENDMDL
MODEL 2
REMARK VINA RESULT:     -10.2      3.813      5.554
REMARK SMILES C=CCN(CC(=O)NCCCNC(=O)c1ccc(-c2c3nc(c(-c4c(F)cccc4F)c4ccc([nH]4)c(-c4c(F)cccc4F)c4nc(c(-c5c(F)cccc5F)c5ccc2[nH]5)C=C4)C=C3)cc1)C(=O)[C@@H]1Cc2ccccc21
REMARK SMILES IDX 9 1 8 2 6 3 7 4 5 6 4 7 3 8 2 9 1 10 69 11 70 12 71 13 72 14
REMARK SMILES IDX 78 15 73 16 77 17 74 18 76 19 75 20 10 21 11 22 12 23 13 24
REMARK SMILES IDX 14 26 15 27 16 28 68 29 17 30 67 31 18 32 19 33 20 34 61 35
REMARK SMILES IDX 21 36 66 37 60 38 62 39 22 40 65 41 59 42 58 43 23 45 49 46
REMARK SMILES IDX 32 47 48 48 33 49 36 50 47 51 63 52 34 53 35 54 46 56 64 57
REMARK SMILES IDX 37 58 24 59 25 60 30 61 26 62 27 63 29 64 31 65 28 66 50 67
REMARK SMILES IDX 51 68 56 69 52 70 53 71 55 72 57 73 54 74 38 75 39 76 44 77
REMARK SMILES IDX 40 78 41 79 43 80 45 81 42 82
REMARK H PARENT 8 5 12 25 62 44 36 55
REMARK Flexibility Score: inf
ROOT
ATOM      1  C   UNL A   1      31.045  29.911  24.815  1.00  0.00     0.117 C 
ENDROOT
BRANCH   1   2
ATOM      2  N   UNL A   1      30.843  29.872  23.383  1.00  0.00    -0.354 N 
ATOM      3  C   UNL A   1      30.174  28.960  22.622  1.00  0.00     0.239 C 
ATOM      4  O   UNL A   1      29.680  29.386  21.572  1.00  0.00    -0.273 OA
ATOM      5  H   UNL A   1      31.250  30.615  22.882  1.00  0.00     0.163 HD
BRANCH   3   6
ATOM      6  C   UNL A   1      29.912  27.506  23.065  1.00  0.00     0.219 C 
BRANCH   6   7
ATOM      7  N   UNL A   1      31.009  26.559  22.858  1.00  0.00    -0.329 N 
BRANCH   7   8
ATOM      8  C   UNL A   1      31.897  26.796  21.720  1.00  0.00     0.147 C 
BRANCH   8   9
ATOM      9  C   UNL A   1      33.304  27.020  22.189  1.00  0.00    -0.014 C 
ATOM     10  C   UNL A   1      33.909  28.216  22.144  1.00  0.00     0.006 C 
ENDBRANCH   8   9
ENDBRANCH   7   8
BRANCH   7  11
ATOM     11  C   UNL A   1      31.269  25.436  23.665  1.00  0.00     0.231 C 
ATOM     12  O   UNL A   1      31.443  24.340  23.096  1.00  0.00    -0.274 OA
BRANCH  11  13
ATOM     13  C   UNL A   1      31.404  25.478  25.196  1.00  0.00     0.113 C 
ATOM     14  C   UNL A   1      30.384  26.035  26.236  1.00  0.00     0.054 C 
ATOM     15  C   UNL A   1      32.357  26.527  25.717  1.00  0.00    -0.032 A 
ATOM     16  C   UNL A   1      31.485  26.953  26.690  1.00  0.00    -0.043 A 
ATOM     17  C   UNL A   1      33.624  27.046  25.589  1.00  0.00     0.005 A 
ATOM     18  C   UNL A   1      31.831  27.917  27.607  1.00  0.00     0.004 A 
ATOM     19  C   UNL A   1      34.004  28.032  26.502  1.00  0.00     0.000 A 
ATOM     20  C   UNL A   1      33.116  28.459  27.509  1.00  0.00     0.000 A 
ENDBRANCH  11  13
ENDBRANCH   7  11
ENDBRANCH   6   7
ENDBRANCH   3   6
ENDBRANCH   1   2
BRANCH   1  21
ATOM     21  C   UNL A   1      30.938  31.303  25.425  1.00  0.00     0.042 C 
BRANCH  21  22
ATOM     22  C   UNL A   1      31.907  31.577  26.567  1.00  0.00     0.118 C 
BRANCH  22  23
ATOM     23  N   UNL A   1      31.992  32.990  26.911  1.00  0.00    -0.352 N 
ATOM     24  C   UNL A   1      32.857  33.659  27.740  1.00  0.00     0.251 C 
ATOM     25  H   UNL A   1      31.316  33.559  26.476  1.00  0.00     0.163 HD
ATOM     26  O   UNL A   1      32.627  34.828  28.034  1.00  0.00    -0.269 OA
BRANCH  24  27
ATOM     27  C   UNL A   1      34.053  32.985  28.293  1.00  0.00     0.039 A 
ATOM     28  C   UNL A   1      35.241  33.713  28.410  1.00  0.00     0.014 A 
ATOM     29  C   UNL A   1      34.022  31.638  28.660  1.00  0.00     0.014 A 
ATOM     30  C   UNL A   1      36.376  33.108  28.956  1.00  0.00     0.010 A 
ATOM     31  C   UNL A   1      35.128  31.061  29.279  1.00  0.00     0.010 A 
ATOM     32  C   UNL A   1      36.318  31.788  29.431  1.00  0.00    -0.014 A 
BRANCH  32  33
ATOM     33  C   UNL A   1      37.487  31.153  30.091  1.00  0.00     0.031 A 
ATOM     34  C   UNL A   1      37.804  31.456  31.529  1.00  0.00     0.074 A 
ATOM     35  C   UNL A   1      38.304  30.356  29.374  1.00  0.00     0.049 A 
ATOM     36  N   UNL A   1      38.821  31.062  32.254  1.00  0.00    -0.248 NA
ATOM     37  C   UNL A   1      36.869  32.344  32.240  1.00  0.00     0.031 C 
ATOM     38  C   UNL A   1      38.131  30.021  27.959  1.00  0.00     0.029 A 
ATOM     39  N   UNL A   1      39.450  29.693  29.734  1.00  0.00    -0.354 N 
ATOM     40  C   UNL A   1      38.657  31.664  33.495  1.00  0.00     0.074 A 
ATOM     41  C   UNL A   1      37.473  32.492  33.410  1.00  0.00     0.031 C 
ATOM     42  C   UNL A   1      39.122  29.200  27.578  1.00  0.00     0.029 A 
ATOM     43  C   UNL A   1      40.023  28.984  28.706  1.00  0.00     0.049 A 
ATOM     44  H   UNL A   1      39.827  29.723  30.643  1.00  0.00     0.167 HD
ATOM     45  C   UNL A   1      39.411  31.522  34.611  1.00  0.00     0.037 A 
ATOM     46  C   UNL A   1      41.152  28.253  28.672  1.00  0.00     0.037 A 
ATOM     47  C   UNL A   1      40.577  30.682  34.697  1.00  0.00     0.049 A 
ATOM     48  C   UNL A   1      41.979  28.121  29.920  1.00  0.00     0.074 A 
ATOM     49  C   UNL A   1      41.375  30.425  35.799  1.00  0.00     0.029 A 
ATOM     50  N   UNL A   1      41.114  29.965  33.638  1.00  0.00    -0.354 N 
ATOM     51  N   UNL A   1      41.774  28.639  31.107  1.00  0.00    -0.248 NA
ATOM     52  C   UNL A   1      43.192  27.296  29.827  1.00  0.00     0.031 C 
ATOM     53  C   UNL A   1      42.424  29.594  35.394  1.00  0.00     0.029 A 
ATOM     54  C   UNL A   1      42.247  29.285  34.054  1.00  0.00     0.049 A 
ATOM     55  H   UNL A   1      40.745  29.943  32.725  1.00  0.00     0.167 HD
ATOM     56  C   UNL A   1      42.811  28.179  31.908  1.00  0.00     0.074 A 
ATOM     57  C   UNL A   1      43.637  27.330  31.075  1.00  0.00     0.031 C 
ATOM     58  C   UNL A   1      43.053  28.433  33.217  1.00  0.00     0.037 A 
BRANCH  45  59
ATOM     59  C   UNL A   1      38.998  32.295  35.831  1.00  0.00     0.057 A 
ATOM     60  C   UNL A   1      39.374  33.632  36.021  1.00  0.00     0.134 A 
ATOM     61  C   UNL A   1      38.187  31.710  36.811  1.00  0.00     0.134 A 
ATOM     62  F   UNL A   1      40.159  34.252  35.126  1.00  0.00    -0.206 F 
ATOM     63  C   UNL A   1      38.984  34.348  37.155  1.00  0.00     0.040 A 
ATOM     64  C   UNL A   1      37.765  32.424  37.933  1.00  0.00     0.040 A 
ATOM     65  F   UNL A   1      37.783  30.436  36.689  1.00  0.00    -0.206 F 
ATOM     66  C   UNL A   1      38.170  33.745  38.111  1.00  0.00     0.006 A 
ENDBRANCH  45  59
BRANCH  46  67
ATOM     67  C   UNL A   1      41.558  27.570  27.417  1.00  0.00     0.057 A 
ATOM     68  C   UNL A   1      41.201  26.238  27.171  1.00  0.00     0.134 A 
ATOM     69  C   UNL A   1      42.311  28.227  26.435  1.00  0.00     0.134 A 
ATOM     70  F   UNL A   1      40.495  25.551  28.081  1.00  0.00    -0.206 F 
ATOM     71  C   UNL A   1      41.596  25.578  26.007  1.00  0.00     0.040 A 
ATOM     72  C   UNL A   1      42.690  27.587  25.255  1.00  0.00     0.040 A 
ATOM     73  F   UNL A   1      42.677  29.506  26.605  1.00  0.00    -0.206 F 
ATOM     74  C   UNL A   1      42.339  26.255  25.042  1.00  0.00     0.006 A 
ENDBRANCH  46  67
BRANCH  58  75
ATOM     75  C   UNL A   1      44.233  27.751  33.845  1.00  0.00     0.057 A 
ATOM     76  C   UNL A   1      45.502  28.344  33.884  1.00  0.00     0.134 A 
ATOM     77  C   UNL A   1      44.085  26.502  34.463  1.00  0.00     0.134 A 
ATOM     78  F   UNL A   1      45.715  29.532  33.300  1.00  0.00    -0.206 F 
ATOM     79  C   UNL A   1      46.585  27.709  34.495  1.00  0.00     0.040 A 
ATOM     80  C   UNL A   1      45.152  25.871  35.101  1.00  0.00     0.040 A 
ATOM     81  F   UNL A   1      42.894  25.883  34.470  1.00  0.00    -0.206 F 
ATOM     82  C   UNL A   1      46.409  26.472  35.114  1.00  0.00     0.006 A 
ENDBRANCH  58  75
ENDBRANCH  32  33
ENDBRANCH  24  27
ENDBRANCH  22  23
ENDBRANCH  21  22
ENDBRANCH   1  21
TORSDOF 15
ENDMDL
MODEL 3
REMARK VINA RESULT:     -10.2      0.901      1.778
REMARK SMILES C=CCN(CC(=O)NCCCNC(=O)c1ccc(-c2c3nc(c(-c4c(F)cccc4F)c4ccc([nH]4)c(-c4c(F)cccc4F)c4nc(c(-c5c(F)cccc5F)c5ccc2[nH]5)C=C4)C=C3)cc1)C(=O)[C@@H]1Cc2ccccc21
REMARK SMILES IDX 9 1 8 2 6 3 7 4 5 6 4 7 3 8 2 9 1 10 69 11 70 12 71 13 72 14
REMARK SMILES IDX 78 15 73 16 77 17 74 18 76 19 75 20 10 21 11 22 12 23 13 24
REMARK SMILES IDX 14 26 15 27 16 28 68 29 17 30 67 31 18 32 19 33 20 34 61 35
REMARK SMILES IDX 21 36 66 37 60 38 62 39 22 40 65 41 59 42 58 43 23 45 49 46
REMARK SMILES IDX 32 47 48 48 33 49 36 50 47 51 63 52 34 53 35 54 46 56 64 57
REMARK SMILES IDX 37 58 24 59 25 60 30 61 26 62 27 63 29 64 31 65 28 66 50 67
REMARK SMILES IDX 51 68 56 69 52 70 53 71 55 72 57 73 54 74 38 75 39 76 44 77
REMARK SMILES IDX 40 78 41 79 43 80 45 81 42 82
REMARK H PARENT 8 5 12 25 62 44 36 55
REMARK Flexibility Score: inf
ROOT
ATOM      1  C   UNL A   1      32.358  26.306  26.392  1.00  0.00     0.117 C 
ENDROOT
BRANCH   1   2
ATOM      2  N   UNL A   1      31.219  25.527  26.827  1.00  0.00    -0.354 N 
ATOM      3  C   UNL A   1      30.789  24.304  26.407  1.00  0.00     0.239 C 
ATOM      4  O   UNL A   1      30.179  23.626  27.241  1.00  0.00    -0.273 OA
ATOM      5  H   UNL A   1      30.673  25.942  27.533  1.00  0.00     0.163 HD
BRANCH   3   6
ATOM      6  C   UNL A   1      31.132  23.706  25.027  1.00  0.00     0.219 C 
BRANCH   6   7
ATOM      7  N   UNL A   1      32.286  22.805  24.982  1.00  0.00    -0.329 N 
BRANCH   7   8
ATOM      8  C   UNL A   1      32.037  21.380  25.199  1.00  0.00     0.147 C 
BRANCH   8   9
ATOM      9  C   UNL A   1      32.790  20.556  24.197  1.00  0.00    -0.014 C 
ATOM     10  C   UNL A   1      32.225  20.055  23.089  1.00  0.00     0.006 C 
ENDBRANCH   8   9
ENDBRANCH   7   8
BRANCH   7  11
ATOM     11  C   UNL A   1      33.615  23.207  24.752  1.00  0.00     0.231 C 
ATOM     12  O   UNL A   1      33.902  23.641  23.619  1.00  0.00    -0.274 OA
BRANCH  11  13
ATOM     13  C   UNL A   1      34.723  23.194  25.818  1.00  0.00     0.113 C 
ATOM     14  C   UNL A   1      35.804  24.284  26.093  1.00  0.00     0.054 C 
ATOM     15  C   UNL A   1      35.876  22.267  25.518  1.00  0.00    -0.032 A 
ATOM     16  C   UNL A   1      36.824  23.206  25.849  1.00  0.00    -0.043 A 
ATOM     17  C   UNL A   1      36.211  20.984  25.151  1.00  0.00     0.005 A 
ATOM     18  C   UNL A   1      38.168  22.916  25.847  1.00  0.00     0.004 A 
ATOM     19  C   UNL A   1      37.569  20.660  25.135  1.00  0.00     0.000 A 
ATOM     20  C   UNL A   1      38.541  21.618  25.488  1.00  0.00     0.000 A 
ENDBRANCH  11  13
ENDBRANCH   7  11
ENDBRANCH   6   7
ENDBRANCH   3   6
ENDBRANCH   1   2
BRANCH   1  21
ATOM     21  C   UNL A   1      32.352  27.750  26.879  1.00  0.00     0.042 C 
BRANCH  21  22
ATOM     22  C   UNL A   1      33.727  28.399  26.971  1.00  0.00     0.118 C 
BRANCH  22  23
ATOM     23  N   UNL A   1      33.673  29.772  27.456  1.00  0.00    -0.352 N 
ATOM     24  C   UNL A   1      34.589  30.507  28.165  1.00  0.00     0.251 C 
ATOM     25  H   UNL A   1      32.841  30.252  27.236  1.00  0.00     0.163 HD
ATOM     26  O   UNL A   1      34.256  31.590  28.636  1.00  0.00    -0.269 OA
BRANCH  24  27
ATOM     27  C   UNL A   1      35.963  30.003  28.383  1.00  0.00     0.039 A 
ATOM     28  C   UNL A   1      36.886  30.096  27.337  1.00  0.00     0.014 A 
ATOM     29  C   UNL A   1      36.336  29.409  29.590  1.00  0.00     0.014 A 
ATOM     30  C   UNL A   1      38.198  29.653  27.525  1.00  0.00     0.010 A 
ATOM     31  C   UNL A   1      37.663  29.044  29.805  1.00  0.00     0.010 A 
ATOM     32  C   UNL A   1      38.607  29.159  28.774  1.00  0.00    -0.014 A 
BRANCH  32  33
ATOM     33  C   UNL A   1      40.017  28.762  29.024  1.00  0.00     0.031 A 
ATOM     34  C   UNL A   1      40.979  29.732  29.652  1.00  0.00     0.074 A 
ATOM     35  C   UNL A   1      40.447  27.551  28.619  1.00  0.00     0.049 A 
ATOM     36  N   UNL A   1      42.261  29.597  29.877  1.00  0.00    -0.248 NA
ATOM     37  C   UNL A   1      40.433  31.038  30.056  1.00  0.00     0.031 C 
ATOM     38  C   UNL A   1      39.624  26.538  27.956  1.00  0.00     0.029 A 
ATOM     39  N   UNL A   1      41.689  26.971  28.696  1.00  0.00    -0.354 N 
ATOM     40  C   UNL A   1      42.677  30.801  30.431  1.00  0.00     0.074 A 
ATOM     41  C   UNL A   1      41.523  31.674  30.459  1.00  0.00     0.031 C 
ATOM     42  C   UNL A   1      40.377  25.455  27.705  1.00  0.00     0.029 A 
ATOM     43  C   UNL A   1      41.743  25.711  28.150  1.00  0.00     0.049 A 
ATOM     44  H   UNL A   1      42.467  27.416  29.103  1.00  0.00     0.167 HD
ATOM     45  C   UNL A   1      43.903  31.141  30.895  1.00  0.00     0.037 A 
ATOM     46  C   UNL A   1      42.778  24.862  28.013  1.00  0.00     0.037 A 
ATOM     47  C   UNL A   1      45.044  30.263  30.882  1.00  0.00     0.049 A 
ATOM     48  C   UNL A   1      44.133  25.268  28.524  1.00  0.00     0.074 A 
ATOM     49  C   UNL A   1      46.314  30.494  31.382  1.00  0.00     0.029 A 
ATOM     50  N   UNL A   1      45.053  28.988  30.338  1.00  0.00    -0.354 N 
ATOM     51  N   UNL A   1      44.496  26.383  29.110  1.00  0.00    -0.248 NA
ATOM     52  C   UNL A   1      45.222  24.294  28.361  1.00  0.00     0.031 C 
ATOM     53  C   UNL A   1      47.106  29.377  31.094  1.00  0.00     0.029 A 
ATOM     54  C   UNL A   1      46.314  28.428  30.468  1.00  0.00     0.049 A 
ATOM     55  H   UNL A   1      44.279  28.545  29.920  1.00  0.00     0.167 HD
ATOM     56  C   UNL A   1      45.843  26.233  29.414  1.00  0.00     0.074 A 
ATOM     57  C   UNL A   1      46.229  24.914  28.959  1.00  0.00     0.031 C 
ATOM     58  C   UNL A   1      46.682  27.108  30.021  1.00  0.00     0.037 A 
BRANCH  45  59
ATOM     59  C   UNL A   1      44.075  32.525  31.454  1.00  0.00     0.057 A 
ATOM     60  C   UNL A   1      44.449  33.608  30.646  1.00  0.00     0.134 A 
ATOM     61  C   UNL A   1      43.830  32.787  32.808  1.00  0.00     0.134 A 
ATOM     62  F   UNL A   1      44.708  33.426  29.342  1.00  0.00    -0.206 F 
ATOM     63  C   UNL A   1      44.602  34.893  31.170  1.00  0.00     0.040 A 
ATOM     64  C   UNL A   1      43.951  34.072  33.337  1.00  0.00     0.040 A 
ATOM     65  F   UNL A   1      43.461  31.799  33.637  1.00  0.00    -0.206 F 
ATOM     66  C   UNL A   1      44.345  35.129  32.519  1.00  0.00     0.006 A 
ENDBRANCH  45  59
BRANCH  46  67
ATOM     67  C   UNL A   1      42.572  23.534  27.381  1.00  0.00     0.057 A 
ATOM     68  C   UNL A   1      42.252  22.410  28.152  1.00  0.00     0.134 A 
ATOM     69  C   UNL A   1      42.692  23.354  25.998  1.00  0.00     0.134 A 
ATOM     70  F   UNL A   1      42.142  22.515  29.484  1.00  0.00    -0.206 F 
ATOM     71  C   UNL A   1      42.079  21.151  27.574  1.00  0.00     0.040 A 
ATOM     72  C   UNL A   1      42.495  22.107  25.404  1.00  0.00     0.040 A 
ATOM     73  F   UNL A   1      42.987  24.392  25.202  1.00  0.00    -0.206 F 
ATOM     74  C   UNL A   1      42.196  20.999  26.194  1.00  0.00     0.006 A 
ENDBRANCH  46  67
BRANCH  58  75
ATOM     75  C   UNL A   1      48.090  26.653  30.270  1.00  0.00     0.057 A 
ATOM     76  C   UNL A   1      49.139  26.967  29.397  1.00  0.00     0.134 A 
ATOM     77  C   UNL A   1      48.407  25.930  31.428  1.00  0.00     0.134 A 
ATOM     78  F   UNL A   1      48.901  27.645  28.265  1.00  0.00    -0.206 F 
ATOM     79  C   UNL A   1      50.449  26.560  29.655  1.00  0.00     0.040 A 
ATOM     80  C   UNL A   1      49.717  25.542  31.711  1.00  0.00     0.040 A 
ATOM     81  F   UNL A   1      47.451  25.604  32.311  1.00  0.00    -0.206 F 
ATOM     82  C   UNL A   1      50.742  25.851  30.820  1.00  0.00     0.006 A 
ENDBRANCH  58  75
ENDBRANCH  32  33
ENDBRANCH  24  27
ENDBRANCH  22  23
ENDBRANCH  21  22
ENDBRANCH   1  21
TORSDOF 15
ENDMDL
