MODEL 1
REMARK VINA RESULT:     -13.1      0.000      0.000
REMARK SMILES COc1cccc([C@@H]2CN(C(=O)CSc3nc(C)n[nH]3)C[C@H]2C(=O)NCCCNC(=O)c2ccc(-c3c4nc(c(-c5c(F)cccc5F)c5ccc([nH]5)c(-c5c(F)cccc5F)c5nc(c(-c6c(F)cccc6F)c6ccc3[nH]6)C=C5)C=C4)cc2)c1
REMARK SMILES IDX 26 1 25 2 23 3 24 4 22 6 8 7 9 8 10 9 21 10 7 11 3 12 4 13
REMARK SMILES IDX 86 14 5 15 6 16 2 17 1 18 11 19 12 20 13 21 14 22 15 23
REMARK SMILES IDX 16 24 20 25 17 26 19 27 18 29 27 30 28 31 29 32 30 33 31 35
REMARK SMILES IDX 32 36 33 37 85 38 34 39 84 40 35 41 36 42 37 43 78 44 38 45
REMARK SMILES IDX 83 46 77 47 79 48 39 49 82 50 76 51 75 52 40 54 66 55 49 56
REMARK SMILES IDX 65 57 50 58 53 59 64 60 80 61 51 62 52 63 63 65 81 66 54 67
REMARK SMILES IDX 41 68 42 69 47 70 43 71 44 72 46 73 48 74 45 75 67 76 68 77
REMARK SMILES IDX 73 78 69 79 70 80 72 81 74 82 71 83 55 84 56 85 61 86 57 87
REMARK SMILES IDX 58 88 60 89 62 90 59 91
REMARK H PARENT 25 5 20 28 29 34 79 53 53 64
REMARK Flexibility Score: inf
ROOT
ATOM      1  C   UNL A   1      31.776  30.395  26.263  1.00  0.00     0.117 C 
ENDROOT
BRANCH   1   2
ATOM      2  N   UNL A   1      32.734  30.154  25.188  1.00  0.00    -0.356 N 
ATOM      3  C   UNL A   1      32.853  29.131  24.295  1.00  0.00     0.225 C 
ATOM      4  O   UNL A   1      33.697  29.251  23.404  1.00  0.00    -0.275 OA
ATOM      5  H   UNL A   1      33.416  30.856  25.091  1.00  0.00     0.163 HD
BRANCH   3   6
ATOM      6  C   UNL A   1      32.020  27.864  24.383  1.00  0.00     0.107 C 
ATOM      7  C   UNL A   1      31.277  27.575  23.065  1.00  0.00     0.053 C 
ATOM      8  C   UNL A   1      31.358  26.059  22.905  1.00  0.00     0.128 C 
ATOM      9  N   UNL A   1      32.590  25.702  23.584  1.00  0.00    -0.341 N 
ATOM     10  C   UNL A   1      32.849  26.618  24.688  1.00  0.00     0.133 C 
BRANCH   7  11
ATOM     11  C   UNL A   1      29.873  28.115  22.955  1.00  0.00    -0.039 A 
ATOM     12  C   UNL A   1      28.312  29.862  22.299  1.00  0.00     0.119 A 
ATOM     13  C   UNL A   1      27.272  29.147  22.892  1.00  0.00     0.046 A 
ATOM     14  C   UNL A   1      29.609  29.347  22.337  1.00  0.00     0.050 A 
ATOM     15  C   UNL A   1      27.514  27.913  23.493  1.00  0.00     0.004 A 
ATOM     16  C   UNL A   1      28.808  27.398  23.522  1.00  0.00     0.004 A 
BRANCH  12  17
ATOM     17  O   UNL A   1      27.958  31.067  21.756  1.00  0.00    -0.497 OA
ATOM     18  C   UNL A   1      28.773  32.180  22.107  1.00  0.00     0.278 C 
ENDBRANCH  12  17
ENDBRANCH   7  11
BRANCH   9  19
ATOM     19  C   UNL A   1      33.406  24.630  23.333  1.00  0.00     0.233 C 
ATOM     20  O   UNL A   1      34.159  24.609  22.354  1.00  0.00    -0.274 OA
BRANCH  19  21
ATOM     21  C   UNL A   1      33.422  23.463  24.296  1.00  0.00     0.178 C 
BRANCH  21  22
ATOM     22  S   UNL A   1      31.847  22.590  24.338  1.00  0.00    -0.077 SA
BRANCH  22  23
ATOM     23  C   UNL A   1      32.219  20.913  24.494  1.00  0.00     0.184 A 
ATOM     24  N   UNL A   1      32.400  20.114  23.470  1.00  0.00    -0.206 NA
ATOM     25  N   UNL A   1      32.333  20.200  25.651  1.00  0.00    -0.254 N 
ATOM     26  C   UNL A   1      32.629  18.900  24.059  1.00  0.00     0.148 A 
ATOM     27  N   UNL A   1      32.587  18.903  25.396  1.00  0.00    -0.158 NA
ATOM     28  H   UNL A   1      32.243  20.583  26.554  1.00  0.00     0.192 HD
ATOM     29  C   UNL A   1      32.907  17.691  23.263  1.00  0.00     0.092 C 
ENDBRANCH  22  23
ENDBRANCH  21  22
ENDBRANCH  19  21
ENDBRANCH   9  19
ENDBRANCH   3   6
ENDBRANCH   1   2
BRANCH   1  30
ATOM     30  C   UNL A   1      31.489  31.872  26.537  1.00  0.00     0.042 C 
BRANCH  30  31
ATOM     31  C   UNL A   1      32.614  32.524  27.302  1.00  0.00     0.118 C 
BRANCH  31  32
ATOM     32  N   UNL A   1      32.385  33.949  27.609  1.00  0.00    -0.352 N 
ATOM     33  C   UNL A   1      32.997  34.716  28.592  1.00  0.00     0.251 C 
ATOM     34  H   UNL A   1      31.718  34.410  27.050  1.00  0.00     0.163 HD
ATOM     35  O   UNL A   1      32.532  35.801  28.946  1.00  0.00    -0.269 OA
BRANCH  33  36
ATOM     36  C   UNL A   1      34.238  34.200  29.184  1.00  0.00     0.039 A 
ATOM     37  C   UNL A   1      34.338  33.512  30.395  1.00  0.00     0.014 A 
ATOM     38  C   UNL A   1      35.333  34.306  28.354  1.00  0.00     0.014 A 
ATOM     39  C   UNL A   1      35.566  32.925  30.702  1.00  0.00     0.010 A 
ATOM     40  C   UNL A   1      36.234  33.303  28.421  1.00  0.00     0.010 A 
ATOM     41  C   UNL A   1      36.524  32.855  29.686  1.00  0.00    -0.014 A 
BRANCH  41  42
ATOM     42  C   UNL A   1      37.872  32.340  29.814  1.00  0.00     0.031 A 
ATOM     43  C   UNL A   1      38.061  30.976  29.288  1.00  0.00     0.074 A 
ATOM     44  C   UNL A   1      38.912  33.166  30.091  1.00  0.00     0.049 A 
ATOM     45  N   UNL A   1      38.273  29.901  29.965  1.00  0.00    -0.248 NA
ATOM     46  C   UNL A   1      37.832  30.751  27.853  1.00  0.00     0.031 C 
ATOM     47  C   UNL A   1      38.936  34.629  30.286  1.00  0.00     0.029 A 
ATOM     48  N   UNL A   1      40.231  32.849  30.143  1.00  0.00    -0.354 N 
ATOM     49  C   UNL A   1      38.430  28.892  29.024  1.00  0.00     0.074 A 
ATOM     50  C   UNL A   1      37.939  29.422  27.779  1.00  0.00     0.031 C 
ATOM     51  C   UNL A   1      40.205  35.085  30.193  1.00  0.00     0.029 A 
ATOM     52  C   UNL A   1      41.091  33.945  30.115  1.00  0.00     0.049 A 
ATOM     53  H   UNL A   1      40.553  31.921  30.197  1.00  0.00     0.167 HD
ATOM     54  C   UNL A   1      39.189  27.794  29.292  1.00  0.00     0.037 A 
ATOM     55  C   UNL A   1      42.439  33.871  29.978  1.00  0.00     0.037 A 
ATOM     56  C   UNL A   1      39.504  27.705  30.698  1.00  0.00     0.049 A 
ATOM     57  C   UNL A   1      42.825  32.488  30.383  1.00  0.00     0.074 A 
ATOM     58  C   UNL A   1      38.746  27.637  31.852  1.00  0.00     0.029 A 
ATOM     59  N   UNL A   1      40.750  28.125  31.104  1.00  0.00    -0.354 N 
ATOM     60  N   UNL A   1      42.676  32.034  31.603  1.00  0.00    -0.248 NA
ATOM     61  C   UNL A   1      42.851  31.470  29.340  1.00  0.00     0.031 C 
ATOM     62  C   UNL A   1      39.398  28.520  32.765  1.00  0.00     0.029 A 
ATOM     63  C   UNL A   1      40.556  28.996  32.148  1.00  0.00     0.049 A 
ATOM     64  H   UNL A   1      41.615  27.856  30.718  1.00  0.00     0.167 HD
ATOM     65  C   UNL A   1      42.183  30.742  31.452  1.00  0.00     0.074 A 
ATOM     66  C   UNL A   1      42.356  30.437  30.029  1.00  0.00     0.031 C 
ATOM     67  C   UNL A   1      41.396  30.148  32.401  1.00  0.00     0.037 A 
BRANCH  54  68
ATOM     68  C   UNL A   1      39.947  27.013  28.254  1.00  0.00     0.057 A 
ATOM     69  C   UNL A   1      40.794  27.698  27.368  1.00  0.00     0.134 A 
ATOM     70  C   UNL A   1      39.669  25.674  27.911  1.00  0.00     0.134 A 
ATOM     71  F   UNL A   1      41.119  28.981  27.583  1.00  0.00    -0.206 F 
ATOM     72  C   UNL A   1      41.274  27.114  26.191  1.00  0.00     0.040 A 
ATOM     73  C   UNL A   1      40.186  25.064  26.766  1.00  0.00     0.040 A 
ATOM     74  F   UNL A   1      38.805  24.920  28.602  1.00  0.00    -0.206 F 
ATOM     75  C   UNL A   1      40.965  25.795  25.884  1.00  0.00     0.006 A 
ENDBRANCH  54  68
BRANCH  55  76
ATOM     76  C   UNL A   1      43.288  34.768  29.157  1.00  0.00     0.057 A 
ATOM     77  C   UNL A   1      44.629  35.012  29.474  1.00  0.00     0.134 A 
ATOM     78  C   UNL A   1      42.865  35.223  27.892  1.00  0.00     0.134 A 
ATOM     79  F   UNL A   1      45.143  34.576  30.634  1.00  0.00    -0.206 F 
ATOM     80  C   UNL A   1      45.499  35.665  28.585  1.00  0.00     0.040 A 
ATOM     81  C   UNL A   1      43.719  35.880  27.000  1.00  0.00     0.040 A 
ATOM     82  F   UNL A   1      41.627  34.969  27.442  1.00  0.00    -0.206 F 
ATOM     83  C   UNL A   1      45.046  36.095  27.341  1.00  0.00     0.006 A 
ENDBRANCH  55  76
BRANCH  67  84
ATOM     84  C   UNL A   1      41.180  30.862  33.714  1.00  0.00     0.057 A 
ATOM     85  C   UNL A   1      40.091  31.709  33.977  1.00  0.00     0.134 A 
ATOM     86  C   UNL A   1      41.982  30.529  34.809  1.00  0.00     0.134 A 
ATOM     87  F   UNL A   1      39.199  32.003  33.027  1.00  0.00    -0.206 F 
ATOM     88  C   UNL A   1      39.834  32.228  35.251  1.00  0.00     0.040 A 
ATOM     89  C   UNL A   1      41.722  31.017  36.095  1.00  0.00     0.040 A 
ATOM     90  F   UNL A   1      43.005  29.673  34.660  1.00  0.00    -0.206 F 
ATOM     91  C   UNL A   1      40.650  31.876  36.318  1.00  0.00     0.006 A 
ENDBRANCH  67  84
ENDBRANCH  41  42
ENDBRANCH  33  36
ENDBRANCH  31  32
ENDBRANCH  30  31
ENDBRANCH   1  30
TORSDOF 16
ENDMDL
MODEL 2
REMARK VINA RESULT:     -12.8      4.087      9.858
REMARK SMILES COc1cccc([C@@H]2CN(C(=O)CSc3nc(C)n[nH]3)C[C@H]2C(=O)NCCCNC(=O)c2ccc(-c3c4nc(c(-c5c(F)cccc5F)c5ccc([nH]5)c(-c5c(F)cccc5F)c5nc(c(-c6c(F)cccc6F)c6ccc3[nH]6)C=C5)C=C4)cc2)c1
REMARK SMILES IDX 26 1 25 2 23 3 24 4 22 6 8 7 9 8 10 9 21 10 7 11 3 12 4 13
REMARK SMILES IDX 86 14 5 15 6 16 2 17 1 18 11 19 12 20 13 21 14 22 15 23
REMARK SMILES IDX 16 24 20 25 17 26 19 27 18 29 27 30 28 31 29 32 30 33 31 35
REMARK SMILES IDX 32 36 33 37 85 38 34 39 84 40 35 41 36 42 37 43 78 44 38 45
REMARK SMILES IDX 83 46 77 47 79 48 39 49 82 50 76 51 75 52 40 54 66 55 49 56
REMARK SMILES IDX 65 57 50 58 53 59 64 60 80 61 51 62 52 63 63 65 81 66 54 67
REMARK SMILES IDX 41 68 42 69 47 70 43 71 44 72 46 73 48 74 45 75 67 76 68 77
REMARK SMILES IDX 73 78 69 79 70 80 72 81 74 82 71 83 55 84 56 85 61 86 57 87
REMARK SMILES IDX 58 88 60 89 62 90 59 91
REMARK H PARENT 25 5 20 28 29 34 79 53 53 64
REMARK Flexibility Score: inf
ROOT
ATOM      1  C   UNL A   1      37.426  21.535  24.949  1.00  0.00     0.117 C 
ENDROOT
BRANCH   1   2
ATOM      2  N   UNL A   1      36.458  21.726  26.024  1.00  0.00    -0.356 N 
ATOM      3  C   UNL A   1      35.098  21.816  26.012  1.00  0.00     0.225 C 
ATOM      4  O   UNL A   1      34.522  21.854  27.102  1.00  0.00    -0.275 OA
ATOM      5  H   UNL A   1      36.860  21.802  26.920  1.00  0.00     0.163 HD
BRANCH   3   6
ATOM      6  C   UNL A   1      34.294  21.904  24.727  1.00  0.00     0.107 C 
ATOM      7  C   UNL A   1      32.915  21.232  24.868  1.00  0.00     0.053 C 
ATOM      8  C   UNL A   1      31.965  22.143  24.094  1.00  0.00     0.128 C 
ATOM      9  N   UNL A   1      32.574  23.455  24.202  1.00  0.00    -0.341 N 
ATOM     10  C   UNL A   1      34.026  23.340  24.281  1.00  0.00     0.133 C 
BRANCH   7  11
ATOM     11  C   UNL A   1      32.829  19.785  24.452  1.00  0.00    -0.039 A 
ATOM     12  C   UNL A   1      33.136  17.417  24.919  1.00  0.00     0.119 A 
ATOM     13  C   UNL A   1      32.790  17.119  23.602  1.00  0.00     0.046 A 
ATOM     14  C   UNL A   1      33.160  18.748  25.338  1.00  0.00     0.050 A 
ATOM     15  C   UNL A   1      32.439  18.134  22.714  1.00  0.00     0.004 A 
ATOM     16  C   UNL A   1      32.457  19.462  23.138  1.00  0.00     0.004 A 
BRANCH  12  17
ATOM     17  O   UNL A   1      33.476  16.341  25.692  1.00  0.00    -0.497 OA
ATOM     18  C   UNL A   1      32.695  15.164  25.511  1.00  0.00     0.278 C 
ENDBRANCH  12  17
ENDBRANCH   7  11
BRANCH   9  19
ATOM     19  C   UNL A   1      31.951  24.675  24.165  1.00  0.00     0.233 C 
ATOM     20  O   UNL A   1      31.019  24.945  24.928  1.00  0.00    -0.274 OA
BRANCH  19  21
ATOM     21  C   UNL A   1      32.441  25.734  23.200  1.00  0.00     0.178 C 
BRANCH  21  22
ATOM     22  S   UNL A   1      32.671  27.332  23.998  1.00  0.00    -0.077 SA
BRANCH  22  23
ATOM     23  C   UNL A   1      31.473  28.385  23.342  1.00  0.00     0.184 A 
ATOM     24  N   UNL A   1      30.699  29.147  24.076  1.00  0.00    -0.206 NA
ATOM     25  N   UNL A   1      31.145  28.540  22.027  1.00  0.00    -0.254 N 
ATOM     26  C   UNL A   1      29.901  29.764  23.152  1.00  0.00     0.148 A 
ATOM     27  N   UNL A   1      30.131  29.413  21.882  1.00  0.00    -0.158 NA
ATOM     28  H   UNL A   1      31.591  28.074  21.283  1.00  0.00     0.192 HD
ATOM     29  C   UNL A   1      28.872  30.744  23.544  1.00  0.00     0.092 C 
ENDBRANCH  22  23
ENDBRANCH  21  22
ENDBRANCH  19  21
ENDBRANCH   9  19
ENDBRANCH   3   6
ENDBRANCH   1   2
BRANCH   1  30
ATOM     30  C   UNL A   1      38.213  20.226  25.028  1.00  0.00     0.042 C 
BRANCH  30  31
ATOM     31  C   UNL A   1      39.221  20.250  26.149  1.00  0.00     0.118 C 
BRANCH  31  32
ATOM     32  N   UNL A   1      40.298  19.251  26.011  1.00  0.00    -0.352 N 
ATOM     33  C   UNL A   1      41.668  19.475  25.985  1.00  0.00     0.251 C 
ATOM     34  H   UNL A   1      40.010  18.313  25.927  1.00  0.00     0.163 HD
ATOM     35  O   UNL A   1      42.455  18.617  25.583  1.00  0.00    -0.269 OA
BRANCH  33  36
ATOM     36  C   UNL A   1      42.155  20.769  26.478  1.00  0.00     0.039 A 
ATOM     37  C   UNL A   1      42.807  21.740  25.713  1.00  0.00     0.014 A 
ATOM     38  C   UNL A   1      41.774  21.048  27.772  1.00  0.00     0.014 A 
ATOM     39  C   UNL A   1      43.021  22.987  26.302  1.00  0.00     0.010 A 
ATOM     40  C   UNL A   1      41.498  22.341  28.050  1.00  0.00     0.010 A 
ATOM     41  C   UNL A   1      42.362  23.257  27.506  1.00  0.00    -0.014 A 
BRANCH  41  42
ATOM     42  C   UNL A   1      42.494  24.461  28.301  1.00  0.00     0.031 A 
ATOM     43  C   UNL A   1      41.372  25.408  28.172  1.00  0.00     0.074 A 
ATOM     44  C   UNL A   1      43.403  24.539  29.305  1.00  0.00     0.049 A 
ATOM     45  N   UNL A   1      41.384  26.559  27.594  1.00  0.00    -0.248 NA
ATOM     46  C   UNL A   1      40.036  24.960  28.597  1.00  0.00     0.031 C 
ATOM     47  C   UNL A   1      44.359  23.530  29.799  1.00  0.00     0.029 A 
ATOM     48  N   UNL A   1      43.573  25.553  30.191  1.00  0.00    -0.354 N 
ATOM     49  C   UNL A   1      40.112  27.083  27.778  1.00  0.00     0.074 A 
ATOM     50  C   UNL A   1      39.280  25.986  28.199  1.00  0.00     0.031 C 
ATOM     51  C   UNL A   1      44.820  23.890  31.018  1.00  0.00     0.029 A 
ATOM     52  C   UNL A   1      44.340  25.223  31.307  1.00  0.00     0.049 A 
ATOM     53  H   UNL A   1      43.187  26.448  30.057  1.00  0.00     0.167 HD
ATOM     54  C   UNL A   1      39.905  28.429  27.816  1.00  0.00     0.037 A 
ATOM     55  C   UNL A   1      44.497  26.009  32.402  1.00  0.00     0.037 A 
ATOM     56  C   UNL A   1      41.066  29.150  27.351  1.00  0.00     0.049 A 
ATOM     57  C   UNL A   1      44.162  27.398  31.971  1.00  0.00     0.074 A 
ATOM     58  C   UNL A   1      41.790  29.153  26.173  1.00  0.00     0.029 A 
ATOM     59  N   UNL A   1      41.906  29.692  28.297  1.00  0.00    -0.354 N 
ATOM     60  N   UNL A   1      44.868  28.061  31.089  1.00  0.00    -0.248 NA
ATOM     61  C   UNL A   1      42.773  27.819  32.098  1.00  0.00     0.031 C 
ATOM     62  C   UNL A   1      43.156  29.179  26.588  1.00  0.00     0.029 A 
ATOM     63  C   UNL A   1      43.179  29.284  27.980  1.00  0.00     0.049 A 
ATOM     64  H   UNL A   1      41.645  30.262  29.057  1.00  0.00     0.167 HD
ATOM     65  C   UNL A   1      43.933  28.688  30.272  1.00  0.00     0.074 A 
ATOM     66  C   UNL A   1      42.657  28.535  30.975  1.00  0.00     0.031 C 
ATOM     67  C   UNL A   1      44.199  28.996  28.966  1.00  0.00     0.037 A 
BRANCH  54  68
ATOM     68  C   UNL A   1      38.815  29.097  28.607  1.00  0.00     0.057 A 
ATOM     69  C   UNL A   1      38.702  28.824  29.981  1.00  0.00     0.134 A 
ATOM     70  C   UNL A   1      37.717  29.768  28.033  1.00  0.00     0.134 A 
ATOM     71  F   UNL A   1      39.679  28.178  30.634  1.00  0.00    -0.206 F 
ATOM     72  C   UNL A   1      37.551  29.134  30.711  1.00  0.00     0.040 A 
ATOM     73  C   UNL A   1      36.585  30.130  28.765  1.00  0.00     0.040 A 
ATOM     74  F   UNL A   1      37.633  30.014  26.719  1.00  0.00    -0.206 F 
ATOM     75  C   UNL A   1      36.485  29.784  30.102  1.00  0.00     0.006 A 
ENDBRANCH  54  68
BRANCH  55  76
ATOM     76  C   UNL A   1      44.513  25.554  33.813  1.00  0.00     0.057 A 
ATOM     77  C   UNL A   1      43.336  25.403  34.556  1.00  0.00     0.134 A 
ATOM     78  C   UNL A   1      45.679  25.021  34.399  1.00  0.00     0.134 A 
ATOM     79  F   UNL A   1      42.164  25.833  34.064  1.00  0.00    -0.206 F 
ATOM     80  C   UNL A   1      43.317  24.758  35.803  1.00  0.00     0.040 A 
ATOM     81  C   UNL A   1      45.676  24.381  35.644  1.00  0.00     0.040 A 
ATOM     82  F   UNL A   1      46.849  25.028  33.744  1.00  0.00    -0.206 F 
ATOM     83  C   UNL A   1      44.489  24.238  36.347  1.00  0.00     0.006 A 
ENDBRANCH  55  76
BRANCH  67  84
ATOM     84  C   UNL A   1      45.599  28.782  28.441  1.00  0.00     0.057 A 
ATOM     85  C   UNL A   1      46.021  27.616  27.780  1.00  0.00     0.134 A 
ATOM     86  C   UNL A   1      46.490  29.859  28.423  1.00  0.00     0.134 A 
ATOM     87  F   UNL A   1      45.206  26.567  27.644  1.00  0.00    -0.206 F 
ATOM     88  C   UNL A   1      47.274  27.512  27.168  1.00  0.00     0.040 A 
ATOM     89  C   UNL A   1      47.736  29.781  27.790  1.00  0.00     0.040 A 
ATOM     90  F   UNL A   1      46.141  31.032  28.973  1.00  0.00    -0.206 F 
ATOM     91  C   UNL A   1      48.135  28.602  27.166  1.00  0.00     0.006 A 
ENDBRANCH  67  84
ENDBRANCH  41  42
ENDBRANCH  33  36
ENDBRANCH  31  32
ENDBRANCH  30  31
ENDBRANCH   1  30
TORSDOF 16
ENDMDL
MODEL 3
REMARK VINA RESULT:     -12.6      2.849      6.516
REMARK SMILES COc1cccc([C@@H]2CN(C(=O)CSc3nc(C)n[nH]3)C[C@H]2C(=O)NCCCNC(=O)c2ccc(-c3c4nc(c(-c5c(F)cccc5F)c5ccc([nH]5)c(-c5c(F)cccc5F)c5nc(c(-c6c(F)cccc6F)c6ccc3[nH]6)C=C5)C=C4)cc2)c1
REMARK SMILES IDX 26 1 25 2 23 3 24 4 22 6 8 7 9 8 10 9 21 10 7 11 3 12 4 13
REMARK SMILES IDX 86 14 5 15 6 16 2 17 1 18 11 19 12 20 13 21 14 22 15 23
REMARK SMILES IDX 16 24 20 25 17 26 19 27 18 29 27 30 28 31 29 32 30 33 31 35
REMARK SMILES IDX 32 36 33 37 85 38 34 39 84 40 35 41 36 42 37 43 78 44 38 45
REMARK SMILES IDX 83 46 77 47 79 48 39 49 82 50 76 51 75 52 40 54 66 55 49 56
REMARK SMILES IDX 65 57 50 58 53 59 64 60 80 61 51 62 52 63 63 65 81 66 54 67
REMARK SMILES IDX 41 68 42 69 47 70 43 71 44 72 46 73 48 74 45 75 67 76 68 77
REMARK SMILES IDX 73 78 69 79 70 80 72 81 74 82 71 83 55 84 56 85 61 86 57 87
REMARK SMILES IDX 58 88 60 89 62 90 59 91
REMARK H PARENT 25 5 20 28 29 34 79 53 53 64
REMARK Flexibility Score: inf
ROOT
ATOM      1  C   UNL A   1      33.557  29.615  26.982  1.00  0.00     0.117 C 
ENDROOT
BRANCH   1   2
ATOM      2  N   UNL A   1      33.619  29.368  25.545  1.00  0.00    -0.356 N 
ATOM      3  C   UNL A   1      32.724  28.806  24.683  1.00  0.00     0.225 C 
ATOM      4  O   UNL A   1      32.996  28.838  23.481  1.00  0.00    -0.275 OA
ATOM      5  H   UNL A   1      34.458  29.660  25.121  1.00  0.00     0.163 HD
BRANCH   3   6
ATOM      6  C   UNL A   1      31.448  28.128  25.153  1.00  0.00     0.107 C 
ATOM      7  C   UNL A   1      30.665  27.509  23.980  1.00  0.00     0.053 C 
ATOM      8  C   UNL A   1      30.126  26.192  24.534  1.00  0.00     0.128 C 
ATOM      9  N   UNL A   1      31.101  25.812  25.539  1.00  0.00    -0.341 N 
ATOM     10  C   UNL A   1      31.698  26.995  26.145  1.00  0.00     0.133 C 
BRANCH   7  11
ATOM     11  C   UNL A   1      29.600  28.375  23.354  1.00  0.00    -0.039 A 
ATOM     12  C   UNL A   1      28.931  30.365  22.124  1.00  0.00     0.119 A 
ATOM     13  C   UNL A   1      27.592  30.030  22.324  1.00  0.00     0.046 A 
ATOM     14  C   UNL A   1      29.930  29.540  22.643  1.00  0.00     0.050 A 
ATOM     15  C   UNL A   1      27.248  28.867  23.010  1.00  0.00     0.004 A 
ATOM     16  C   UNL A   1      28.248  28.042  23.521  1.00  0.00     0.004 A 
BRANCH  12  17
ATOM     17  O   UNL A   1      29.146  31.536  21.451  1.00  0.00    -0.497 OA
ATOM     18  C   UNL A   1      28.082  31.990  20.621  1.00  0.00     0.278 C 
ENDBRANCH  12  17
ENDBRANCH   7  11
BRANCH   9  19
ATOM     19  C   UNL A   1      31.415  24.548  25.967  1.00  0.00     0.233 C 
ATOM     20  O   UNL A   1      31.177  24.182  27.122  1.00  0.00    -0.274 OA
BRANCH  19  21
ATOM     21  C   UNL A   1      32.028  23.562  24.996  1.00  0.00     0.178 C 
BRANCH  21  22
ATOM     22  S   UNL A   1      33.670  24.066  24.455  1.00  0.00    -0.077 SA
BRANCH  22  23
ATOM     23  C   UNL A   1      33.455  24.943  22.985  1.00  0.00     0.184 A 
ATOM     24  N   UNL A   1      32.802  24.472  21.951  1.00  0.00    -0.206 NA
ATOM     25  N   UNL A   1      33.946  26.180  22.686  1.00  0.00    -0.254 N 
ATOM     26  C   UNL A   1      32.918  25.474  21.026  1.00  0.00     0.148 A 
ATOM     27  N   UNL A   1      33.622  26.538  21.430  1.00  0.00    -0.158 NA
ATOM     28  H   UNL A   1      34.467  26.738  23.308  1.00  0.00     0.192 HD
ATOM     29  C   UNL A   1      32.303  25.374  19.690  1.00  0.00     0.092 C 
ENDBRANCH  22  23
ENDBRANCH  21  22
ENDBRANCH  19  21
ENDBRANCH   9  19
ENDBRANCH   3   6
ENDBRANCH   1   2
BRANCH   1  30
ATOM     30  C   UNL A   1      33.521  31.094  27.370  1.00  0.00     0.042 C 
BRANCH  30  31
ATOM     31  C   UNL A   1      34.884  31.597  27.772  1.00  0.00     0.118 C 
BRANCH  31  32
ATOM     32  N   UNL A   1      34.873  32.493  28.943  1.00  0.00    -0.352 N 
ATOM     33  C   UNL A   1      35.494  32.298  30.170  1.00  0.00     0.251 C 
ATOM     34  H   UNL A   1      34.364  33.330  28.843  1.00  0.00     0.163 HD
ATOM     35  O   UNL A   1      35.188  32.962  31.162  1.00  0.00    -0.269 OA
BRANCH  33  36
ATOM     36  C   UNL A   1      36.553  31.282  30.243  1.00  0.00     0.039 A 
ATOM     37  C   UNL A   1      36.401  29.925  29.945  1.00  0.00     0.014 A 
ATOM     38  C   UNL A   1      37.805  31.804  30.484  1.00  0.00     0.014 A 
ATOM     39  C   UNL A   1      37.559  29.149  29.878  1.00  0.00     0.010 A 
ATOM     40  C   UNL A   1      38.839  31.187  29.872  1.00  0.00     0.010 A 
ATOM     41  C   UNL A   1      38.788  29.816  29.869  1.00  0.00    -0.014 A 
BRANCH  41  42
ATOM     42  C   UNL A   1      40.098  29.196  29.862  1.00  0.00     0.031 A 
ATOM     43  C   UNL A   1      40.665  28.943  31.198  1.00  0.00     0.074 A 
ATOM     44  C   UNL A   1      40.590  28.617  28.739  1.00  0.00     0.049 A 
ATOM     45  N   UNL A   1      41.660  29.545  31.751  1.00  0.00    -0.248 NA
ATOM     46  C   UNL A   1      39.946  28.021  32.092  1.00  0.00     0.031 C 
ATOM     47  C   UNL A   1      39.980  28.466  27.404  1.00  0.00     0.029 A 
ATOM     48  N   UNL A   1      41.746  27.917  28.605  1.00  0.00    -0.354 N 
ATOM     49  C   UNL A   1      41.839  28.923  32.979  1.00  0.00     0.074 A 
ATOM     50  C   UNL A   1      40.643  28.159  33.222  1.00  0.00     0.031 C 
ATOM     51  C   UNL A   1      40.653  27.534  26.692  1.00  0.00     0.029 A 
ATOM     52  C   UNL A   1      41.832  27.159  27.440  1.00  0.00     0.049 A 
ATOM     53  H   UNL A   1      42.465  27.945  29.277  1.00  0.00     0.167 HD
ATOM     54  C   UNL A   1      43.063  28.883  33.576  1.00  0.00     0.037 A 
ATOM     55  C   UNL A   1      42.804  26.249  27.175  1.00  0.00     0.037 A 
ATOM     56  C   UNL A   1      43.986  29.792  32.937  1.00  0.00     0.049 A 
ATOM     57  C   UNL A   1      43.955  26.597  28.059  1.00  0.00     0.074 A 
ATOM     58  C   UNL A   1      43.988  31.154  32.702  1.00  0.00     0.029 A 
ATOM     59  N   UNL A   1      44.889  29.265  32.042  1.00  0.00    -0.354 N 
ATOM     60  N   UNL A   1      44.627  27.715  27.948  1.00  0.00    -0.248 NA
ATOM     61  C   UNL A   1      43.993  25.977  29.378  1.00  0.00     0.031 C 
ATOM     62  C   UNL A   1      44.458  31.288  31.360  1.00  0.00     0.029 A 
ATOM     63  C   UNL A   1      44.798  30.016  30.896  1.00  0.00     0.049 A 
ATOM     64  H   UNL A   1      45.484  28.495  32.193  1.00  0.00     0.167 HD
ATOM     65  C   UNL A   1      44.826  28.150  29.254  1.00  0.00     0.074 A 
ATOM     66  C   UNL A   1      44.450  27.010  30.093  1.00  0.00     0.031 C 
ATOM     67  C   UNL A   1      44.971  29.476  29.564  1.00  0.00     0.037 A 
BRANCH  54  68
ATOM     68  C   UNL A   1      43.530  27.776  34.480  1.00  0.00     0.057 A 
ATOM     69  C   UNL A   1      43.959  28.091  35.780  1.00  0.00     0.134 A 
ATOM     70  C   UNL A   1      43.837  26.472  34.041  1.00  0.00     0.134 A 
ATOM     71  F   UNL A   1      43.736  29.306  36.301  1.00  0.00    -0.206 F 
ATOM     72  C   UNL A   1      44.700  27.196  36.558  1.00  0.00     0.040 A 
ATOM     73  C   UNL A   1      44.530  25.552  34.831  1.00  0.00     0.040 A 
ATOM     74  F   UNL A   1      43.579  26.054  32.795  1.00  0.00    -0.206 F 
ATOM     75  C   UNL A   1      44.992  25.924  36.082  1.00  0.00     0.006 A 
ENDBRANCH  54  68
BRANCH  55  76
ATOM     76  C   UNL A   1      42.615  24.926  26.533  1.00  0.00     0.057 A 
ATOM     77  C   UNL A   1      43.359  24.533  25.414  1.00  0.00     0.134 A 
ATOM     78  C   UNL A   1      41.861  23.910  27.154  1.00  0.00     0.134 A 
ATOM     79  F   UNL A   1      44.148  25.414  24.781  1.00  0.00    -0.206 F 
ATOM     80  C   UNL A   1      43.357  23.210  24.943  1.00  0.00     0.040 A 
ATOM     81  C   UNL A   1      41.845  22.590  26.692  1.00  0.00     0.040 A 
ATOM     82  F   UNL A   1      41.178  24.146  28.284  1.00  0.00    -0.206 F 
ATOM     83  C   UNL A   1      42.604  22.232  25.587  1.00  0.00     0.006 A 
ENDBRANCH  55  76
BRANCH  67  84
ATOM     84  C   UNL A   1      45.064  30.478  28.439  1.00  0.00     0.057 A 
ATOM     85  C   UNL A   1      43.974  31.220  27.955  1.00  0.00     0.134 A 
ATOM     86  C   UNL A   1      46.324  30.853  27.965  1.00  0.00     0.134 A 
ATOM     87  F   UNL A   1      42.739  31.017  28.423  1.00  0.00    -0.206 F 
ATOM     88  C   UNL A   1      44.122  32.252  27.023  1.00  0.00     0.040 A 
ATOM     89  C   UNL A   1      46.493  31.902  27.055  1.00  0.00     0.040 A 
ATOM     90  F   UNL A   1      47.427  30.242  28.426  1.00  0.00    -0.206 F 
ATOM     91  C   UNL A   1      45.389  32.600  26.573  1.00  0.00     0.006 A 
ENDBRANCH  67  84
ENDBRANCH  41  42
ENDBRANCH  33  36
ENDBRANCH  31  32
ENDBRANCH  30  31
ENDBRANCH   1  30
TORSDOF 16
ENDMDL
