MODEL 1
REMARK VINA RESULT:     -11.3      0.000      0.000
REMARK SMILES C[C@@H](O)[C@@H](NC(=O)c1csc(-c2ccsc2)n1)C(=O)NCCCNC(=O)c1ccc(-c2c3nc(c(-c4c(F)cccc4F)c4ccc([nH]4)c(-c4c(F)cccc4F)c4nc(c(-c5c(F)cccc5F)c5ccc2[nH]5)C=C4)C=C3)cc1
REMARK SMILES IDX 21 1 20 2 18 3 19 4 4 6 2 7 1 8 3 9 5 11 6 12 7 14 8 15 9 16
REMARK SMILES IDX 17 17 10 18 11 19 12 20 13 21 16 22 14 23 15 24 22 25 23 26
REMARK SMILES IDX 24 27 25 28 26 30 27 31 28 32 80 33 29 34 79 35 30 36 31 37
REMARK SMILES IDX 32 38 73 39 33 40 78 41 72 42 74 43 34 44 77 45 71 46 70 47
REMARK SMILES IDX 35 49 61 50 44 51 60 52 45 53 48 54 59 55 75 56 46 57 47 58
REMARK SMILES IDX 58 60 76 61 49 62 36 63 37 64 42 65 38 66 39 67 41 68 43 69
REMARK SMILES IDX 40 70 62 71 63 72 68 73 64 74 65 75 67 76 69 77 66 78 50 79
REMARK SMILES IDX 51 80 56 81 52 82 53 83 55 84 57 85 54 86
REMARK H PARENT 20 5 3 10 5 13 24 29 74 48 48 59
REMARK Flexibility Score: inf
ROOT
ATOM      1  C   UNL A   1      31.846  28.038  25.850  1.00  0.00     0.117 C 
ENDROOT
BRANCH   1   2
ATOM      2  N   UNL A   1      32.665  28.725  24.872  1.00  0.00    -0.354 N 
ATOM      3  C   UNL A   1      32.716  28.606  23.515  1.00  0.00     0.245 C 
ATOM      4  O   UNL A   1      33.615  29.230  22.945  1.00  0.00    -0.273 OA
ATOM      5  H   UNL A   1      33.289  29.386  25.250  1.00  0.00     0.163 HD
BRANCH   3   6
ATOM      6  C   UNL A   1      31.811  27.610  22.763  1.00  0.00     0.200 C 
BRANCH   6   7
ATOM      7  C   UNL A   1      30.519  28.432  22.425  1.00  0.00     0.143 C 
ATOM      8  C   UNL A   1      29.259  28.014  23.174  1.00  0.00     0.041 C 
BRANCH   7   9
ATOM      9  O   UNL A   1      30.722  29.815  22.732  1.00  0.00    -0.391 OA
ATOM     10  H   UNL A   1      31.562  30.112  22.347  1.00  0.00     0.211 HD
ENDBRANCH   7   9
ENDBRANCH   6   7
BRANCH   6  11
ATOM     11  N   UNL A   1      32.403  26.978  21.561  1.00  0.00    -0.337 N 
ATOM     12  C   UNL A   1      32.761  25.675  21.299  1.00  0.00     0.271 C 
ATOM     13  H   UNL A   1      32.568  27.601  20.817  1.00  0.00     0.164 HD
ATOM     14  O   UNL A   1      33.001  25.378  20.128  1.00  0.00    -0.267 OA
BRANCH  12  15
ATOM     15  C   UNL A   1      33.061  24.759  22.396  1.00  0.00     0.139 A 
ATOM     16  C   UNL A   1      32.086  23.943  22.947  1.00  0.00     0.101 A 
ATOM     17  N   UNL A   1      34.326  24.584  22.945  1.00  0.00    -0.231 NA
ATOM     18  S   UNL A   1      32.812  22.737  23.917  1.00  0.00    -0.122 S 
ATOM     19  C   UNL A   1      34.336  23.512  23.715  1.00  0.00     0.125 A 
BRANCH  19  20
ATOM     20  C   UNL A   1      35.594  23.003  24.355  1.00  0.00     0.021 A 
ATOM     21  C   UNL A   1      36.581  23.836  24.962  1.00  0.00     0.023 A 
ATOM     22  C   UNL A   1      35.941  21.670  24.416  1.00  0.00     0.076 A 
ATOM     23  C   UNL A   1      37.614  23.104  25.506  1.00  0.00     0.065 A 
ATOM     24  S   UNL A   1      37.438  21.428  25.214  1.00  0.00    -0.152 S 
ENDBRANCH  19  20
ENDBRANCH  12  15
ENDBRANCH   6  11
ENDBRANCH   3   6
ENDBRANCH   1   2
BRANCH   1  25
ATOM     25  C   UNL A   1      32.407  28.203  27.250  1.00  0.00     0.042 C 
BRANCH  25  26
ATOM     26  C   UNL A   1      33.783  28.851  27.279  1.00  0.00     0.118 C 
BRANCH  26  27
ATOM     27  N   UNL A   1      33.777  30.192  27.849  1.00  0.00    -0.352 N 
ATOM     28  C   UNL A   1      34.783  30.831  28.533  1.00  0.00     0.251 C 
ATOM     29  H   UNL A   1      32.946  30.706  27.728  1.00  0.00     0.163 HD
ATOM     30  O   UNL A   1      34.584  31.909  29.083  1.00  0.00    -0.269 OA
BRANCH  28  31
ATOM     31  C   UNL A   1      36.101  30.176  28.623  1.00  0.00     0.039 A 
ATOM     32  C   UNL A   1      36.965  30.229  27.527  1.00  0.00     0.014 A 
ATOM     33  C   UNL A   1      36.504  29.583  29.823  1.00  0.00     0.014 A 
ATOM     34  C   UNL A   1      38.270  29.756  27.664  1.00  0.00     0.010 A 
ATOM     35  C   UNL A   1      37.828  29.197  29.983  1.00  0.00     0.010 A 
ATOM     36  C   UNL A   1      38.722  29.277  28.906  1.00  0.00    -0.014 A 
BRANCH  36  37
ATOM     37  C   UNL A   1      40.127  28.843  29.104  1.00  0.00     0.031 A 
ATOM     38  C   UNL A   1      41.123  29.797  29.699  1.00  0.00     0.074 A 
ATOM     39  C   UNL A   1      40.521  27.629  28.673  1.00  0.00     0.049 A 
ATOM     40  N   UNL A   1      42.413  29.650  29.864  1.00  0.00    -0.248 NA
ATOM     41  C   UNL A   1      40.608  31.107  30.132  1.00  0.00     0.031 C 
ATOM     42  C   UNL A   1      39.661  26.637  28.023  1.00  0.00     0.029 A 
ATOM     43  N   UNL A   1      41.753  27.028  28.706  1.00  0.00    -0.354 N 
ATOM     44  C   UNL A   1      42.862  30.853  30.394  1.00  0.00     0.074 A 
ATOM     45  C   UNL A   1      41.721  31.737  30.471  1.00  0.00     0.031 C 
ATOM     46  C   UNL A   1      40.387  25.542  27.744  1.00  0.00     0.029 A 
ATOM     47  C   UNL A   1      41.767  25.767  28.163  1.00  0.00     0.049 A 
ATOM     48  H   UNL A   1      42.554  27.460  29.084  1.00  0.00     0.167 HD
ATOM     49  C   UNL A   1      44.109  31.181  30.805  1.00  0.00     0.037 A 
ATOM     50  C   UNL A   1      42.780  24.892  28.018  1.00  0.00     0.037 A 
ATOM     51  C   UNL A   1      45.233  30.285  30.767  1.00  0.00     0.049 A 
ATOM     52  C   UNL A   1      44.150  25.270  28.506  1.00  0.00     0.074 A 
ATOM     53  C   UNL A   1      46.521  30.496  31.226  1.00  0.00     0.029 A 
ATOM     54  N   UNL A   1      45.197  29.001  30.245  1.00  0.00    -0.354 N 
ATOM     55  N   UNL A   1      44.548  26.387  29.067  1.00  0.00    -0.248 NA
ATOM     56  C   UNL A   1      45.211  24.265  28.349  1.00  0.00     0.031 C 
ATOM     57  C   UNL A   1      47.273  29.349  30.953  1.00  0.00     0.029 A 
ATOM     58  C   UNL A   1      46.444  28.411  30.359  1.00  0.00     0.049 A 
ATOM     59  H   UNL A   1      44.402  28.573  29.852  1.00  0.00     0.167 HD
ATOM     60  C   UNL A   1      45.895  26.210  29.352  1.00  0.00     0.074 A 
ATOM     61  C   UNL A   1      46.244  24.875  28.914  1.00  0.00     0.031 C 
ATOM     62  C   UNL A   1      46.766  27.076  29.925  1.00  0.00     0.037 A 
BRANCH  49  63
ATOM     63  C   UNL A   1      44.313  32.567  31.343  1.00  0.00     0.057 A 
ATOM     64  C   UNL A   1      44.160  32.858  32.705  1.00  0.00     0.134 A 
ATOM     65  C   UNL A   1      44.680  33.618  30.494  1.00  0.00     0.134 A 
ATOM     66  F   UNL A   1      43.792  31.899  33.568  1.00  0.00    -0.206 F 
ATOM     67  C   UNL A   1      44.337  34.150  33.200  1.00  0.00     0.040 A 
ATOM     68  C   UNL A   1      44.887  34.909  30.981  1.00  0.00     0.040 A 
ATOM     69  F   UNL A   1      44.846  33.406  29.180  1.00  0.00    -0.206 F 
ATOM     70  C   UNL A   1      44.707  35.180  32.336  1.00  0.00     0.006 A 
ENDBRANCH  49  63
BRANCH  50  71
ATOM     71  C   UNL A   1      42.532  23.559  27.413  1.00  0.00     0.057 A 
ATOM     72  C   UNL A   1      42.197  22.461  28.212  1.00  0.00     0.134 A 
ATOM     73  C   UNL A   1      42.628  23.351  26.032  1.00  0.00     0.134 A 
ATOM     74  F   UNL A   1      42.108  22.597  29.543  1.00  0.00    -0.206 F 
ATOM     75  C   UNL A   1      41.982  21.196  27.663  1.00  0.00     0.040 A 
ATOM     76  C   UNL A   1      42.396  22.095  25.467  1.00  0.00     0.040 A 
ATOM     77  F   UNL A   1      42.937  24.366  25.213  1.00  0.00    -0.206 F 
ATOM     78  C   UNL A   1      42.078  21.012  26.285  1.00  0.00     0.006 A 
ENDBRANCH  50  71
BRANCH  62  79
ATOM     79  C   UNL A   1      48.169  26.595  30.137  1.00  0.00     0.057 A 
ATOM     80  C   UNL A   1      49.174  26.809  29.187  1.00  0.00     0.134 A 
ATOM     81  C   UNL A   1      48.524  25.944  31.326  1.00  0.00     0.134 A 
ATOM     82  F   UNL A   1      48.891  27.414  28.024  1.00  0.00    -0.206 F 
ATOM     83  C   UNL A   1      50.483  26.378  29.404  1.00  0.00     0.040 A 
ATOM     84  C   UNL A   1      49.835  25.529  31.563  1.00  0.00     0.040 A 
ATOM     85  F   UNL A   1      47.609  25.715  32.278  1.00  0.00    -0.206 F 
ATOM     86  C   UNL A   1      50.818  25.741  30.598  1.00  0.00     0.006 A 
ENDBRANCH  62  79
ENDBRANCH  36  37
ENDBRANCH  28  31
ENDBRANCH  26  27
ENDBRANCH  25  26
ENDBRANCH   1  25
TORSDOF 15
ENDMDL
MODEL 2
REMARK VINA RESULT:     -11.1      3.641      4.820
REMARK SMILES C[C@@H](O)[C@@H](NC(=O)c1csc(-c2ccsc2)n1)C(=O)NCCCNC(=O)c1ccc(-c2c3nc(c(-c4c(F)cccc4F)c4ccc([nH]4)c(-c4c(F)cccc4F)c4nc(c(-c5c(F)cccc5F)c5ccc2[nH]5)C=C4)C=C3)cc1
REMARK SMILES IDX 21 1 20 2 18 3 19 4 4 6 2 7 1 8 3 9 5 11 6 12 7 14 8 15 9 16
REMARK SMILES IDX 17 17 10 18 11 19 12 20 13 21 16 22 14 23 15 24 22 25 23 26
REMARK SMILES IDX 24 27 25 28 26 30 27 31 28 32 80 33 29 34 79 35 30 36 31 37
REMARK SMILES IDX 32 38 73 39 33 40 78 41 72 42 74 43 34 44 77 45 71 46 70 47
REMARK SMILES IDX 35 49 61 50 44 51 60 52 45 53 48 54 59 55 75 56 46 57 47 58
REMARK SMILES IDX 58 60 76 61 49 62 36 63 37 64 42 65 38 66 39 67 41 68 43 69
REMARK SMILES IDX 40 70 62 71 63 72 68 73 64 74 65 75 67 76 69 77 66 78 50 79
REMARK SMILES IDX 51 80 56 81 52 82 53 83 55 84 57 85 54 86
REMARK H PARENT 20 5 3 10 5 13 24 29 74 48 48 59
REMARK Flexibility Score: inf
ROOT
ATOM      1  C   UNL A   1      31.040  30.084  25.078  1.00  0.00     0.117 C 
ENDROOT
BRANCH   1   2
ATOM      2  N   UNL A   1      30.410  30.075  23.773  1.00  0.00    -0.354 N 
ATOM      3  C   UNL A   1      30.400  29.123  22.798  1.00  0.00     0.245 C 
ATOM      4  O   UNL A   1      29.885  29.446  21.724  1.00  0.00    -0.273 OA
ATOM      5  H   UNL A   1      29.907  30.893  23.554  1.00  0.00     0.163 HD
BRANCH   3   6
ATOM      6  C   UNL A   1      31.146  27.786  22.976  1.00  0.00     0.200 C 
BRANCH   6   7
ATOM      7  C   UNL A   1      30.025  26.761  23.368  1.00  0.00     0.143 C 
ATOM      8  C   UNL A   1      30.184  26.103  24.733  1.00  0.00     0.041 C 
BRANCH   7   9
ATOM      9  O   UNL A   1      28.750  27.411  23.387  1.00  0.00    -0.391 OA
ATOM     10  H   UNL A   1      28.867  28.358  23.217  1.00  0.00     0.211 HD
ENDBRANCH   7   9
ENDBRANCH   6   7
BRANCH   6  11
ATOM     11  N   UNL A   1      31.940  27.329  21.813  1.00  0.00    -0.337 N 
ATOM     12  C   UNL A   1      32.718  26.208  21.623  1.00  0.00     0.271 C 
ATOM     13  H   UNL A   1      31.905  27.933  21.036  1.00  0.00     0.164 HD
ATOM     14  O   UNL A   1      33.068  25.950  20.471  1.00  0.00    -0.267 OA
BRANCH  12  15
ATOM     15  C   UNL A   1      33.282  25.502  22.770  1.00  0.00     0.139 A 
ATOM     16  C   UNL A   1      33.718  26.181  23.897  1.00  0.00     0.101 A 
ATOM     17  N   UNL A   1      33.385  24.119  22.864  1.00  0.00    -0.231 NA
ATOM     18  S   UNL A   1      33.953  25.084  25.186  1.00  0.00    -0.122 S 
ATOM     19  C   UNL A   1      33.673  23.774  24.105  1.00  0.00     0.125 A 
BRANCH  19  20
ATOM     20  C   UNL A   1      33.736  22.339  24.538  1.00  0.00     0.021 A 
ATOM     21  C   UNL A   1      34.939  21.577  24.623  1.00  0.00     0.023 A 
ATOM     22  C   UNL A   1      32.631  21.593  24.891  1.00  0.00     0.076 A 
ATOM     23  C   UNL A   1      34.712  20.299  25.085  1.00  0.00     0.065 A 
ATOM     24  S   UNL A   1      33.047  19.992  25.335  1.00  0.00    -0.152 S 
ENDBRANCH  19  20
ENDBRANCH  12  15
ENDBRANCH   6  11
ENDBRANCH   3   6
ENDBRANCH   1   2
BRANCH   1  25
ATOM     25  C   UNL A   1      30.919  31.446  25.738  1.00  0.00     0.042 C 
BRANCH  25  26
ATOM     26  C   UNL A   1      32.146  31.837  26.548  1.00  0.00     0.118 C 
BRANCH  26  27
ATOM     27  N   UNL A   1      32.096  33.207  27.044  1.00  0.00    -0.352 N 
ATOM     28  C   UNL A   1      32.959  33.830  27.913  1.00  0.00     0.251 C 
ATOM     29  H   UNL A   1      31.348  33.756  26.714  1.00  0.00     0.163 HD
ATOM     30  O   UNL A   1      32.710  34.945  28.356  1.00  0.00    -0.269 OA
BRANCH  28  31
ATOM     31  C   UNL A   1      34.179  33.112  28.330  1.00  0.00     0.039 A 
ATOM     32  C   UNL A   1      35.367  33.826  28.495  1.00  0.00     0.014 A 
ATOM     33  C   UNL A   1      34.115  31.749  28.634  1.00  0.00     0.014 A 
ATOM     34  C   UNL A   1      36.477  33.184  29.046  1.00  0.00     0.010 A 
ATOM     35  C   UNL A   1      35.190  31.139  29.264  1.00  0.00     0.010 A 
ATOM     36  C   UNL A   1      36.382  31.848  29.474  1.00  0.00    -0.014 A 
BRANCH  36  37
ATOM     37  C   UNL A   1      37.519  31.165  30.136  1.00  0.00     0.031 A 
ATOM     38  C   UNL A   1      37.819  31.450  31.581  1.00  0.00     0.074 A 
ATOM     39  C   UNL A   1      38.327  30.359  29.421  1.00  0.00     0.049 A 
ATOM     40  N   UNL A   1      38.820  31.036  32.315  1.00  0.00    -0.248 NA
ATOM     41  C   UNL A   1      36.891  32.352  32.283  1.00  0.00     0.031 C 
ATOM     42  C   UNL A   1      38.176  30.052  27.996  1.00  0.00     0.029 A 
ATOM     43  N   UNL A   1      39.446  29.659  29.793  1.00  0.00    -0.354 N 
ATOM     44  C   UNL A   1      38.654  31.645  33.552  1.00  0.00     0.074 A 
ATOM     45  C   UNL A   1      37.491  32.499  33.454  1.00  0.00     0.031 C 
ATOM     46  C   UNL A   1      39.150  29.205  27.623  1.00  0.00     0.029 A 
ATOM     47  C   UNL A   1      40.011  28.937  28.770  1.00  0.00     0.049 A 
ATOM     48  H   UNL A   1      39.810  29.672  30.708  1.00  0.00     0.167 HD
ATOM     49  C   UNL A   1      39.388  31.486  34.678  1.00  0.00     0.037 A 
ATOM     50  C   UNL A   1      41.103  28.149  28.761  1.00  0.00     0.037 A 
ATOM     51  C   UNL A   1      40.517  30.603  34.785  1.00  0.00     0.049 A 
ATOM     52  C   UNL A   1      41.886  27.967  30.030  1.00  0.00     0.074 A 
ATOM     53  C   UNL A   1      41.285  30.315  35.900  1.00  0.00     0.029 A 
ATOM     54  N   UNL A   1      41.036  29.858  33.737  1.00  0.00    -0.354 N 
ATOM     55  N   UNL A   1      41.679  28.497  31.211  1.00  0.00    -0.248 NA
ATOM     56  C   UNL A   1      43.051  27.073  29.968  1.00  0.00     0.031 C 
ATOM     57  C   UNL A   1      42.288  29.418  35.517  1.00  0.00     0.029 A 
ATOM     58  C   UNL A   1      42.121  29.120  34.174  1.00  0.00     0.049 A 
ATOM     59  H   UNL A   1      40.683  29.855  32.817  1.00  0.00     0.167 HD
ATOM     60  C   UNL A   1      42.669  27.982  32.038  1.00  0.00     0.074 A 
ATOM     61  C   UNL A   1      43.469  27.089  31.227  1.00  0.00     0.031 C 
ATOM     62  C   UNL A   1      42.897  28.228  33.351  1.00  0.00     0.037 A 
BRANCH  49  63
ATOM     63  C   UNL A   1      38.977  32.278  35.884  1.00  0.00     0.057 A 
ATOM     64  C   UNL A   1      39.369  33.612  36.058  1.00  0.00     0.134 A 
ATOM     65  C   UNL A   1      38.169  31.706  36.875  1.00  0.00     0.134 A 
ATOM     66  F   UNL A   1      40.158  34.212  35.154  1.00  0.00    -0.206 F 
ATOM     67  C   UNL A   1      38.996  34.341  37.188  1.00  0.00     0.040 A 
ATOM     68  C   UNL A   1      37.768  32.433  37.996  1.00  0.00     0.040 A 
ATOM     69  F   UNL A   1      37.757  30.434  36.768  1.00  0.00    -0.206 F 
ATOM     70  C   UNL A   1      38.188  33.752  38.159  1.00  0.00     0.006 A 
ENDBRANCH  49  63
BRANCH  50  71
ATOM     71  C   UNL A   1      41.501  27.444  27.517  1.00  0.00     0.057 A 
ATOM     72  C   UNL A   1      41.097  26.126  27.278  1.00  0.00     0.134 A 
ATOM     73  C   UNL A   1      42.294  28.064  26.544  1.00  0.00     0.134 A 
ATOM     74  F   UNL A   1      40.350  25.476  28.183  1.00  0.00    -0.206 F 
ATOM     75  C   UNL A   1      41.480  25.441  26.124  1.00  0.00     0.040 A 
ATOM     76  C   UNL A   1      42.668  27.397  25.376  1.00  0.00     0.040 A 
ATOM     77  F   UNL A   1      42.706  29.329  26.710  1.00  0.00    -0.206 F 
ATOM     78  C   UNL A   1      42.265  26.079  25.167  1.00  0.00     0.006 A 
ENDBRANCH  50  71
BRANCH  62  79
ATOM     79  C   UNL A   1      44.035  27.498  33.996  1.00  0.00     0.057 A 
ATOM     80  C   UNL A   1      45.327  28.035  34.037  1.00  0.00     0.134 A 
ATOM     81  C   UNL A   1      43.824  26.261  34.618  1.00  0.00     0.134 A 
ATOM     82  F   UNL A   1      45.594  29.209  33.447  1.00  0.00    -0.206 F 
ATOM     83  C   UNL A   1      46.375  27.358  34.662  1.00  0.00     0.040 A 
ATOM     84  C   UNL A   1      44.860  25.586  35.265  1.00  0.00     0.040 A 
ATOM     85  F   UNL A   1      42.607  25.697  34.620  1.00  0.00    -0.206 F 
ATOM     86  C   UNL A   1      46.141  26.132  35.283  1.00  0.00     0.006 A 
ENDBRANCH  62  79
ENDBRANCH  36  37
ENDBRANCH  28  31
ENDBRANCH  26  27
ENDBRANCH  25  26
ENDBRANCH   1  25
TORSDOF 15
ENDMDL
MODEL 3
REMARK VINA RESULT:     -11.1      3.558      8.243
REMARK SMILES C[C@@H](O)[C@@H](NC(=O)c1csc(-c2ccsc2)n1)C(=O)NCCCNC(=O)c1ccc(-c2c3nc(c(-c4c(F)cccc4F)c4ccc([nH]4)c(-c4c(F)cccc4F)c4nc(c(-c5c(F)cccc5F)c5ccc2[nH]5)C=C4)C=C3)cc1
REMARK SMILES IDX 21 1 20 2 18 3 19 4 4 6 2 7 1 8 3 9 5 11 6 12 7 14 8 15 9 16
REMARK SMILES IDX 17 17 10 18 11 19 12 20 13 21 16 22 14 23 15 24 22 25 23 26
REMARK SMILES IDX 24 27 25 28 26 30 27 31 28 32 80 33 29 34 79 35 30 36 31 37
REMARK SMILES IDX 32 38 73 39 33 40 78 41 72 42 74 43 34 44 77 45 71 46 70 47
REMARK SMILES IDX 35 49 61 50 44 51 60 52 45 53 48 54 59 55 75 56 46 57 47 58
REMARK SMILES IDX 58 60 76 61 49 62 36 63 37 64 42 65 38 66 39 67 41 68 43 69
REMARK SMILES IDX 40 70 62 71 63 72 68 73 64 74 65 75 67 76 69 77 66 78 50 79
REMARK SMILES IDX 51 80 56 81 52 82 53 83 55 84 57 85 54 86
REMARK H PARENT 20 5 3 10 5 13 24 29 74 48 48 59
REMARK Flexibility Score: inf
ROOT
ATOM      1  C   UNL A   1      35.102  22.568  24.281  1.00  0.00     0.117 C 
ENDROOT
BRANCH   1   2
ATOM      2  N   UNL A   1      35.035  22.128  25.661  1.00  0.00    -0.354 N 
ATOM      3  C   UNL A   1      33.967  21.760  26.423  1.00  0.00     0.245 C 
ATOM      4  O   UNL A   1      34.194  21.556  27.619  1.00  0.00    -0.273 OA
ATOM      5  H   UNL A   1      35.903  22.088  26.123  1.00  0.00     0.163 HD
BRANCH   3   6
ATOM      6  C   UNL A   1      32.534  21.773  25.856  1.00  0.00     0.200 C 
BRANCH   6   7
ATOM      7  C   UNL A   1      32.308  20.315  25.327  1.00  0.00     0.143 C 
ATOM      8  C   UNL A   1      32.736  20.065  23.885  1.00  0.00     0.041 C 
BRANCH   7   9
ATOM      9  O   UNL A   1      33.044  19.383  26.126  1.00  0.00    -0.391 OA
ATOM     10  H   UNL A   1      33.481  18.737  25.549  1.00  0.00     0.211 HD
ENDBRANCH   7   9
ENDBRANCH   6   7
BRANCH   6  11
ATOM     11  N   UNL A   1      31.470  22.198  26.796  1.00  0.00    -0.337 N 
ATOM     12  C   UNL A   1      30.593  23.259  26.762  1.00  0.00     0.271 C 
ATOM     13  H   UNL A   1      31.372  21.617  27.585  1.00  0.00     0.164 HD
ATOM     14  O   UNL A   1      29.645  23.236  27.548  1.00  0.00    -0.267 OA
BRANCH  12  15
ATOM     15  C   UNL A   1      30.914  24.454  25.986  1.00  0.00     0.139 A 
ATOM     16  C   UNL A   1      30.657  24.526  24.626  1.00  0.00     0.101 A 
ATOM     17  N   UNL A   1      31.444  25.619  26.528  1.00  0.00    -0.231 NA
ATOM     18  S   UNL A   1      30.775  26.146  24.094  1.00  0.00    -0.122 S 
ATOM     19  C   UNL A   1      31.367  26.598  25.646  1.00  0.00     0.125 A 
BRANCH  19  20
ATOM     20  C   UNL A   1      31.759  28.006  25.985  1.00  0.00     0.021 A 
ATOM     21  C   UNL A   1      31.397  29.150  25.213  1.00  0.00     0.023 A 
ATOM     22  C   UNL A   1      32.527  28.349  27.078  1.00  0.00     0.076 A 
ATOM     23  C   UNL A   1      31.857  30.321  25.774  1.00  0.00     0.065 A 
ATOM     24  S   UNL A   1      32.793  30.038  27.178  1.00  0.00    -0.152 S 
ENDBRANCH  19  20
ENDBRANCH  12  15
ENDBRANCH   6  11
ENDBRANCH   3   6
ENDBRANCH   1   2
BRANCH   1  25
ATOM     25  C   UNL A   1      36.480  23.109  23.944  1.00  0.00     0.042 C 
BRANCH  25  26
ATOM     26  C   UNL A   1      37.281  23.532  25.167  1.00  0.00     0.118 C 
BRANCH  26  27
ATOM     27  N   UNL A   1      38.434  22.679  25.424  1.00  0.00    -0.352 N 
ATOM     28  C   UNL A   1      39.588  22.989  26.102  1.00  0.00     0.251 C 
ATOM     29  H   UNL A   1      38.379  21.763  25.066  1.00  0.00     0.163 HD
ATOM     30  O   UNL A   1      40.537  22.214  26.116  1.00  0.00    -0.269 OA
BRANCH  28  31
ATOM     31  C   UNL A   1      39.674  24.293  26.788  1.00  0.00     0.039 A 
ATOM     32  C   UNL A   1      39.100  24.438  28.052  1.00  0.00     0.014 A 
ATOM     33  C   UNL A   1      40.396  25.339  26.206  1.00  0.00     0.014 A 
ATOM     34  C   UNL A   1      39.320  25.613  28.770  1.00  0.00     0.010 A 
ATOM     35  C   UNL A   1      40.688  26.468  26.958  1.00  0.00     0.010 A 
ATOM     36  C   UNL A   1      40.152  26.618  28.245  1.00  0.00    -0.014 A 
BRANCH  36  37
ATOM     37  C   UNL A   1      40.471  27.842  29.019  1.00  0.00     0.031 A 
ATOM     38  C   UNL A   1      41.786  27.947  29.738  1.00  0.00     0.074 A 
ATOM     39  C   UNL A   1      39.549  28.816  29.144  1.00  0.00     0.049 A 
ATOM     40  N   UNL A   1      42.215  28.883  30.545  1.00  0.00    -0.248 NA
ATOM     41  C   UNL A   1      42.729  26.831  29.556  1.00  0.00     0.031 C 
ATOM     42  C   UNL A   1      38.212  28.803  28.545  1.00  0.00     0.029 A 
ATOM     43  N   UNL A   1      39.592  30.003  29.828  1.00  0.00    -0.354 N 
ATOM     44  C   UNL A   1      43.463  28.457  30.982  1.00  0.00     0.074 A 
ATOM     45  C   UNL A   1      43.697  27.155  30.398  1.00  0.00     0.031 C 
ATOM     46  C   UNL A   1      37.574  29.941  28.867  1.00  0.00     0.029 A 
ATOM     47  C   UNL A   1      38.442  30.746  29.720  1.00  0.00     0.049 A 
ATOM     48  H   UNL A   1      40.376  30.297  30.349  1.00  0.00     0.167 HD
ATOM     49  C   UNL A   1      44.345  29.104  31.778  1.00  0.00     0.037 A 
ATOM     50  C   UNL A   1      38.124  31.941  30.253  1.00  0.00     0.037 A 
ATOM     51  C   UNL A   1      44.128  30.417  32.322  1.00  0.00     0.049 A 
ATOM     52  C   UNL A   1      39.131  32.652  31.112  1.00  0.00     0.074 A 
ATOM     53  C   UNL A   1      44.989  31.190  33.081  1.00  0.00     0.029 A 
ATOM     54  N   UNL A   1      42.965  31.153  32.158  1.00  0.00    -0.354 N 
ATOM     55  N   UNL A   1      40.334  32.268  31.463  1.00  0.00    -0.248 NA
ATOM     56  C   UNL A   1      38.740  33.966  31.641  1.00  0.00     0.031 C 
ATOM     57  C   UNL A   1      44.333  32.384  33.401  1.00  0.00     0.029 A 
ATOM     58  C   UNL A   1      43.080  32.368  32.810  1.00  0.00     0.049 A 
ATOM     59  H   UNL A   1      42.174  30.856  31.652  1.00  0.00     0.167 HD
ATOM     60  C   UNL A   1      40.853  33.300  32.233  1.00  0.00     0.074 A 
ATOM     61  C   UNL A   1      39.840  34.333  32.287  1.00  0.00     0.031 C 
ATOM     62  C   UNL A   1      42.061  33.386  32.842  1.00  0.00     0.037 A 
BRANCH  49  63
ATOM     63  C   UNL A   1      45.633  28.400  32.092  1.00  0.00     0.057 A 
ATOM     64  C   UNL A   1      45.747  27.524  33.179  1.00  0.00     0.134 A 
ATOM     65  C   UNL A   1      46.766  28.588  31.291  1.00  0.00     0.134 A 
ATOM     66  F   UNL A   1      44.703  27.313  33.996  1.00  0.00    -0.206 F 
ATOM     67  C   UNL A   1      46.949  26.881  33.476  1.00  0.00     0.040 A 
ATOM     68  C   UNL A   1      47.966  27.930  31.561  1.00  0.00     0.040 A 
ATOM     69  F   UNL A   1      46.723  29.412  30.233  1.00  0.00    -0.206 F 
ATOM     70  C   UNL A   1      48.062  27.080  32.661  1.00  0.00     0.006 A 
ENDBRANCH  49  63
BRANCH  50  71
ATOM     71  C   UNL A   1      36.805  32.558  29.963  1.00  0.00     0.057 A 
ATOM     72  C   UNL A   1      35.696  32.295  30.774  1.00  0.00     0.134 A 
ATOM     73  C   UNL A   1      36.621  33.416  28.873  1.00  0.00     0.134 A 
ATOM     74  F   UNL A   1      35.809  31.467  31.823  1.00  0.00    -0.206 F 
ATOM     75  C   UNL A   1      34.444  32.849  30.503  1.00  0.00     0.040 A 
ATOM     76  C   UNL A   1      35.379  33.993  28.602  1.00  0.00     0.040 A 
ATOM     77  F   UNL A   1      37.647  33.714  28.063  1.00  0.00    -0.206 F 
ATOM     78  C   UNL A   1      34.284  33.705  29.416  1.00  0.00     0.006 A 
ENDBRANCH  50  71
BRANCH  62  79
ATOM     79  C   UNL A   1      42.362  34.649  33.590  1.00  0.00     0.057 A 
ATOM     80  C   UNL A   1      42.942  35.757  32.961  1.00  0.00     0.134 A 
ATOM     81  C   UNL A   1      42.029  34.769  34.945  1.00  0.00     0.134 A 
ATOM     82  F   UNL A   1      43.296  35.697  31.669  1.00  0.00    -0.206 F 
ATOM     83  C   UNL A   1      43.196  36.938  33.660  1.00  0.00     0.040 A 
ATOM     84  C   UNL A   1      42.258  35.953  35.647  1.00  0.00     0.040 A 
ATOM     85  F   UNL A   1      41.464  33.746  35.602  1.00  0.00    -0.206 F 
ATOM     86  C   UNL A   1      42.848  37.040  35.006  1.00  0.00     0.006 A 
ENDBRANCH  62  79
ENDBRANCH  36  37
ENDBRANCH  28  31
ENDBRANCH  26  27
ENDBRANCH  25  26
ENDBRANCH   1  25
TORSDOF 15
ENDMDL
