MODEL 1
REMARK VINA RESULT:     -11.3      0.000      0.000
REMARK SMILES O=C(NCCCNC(=O)[C@H](CCC(F)(F)F)Cc1ccccc1)c1ccc(-c2c3nc(c(-c4c(F)cccc4F)c4ccc([nH]4)c(-c4c(F)cccc4F)c4nc(c(-c5c(F)cccc5F)c5ccc2[nH]5)C=C4)C=C3)cc1
REMARK SMILES IDX 5 1 4 2 3 3 1 4 2 5 24 7 25 8 77 9 26 10 76 11 27 12 28 13
REMARK SMILES IDX 29 14 70 15 30 16 75 17 69 18 71 19 31 20 74 21 68 22 67 23
REMARK SMILES IDX 32 25 58 26 41 27 57 28 42 29 45 30 56 31 72 32 43 33 44 34
REMARK SMILES IDX 55 36 73 37 46 38 33 39 34 40 39 41 35 42 36 43 38 44 40 45
REMARK SMILES IDX 37 46 59 47 60 48 65 49 61 50 62 51 64 52 66 53 63 54 47 55
REMARK SMILES IDX 48 56 53 57 49 58 50 59 52 60 54 61 51 62 6 63 7 64 8 65
REMARK SMILES IDX 9 67 10 68 17 69 18 70 19 71 23 72 20 73 22 74 21 75 11 76
REMARK SMILES IDX 12 77 13 78 14 79 15 80 16 81
REMARK H PARENT 3 6 71 24 45 35 7 66
REMARK Flexibility Score: inf
ROOT
ATOM      1  C   UNL A   1      37.833  19.592  24.987  1.00  0.00     0.042 C 
ENDROOT
BRANCH   1   2
ATOM      2  C   UNL A   1      39.037  20.106  25.761  1.00  0.00     0.118 C 
BRANCH   2   3
ATOM      3  N   UNL A   1      40.107  19.121  25.853  1.00  0.00    -0.352 N 
ATOM      4  O   UNL A   1      42.220  18.343  25.891  1.00  0.00    -0.269 OA
ATOM      5  C   UNL A   1      41.457  19.293  26.040  1.00  0.00     0.251 C 
ATOM      6  H   UNL A   1      39.817  18.184  25.767  1.00  0.00     0.163 HD
BRANCH   5   7
ATOM      7  C   UNL A   1      41.995  20.623  26.396  1.00  0.00     0.039 A 
ATOM      8  C   UNL A   1      42.196  20.977  27.730  1.00  0.00     0.014 A 
ATOM      9  C   UNL A   1      42.317  21.525  25.377  1.00  0.00     0.014 A 
ATOM     10  C   UNL A   1      42.539  22.282  28.053  1.00  0.00     0.010 A 
ATOM     11  C   UNL A   1      42.770  22.807  25.703  1.00  0.00     0.010 A 
ATOM     12  C   UNL A   1      42.845  23.209  27.045  1.00  0.00    -0.014 A 
BRANCH  12  13
ATOM     13  C   UNL A   1      43.285  24.574  27.428  1.00  0.00     0.031 A 
ATOM     14  C   UNL A   1      44.726  24.987  27.313  1.00  0.00     0.074 A 
ATOM     15  C   UNL A   1      42.360  25.457  27.848  1.00  0.00     0.049 A 
ATOM     16  N   UNL A   1      45.274  26.148  27.577  1.00  0.00    -0.248 NA
ATOM     17  C   UNL A   1      45.679  23.967  26.851  1.00  0.00     0.031 C 
ATOM     18  C   UNL A   1      40.932  25.169  28.006  1.00  0.00     0.029 A 
ATOM     19  N   UNL A   1      42.471  26.779  28.194  1.00  0.00    -0.354 N 
ATOM     20  C   UNL A   1      46.633  25.991  27.341  1.00  0.00     0.074 A 
ATOM     21  C   UNL A   1      46.832  24.615  26.937  1.00  0.00     0.031 C 
ATOM     22  C   UNL A   1      40.292  26.293  28.358  1.00  0.00     0.029 A 
ATOM     23  C   UNL A   1      41.271  27.362  28.516  1.00  0.00     0.049 A 
ATOM     24  H   UNL A   1      43.329  27.262  28.211  1.00  0.00     0.167 HD
ATOM     25  C   UNL A   1      47.622  26.911  27.448  1.00  0.00     0.037 A 
ATOM     26  C   UNL A   1      40.987  28.617  28.908  1.00  0.00     0.037 A 
ATOM     27  C   UNL A   1      47.414  28.284  27.834  1.00  0.00     0.049 A 
ATOM     28  C   UNL A   1      42.103  29.609  29.038  1.00  0.00     0.074 A 
ATOM     29  C   UNL A   1      48.343  29.305  27.933  1.00  0.00     0.029 A 
ATOM     30  N   UNL A   1      46.187  28.828  28.190  1.00  0.00    -0.354 N 
ATOM     31  N   UNL A   1      43.379  29.454  28.784  1.00  0.00    -0.248 NA
ATOM     32  C   UNL A   1      41.739  30.950  29.515  1.00  0.00     0.031 C 
ATOM     33  C   UNL A   1      47.689  30.452  28.393  1.00  0.00     0.029 A 
ATOM     34  C   UNL A   1      46.341  30.162  28.532  1.00  0.00     0.049 A 
ATOM     35  H   UNL A   1      45.333  28.337  28.198  1.00  0.00     0.167 HD
ATOM     36  C   UNL A   1      43.969  30.682  29.047  1.00  0.00     0.074 A 
ATOM     37  C   UNL A   1      42.908  31.574  29.468  1.00  0.00     0.031 C 
ATOM     38  C   UNL A   1      45.274  31.037  28.948  1.00  0.00     0.037 A 
BRANCH  25  39
ATOM     39  C   UNL A   1      49.027  26.453  27.173  1.00  0.00     0.057 A 
ATOM     40  C   UNL A   1      49.572  26.457  25.882  1.00  0.00     0.134 A 
ATOM     41  C   UNL A   1      49.852  26.021  28.218  1.00  0.00     0.134 A 
ATOM     42  F   UNL A   1      48.833  26.847  24.833  1.00  0.00    -0.206 F 
ATOM     43  C   UNL A   1      50.875  26.019  25.638  1.00  0.00     0.040 A 
ATOM     44  C   UNL A   1      51.166  25.606  27.992  1.00  0.00     0.040 A 
ATOM     45  F   UNL A   1      49.397  25.999  29.480  1.00  0.00    -0.206 F 
ATOM     46  C   UNL A   1      51.678  25.596  26.696  1.00  0.00     0.006 A 
ENDBRANCH  25  39
BRANCH  26  47
ATOM     47  C   UNL A   1      39.581  28.996  29.191  1.00  0.00     0.057 A 
ATOM     48  C   UNL A   1      38.747  29.478  28.176  1.00  0.00     0.134 A 
ATOM     49  C   UNL A   1      39.030  28.856  30.471  1.00  0.00     0.134 A 
ATOM     50  F   UNL A   1      39.223  29.646  26.934  1.00  0.00    -0.206 F 
ATOM     51  C   UNL A   1      37.416  29.815  28.425  1.00  0.00     0.040 A 
ATOM     52  C   UNL A   1      37.694  29.164  30.728  1.00  0.00     0.040 A 
ATOM     53  F   UNL A   1      39.776  28.389  31.482  1.00  0.00    -0.206 F 
ATOM     54  C   UNL A   1      36.884  29.650  29.703  1.00  0.00     0.006 A 
ENDBRANCH  26  47
BRANCH  38  55
ATOM     55  C   UNL A   1      45.613  32.464  29.264  1.00  0.00     0.057 A 
ATOM     56  C   UNL A   1      45.577  33.468  28.287  1.00  0.00     0.134 A 
ATOM     57  C   UNL A   1      45.961  32.840  30.567  1.00  0.00     0.134 A 
ATOM     58  F   UNL A   1      45.268  33.169  27.017  1.00  0.00    -0.206 F 
ATOM     59  C   UNL A   1      45.901  34.791  28.591  1.00  0.00     0.040 A 
ATOM     60  C   UNL A   1      46.261  34.164  30.889  1.00  0.00     0.040 A 
ATOM     61  F   UNL A   1      46.008  31.929  31.550  1.00  0.00    -0.206 F 
ATOM     62  C   UNL A   1      46.239  35.143  29.897  1.00  0.00     0.006 A 
ENDBRANCH  38  55
ENDBRANCH  12  13
ENDBRANCH   5   7
ENDBRANCH   2   3
ENDBRANCH   1   2
BRANCH   1  63
ATOM     63  C   UNL A   1      36.835  20.680  24.624  1.00  0.00     0.117 C 
BRANCH  63  64
ATOM     64  N   UNL A   1      35.852  20.897  25.675  1.00  0.00    -0.356 N 
ATOM     65  C   UNL A   1      34.495  21.002  25.626  1.00  0.00     0.223 C 
ATOM     66  H   UNL A   1      36.234  20.983  26.578  1.00  0.00     0.163 HD
ATOM     67  O   UNL A   1      33.896  21.171  26.689  1.00  0.00    -0.275 OA
BRANCH  65  68
ATOM     68  C   UNL A   1      33.733  20.918  24.306  1.00  0.00     0.083 C 
BRANCH  68  69
ATOM     69  C   UNL A   1      32.520  19.984  24.498  1.00  0.00     0.049 C 
BRANCH  69  70
ATOM     70  C   UNL A   1      32.869  18.519  24.560  1.00  0.00    -0.047 A 
ATOM     71  C   UNL A   1      33.572  17.916  23.507  1.00  0.00     0.004 A 
ATOM     72  C   UNL A   1      32.527  17.749  25.677  1.00  0.00     0.004 A 
ATOM     73  C   UNL A   1      33.959  16.579  23.588  1.00  0.00     0.000 A 
ATOM     74  C   UNL A   1      32.909  16.409  25.754  1.00  0.00     0.000 A 
ATOM     75  C   UNL A   1      33.632  15.827  24.714  1.00  0.00     0.000 A 
ENDBRANCH  69  70
ENDBRANCH  68  69
BRANCH  68  76
ATOM     76  C   UNL A   1      33.433  22.333  23.756  1.00  0.00     0.023 C 
BRANCH  76  77
ATOM     77  C   UNL A   1      32.039  22.504  23.145  1.00  0.00     0.116 C 
BRANCH  77  78
ATOM     78  C   UNL A   1      31.139  23.475  23.879  1.00  0.00     0.389 C 
ATOM     79  F   UNL A   1      30.655  22.931  25.014  1.00  0.00    -0.171 F 
ATOM     80  F   UNL A   1      31.840  24.579  24.227  1.00  0.00    -0.171 F 
ATOM     81  F   UNL A   1      30.107  23.880  23.115  1.00  0.00    -0.171 F 
ENDBRANCH  77  78
ENDBRANCH  76  77
ENDBRANCH  68  76
ENDBRANCH  65  68
ENDBRANCH  63  64
ENDBRANCH   1  63
TORSDOF 15
ENDMDL
MODEL 2
REMARK VINA RESULT:     -11.2      1.135      2.133
REMARK SMILES O=C(NCCCNC(=O)[C@H](CCC(F)(F)F)Cc1ccccc1)c1ccc(-c2c3nc(c(-c4c(F)cccc4F)c4ccc([nH]4)c(-c4c(F)cccc4F)c4nc(c(-c5c(F)cccc5F)c5ccc2[nH]5)C=C4)C=C3)cc1
REMARK SMILES IDX 5 1 4 2 3 3 1 4 2 5 24 7 25 8 77 9 26 10 76 11 27 12 28 13
REMARK SMILES IDX 29 14 70 15 30 16 75 17 69 18 71 19 31 20 74 21 68 22 67 23
REMARK SMILES IDX 32 25 58 26 41 27 57 28 42 29 45 30 56 31 72 32 43 33 44 34
REMARK SMILES IDX 55 36 73 37 46 38 33 39 34 40 39 41 35 42 36 43 38 44 40 45
REMARK SMILES IDX 37 46 59 47 60 48 65 49 61 50 62 51 64 52 66 53 63 54 47 55
REMARK SMILES IDX 48 56 53 57 49 58 50 59 52 60 54 61 51 62 6 63 7 64 8 65
REMARK SMILES IDX 9 67 10 68 17 69 18 70 19 71 23 72 20 73 22 74 21 75 11 76
REMARK SMILES IDX 12 77 13 78 14 79 15 80 16 81
REMARK H PARENT 3 6 71 24 45 35 7 66
REMARK Flexibility Score: inf
ROOT
ATOM      1  C   UNL A   1      37.902  19.830  24.859  1.00  0.00     0.042 C 
ENDROOT
BRANCH   1   2
ATOM      2  C   UNL A   1      38.908  20.103  25.967  1.00  0.00     0.118 C 
BRANCH   2   3
ATOM      3  N   UNL A   1      40.061  19.213  25.907  1.00  0.00    -0.352 N 
ATOM      4  O   UNL A   1      42.234  18.629  25.798  1.00  0.00    -0.269 OA
ATOM      5  C   UNL A   1      41.397  19.481  26.086  1.00  0.00     0.251 C 
ATOM      6  H   UNL A   1      39.850  18.273  25.707  1.00  0.00     0.163 HD
BRANCH   5   7
ATOM      7  C   UNL A   1      41.830  20.797  26.599  1.00  0.00     0.039 A 
ATOM      8  C   UNL A   1      41.865  21.051  27.970  1.00  0.00     0.014 A 
ATOM      9  C   UNL A   1      42.221  21.789  25.694  1.00  0.00     0.014 A 
ATOM     10  C   UNL A   1      42.109  22.338  28.428  1.00  0.00     0.010 A 
ATOM     11  C   UNL A   1      42.576  23.056  26.165  1.00  0.00     0.010 A 
ATOM     12  C   UNL A   1      42.483  23.353  27.533  1.00  0.00    -0.014 A 
BRANCH  12  13
ATOM     13  C   UNL A   1      42.814  24.699  28.065  1.00  0.00     0.031 A 
ATOM     14  C   UNL A   1      44.239  25.109  28.308  1.00  0.00     0.074 A 
ATOM     15  C   UNL A   1      41.812  25.568  28.293  1.00  0.00     0.049 A 
ATOM     16  N   UNL A   1      44.704  26.255  28.741  1.00  0.00    -0.248 NA
ATOM     17  C   UNL A   1      45.279  24.104  28.041  1.00  0.00     0.031 C 
ATOM     18  C   UNL A   1      40.388  25.281  28.100  1.00  0.00     0.029 A 
ATOM     19  N   UNL A   1      41.832  26.874  28.710  1.00  0.00    -0.354 N 
ATOM     20  C   UNL A   1      46.082  26.101  28.824  1.00  0.00     0.074 A 
ATOM     21  C   UNL A   1      46.377  24.743  28.421  1.00  0.00     0.031 C 
ATOM     22  C   UNL A   1      39.678  26.392  28.338  1.00  0.00     0.029 A 
ATOM     23  C   UNL A   1      40.587  27.449  28.766  1.00  0.00     0.049 A 
ATOM     24  H   UNL A   1      42.660  27.352  28.948  1.00  0.00     0.167 HD
ATOM     25  C   UNL A   1      47.014  27.011  29.198  1.00  0.00     0.037 A 
ATOM     26  C   UNL A   1      40.213  28.688  29.133  1.00  0.00     0.037 A 
ATOM     27  C   UNL A   1      46.714  28.368  29.581  1.00  0.00     0.049 A 
ATOM     28  C   UNL A   1      41.262  29.668  29.561  1.00  0.00     0.074 A 
ATOM     29  C   UNL A   1      47.590  29.379  29.937  1.00  0.00     0.029 A 
ATOM     30  N   UNL A   1      45.435  28.903  29.662  1.00  0.00    -0.354 N 
ATOM     31  N   UNL A   1      42.563  29.518  29.607  1.00  0.00    -0.248 NA
ATOM     32  C   UNL A   1      40.790  30.990  29.995  1.00  0.00     0.031 C 
ATOM     33  C   UNL A   1      46.840  30.510  30.278  1.00  0.00     0.029 A 
ATOM     34  C   UNL A   1      45.498  30.221  30.085  1.00  0.00     0.049 A 
ATOM     35  H   UNL A   1      44.606  28.416  29.449  1.00  0.00     0.167 HD
ATOM     36  C   UNL A   1      43.070  30.731  30.052  1.00  0.00     0.074 A 
ATOM     37  C   UNL A   1      41.934  31.609  30.249  1.00  0.00     0.031 C 
ATOM     38  C   UNL A   1      44.359  31.083  30.276  1.00  0.00     0.037 A 
BRANCH  25  39
ATOM     39  C   UNL A   1      48.446  26.558  29.240  1.00  0.00     0.057 A 
ATOM     40  C   UNL A   1      48.998  25.938  30.369  1.00  0.00     0.134 A 
ATOM     41  C   UNL A   1      49.279  26.727  28.127  1.00  0.00     0.134 A 
ATOM     42  F   UNL A   1      48.260  25.756  31.474  1.00  0.00    -0.206 F 
ATOM     43  C   UNL A   1      50.333  25.530  30.399  1.00  0.00     0.040 A 
ATOM     44  C   UNL A   1      50.608  26.300  28.135  1.00  0.00     0.040 A 
ATOM     45  F   UNL A   1      48.813  27.306  27.010  1.00  0.00    -0.206 F 
ATOM     46  C   UNL A   1      51.141  25.707  29.277  1.00  0.00     0.006 A 
ENDBRANCH  25  39
BRANCH  26  47
ATOM     47  C   UNL A   1      38.778  29.062  29.094  1.00  0.00     0.057 A 
ATOM     48  C   UNL A   1      37.978  28.966  30.238  1.00  0.00     0.134 A 
ATOM     49  C   UNL A   1      38.182  29.554  27.926  1.00  0.00     0.134 A 
ATOM     50  F   UNL A   1      38.490  28.489  31.381  1.00  0.00    -0.206 F 
ATOM     51  C   UNL A   1      36.633  29.337  30.220  1.00  0.00     0.040 A 
ATOM     52  C   UNL A   1      36.846  29.953  27.901  1.00  0.00     0.040 A 
ATOM     53  F   UNL A   1      38.900  29.679  26.800  1.00  0.00    -0.206 F 
ATOM     54  C   UNL A   1      36.066  29.841  29.050  1.00  0.00     0.006 A 
ENDBRANCH  26  47
BRANCH  38  55
ATOM     55  C   UNL A   1      44.608  32.494  30.722  1.00  0.00     0.057 A 
ATOM     56  C   UNL A   1      44.686  32.840  32.077  1.00  0.00     0.134 A 
ATOM     57  C   UNL A   1      44.792  33.515  29.780  1.00  0.00     0.134 A 
ATOM     58  F   UNL A   1      44.503  31.911  33.027  1.00  0.00    -0.206 F 
ATOM     59  C   UNL A   1      44.912  34.157  32.480  1.00  0.00     0.040 A 
ATOM     60  C   UNL A   1      45.044  34.830  30.171  1.00  0.00     0.040 A 
ATOM     61  F   UNL A   1      44.736  33.249  28.467  1.00  0.00    -0.206 F 
ATOM     62  C   UNL A   1      45.097  35.155  31.525  1.00  0.00     0.006 A 
ENDBRANCH  38  55
ENDBRANCH  12  13
ENDBRANCH   5   7
ENDBRANCH   2   3
ENDBRANCH   1   2
BRANCH   1  63
ATOM     63  C   UNL A   1      36.915  20.967  24.643  1.00  0.00     0.117 C 
BRANCH  63  64
ATOM     64  N   UNL A   1      35.980  21.102  25.750  1.00  0.00    -0.356 N 
ATOM     65  C   UNL A   1      34.619  21.103  25.779  1.00  0.00     0.223 C 
ATOM     66  H   UNL A   1      36.405  21.210  26.631  1.00  0.00     0.163 HD
ATOM     67  O   UNL A   1      34.069  21.218  26.876  1.00  0.00    -0.275 OA
BRANCH  65  68
ATOM     68  C   UNL A   1      33.791  20.969  24.504  1.00  0.00     0.083 C 
BRANCH  68  69
ATOM     69  C   UNL A   1      32.615  20.010  24.780  1.00  0.00     0.049 C 
BRANCH  69  70
ATOM     70  C   UNL A   1      32.979  18.548  24.723  1.00  0.00    -0.047 A 
ATOM     71  C   UNL A   1      32.596  17.685  25.759  1.00  0.00     0.004 A 
ATOM     72  C   UNL A   1      33.672  18.027  23.625  1.00  0.00     0.004 A 
ATOM     73  C   UNL A   1      32.869  16.319  25.680  1.00  0.00     0.000 A 
ATOM     74  C   UNL A   1      33.950  16.662  23.551  1.00  0.00     0.000 A 
ATOM     75  C   UNL A   1      33.541  15.807  24.574  1.00  0.00     0.000 A 
ENDBRANCH  69  70
ENDBRANCH  68  69
BRANCH  68  76
ATOM     76  C   UNL A   1      33.426  22.362  23.939  1.00  0.00     0.023 C 
BRANCH  76  77
ATOM     77  C   UNL A   1      32.072  22.434  23.227  1.00  0.00     0.116 C 
BRANCH  77  78
ATOM     78  C   UNL A   1      31.126  23.485  23.768  1.00  0.00     0.389 C 
ATOM     79  F   UNL A   1      30.708  23.173  25.011  1.00  0.00    -0.171 F 
ATOM     80  F   UNL A   1      31.759  24.680  23.842  1.00  0.00    -0.171 F 
ATOM     81  F   UNL A   1      30.051  23.650  22.975  1.00  0.00    -0.171 F 
ENDBRANCH  77  78
ENDBRANCH  76  77
ENDBRANCH  68  76
ENDBRANCH  65  68
ENDBRANCH  63  64
ENDBRANCH   1  63
TORSDOF 15
ENDMDL
MODEL 3
REMARK VINA RESULT:     -11.1      5.889     10.479
REMARK SMILES O=C(NCCCNC(=O)[C@H](CCC(F)(F)F)Cc1ccccc1)c1ccc(-c2c3nc(c(-c4c(F)cccc4F)c4ccc([nH]4)c(-c4c(F)cccc4F)c4nc(c(-c5c(F)cccc5F)c5ccc2[nH]5)C=C4)C=C3)cc1
REMARK SMILES IDX 5 1 4 2 3 3 1 4 2 5 24 7 25 8 77 9 26 10 76 11 27 12 28 13
REMARK SMILES IDX 29 14 70 15 30 16 75 17 69 18 71 19 31 20 74 21 68 22 67 23
REMARK SMILES IDX 32 25 58 26 41 27 57 28 42 29 45 30 56 31 72 32 43 33 44 34
REMARK SMILES IDX 55 36 73 37 46 38 33 39 34 40 39 41 35 42 36 43 38 44 40 45
REMARK SMILES IDX 37 46 59 47 60 48 65 49 61 50 62 51 64 52 66 53 63 54 47 55
REMARK SMILES IDX 48 56 53 57 49 58 50 59 52 60 54 61 51 62 6 63 7 64 8 65
REMARK SMILES IDX 9 67 10 68 17 69 18 70 19 71 23 72 20 73 22 74 21 75 11 76
REMARK SMILES IDX 12 77 13 78 14 79 15 80 16 81
REMARK H PARENT 3 6 71 24 45 35 7 66
REMARK Flexibility Score: inf
ROOT
ATOM      1  C   UNL A   1      31.216  32.164  26.483  1.00  0.00     0.042 C 
ENDROOT
BRANCH   1   2
ATOM      2  C   UNL A   1      32.419  32.697  27.246  1.00  0.00     0.118 C 
BRANCH   2   3
ATOM      3  N   UNL A   1      32.268  34.096  27.626  1.00  0.00    -0.352 N 
ATOM      4  O   UNL A   1      32.529  35.952  28.875  1.00  0.00    -0.269 OA
ATOM      5  C   UNL A   1      32.941  34.837  28.567  1.00  0.00     0.251 C 
ATOM      6  H   UNL A   1      31.573  34.588  27.131  1.00  0.00     0.163 HD
BRANCH   5   7
ATOM      7  C   UNL A   1      34.144  34.287  29.226  1.00  0.00     0.039 A 
ATOM      8  C   UNL A   1      35.417  34.558  28.726  1.00  0.00     0.014 A 
ATOM      9  C   UNL A   1      33.996  33.498  30.371  1.00  0.00     0.014 A 
ATOM     10  C   UNL A   1      36.520  33.899  29.252  1.00  0.00     0.010 A 
ATOM     11  C   UNL A   1      35.121  32.924  30.968  1.00  0.00     0.010 A 
ATOM     12  C   UNL A   1      36.389  33.086  30.388  1.00  0.00    -0.014 A 
BRANCH  12  13
ATOM     13  C   UNL A   1      37.601  32.460  30.972  1.00  0.00     0.031 A 
ATOM     14  C   UNL A   1      38.176  32.944  32.273  1.00  0.00     0.074 A 
ATOM     15  C   UNL A   1      38.162  31.416  30.331  1.00  0.00     0.049 A 
ATOM     16  N   UNL A   1      39.212  32.490  32.936  1.00  0.00    -0.248 NA
ATOM     17  C   UNL A   1      37.513  34.091  32.912  1.00  0.00     0.031 C 
ATOM     18  C   UNL A   1      37.695  30.862  29.058  1.00  0.00     0.029 A 
ATOM     19  N   UNL A   1      39.225  30.620  30.670  1.00  0.00    -0.354 N 
ATOM     20  C   UNL A   1      39.340  33.309  34.050  1.00  0.00     0.074 A 
ATOM     21  C   UNL A   1      38.293  34.304  33.963  1.00  0.00     0.031 C 
ATOM     22  C   UNL A   1      38.427  29.781  28.754  1.00  0.00     0.029 A 
ATOM     23  C   UNL A   1      39.456  29.607  29.773  1.00  0.00     0.049 A 
ATOM     24  H   UNL A   1      39.770  30.762  31.478  1.00  0.00     0.167 HD
ATOM     25  C   UNL A   1      40.246  33.233  35.056  1.00  0.00     0.037 A 
ATOM     26  C   UNL A   1      40.399  28.649  29.762  1.00  0.00     0.037 A 
ATOM     27  C   UNL A   1      41.275  32.228  35.146  1.00  0.00     0.049 A 
ATOM     28  C   UNL A   1      41.401  28.600  30.875  1.00  0.00     0.074 A 
ATOM     29  C   UNL A   1      42.215  32.041  36.144  1.00  0.00     0.029 A 
ATOM     30  N   UNL A   1      41.502  31.241  34.196  1.00  0.00    -0.354 N 
ATOM     31  N   UNL A   1      41.493  29.363  31.938  1.00  0.00    -0.248 NA
ATOM     32  C   UNL A   1      42.435  27.561  30.786  1.00  0.00     0.031 C 
ATOM     33  C   UNL A   1      43.039  30.971  35.777  1.00  0.00     0.029 A 
ATOM     34  C   UNL A   1      42.581  30.458  34.574  1.00  0.00     0.049 A 
ATOM     35  H   UNL A   1      40.972  31.115  33.376  1.00  0.00     0.167 HD
ATOM     36  C   UNL A   1      42.578  28.883  32.656  1.00  0.00     0.074 A 
ATOM     37  C   UNL A   1      43.104  27.755  31.914  1.00  0.00     0.031 C 
ATOM     38  C   UNL A   1      43.092  29.338  33.826  1.00  0.00     0.037 A 
BRANCH  25  39
ATOM     39  C   UNL A   1      40.182  34.287  36.125  1.00  0.00     0.057 A 
ATOM     40  C   UNL A   1      40.902  35.485  36.034  1.00  0.00     0.134 A 
ATOM     41  C   UNL A   1      39.373  34.108  37.253  1.00  0.00     0.134 A 
ATOM     42  F   UNL A   1      41.707  35.717  34.985  1.00  0.00    -0.206 F 
ATOM     43  C   UNL A   1      40.842  36.452  37.039  1.00  0.00     0.040 A 
ATOM     44  C   UNL A   1      39.283  35.078  38.253  1.00  0.00     0.040 A 
ATOM     45  F   UNL A   1      38.650  32.987  37.402  1.00  0.00    -0.206 F 
ATOM     46  C   UNL A   1      40.027  36.252  38.152  1.00  0.00     0.006 A 
ENDBRANCH  25  39
BRANCH  26  47
ATOM     47  C   UNL A   1      40.422  27.655  28.661  1.00  0.00     0.057 A 
ATOM     48  C   UNL A   1      39.653  26.488  28.729  1.00  0.00     0.134 A 
ATOM     49  C   UNL A   1      41.184  27.862  27.504  1.00  0.00     0.134 A 
ATOM     50  F   UNL A   1      38.914  26.228  29.817  1.00  0.00    -0.206 F 
ATOM     51  C   UNL A   1      39.648  25.557  27.689  1.00  0.00     0.040 A 
ATOM     52  C   UNL A   1      41.167  26.953  26.446  1.00  0.00     0.040 A 
ATOM     53  F   UNL A   1      41.932  28.967  27.376  1.00  0.00    -0.206 F 
ATOM     54  C   UNL A   1      40.400  25.793  26.540  1.00  0.00     0.006 A 
ENDBRANCH  26  47
BRANCH  38  55
ATOM     55  C   UNL A   1      44.260  28.584  34.390  1.00  0.00     0.057 A 
ATOM     56  C   UNL A   1      44.090  27.477  35.231  1.00  0.00     0.134 A 
ATOM     57  C   UNL A   1      45.570  28.961  34.070  1.00  0.00     0.134 A 
ATOM     58  F   UNL A   1      42.861  27.076  35.588  1.00  0.00    -0.206 F 
ATOM     59  C   UNL A   1      45.184  26.787  35.756  1.00  0.00     0.040 A 
ATOM     60  C   UNL A   1      46.671  28.264  34.568  1.00  0.00     0.040 A 
ATOM     61  F   UNL A   1      45.801  30.008  33.265  1.00  0.00    -0.206 F 
ATOM     62  C   UNL A   1      46.480  27.177  35.420  1.00  0.00     0.006 A 
ENDBRANCH  38  55
ENDBRANCH  12  13
ENDBRANCH   5   7
ENDBRANCH   2   3
ENDBRANCH   1   2
BRANCH   1  63
ATOM     63  C   UNL A   1      31.417  30.759  25.938  1.00  0.00     0.117 C 
BRANCH  63  64
ATOM     64  N   UNL A   1      30.784  30.577  24.640  1.00  0.00    -0.356 N 
ATOM     65  C   UNL A   1      30.599  29.462  23.881  1.00  0.00     0.223 C 
ATOM     66  H   UNL A   1      30.428  31.404  24.241  1.00  0.00     0.163 HD
ATOM     67  O   UNL A   1      30.004  29.591  22.809  1.00  0.00    -0.275 OA
BRANCH  65  68
ATOM     68  C   UNL A   1      31.106  28.095  24.331  1.00  0.00     0.083 C 
BRANCH  68  69
ATOM     69  C   UNL A   1      30.060  27.030  23.943  1.00  0.00     0.049 C 
BRANCH  69  70
ATOM     70  C   UNL A   1      30.382  25.639  24.425  1.00  0.00    -0.047 A 
ATOM     71  C   UNL A   1      30.663  24.620  23.502  1.00  0.00     0.004 A 
ATOM     72  C   UNL A   1      30.437  25.351  25.793  1.00  0.00     0.004 A 
ATOM     73  C   UNL A   1      31.029  23.349  23.942  1.00  0.00     0.000 A 
ATOM     74  C   UNL A   1      30.797  24.076  26.231  1.00  0.00     0.000 A 
ATOM     75  C   UNL A   1      31.101  23.078  25.306  1.00  0.00     0.000 A 
ENDBRANCH  69  70
ENDBRANCH  68  69
BRANCH  68  76
ATOM     76  C   UNL A   1      32.551  27.856  23.830  1.00  0.00     0.023 C 
BRANCH  76  77
ATOM     77  C   UNL A   1      33.650  28.265  24.816  1.00  0.00     0.116 C 
BRANCH  77  78
ATOM     78  C   UNL A   1      33.650  27.497  26.120  1.00  0.00     0.389 C 
ATOM     79  F   UNL A   1      33.742  26.169  25.906  1.00  0.00    -0.171 F 
ATOM     80  F   UNL A   1      34.717  27.860  26.870  1.00  0.00    -0.171 F 
ATOM     81  F   UNL A   1      32.545  27.744  26.849  1.00  0.00    -0.171 F 
ENDBRANCH  77  78
ENDBRANCH  76  77
ENDBRANCH  68  76
ENDBRANCH  65  68
ENDBRANCH  63  64
ENDBRANCH   1  63
TORSDOF 15
ENDMDL
