MODEL 1
REMARK VINA RESULT:     -11.7      0.000      0.000
REMARK SMILES N#C/C(=C/c1cc(Br)ccc1OCC(=O)NCCCNC(=O)c1ccc(-c2c3nc(c(-c4c(F)cccc4F)c4ccc([nH]4)c(-c4c(F)cccc4F)c4nc(c(-c5c(F)cccc5F)c5ccc2[nH]5)C=C4)C=C3)cc1)c1ccc(F)cc1
REMARK SMILES IDX 17 1 16 2 14 3 15 4 13 6 12 7 11 8 5 9 6 10 7 11 10 12 8 13
REMARK SMILES IDX 9 14 4 15 3 16 2 17 1 18 77 19 78 20 83 21 79 22 82 23 80 24
REMARK SMILES IDX 81 25 18 26 19 27 20 28 21 29 22 31 23 32 24 33 76 34 25 35
REMARK SMILES IDX 75 36 26 37 27 38 28 39 69 40 29 41 74 42 68 43 70 44 30 45
REMARK SMILES IDX 73 46 67 47 66 48 31 50 57 51 40 52 56 53 41 54 44 55 55 56
REMARK SMILES IDX 71 57 42 58 43 59 54 61 72 62 45 63 32 64 33 65 38 66 34 67
REMARK SMILES IDX 35 68 37 69 39 70 36 71 58 72 59 73 64 74 60 75 61 76 63 77
REMARK SMILES IDX 65 78 62 79 46 80 47 81 52 82 48 83 49 84 51 85 53 86 50 87
REMARK H PARENT 16 5 20 30 70 49 44 60
REMARK Flexibility Score: inf
ROOT
ATOM      1  C   UNL A   1      37.139  20.941  24.625  1.00  0.00     0.117 C 
ENDROOT
BRANCH   1   2
ATOM      2  N   UNL A   1      37.776  22.218  24.861  1.00  0.00    -0.353 N 
ATOM      3  C   UNL A   1      37.332  23.249  25.632  1.00  0.00     0.257 C 
ATOM      4  O   UNL A   1      38.137  24.132  25.933  1.00  0.00    -0.271 OA
ATOM      5  H   UNL A   1      38.639  22.360  24.408  1.00  0.00     0.163 HD
BRANCH   3   6
ATOM      6  C   UNL A   1      35.877  23.292  26.120  1.00  0.00     0.329 C 
BRANCH   6   7
ATOM      7  O   UNL A   1      34.844  23.442  25.166  1.00  0.00    -0.483 OA
BRANCH   7   8
ATOM      8  C   UNL A   1      33.514  23.323  25.454  1.00  0.00     0.127 A 
ATOM      9  C   UNL A   1      32.385  23.425  24.620  1.00  0.00     0.019 A 
ATOM     10  C   UNL A   1      31.105  23.188  25.166  1.00  0.00     0.027 A 
ATOM     11  C   UNL A   1      30.942  22.947  26.529  1.00  0.00     0.018 A 
ATOM     12  C   UNL A   1      33.320  23.062  26.822  1.00  0.00     0.048 A 
ATOM     13  Br  UNL A   1      29.207  22.752  27.251  1.00  0.00    -0.051 Br
ATOM     14  C   UNL A   1      32.047  22.892  27.364  1.00  0.00     0.019 A 
BRANCH   9  15
ATOM     15  C   UNL A   1      32.453  23.872  23.222  1.00  0.00     0.032 C 
ATOM     16  C   UNL A   1      32.720  25.122  22.794  1.00  0.00     0.060 C 
BRANCH  16  17
ATOM     17  C   UNL A   1      32.885  25.372  21.304  1.00  0.00     0.100 C 
ATOM     18  N   UNL A   1      33.022  25.579  20.067  1.00  0.00    -0.192 NA
ENDBRANCH  16  17
BRANCH  16  19
ATOM     19  C   UNL A   1      32.569  26.313  23.670  1.00  0.00    -0.008 A 
ATOM     20  C   UNL A   1      33.616  26.829  24.449  1.00  0.00     0.012 A 
ATOM     21  C   UNL A   1      31.275  26.848  23.837  1.00  0.00     0.012 A 
ATOM     22  C   UNL A   1      33.358  27.803  25.421  1.00  0.00     0.040 A 
ATOM     23  C   UNL A   1      31.025  27.832  24.794  1.00  0.00     0.040 A 
ATOM     24  C   UNL A   1      32.065  28.286  25.591  1.00  0.00     0.123 A 
ATOM     25  F   UNL A   1      31.817  29.190  26.547  1.00  0.00    -0.207 F 
ENDBRANCH  16  19
ENDBRANCH   9  15
ENDBRANCH   7   8
ENDBRANCH   6   7
ENDBRANCH   3   6
ENDBRANCH   1   2
BRANCH   1  26
ATOM     26  C   UNL A   1      38.005  19.746  24.998  1.00  0.00     0.042 C 
BRANCH  26  27
ATOM     27  C   UNL A   1      39.111  20.036  26.008  1.00  0.00     0.118 C 
BRANCH  27  28
ATOM     28  N   UNL A   1      40.194  19.062  25.970  1.00  0.00    -0.352 N 
ATOM     29  C   UNL A   1      41.554  19.217  26.061  1.00  0.00     0.251 C 
ATOM     30  H   UNL A   1      39.897  18.131  25.859  1.00  0.00     0.163 HD
ATOM     31  O   UNL A   1      42.282  18.257  25.828  1.00  0.00    -0.269 OA
BRANCH  29  32
ATOM     32  C   UNL A   1      42.155  20.522  26.411  1.00  0.00     0.039 A 
ATOM     33  C   UNL A   1      42.604  21.348  25.375  1.00  0.00     0.014 A 
ATOM     34  C   UNL A   1      42.319  20.922  27.738  1.00  0.00     0.014 A 
ATOM     35  C   UNL A   1      43.146  22.601  25.669  1.00  0.00     0.010 A 
ATOM     36  C   UNL A   1      42.781  22.205  28.027  1.00  0.00     0.010 A 
ATOM     37  C   UNL A   1      43.199  23.059  26.994  1.00  0.00    -0.014 A 
BRANCH  37  38
ATOM     38  C   UNL A   1      43.671  24.430  27.314  1.00  0.00     0.031 A 
ATOM     39  C   UNL A   1      42.699  25.498  27.732  1.00  0.00     0.074 A 
ATOM     40  C   UNL A   1      44.974  24.735  27.155  1.00  0.00     0.049 A 
ATOM     41  N   UNL A   1      42.921  26.763  27.993  1.00  0.00    -0.248 NA
ATOM     42  C   UNL A   1      41.287  25.103  27.841  1.00  0.00     0.031 C 
ATOM     43  C   UNL A   1      46.008  23.805  26.694  1.00  0.00     0.029 A 
ATOM     44  N   UNL A   1      45.650  25.914  27.346  1.00  0.00    -0.354 N 
ATOM     45  C   UNL A   1      41.679  27.315  28.276  1.00  0.00     0.074 A 
ATOM     46  C   UNL A   1      40.702  26.261  28.105  1.00  0.00     0.031 C 
ATOM     47  C   UNL A   1      47.187  24.445  26.653  1.00  0.00     0.029 A 
ATOM     48  C   UNL A   1      46.988  25.836  27.046  1.00  0.00     0.049 A 
ATOM     49  H   UNL A   1      45.216  26.738  27.667  1.00  0.00     0.167 HD
ATOM     50  C   UNL A   1      41.380  28.579  28.661  1.00  0.00     0.037 A 
ATOM     51  C   UNL A   1      47.947  26.781  27.072  1.00  0.00     0.037 A 
ATOM     52  C   UNL A   1      42.359  29.618  28.851  1.00  0.00     0.049 A 
ATOM     53  C   UNL A   1      47.598  28.172  27.516  1.00  0.00     0.074 A 
ATOM     54  C   UNL A   1      42.168  30.905  29.322  1.00  0.00     0.029 A 
ATOM     55  N   UNL A   1      43.711  29.494  28.565  1.00  0.00    -0.354 N 
ATOM     56  N   UNL A   1      46.433  28.658  27.871  1.00  0.00    -0.248 NA
ATOM     57  C   UNL A   1      48.696  29.146  27.573  1.00  0.00     0.031 C 
ATOM     58  C   UNL A   1      43.395  31.578  29.267  1.00  0.00     0.029 A 
ATOM     59  C   UNL A   1      44.361  30.692  28.818  1.00  0.00     0.049 A 
ATOM     60  H   UNL A   1      44.145  28.675  28.233  1.00  0.00     0.167 HD
ATOM     61  C   UNL A   1      46.659  29.985  28.212  1.00  0.00     0.074 A 
ATOM     62  C   UNL A   1      48.078  30.223  28.039  1.00  0.00     0.031 C 
ATOM     63  C   UNL A   1      45.773  30.920  28.632  1.00  0.00     0.037 A 
BRANCH  50  64
ATOM     64  C   UNL A   1      39.932  28.909  28.890  1.00  0.00     0.057 A 
ATOM     65  C   UNL A   1      39.349  28.858  30.164  1.00  0.00     0.134 A 
ATOM     66  C   UNL A   1      39.114  29.305  27.823  1.00  0.00     0.134 A 
ATOM     67  F   UNL A   1      40.072  28.479  31.228  1.00  0.00    -0.206 F 
ATOM     68  C   UNL A   1      37.998  29.151  30.362  1.00  0.00     0.040 A 
ATOM     69  C   UNL A   1      37.770  29.630  28.014  1.00  0.00     0.040 A 
ATOM     70  F   UNL A   1      39.607  29.385  26.579  1.00  0.00    -0.206 F 
ATOM     71  C   UNL A   1      37.205  29.544  29.285  1.00  0.00     0.006 A 
ENDBRANCH  50  64
BRANCH  51  72
ATOM     72  C   UNL A   1      49.334  26.428  26.676  1.00  0.00     0.057 A 
ATOM     73  C   UNL A   1      49.795  26.651  25.373  1.00  0.00     0.134 A 
ATOM     74  C   UNL A   1      50.237  25.880  27.595  1.00  0.00     0.134 A 
ATOM     75  F   UNL A   1      48.972  27.158  24.443  1.00  0.00    -0.206 F 
ATOM     76  C   UNL A   1      51.100  26.332  24.996  1.00  0.00     0.040 A 
ATOM     77  C   UNL A   1      51.552  25.580  27.238  1.00  0.00     0.040 A 
ATOM     78  F   UNL A   1      49.859  25.652  28.861  1.00  0.00    -0.206 F 
ATOM     79  C   UNL A   1      51.986  25.801  25.932  1.00  0.00     0.006 A 
ENDBRANCH  51  72
BRANCH  63  80
ATOM     80  C   UNL A   1      46.313  32.285  28.953  1.00  0.00     0.057 A 
ATOM     81  C   UNL A   1      46.360  33.306  27.996  1.00  0.00     0.134 A 
ATOM     82  C   UNL A   1      46.757  32.589  30.247  1.00  0.00     0.134 A 
ATOM     83  F   UNL A   1      45.963  33.076  26.735  1.00  0.00    -0.206 F 
ATOM     84  C   UNL A   1      46.853  34.575  28.308  1.00  0.00     0.040 A 
ATOM     85  C   UNL A   1      47.224  33.862  30.577  1.00  0.00     0.040 A 
ATOM     86  F   UNL A   1      46.731  31.660  31.213  1.00  0.00    -0.206 F 
ATOM     87  C   UNL A   1      47.279  34.858  29.604  1.00  0.00     0.006 A 
ENDBRANCH  63  80
ENDBRANCH  37  38
ENDBRANCH  29  32
ENDBRANCH  27  28
ENDBRANCH  26  27
ENDBRANCH   1  26
TORSDOF 15
ENDMDL
MODEL 2
REMARK VINA RESULT:     -11.6      1.053      6.166
REMARK SMILES N#C/C(=C/c1cc(Br)ccc1OCC(=O)NCCCNC(=O)c1ccc(-c2c3nc(c(-c4c(F)cccc4F)c4ccc([nH]4)c(-c4c(F)cccc4F)c4nc(c(-c5c(F)cccc5F)c5ccc2[nH]5)C=C4)C=C3)cc1)c1ccc(F)cc1
REMARK SMILES IDX 17 1 16 2 14 3 15 4 13 6 12 7 11 8 5 9 6 10 7 11 10 12 8 13
REMARK SMILES IDX 9 14 4 15 3 16 2 17 1 18 77 19 78 20 83 21 79 22 82 23 80 24
REMARK SMILES IDX 81 25 18 26 19 27 20 28 21 29 22 31 23 32 24 33 76 34 25 35
REMARK SMILES IDX 75 36 26 37 27 38 28 39 69 40 29 41 74 42 68 43 70 44 30 45
REMARK SMILES IDX 73 46 67 47 66 48 31 50 57 51 40 52 56 53 41 54 44 55 55 56
REMARK SMILES IDX 71 57 42 58 43 59 54 61 72 62 45 63 32 64 33 65 38 66 34 67
REMARK SMILES IDX 35 68 37 69 39 70 36 71 58 72 59 73 64 74 60 75 61 76 63 77
REMARK SMILES IDX 65 78 62 79 46 80 47 81 52 82 48 83 49 84 51 85 53 86 50 87
REMARK H PARENT 16 5 20 30 70 49 44 60
REMARK Flexibility Score: inf
ROOT
ATOM      1  C   UNL A   1      37.181  20.922  24.549  1.00  0.00     0.117 C 
ENDROOT
BRANCH   1   2
ATOM      2  N   UNL A   1      37.784  22.218  24.774  1.00  0.00    -0.353 N 
ATOM      3  C   UNL A   1      37.319  23.239  25.544  1.00  0.00     0.257 C 
ATOM      4  O   UNL A   1      38.103  24.146  25.834  1.00  0.00    -0.271 OA
ATOM      5  H   UNL A   1      38.638  22.382  24.311  1.00  0.00     0.163 HD
BRANCH   3   6
ATOM      6  C   UNL A   1      35.869  23.244  26.047  1.00  0.00     0.329 C 
BRANCH   6   7
ATOM      7  O   UNL A   1      34.828  23.465  25.116  1.00  0.00    -0.483 OA
BRANCH   7   8
ATOM      8  C   UNL A   1      33.500  23.326  25.406  1.00  0.00     0.127 A 
ATOM      9  C   UNL A   1      32.369  23.396  24.572  1.00  0.00     0.019 A 
ATOM     10  C   UNL A   1      31.093  23.145  25.122  1.00  0.00     0.027 A 
ATOM     11  C   UNL A   1      30.935  22.921  26.489  1.00  0.00     0.018 A 
ATOM     12  C   UNL A   1      33.311  23.083  26.779  1.00  0.00     0.048 A 
ATOM     13  Br  UNL A   1      29.205  22.707  27.215  1.00  0.00    -0.051 Br
ATOM     14  C   UNL A   1      32.041  22.899  27.325  1.00  0.00     0.019 A 
BRANCH   9  15
ATOM     15  C   UNL A   1      32.429  23.821  23.167  1.00  0.00     0.032 C 
ATOM     16  C   UNL A   1      32.663  25.071  22.720  1.00  0.00     0.060 C 
BRANCH  16  17
ATOM     17  C   UNL A   1      32.825  25.301  21.226  1.00  0.00     0.100 C 
ATOM     18  N   UNL A   1      32.960  25.492  19.987  1.00  0.00    -0.192 NA
ENDBRANCH  16  17
BRANCH  16  19
ATOM     19  C   UNL A   1      32.478  26.272  23.576  1.00  0.00    -0.008 A 
ATOM     20  C   UNL A   1      33.515  26.842  24.330  1.00  0.00     0.012 A 
ATOM     21  C   UNL A   1      31.167  26.760  23.751  1.00  0.00     0.012 A 
ATOM     22  C   UNL A   1      33.232  27.823  25.289  1.00  0.00     0.040 A 
ATOM     23  C   UNL A   1      30.892  27.751  24.694  1.00  0.00     0.040 A 
ATOM     24  C   UNL A   1      31.924  28.259  25.468  1.00  0.00     0.123 A 
ATOM     25  F   UNL A   1      31.653  29.170  26.411  1.00  0.00    -0.207 F 
ENDBRANCH  16  19
ENDBRANCH   9  15
ENDBRANCH   7   8
ENDBRANCH   6   7
ENDBRANCH   3   6
ENDBRANCH   1   2
BRANCH   1  26
ATOM     26  C   UNL A   1      38.072  19.754  24.944  1.00  0.00     0.042 C 
BRANCH  26  27
ATOM     27  C   UNL A   1      39.117  20.067  26.011  1.00  0.00     0.118 C 
BRANCH  27  28
ATOM     28  N   UNL A   1      40.294  19.212  25.931  1.00  0.00    -0.352 N 
ATOM     29  C   UNL A   1      41.630  19.496  26.061  1.00  0.00     0.251 C 
ATOM     30  H   UNL A   1      40.095  18.265  25.752  1.00  0.00     0.163 HD
ATOM     31  O   UNL A   1      42.455  18.633  25.779  1.00  0.00    -0.269 OA
BRANCH  29  32
ATOM     32  C   UNL A   1      42.090  20.829  26.508  1.00  0.00     0.039 A 
ATOM     33  C   UNL A   1      42.480  21.760  25.539  1.00  0.00     0.014 A 
ATOM     34  C   UNL A   1      42.180  21.157  27.862  1.00  0.00     0.014 A 
ATOM     35  C   UNL A   1      42.887  23.038  25.926  1.00  0.00     0.010 A 
ATOM     36  C   UNL A   1      42.506  22.458  28.242  1.00  0.00     0.010 A 
ATOM     37  C   UNL A   1      42.862  23.412  27.278  1.00  0.00    -0.014 A 
BRANCH  37  38
ATOM     38  C   UNL A   1      43.188  24.800  27.696  1.00  0.00     0.031 A 
ATOM     39  C   UNL A   1      44.617  25.236  27.862  1.00  0.00     0.074 A 
ATOM     40  C   UNL A   1      42.188  25.650  28.002  1.00  0.00     0.049 A 
ATOM     41  N   UNL A   1      45.089  26.387  28.274  1.00  0.00    -0.248 NA
ATOM     42  C   UNL A   1      45.654  24.240  27.553  1.00  0.00     0.031 C 
ATOM     43  C   UNL A   1      40.760  25.329  27.945  1.00  0.00     0.029 A 
ATOM     44  N   UNL A   1      42.218  26.951  28.437  1.00  0.00    -0.354 N 
ATOM     45  C   UNL A   1      46.470  26.245  28.293  1.00  0.00     0.074 A 
ATOM     46  C   UNL A   1      46.758  24.883  27.900  1.00  0.00     0.031 C 
ATOM     47  C   UNL A   1      40.052  26.408  28.314  1.00  0.00     0.029 A 
ATOM     48  C   UNL A   1      40.973  27.482  28.671  1.00  0.00     0.049 A 
ATOM     49  H   UNL A   1      43.053  27.457  28.568  1.00  0.00     0.167 HD
ATOM     50  C   UNL A   1      47.413  27.170  28.592  1.00  0.00     0.037 A 
ATOM     51  C   UNL A   1      40.611  28.693  29.134  1.00  0.00     0.037 A 
ATOM     52  C   UNL A   1      47.121  28.531  28.962  1.00  0.00     0.049 A 
ATOM     53  C   UNL A   1      41.672  29.709  29.447  1.00  0.00     0.074 A 
ATOM     54  C   UNL A   1      48.007  29.568  29.199  1.00  0.00     0.029 A 
ATOM     55  N   UNL A   1      45.847  29.042  29.161  1.00  0.00    -0.354 N 
ATOM     56  N   UNL A   1      42.976  29.592  29.370  1.00  0.00    -0.248 NA
ATOM     57  C   UNL A   1      41.214  31.030  29.899  1.00  0.00     0.031 C 
ATOM     58  C   UNL A   1      47.270  30.690  29.599  1.00  0.00     0.029 A 
ATOM     59  C   UNL A   1      45.924  30.370  29.552  1.00  0.00     0.049 A 
ATOM     60  H   UNL A   1      45.011  28.536  29.042  1.00  0.00     0.167 HD
ATOM     61  C   UNL A   1      43.493  30.825  29.745  1.00  0.00     0.074 A 
ATOM     62  C   UNL A   1      42.361  31.682  30.031  1.00  0.00     0.031 C 
ATOM     63  C   UNL A   1      44.789  31.211  29.842  1.00  0.00     0.037 A 
BRANCH  50  64
ATOM     64  C   UNL A   1      48.851  26.735  28.545  1.00  0.00     0.057 A 
ATOM     65  C   UNL A   1      49.516  26.236  29.673  1.00  0.00     0.134 A 
ATOM     66  C   UNL A   1      49.574  26.794  27.346  1.00  0.00     0.134 A 
ATOM     67  F   UNL A   1      48.886  26.160  30.855  1.00  0.00    -0.206 F 
ATOM     68  C   UNL A   1      50.856  25.850  29.621  1.00  0.00     0.040 A 
ATOM     69  C   UNL A   1      50.906  26.382  27.275  1.00  0.00     0.040 A 
ATOM     70  F   UNL A   1      48.999  27.252  26.224  1.00  0.00    -0.206 F 
ATOM     71  C   UNL A   1      51.555  25.918  28.417  1.00  0.00     0.006 A 
ENDBRANCH  50  64
BRANCH  51  72
ATOM     72  C   UNL A   1      39.171  29.008  29.315  1.00  0.00     0.057 A 
ATOM     73  C   UNL A   1      38.401  29.515  28.262  1.00  0.00     0.134 A 
ATOM     74  C   UNL A   1      38.526  28.787  30.538  1.00  0.00     0.134 A 
ATOM     75  F   UNL A   1      38.967  29.763  27.071  1.00  0.00    -0.206 F 
ATOM     76  C   UNL A   1      37.045  29.804  28.421  1.00  0.00     0.040 A 
ATOM     77  C   UNL A   1      37.165  29.048  30.704  1.00  0.00     0.040 A 
ATOM     78  F   UNL A   1      39.205  28.293  31.583  1.00  0.00    -0.206 F 
ATOM     79  C   UNL A   1      36.421  29.562  29.644  1.00  0.00     0.006 A 
ENDBRANCH  51  72
BRANCH  63  80
ATOM     80  C   UNL A   1      45.054  32.631  30.257  1.00  0.00     0.057 A 
ATOM     81  C   UNL A   1      45.260  32.985  31.596  1.00  0.00     0.134 A 
ATOM     82  C   UNL A   1      45.139  33.649  29.299  1.00  0.00     0.134 A 
ATOM     83  F   UNL A   1      45.178  32.060  32.565  1.00  0.00    -0.206 F 
ATOM     84  C   UNL A   1      45.518  34.305  31.970  1.00  0.00     0.040 A 
ATOM     85  C   UNL A   1      45.425  34.967  29.657  1.00  0.00     0.040 A 
ATOM     86  F   UNL A   1      44.960  33.377  27.998  1.00  0.00    -0.206 F 
ATOM     87  C   UNL A   1      45.609  35.299  30.998  1.00  0.00     0.006 A 
ENDBRANCH  63  80
ENDBRANCH  37  38
ENDBRANCH  29  32
ENDBRANCH  27  28
ENDBRANCH  26  27
ENDBRANCH   1  26
TORSDOF 15
ENDMDL
MODEL 3
REMARK VINA RESULT:     -11.5      3.803      8.038
REMARK SMILES N#C/C(=C/c1cc(Br)ccc1OCC(=O)NCCCNC(=O)c1ccc(-c2c3nc(c(-c4c(F)cccc4F)c4ccc([nH]4)c(-c4c(F)cccc4F)c4nc(c(-c5c(F)cccc5F)c5ccc2[nH]5)C=C4)C=C3)cc1)c1ccc(F)cc1
REMARK SMILES IDX 17 1 16 2 14 3 15 4 13 6 12 7 11 8 5 9 6 10 7 11 10 12 8 13
REMARK SMILES IDX 9 14 4 15 3 16 2 17 1 18 77 19 78 20 83 21 79 22 82 23 80 24
REMARK SMILES IDX 81 25 18 26 19 27 20 28 21 29 22 31 23 32 24 33 76 34 25 35
REMARK SMILES IDX 75 36 26 37 27 38 28 39 69 40 29 41 74 42 68 43 70 44 30 45
REMARK SMILES IDX 73 46 67 47 66 48 31 50 57 51 40 52 56 53 41 54 44 55 55 56
REMARK SMILES IDX 71 57 42 58 43 59 54 61 72 62 45 63 32 64 33 65 38 66 34 67
REMARK SMILES IDX 35 68 37 69 39 70 36 71 58 72 59 73 64 74 60 75 61 76 63 77
REMARK SMILES IDX 65 78 62 79 46 80 47 81 52 82 48 83 49 84 51 85 53 86 50 87
REMARK H PARENT 16 5 20 30 70 49 44 60
REMARK Flexibility Score: inf
ROOT
ATOM      1  C   UNL A   1      34.448  24.099  25.805  1.00  0.00     0.117 C 
ENDROOT
BRANCH   1   2
ATOM      2  N   UNL A   1      33.370  23.262  25.326  1.00  0.00    -0.353 N 
ATOM      3  C   UNL A   1      32.035  23.396  25.558  1.00  0.00     0.257 C 
ATOM      4  O   UNL A   1      31.258  22.759  24.843  1.00  0.00    -0.271 OA
ATOM      5  H   UNL A   1      33.634  22.498  24.763  1.00  0.00     0.163 HD
BRANCH   3   6
ATOM      6  C   UNL A   1      31.521  24.328  26.665  1.00  0.00     0.329 C 
BRANCH   6   7
ATOM      7  O   UNL A   1      30.996  25.589  26.302  1.00  0.00    -0.483 OA
BRANCH   7   8
ATOM      8  C   UNL A   1      31.719  26.748  26.303  1.00  0.00     0.127 A 
ATOM      9  C   UNL A   1      32.480  27.353  25.285  1.00  0.00     0.019 A 
ATOM     10  C   UNL A   1      33.082  28.606  25.531  1.00  0.00     0.027 A 
ATOM     11  C   UNL A   1      33.009  29.200  26.790  1.00  0.00     0.018 A 
ATOM     12  C   UNL A   1      31.649  27.380  27.558  1.00  0.00     0.048 A 
ATOM     13  Br  UNL A   1      33.926  30.817  27.124  1.00  0.00    -0.051 Br
ATOM     14  C   UNL A   1      32.301  28.585  27.811  1.00  0.00     0.019 A 
BRANCH   9  15
ATOM     15  C   UNL A   1      32.772  26.701  24.002  1.00  0.00     0.032 C 
ATOM     16  C   UNL A   1      32.128  26.906  22.835  1.00  0.00     0.060 C 
BRANCH  16  17
ATOM     17  C   UNL A   1      32.658  26.242  21.575  1.00  0.00     0.100 C 
ATOM     18  N   UNL A   1      33.097  25.692  20.529  1.00  0.00    -0.192 NA
ENDBRANCH  16  17
BRANCH  16  19
ATOM     19  C   UNL A   1      30.768  27.502  22.770  1.00  0.00    -0.008 A 
ATOM     20  C   UNL A   1      30.527  28.813  22.334  1.00  0.00     0.012 A 
ATOM     21  C   UNL A   1      29.699  26.763  23.317  1.00  0.00     0.012 A 
ATOM     22  C   UNL A   1      29.265  29.394  22.510  1.00  0.00     0.040 A 
ATOM     23  C   UNL A   1      28.438  27.339  23.474  1.00  0.00     0.040 A 
ATOM     24  C   UNL A   1      28.238  28.656  23.087  1.00  0.00     0.123 A 
ATOM     25  F   UNL A   1      27.043  29.227  23.287  1.00  0.00    -0.207 F 
ENDBRANCH  16  19
ENDBRANCH   9  15
ENDBRANCH   7   8
ENDBRANCH   6   7
ENDBRANCH   3   6
ENDBRANCH   1   2
BRANCH   1  26
ATOM     26  C   UNL A   1      35.715  23.330  26.149  1.00  0.00     0.042 C 
BRANCH  26  27
ATOM     27  C   UNL A   1      36.928  23.657  25.283  1.00  0.00     0.118 C 
BRANCH  27  28
ATOM     28  N   UNL A   1      38.072  22.796  25.548  1.00  0.00    -0.352 N 
ATOM     29  C   UNL A   1      39.274  23.051  26.159  1.00  0.00     0.251 C 
ATOM     30  H   UNL A   1      37.964  21.870  25.234  1.00  0.00     0.163 HD
ATOM     31  O   UNL A   1      40.160  22.203  26.113  1.00  0.00    -0.269 OA
BRANCH  29  32
ATOM     32  C   UNL A   1      39.527  24.335  26.847  1.00  0.00     0.039 A 
ATOM     33  C   UNL A   1      39.048  24.499  28.151  1.00  0.00     0.014 A 
ATOM     34  C   UNL A   1      40.190  25.388  26.214  1.00  0.00     0.014 A 
ATOM     35  C   UNL A   1      39.298  25.687  28.841  1.00  0.00     0.010 A 
ATOM     36  C   UNL A   1      40.513  26.539  26.932  1.00  0.00     0.010 A 
ATOM     37  C   UNL A   1      40.071  26.700  28.253  1.00  0.00    -0.014 A 
BRANCH  37  38
ATOM     38  C   UNL A   1      40.439  27.923  29.012  1.00  0.00     0.031 A 
ATOM     39  C   UNL A   1      41.769  28.025  29.704  1.00  0.00     0.074 A 
ATOM     40  C   UNL A   1      39.537  28.916  29.142  1.00  0.00     0.049 A 
ATOM     41  N   UNL A   1      42.238  28.988  30.458  1.00  0.00    -0.248 NA
ATOM     42  C   UNL A   1      42.683  26.883  29.554  1.00  0.00     0.031 C 
ATOM     43  C   UNL A   1      38.188  28.911  28.573  1.00  0.00     0.029 A 
ATOM     44  N   UNL A   1      39.613  30.115  29.806  1.00  0.00    -0.354 N 
ATOM     45  C   UNL A   1      43.487  28.560  30.888  1.00  0.00     0.074 A 
ATOM     46  C   UNL A   1      43.682  27.230  30.352  1.00  0.00     0.031 C 
ATOM     47  C   UNL A   1      37.569  30.057  28.900  1.00  0.00     0.029 A 
ATOM     48  C   UNL A   1      38.460  30.859  29.731  1.00  0.00     0.049 A 
ATOM     49  H   UNL A   1      40.416  30.413  30.291  1.00  0.00     0.167 HD
ATOM     50  C   UNL A   1      44.397  29.221  31.643  1.00  0.00     0.037 A 
ATOM     51  C   UNL A   1      38.150  32.049  30.279  1.00  0.00     0.037 A 
ATOM     52  C   UNL A   1      44.206  30.553  32.156  1.00  0.00     0.049 A 
ATOM     53  C   UNL A   1      39.178  32.771  31.102  1.00  0.00     0.074 A 
ATOM     54  C   UNL A   1      45.101  31.342  32.857  1.00  0.00     0.029 A 
ATOM     55  N   UNL A   1      43.036  31.288  32.034  1.00  0.00    -0.354 N 
ATOM     56  N   UNL A   1      40.392  32.395  31.423  1.00  0.00    -0.248 NA
ATOM     57  C   UNL A   1      38.799  34.088  31.631  1.00  0.00     0.031 C 
ATOM     58  C   UNL A   1      44.452  32.531  33.211  1.00  0.00     0.029 A 
ATOM     59  C   UNL A   1      43.174  32.509  32.678  1.00  0.00     0.049 A 
ATOM     60  H   UNL A   1      42.227  30.988  31.561  1.00  0.00     0.167 HD
ATOM     61  C   UNL A   1      40.929  33.433  32.173  1.00  0.00     0.074 A 
ATOM     62  C   UNL A   1      39.913  34.464  32.243  1.00  0.00     0.031 C 
ATOM     63  C   UNL A   1      42.152  33.524  32.749  1.00  0.00     0.037 A 
BRANCH  50  64
ATOM     64  C   UNL A   1      45.676  28.504  31.972  1.00  0.00     0.057 A 
ATOM     65  C   UNL A   1      46.803  28.573  31.141  1.00  0.00     0.134 A 
ATOM     66  C   UNL A   1      45.789  27.750  33.148  1.00  0.00     0.134 A 
ATOM     67  F   UNL A   1      46.762  29.270  29.995  1.00  0.00    -0.206 F 
ATOM     68  C   UNL A   1      47.981  27.889  31.448  1.00  0.00     0.040 A 
ATOM     69  C   UNL A   1      46.971  27.087  33.480  1.00  0.00     0.040 A 
ATOM     70  F   UNL A   1      44.754  27.647  33.994  1.00  0.00    -0.206 F 
ATOM     71  C   UNL A   1      48.069  27.146  32.624  1.00  0.00     0.006 A 
ENDBRANCH  50  64
BRANCH  51  72
ATOM     72  C   UNL A   1      36.803  32.632  30.050  1.00  0.00     0.057 A 
ATOM     73  C   UNL A   1      35.732  32.339  30.902  1.00  0.00     0.134 A 
ATOM     74  C   UNL A   1      36.562  33.512  28.988  1.00  0.00     0.134 A 
ATOM     75  F   UNL A   1      35.897  31.490  31.927  1.00  0.00    -0.206 F 
ATOM     76  C   UNL A   1      34.466  32.891  30.699  1.00  0.00     0.040 A 
ATOM     77  C   UNL A   1      35.308  34.091  28.789  1.00  0.00     0.040 A 
ATOM     78  F   UNL A   1      37.550  33.840  28.143  1.00  0.00    -0.206 F 
ATOM     79  C   UNL A   1      34.253  33.777  29.644  1.00  0.00     0.006 A 
ENDBRANCH  51  72
BRANCH  63  80
ATOM     80  C   UNL A   1      42.470  34.791  33.492  1.00  0.00     0.057 A 
ATOM     81  C   UNL A   1      43.062  35.891  32.859  1.00  0.00     0.134 A 
ATOM     82  C   UNL A   1      42.146  34.922  34.848  1.00  0.00     0.134 A 
ATOM     83  F   UNL A   1      43.410  35.826  31.565  1.00  0.00    -0.206 F 
ATOM     84  C   UNL A   1      43.342  37.068  33.555  1.00  0.00     0.040 A 
ATOM     85  C   UNL A   1      42.395  36.103  35.547  1.00  0.00     0.040 A 
ATOM     86  F   UNL A   1      41.570  33.909  35.512  1.00  0.00    -0.206 F 
ATOM     87  C   UNL A   1      43.002  37.179  34.902  1.00  0.00     0.006 A 
ENDBRANCH  63  80
ENDBRANCH  37  38
ENDBRANCH  29  32
ENDBRANCH  27  28
ENDBRANCH  26  27
ENDBRANCH   1  26
TORSDOF 15
ENDMDL
