MODEL 1
REMARK VINA RESULT:     -11.8      0.000      0.000
REMARK SMILES CC1(C)[C@H](C(=O)Nc2ccccc2C(N)=O)[C@@H]1C(=O)NCCCNC(=O)c1ccc(-c2c3nc(c(-c4c(F)cccc4F)c4ccc([nH]4)c(-c4c(F)cccc4F)c4nc(c(-c5c(F)cccc5F)c5ccc2[nH]5)C=C4)C=C3)cc1
REMARK SMILES IDX 21 1 20 2 18 3 19 4 17 6 1 7 2 8 3 9 4 10 5 11 6 12 7 13
REMARK SMILES IDX 8 15 9 16 13 17 10 18 12 19 11 20 14 21 15 22 16 23 22 26
REMARK SMILES IDX 23 27 24 28 25 29 26 31 27 32 28 33 80 34 29 35 79 36 30 37
REMARK SMILES IDX 31 38 32 39 73 40 33 41 78 42 72 43 74 44 34 45 77 46 71 47
REMARK SMILES IDX 70 48 35 50 61 51 44 52 60 53 45 54 48 55 59 56 75 57 46 58
REMARK SMILES IDX 47 59 58 61 76 62 49 63 36 64 37 65 42 66 38 67 39 68 41 69
REMARK SMILES IDX 43 70 40 71 62 72 63 73 68 74 64 75 65 76 67 77 69 78 66 79
REMARK SMILES IDX 50 80 51 81 56 82 52 83 53 84 55 85 57 86 54 87
REMARK H PARENT 20 5 7 14 15 24 15 25 24 30 74 49 48 60
REMARK Flexibility Score: inf
ROOT
ATOM      1  C   UNL A   1      36.012  20.734  25.292  1.00  0.00     0.117 C 
ENDROOT
BRANCH   1   2
ATOM      2  N   UNL A   1      35.644  21.694  26.306  1.00  0.00    -0.356 N 
ATOM      3  C   UNL A   1      34.447  22.312  26.493  1.00  0.00     0.224 C 
ATOM      4  O   UNL A   1      34.402  23.289  27.231  1.00  0.00    -0.275 OA
ATOM      5  H   UNL A   1      36.353  21.933  26.946  1.00  0.00     0.163 HD
BRANCH   3   6
ATOM      6  C   UNL A   1      33.228  21.834  25.779  1.00  0.00     0.098 C 
ATOM      7  C   UNL A   1      32.360  21.577  23.311  1.00  0.00     0.013 C 
ATOM      8  C   UNL A   1      32.902  22.474  24.417  1.00  0.00    -0.011 C 
ATOM      9  C   UNL A   1      33.929  23.431  23.878  1.00  0.00     0.013 C 
ATOM     10  C   UNL A   1      31.938  22.618  25.577  1.00  0.00     0.098 C 
BRANCH  10  11
ATOM     11  C   UNL A   1      31.455  23.576  26.605  1.00  0.00     0.228 C 
ATOM     12  O   UNL A   1      30.904  23.071  27.590  1.00  0.00    -0.274 OA
ATOM     13  N   UNL A   1      31.696  24.916  26.692  1.00  0.00    -0.325 N 
ATOM     14  H   UNL A   1      31.503  25.300  27.578  1.00  0.00     0.169 HD
BRANCH  13  15
ATOM     15  C   UNL A   1      32.162  25.840  25.768  1.00  0.00     0.053 A 
ATOM     16  C   UNL A   1      33.344  26.501  26.132  1.00  0.00     0.027 A 
ATOM     17  C   UNL A   1      31.518  26.147  24.562  1.00  0.00     0.063 A 
ATOM     18  C   UNL A   1      33.980  27.343  25.227  1.00  0.00     0.002 A 
ATOM     19  C   UNL A   1      32.161  27.012  23.663  1.00  0.00     0.016 A 
ATOM     20  C   UNL A   1      33.404  27.575  23.982  1.00  0.00     0.001 A 
BRANCH  17  21
ATOM     21  C   UNL A   1      30.140  25.646  24.286  1.00  0.00     0.250 C 
ATOM     22  N   UNL A   1      29.995  24.644  23.367  1.00  0.00    -0.366 N 
ATOM     23  O   UNL A   1      29.151  26.096  24.849  1.00  0.00    -0.269 OA
ATOM     24  H   UNL A   1      30.785  24.278  22.910  1.00  0.00     0.159 HD
ATOM     25  H   UNL A   1      29.099  24.291  23.163  1.00  0.00     0.159 HD
ENDBRANCH  17  21
ENDBRANCH  13  15
ENDBRANCH  10  11
ENDBRANCH   3   6
ENDBRANCH   1   2
BRANCH   1  26
ATOM     26  C   UNL A   1      37.344  21.069  24.660  1.00  0.00     0.042 C 
BRANCH  26  27
ATOM     27  C   UNL A   1      38.480  21.153  25.665  1.00  0.00     0.118 C 
BRANCH  27  28
ATOM     28  N   UNL A   1      39.374  19.999  25.639  1.00  0.00    -0.352 N 
ATOM     29  C   UNL A   1      40.706  19.906  25.970  1.00  0.00     0.251 C 
ATOM     30  H   UNL A   1      38.960  19.158  25.337  1.00  0.00     0.163 HD
ATOM     31  O   UNL A   1      41.330  18.875  25.745  1.00  0.00    -0.269 OA
BRANCH  29  32
ATOM     32  C   UNL A   1      41.383  21.075  26.564  1.00  0.00     0.039 A 
ATOM     33  C   UNL A   1      41.952  22.036  25.728  1.00  0.00     0.014 A 
ATOM     34  C   UNL A   1      41.384  21.253  27.947  1.00  0.00     0.014 A 
ATOM     35  C   UNL A   1      42.431  23.225  26.281  1.00  0.00     0.010 A 
ATOM     36  C   UNL A   1      41.722  22.490  28.475  1.00  0.00     0.010 A 
ATOM     37  C   UNL A   1      42.263  23.485  27.651  1.00  0.00    -0.014 A 
BRANCH  37  38
ATOM     38  C   UNL A   1      42.650  24.787  28.251  1.00  0.00     0.031 A 
ATOM     39  C   UNL A   1      41.612  25.851  28.473  1.00  0.00     0.074 A 
ATOM     40  C   UNL A   1      43.948  25.041  28.515  1.00  0.00     0.049 A 
ATOM     41  N   UNL A   1      41.760  27.071  28.922  1.00  0.00    -0.248 NA
ATOM     42  C   UNL A   1      40.228  25.518  28.098  1.00  0.00     0.031 C 
ATOM     43  C   UNL A   1      45.061  24.121  28.268  1.00  0.00     0.029 A 
ATOM     44  N   UNL A   1      44.550  26.156  29.041  1.00  0.00    -0.354 N 
ATOM     45  C   UNL A   1      40.498  27.650  28.859  1.00  0.00     0.074 A 
ATOM     46  C   UNL A   1      39.614  26.678  28.259  1.00  0.00     0.031 C 
ATOM     47  C   UNL A   1      46.203  24.695  28.676  1.00  0.00     0.029 A 
ATOM     48  C   UNL A   1      45.912  26.036  29.171  1.00  0.00     0.049 A 
ATOM     49  H   UNL A   1      44.053  26.965  29.301  1.00  0.00     0.167 HD
ATOM     50  C   UNL A   1      40.104  28.871  29.292  1.00  0.00     0.037 A 
ATOM     51  C   UNL A   1      46.825  26.911  29.634  1.00  0.00     0.037 A 
ATOM     52  C   UNL A   1      40.984  29.822  29.915  1.00  0.00     0.049 A 
ATOM     53  C   UNL A   1      46.366  28.253  30.126  1.00  0.00     0.074 A 
ATOM     54  C   UNL A   1      40.673  31.051  30.469  1.00  0.00     0.029 A 
ATOM     55  N   UNL A   1      42.355  29.653  30.056  1.00  0.00    -0.354 N 
ATOM     56  N   UNL A   1      45.153  28.753  30.152  1.00  0.00    -0.248 NA
ATOM     57  C   UNL A   1      47.398  29.150  30.662  1.00  0.00     0.031 C 
ATOM     58  C   UNL A   1      41.864  31.652  30.889  1.00  0.00     0.029 A 
ATOM     59  C   UNL A   1      42.909  30.772  30.657  1.00  0.00     0.049 A 
ATOM     60  H   UNL A   1      42.858  28.856  29.773  1.00  0.00     0.167 HD
ATOM     61  C   UNL A   1      45.272  30.012  30.725  1.00  0.00     0.074 A 
ATOM     62  C   UNL A   1      46.674  30.192  31.047  1.00  0.00     0.031 C 
ATOM     63  C   UNL A   1      44.309  30.938  30.963  1.00  0.00     0.037 A 
BRANCH  50  64
ATOM     64  C   UNL A   1      38.659  29.236  29.096  1.00  0.00     0.057 A 
ATOM     65  C   UNL A   1      37.730  29.198  30.145  1.00  0.00     0.134 A 
ATOM     66  C   UNL A   1      38.189  29.629  27.836  1.00  0.00     0.134 A 
ATOM     67  F   UNL A   1      38.107  28.817  31.376  1.00  0.00    -0.206 F 
ATOM     68  C   UNL A   1      36.381  29.492  29.940  1.00  0.00     0.040 A 
ATOM     69  C   UNL A   1      36.848  29.960  27.626  1.00  0.00     0.040 A 
ATOM     70  F   UNL A   1      39.022  29.695  26.787  1.00  0.00    -0.206 F 
ATOM     71  C   UNL A   1      35.938  29.880  28.677  1.00  0.00     0.006 A 
ENDBRANCH  50  64
BRANCH  51  72
ATOM     72  C   UNL A   1      48.258  26.523  29.675  1.00  0.00     0.057 A 
ATOM     73  C   UNL A   1      49.128  26.855  28.629  1.00  0.00     0.134 A 
ATOM     74  C   UNL A   1      48.799  25.841  30.771  1.00  0.00     0.134 A 
ATOM     75  F   UNL A   1      48.666  27.495  27.545  1.00  0.00    -0.206 F 
ATOM     76  C   UNL A   1      50.481  26.514  28.667  1.00  0.00     0.040 A 
ATOM     77  C   UNL A   1      50.155  25.516  30.834  1.00  0.00     0.040 A 
ATOM     78  F   UNL A   1      48.021  25.503  31.809  1.00  0.00    -0.206 F 
ATOM     79  C   UNL A   1      51.000  25.849  29.777  1.00  0.00     0.006 A 
ENDBRANCH  51  72
BRANCH  63  80
ATOM     80  C   UNL A   1      44.734  32.218  31.622  1.00  0.00     0.057 A 
ATOM     81  C   UNL A   1      45.104  33.347  30.880  1.00  0.00     0.134 A 
ATOM     82  C   UNL A   1      44.735  32.334  33.018  1.00  0.00     0.134 A 
ATOM     83  F   UNL A   1      45.136  33.299  29.540  1.00  0.00    -0.206 F 
ATOM     84  C   UNL A   1      45.486  34.536  31.504  1.00  0.00     0.040 A 
ATOM     85  C   UNL A   1      45.083  33.526  33.652  1.00  0.00     0.040 A 
ATOM     86  F   UNL A   1      44.379  31.294  33.789  1.00  0.00    -0.206 F 
ATOM     87  C   UNL A   1      45.468  34.630  32.894  1.00  0.00     0.006 A 
ENDBRANCH  63  80
ENDBRANCH  37  38
ENDBRANCH  29  32
ENDBRANCH  27  28
ENDBRANCH  26  27
ENDBRANCH   1  26
TORSDOF 13
ENDMDL
MODEL 2
REMARK VINA RESULT:     -11.7      0.660      6.307
REMARK SMILES CC1(C)[C@H](C(=O)Nc2ccccc2C(N)=O)[C@@H]1C(=O)NCCCNC(=O)c1ccc(-c2c3nc(c(-c4c(F)cccc4F)c4ccc([nH]4)c(-c4c(F)cccc4F)c4nc(c(-c5c(F)cccc5F)c5ccc2[nH]5)C=C4)C=C3)cc1
REMARK SMILES IDX 21 1 20 2 18 3 19 4 17 6 1 7 2 8 3 9 4 10 5 11 6 12 7 13
REMARK SMILES IDX 8 15 9 16 13 17 10 18 12 19 11 20 14 21 15 22 16 23 22 26
REMARK SMILES IDX 23 27 24 28 25 29 26 31 27 32 28 33 80 34 29 35 79 36 30 37
REMARK SMILES IDX 31 38 32 39 73 40 33 41 78 42 72 43 74 44 34 45 77 46 71 47
REMARK SMILES IDX 70 48 35 50 61 51 44 52 60 53 45 54 48 55 59 56 75 57 46 58
REMARK SMILES IDX 47 59 58 61 76 62 49 63 36 64 37 65 42 66 38 67 39 68 41 69
REMARK SMILES IDX 43 70 40 71 62 72 63 73 68 74 64 75 65 76 67 77 69 78 66 79
REMARK SMILES IDX 50 80 51 81 56 82 52 83 53 84 55 85 57 86 54 87
REMARK H PARENT 20 5 7 14 15 24 15 25 24 30 74 49 48 60
REMARK Flexibility Score: inf
ROOT
ATOM      1  C   UNL A   1      36.716  21.376  24.693  1.00  0.00     0.117 C 
ENDROOT
BRANCH   1   2
ATOM      2  N   UNL A   1      36.311  22.061  25.898  1.00  0.00    -0.356 N 
ATOM      3  C   UNL A   1      35.076  22.517  26.239  1.00  0.00     0.224 C 
ATOM      4  O   UNL A   1      34.982  23.307  27.171  1.00  0.00    -0.275 OA
ATOM      5  H   UNL A   1      37.024  22.220  26.559  1.00  0.00     0.163 HD
BRANCH   3   6
ATOM      6  C   UNL A   1      33.873  22.098  25.465  1.00  0.00     0.098 C 
ATOM      7  C   UNL A   1      32.942  22.279  23.013  1.00  0.00     0.013 C 
ATOM      8  C   UNL A   1      33.453  22.972  24.270  1.00  0.00    -0.011 C 
ATOM      9  C   UNL A   1      34.386  24.099  23.920  1.00  0.00     0.013 C 
ATOM     10  C   UNL A   1      32.522  22.800  25.452  1.00  0.00     0.098 C 
BRANCH  10  11
ATOM     11  C   UNL A   1      32.004  23.486  26.664  1.00  0.00     0.228 C 
ATOM     12  O   UNL A   1      31.707  22.749  27.611  1.00  0.00    -0.274 OA
ATOM     13  N   UNL A   1      31.980  24.823  26.934  1.00  0.00    -0.325 N 
ATOM     14  H   UNL A   1      31.839  25.037  27.884  1.00  0.00     0.169 HD
BRANCH  13  15
ATOM     15  C   UNL A   1      32.119  25.939  26.121  1.00  0.00     0.053 A 
ATOM     16  C   UNL A   1      33.361  26.583  26.201  1.00  0.00     0.027 A 
ATOM     17  C   UNL A   1      31.110  26.442  25.289  1.00  0.00     0.063 A 
ATOM     18  C   UNL A   1      33.666  27.626  25.333  1.00  0.00     0.002 A 
ATOM     19  C   UNL A   1      31.423  27.507  24.429  1.00  0.00     0.016 A 
ATOM     20  C   UNL A   1      32.707  28.067  24.427  1.00  0.00     0.001 A 
BRANCH  17  21
ATOM     21  C   UNL A   1      29.713  25.926  25.387  1.00  0.00     0.250 C 
ATOM     22  N   UNL A   1      28.944  25.941  24.257  1.00  0.00    -0.366 N 
ATOM     23  O   UNL A   1      29.243  25.494  26.431  1.00  0.00    -0.269 OA
ATOM     24  H   UNL A   1      29.315  26.287  23.414  1.00  0.00     0.159 HD
ATOM     25  H   UNL A   1      28.019  25.606  24.288  1.00  0.00     0.159 HD
ENDBRANCH  17  21
ENDBRANCH  13  15
ENDBRANCH  10  11
ENDBRANCH   3   6
ENDBRANCH   1   2
BRANCH   1  26
ATOM     26  C   UNL A   1      37.615  20.198  24.992  1.00  0.00     0.042 C 
BRANCH  26  27
ATOM     27  C   UNL A   1      38.902  20.591  25.697  1.00  0.00     0.118 C 
BRANCH  27  28
ATOM     28  N   UNL A   1      39.894  19.520  25.749  1.00  0.00    -0.352 N 
ATOM     29  C   UNL A   1      41.225  19.566  26.091  1.00  0.00     0.251 C 
ATOM     30  H   UNL A   1      39.558  18.629  25.501  1.00  0.00     0.163 HD
ATOM     31  O   UNL A   1      41.940  18.582  25.936  1.00  0.00    -0.269 OA
BRANCH  29  32
ATOM     32  C   UNL A   1      41.793  20.825  26.611  1.00  0.00     0.039 A 
ATOM     33  C   UNL A   1      42.289  21.774  25.716  1.00  0.00     0.014 A 
ATOM     34  C   UNL A   1      41.761  21.094  27.979  1.00  0.00     0.014 A 
ATOM     35  C   UNL A   1      42.657  23.034  26.192  1.00  0.00     0.010 A 
ATOM     36  C   UNL A   1      41.985  22.387  28.425  1.00  0.00     0.010 A 
ATOM     37  C   UNL A   1      42.449  23.369  27.540  1.00  0.00    -0.014 A 
BRANCH  37  38
ATOM     38  C   UNL A   1      42.717  24.736  28.054  1.00  0.00     0.031 A 
ATOM     39  C   UNL A   1      44.104  25.117  28.490  1.00  0.00     0.074 A 
ATOM     40  C   UNL A   1      41.696  25.603  28.208  1.00  0.00     0.049 A 
ATOM     41  N   UNL A   1      44.526  26.235  29.024  1.00  0.00    -0.248 NA
ATOM     42  C   UNL A   1      45.151  24.091  28.348  1.00  0.00     0.031 C 
ATOM     43  C   UNL A   1      40.291  25.325  27.900  1.00  0.00     0.029 A 
ATOM     44  N   UNL A   1      41.683  26.893  28.675  1.00  0.00    -0.354 N 
ATOM     45  C   UNL A   1      45.873  26.033  29.301  1.00  0.00     0.074 A 
ATOM     46  C   UNL A   1      46.179  24.666  28.949  1.00  0.00     0.031 C 
ATOM     47  C   UNL A   1      39.562  26.423  28.150  1.00  0.00     0.029 A 
ATOM     48  C   UNL A   1      40.435  27.466  28.677  1.00  0.00     0.049 A 
ATOM     49  H   UNL A   1      42.493  27.364  28.979  1.00  0.00     0.167 HD
ATOM     50  C   UNL A   1      46.782  26.917  29.777  1.00  0.00     0.037 A 
ATOM     51  C   UNL A   1      40.038  28.692  29.065  1.00  0.00     0.037 A 
ATOM     52  C   UNL A   1      46.475  28.285  30.098  1.00  0.00     0.049 A 
ATOM     53  C   UNL A   1      41.063  29.666  29.572  1.00  0.00     0.074 A 
ATOM     54  C   UNL A   1      47.336  29.289  30.503  1.00  0.00     0.029 A 
ATOM     55  N   UNL A   1      45.203  28.838  30.059  1.00  0.00    -0.354 N 
ATOM     56  N   UNL A   1      42.353  29.494  29.738  1.00  0.00    -0.248 NA
ATOM     57  C   UNL A   1      40.582  31.003  29.939  1.00  0.00     0.031 C 
ATOM     58  C   UNL A   1      46.575  30.433  30.770  1.00  0.00     0.029 A 
ATOM     59  C   UNL A   1      45.250  30.160  30.469  1.00  0.00     0.049 A 
ATOM     60  H   UNL A   1      44.387  28.361  29.781  1.00  0.00     0.167 HD
ATOM     61  C   UNL A   1      42.842  30.707  30.207  1.00  0.00     0.074 A 
ATOM     62  C   UNL A   1      41.710  31.609  30.282  1.00  0.00     0.031 C 
ATOM     63  C   UNL A   1      44.112  31.043  30.546  1.00  0.00     0.037 A 
BRANCH  50  64
ATOM     64  C   UNL A   1      48.185  26.419  29.979  1.00  0.00     0.057 A 
ATOM     65  C   UNL A   1      49.162  26.509  28.977  1.00  0.00     0.134 A 
ATOM     66  C   UNL A   1      48.565  25.835  31.195  1.00  0.00     0.134 A 
ATOM     67  F   UNL A   1      48.864  27.043  27.782  1.00  0.00    -0.206 F 
ATOM     68  C   UNL A   1      50.448  25.998  29.159  1.00  0.00     0.040 A 
ATOM     69  C   UNL A   1      49.859  25.353  31.402  1.00  0.00     0.040 A 
ATOM     70  F   UNL A   1      47.685  25.721  32.201  1.00  0.00    -0.206 F 
ATOM     71  C   UNL A   1      50.801  25.422  30.378  1.00  0.00     0.006 A 
ENDBRANCH  50  64
BRANCH  51  72
ATOM     72  C   UNL A   1      38.605  29.069  28.956  1.00  0.00     0.057 A 
ATOM     73  C   UNL A   1      37.747  28.972  30.058  1.00  0.00     0.134 A 
ATOM     74  C   UNL A   1      38.068  29.563  27.761  1.00  0.00     0.134 A 
ATOM     75  F   UNL A   1      38.199  28.492  31.225  1.00  0.00    -0.206 F 
ATOM     76  C   UNL A   1      36.403  29.343  29.972  1.00  0.00     0.040 A 
ATOM     77  C   UNL A   1      36.733  29.961  27.669  1.00  0.00     0.040 A 
ATOM     78  F   UNL A   1      38.841  29.689  26.673  1.00  0.00    -0.206 F 
ATOM     79  C   UNL A   1      35.896  29.847  28.777  1.00  0.00     0.006 A 
ENDBRANCH  51  72
BRANCH  63  80
ATOM     80  C   UNL A   1      44.349  32.452  31.007  1.00  0.00     0.057 A 
ATOM     81  C   UNL A   1      44.624  33.490  30.107  1.00  0.00     0.134 A 
ATOM     82  C   UNL A   1      44.263  32.781  32.366  1.00  0.00     0.134 A 
ATOM     83  F   UNL A   1      44.732  33.240  28.793  1.00  0.00    -0.206 F 
ATOM     84  C   UNL A   1      44.831  34.799  30.545  1.00  0.00     0.040 A 
ATOM     85  C   UNL A   1      44.437  34.091  32.812  1.00  0.00     0.040 A 
ATOM     86  F   UNL A   1      43.992  31.837  33.280  1.00  0.00    -0.206 F 
ATOM     87  C   UNL A   1      44.730  35.104  31.902  1.00  0.00     0.006 A 
ENDBRANCH  63  80
ENDBRANCH  37  38
ENDBRANCH  29  32
ENDBRANCH  27  28
ENDBRANCH  26  27
ENDBRANCH   1  26
TORSDOF 13
ENDMDL
MODEL 3
REMARK VINA RESULT:     -11.6      4.325      9.045
REMARK SMILES CC1(C)[C@H](C(=O)Nc2ccccc2C(N)=O)[C@@H]1C(=O)NCCCNC(=O)c1ccc(-c2c3nc(c(-c4c(F)cccc4F)c4ccc([nH]4)c(-c4c(F)cccc4F)c4nc(c(-c5c(F)cccc5F)c5ccc2[nH]5)C=C4)C=C3)cc1
REMARK SMILES IDX 21 1 20 2 18 3 19 4 17 6 1 7 2 8 3 9 4 10 5 11 6 12 7 13
REMARK SMILES IDX 8 15 9 16 13 17 10 18 12 19 11 20 14 21 15 22 16 23 22 26
REMARK SMILES IDX 23 27 24 28 25 29 26 31 27 32 28 33 80 34 29 35 79 36 30 37
REMARK SMILES IDX 31 38 32 39 73 40 33 41 78 42 72 43 74 44 34 45 77 46 71 47
REMARK SMILES IDX 70 48 35 50 61 51 44 52 60 53 45 54 48 55 59 56 75 57 46 58
REMARK SMILES IDX 47 59 58 61 76 62 49 63 36 64 37 65 42 66 38 67 39 68 41 69
REMARK SMILES IDX 43 70 40 71 62 72 63 73 68 74 64 75 65 76 67 77 69 78 66 79
REMARK SMILES IDX 50 80 51 81 56 82 52 83 53 84 55 85 57 86 54 87
REMARK H PARENT 20 5 7 14 15 24 15 25 24 30 74 49 48 60
REMARK Flexibility Score: inf
ROOT
ATOM      1  C   UNL A   1      31.029  30.711  25.376  1.00  0.00     0.117 C 
ENDROOT
BRANCH   1   2
ATOM      2  N   UNL A   1      32.327  30.088  25.259  1.00  0.00    -0.356 N 
ATOM      3  C   UNL A   1      32.673  28.978  24.554  1.00  0.00     0.224 C 
ATOM      4  O   UNL A   1      33.753  28.449  24.790  1.00  0.00    -0.275 OA
ATOM      5  H   UNL A   1      33.058  30.525  25.755  1.00  0.00     0.163 HD
BRANCH   3   6
ATOM      6  C   UNL A   1      31.738  28.396  23.549  1.00  0.00     0.098 C 
ATOM      7  C   UNL A   1      29.448  27.106  23.500  1.00  0.00     0.013 C 
ATOM      8  C   UNL A   1      30.892  27.184  23.981  1.00  0.00    -0.011 C 
ATOM      9  C   UNL A   1      30.999  26.790  25.428  1.00  0.00     0.013 C 
ATOM     10  C   UNL A   1      31.891  27.052  22.850  1.00  0.00     0.098 C 
BRANCH  10  11
ATOM     11  C   UNL A   1      33.234  26.513  22.511  1.00  0.00     0.228 C 
ATOM     12  O   UNL A   1      33.846  27.121  21.625  1.00  0.00    -0.274 OA
ATOM     13  N   UNL A   1      33.951  25.555  23.166  1.00  0.00    -0.325 N 
ATOM     14  H   UNL A   1      34.906  25.539  22.930  1.00  0.00     0.169 HD
BRANCH  13  15
ATOM     15  C   UNL A   1      33.587  24.599  24.103  1.00  0.00     0.053 A 
ATOM     16  C   UNL A   1      33.883  24.926  25.434  1.00  0.00     0.027 A 
ATOM     17  C   UNL A   1      32.996  23.368  23.788  1.00  0.00     0.063 A 
ATOM     18  C   UNL A   1      33.440  24.112  26.469  1.00  0.00     0.002 A 
ATOM     19  C   UNL A   1      32.568  22.544  24.842  1.00  0.00     0.016 A 
ATOM     20  C   UNL A   1      32.757  22.936  26.174  1.00  0.00     0.001 A 
BRANCH  17  21
ATOM     21  C   UNL A   1      32.914  22.901  22.374  1.00  0.00     0.250 C 
ATOM     22  N   UNL A   1      31.971  21.961  22.063  1.00  0.00    -0.366 N 
ATOM     23  O   UNL A   1      33.652  23.328  21.496  1.00  0.00    -0.269 OA
ATOM     24  H   UNL A   1      31.375  21.613  22.764  1.00  0.00     0.159 HD
ATOM     25  H   UNL A   1      31.890  21.633  21.138  1.00  0.00     0.159 HD
ENDBRANCH  17  21
ENDBRANCH  13  15
ENDBRANCH  10  11
ENDBRANCH   3   6
ENDBRANCH   1   2
BRANCH   1  26
ATOM     26  C   UNL A   1      31.012  31.773  26.451  1.00  0.00     0.042 C 
BRANCH  26  27
ATOM     27  C   UNL A   1      32.309  32.559  26.538  1.00  0.00     0.118 C 
BRANCH  27  28
ATOM     28  N   UNL A   1      32.181  33.828  27.251  1.00  0.00    -0.352 N 
ATOM     29  C   UNL A   1      32.941  34.346  28.273  1.00  0.00     0.251 C 
ATOM     30  H   UNL A   1      31.436  34.398  26.954  1.00  0.00     0.163 HD
ATOM     31  O   UNL A   1      32.591  35.371  28.847  1.00  0.00    -0.269 OA
BRANCH  29  32
ATOM     32  C   UNL A   1      34.162  33.634  28.696  1.00  0.00     0.039 A 
ATOM     33  C   UNL A   1      35.386  34.304  28.686  1.00  0.00     0.014 A 
ATOM     34  C   UNL A   1      34.078  32.327  29.175  1.00  0.00     0.014 A 
ATOM     35  C   UNL A   1      36.504  33.693  29.255  1.00  0.00     0.010 A 
ATOM     36  C   UNL A   1      35.149  31.784  29.868  1.00  0.00     0.010 A 
ATOM     37  C   UNL A   1      36.379  32.453  29.904  1.00  0.00    -0.014 A 
BRANCH  37  38
ATOM     38  C   UNL A   1      37.519  31.831  30.622  1.00  0.00     0.031 A 
ATOM     39  C   UNL A   1      38.356  30.785  29.940  1.00  0.00     0.074 A 
ATOM     40  C   UNL A   1      37.747  32.144  31.913  1.00  0.00     0.049 A 
ATOM     41  N   UNL A   1      39.351  30.080  30.417  1.00  0.00    -0.248 NA
ATOM     42  C   UNL A   1      38.003  30.453  28.550  1.00  0.00     0.031 C 
ATOM     43  C   UNL A   1      36.955  33.082  32.712  1.00  0.00     0.029 A 
ATOM     44  N   UNL A   1      38.707  31.696  32.785  1.00  0.00    -0.354 N 
ATOM     45  C   UNL A   1      39.718  29.211  29.396  1.00  0.00     0.074 A 
ATOM     46  C   UNL A   1      38.796  29.423  28.305  1.00  0.00     0.031 C 
ATOM     47  C   UNL A   1      37.484  33.168  33.942  1.00  0.00     0.029 A 
ATOM     48  C   UNL A   1      38.623  32.260  34.034  1.00  0.00     0.049 A 
ATOM     49  H   UNL A   1      39.393  31.034  32.537  1.00  0.00     0.167 HD
ATOM     50  C   UNL A   1      40.752  28.338  29.358  1.00  0.00     0.037 A 
ATOM     51  C   UNL A   1      39.375  32.064  35.133  1.00  0.00     0.037 A 
ATOM     52  C   UNL A   1      41.684  28.154  30.437  1.00  0.00     0.049 A 
ATOM     53  C   UNL A   1      40.529  31.105  35.067  1.00  0.00     0.074 A 
ATOM     54  C   UNL A   1      42.817  27.361  30.472  1.00  0.00     0.029 A 
ATOM     55  N   UNL A   1      41.583  28.765  31.679  1.00  0.00    -0.354 N 
ATOM     56  N   UNL A   1      40.927  30.360  34.062  1.00  0.00    -0.248 NA
ATOM     57  C   UNL A   1      41.344  30.963  36.280  1.00  0.00     0.031 C 
ATOM     58  C   UNL A   1      43.367  27.445  31.757  1.00  0.00     0.029 A 
ATOM     59  C   UNL A   1      42.613  28.339  32.501  1.00  0.00     0.049 A 
ATOM     60  H   UNL A   1      40.883  29.407  31.938  1.00  0.00     0.167 HD
ATOM     61  C   UNL A   1      42.050  29.679  34.514  1.00  0.00     0.074 A 
ATOM     62  C   UNL A   1      42.278  30.113  35.878  1.00  0.00     0.031 C 
ATOM     63  C   UNL A   1      42.822  28.775  33.860  1.00  0.00     0.037 A 
BRANCH  50  64
ATOM     64  C   UNL A   1      40.915  27.519  28.108  1.00  0.00     0.057 A 
ATOM     65  C   UNL A   1      41.702  27.948  27.030  1.00  0.00     0.134 A 
ATOM     66  C   UNL A   1      40.270  26.282  27.979  1.00  0.00     0.134 A 
ATOM     67  F   UNL A   1      42.338  29.129  27.080  1.00  0.00    -0.206 F 
ATOM     68  C   UNL A   1      41.806  27.202  25.856  1.00  0.00     0.040 A 
ATOM     69  C   UNL A   1      40.395  25.509  26.822  1.00  0.00     0.040 A 
ATOM     70  F   UNL A   1      39.505  25.804  28.972  1.00  0.00    -0.206 F 
ATOM     71  C   UNL A   1      41.154  25.974  25.751  1.00  0.00     0.006 A 
ENDBRANCH  50  64
BRANCH  51  72
ATOM     72  C   UNL A   1      39.071  32.817  36.376  1.00  0.00     0.057 A 
ATOM     73  C   UNL A   1      38.248  32.273  37.369  1.00  0.00     0.134 A 
ATOM     74  C   UNL A   1      39.618  34.084  36.616  1.00  0.00     0.134 A 
ATOM     75  F   UNL A   1      37.681  31.071  37.191  1.00  0.00    -0.206 F 
ATOM     76  C   UNL A   1      37.971  32.964  38.550  1.00  0.00     0.040 A 
ATOM     77  C   UNL A   1      39.371  34.775  37.803  1.00  0.00     0.040 A 
ATOM     78  F   UNL A   1      40.423  34.656  35.709  1.00  0.00    -0.206 F 
ATOM     79  C   UNL A   1      38.541  34.216  38.773  1.00  0.00     0.006 A 
ENDBRANCH  51  72
BRANCH  63  80
ATOM     80  C   UNL A   1      43.999  28.211  34.603  1.00  0.00     0.057 A 
ATOM     81  C   UNL A   1      45.250  28.840  34.595  1.00  0.00     0.134 A 
ATOM     82  C   UNL A   1      43.866  27.045  35.368  1.00  0.00     0.134 A 
ATOM     83  F   UNL A   1      45.447  29.954  33.873  1.00  0.00    -0.206 F 
ATOM     84  C   UNL A   1      46.335  28.314  35.300  1.00  0.00     0.040 A 
ATOM     85  C   UNL A   1      44.934  26.528  36.102  1.00  0.00     0.040 A 
ATOM     86  F   UNL A   1      42.692  26.399  35.429  1.00  0.00    -0.206 F 
ATOM     87  C   UNL A   1      46.175  27.158  36.062  1.00  0.00     0.006 A 
ENDBRANCH  63  80
ENDBRANCH  37  38
ENDBRANCH  29  32
ENDBRANCH  27  28
ENDBRANCH  26  27
ENDBRANCH   1  26
TORSDOF 13
ENDMDL
