MODEL 1
REMARK VINA RESULT:     -11.9      0.000      0.000
REMARK SMILES C[C@@H]([C@H]1CC=CS1)n1nccc1NC(=O)CC1(CC(=O)NCCCNC(=O)c2ccc(-c3c4nc(c(-c5c(F)cccc5F)c5ccc([nH]5)c(-c5c(F)cccc5F)c5nc(c(-c6c(F)cccc6F)c6ccc3[nH]6)C=C5)C=C4)cc2)CCCCC1
REMARK SMILES IDX 19 1 20 2 21 3 18 5 17 6 82 7 86 8 83 9 85 10 84 11 16 12
REMARK SMILES IDX 14 13 13 14 15 16 12 17 8 18 9 19 10 20 11 21 2 22 1 23 3 24
REMARK SMILES IDX 4 25 7 26 5 27 6 28 22 29 23 30 24 31 25 32 26 33 27 35
REMARK SMILES IDX 28 36 29 37 81 38 30 39 80 40 31 41 32 42 33 43 74 44 34 45
REMARK SMILES IDX 79 46 73 47 75 48 35 49 78 50 72 51 71 52 36 54 62 55 45 56
REMARK SMILES IDX 61 57 46 58 49 59 60 60 76 61 47 62 48 63 59 65 77 66 50 67
REMARK SMILES IDX 37 68 38 69 43 70 39 71 40 72 42 73 44 74 41 75 63 76 64 77
REMARK SMILES IDX 69 78 65 79 66 80 68 81 70 82 67 83 51 84 52 85 57 86 53 87
REMARK SMILES IDX 54 88 56 89 58 90 55 91
REMARK H PARENT 21 4 13 15 25 34 75 53 49 64
REMARK Flexibility Score: inf
ROOT
ATOM      1  C   UNL A   1      32.046  28.166  27.352  1.00  0.00     0.220 C 
ATOM      2  O   UNL A   1      31.069  27.757  27.979  1.00  0.00    -0.275 OA
ATOM      3  N   UNL A   1      32.431  29.456  27.518  1.00  0.00    -0.356 N 
ATOM      4  H   UNL A   1      31.884  29.983  28.143  1.00  0.00     0.163 HD
ENDROOT
BRANCH   1   5
ATOM      5  C   UNL A   1      32.795  27.239  26.410  1.00  0.00     0.107 C 
BRANCH   5   6
ATOM      6  C   UNL A   1      32.132  26.862  25.049  1.00  0.00    -0.012 C 
ATOM      7  C   UNL A   1      33.295  26.721  24.027  1.00  0.00     0.008 C 
ATOM      8  C   UNL A   1      31.209  27.919  24.392  1.00  0.00     0.008 C 
ATOM      9  C   UNL A   1      33.990  28.028  23.617  1.00  0.00     0.001 C 
ATOM     10  C   UNL A   1      31.867  29.257  24.082  1.00  0.00     0.001 C 
ATOM     11  C   UNL A   1      32.991  29.053  23.086  1.00  0.00     0.000 C 
BRANCH   6  12
ATOM     12  C   UNL A   1      31.200  25.611  25.220  1.00  0.00     0.108 C 
BRANCH  12  13
ATOM     13  C   UNL A   1      31.595  24.494  26.150  1.00  0.00     0.226 C 
ATOM     14  N   UNL A   1      32.521  23.487  25.757  1.00  0.00    -0.311 N 
ATOM     15  H   UNL A   1      32.800  22.855  26.459  1.00  0.00     0.171 HD
ATOM     16  O   UNL A   1      31.158  24.340  27.270  1.00  0.00    -0.275 OA
BRANCH  14  17
ATOM     17  C   UNL A   1      33.072  23.292  24.509  1.00  0.00     0.131 A 
ATOM     18  N   UNL A   1      34.347  22.844  24.237  1.00  0.00    -0.246 N 
ATOM     19  N   UNL A   1      34.665  22.961  22.934  1.00  0.00    -0.179 NA
ATOM     20  C   UNL A   1      33.500  23.218  22.342  1.00  0.00     0.137 A 
ATOM     21  C   UNL A   1      32.456  23.369  23.276  1.00  0.00     0.068 A 
BRANCH  18  22
ATOM     22  C   UNL A   1      35.266  22.146  25.125  1.00  0.00     0.120 C 
ATOM     23  C   UNL A   1      35.249  20.618  24.954  1.00  0.00     0.034 C 
BRANCH  22  24
ATOM     24  C   UNL A   1      36.695  22.746  25.062  1.00  0.00     0.079 C 
ATOM     25  C   UNL A   1      37.077  23.857  26.071  1.00  0.00     0.045 C 
ATOM     26  S   UNL A   1      37.988  21.457  25.327  1.00  0.00    -0.128 SA
ATOM     27  C   UNL A   1      38.534  23.745  26.375  1.00  0.00    -0.019 C 
ATOM     28  C   UNL A   1      39.082  22.567  26.070  1.00  0.00     0.037 C 
ENDBRANCH  22  24
ENDBRANCH  18  22
ENDBRANCH  14  17
ENDBRANCH  12  13
ENDBRANCH   6  12
ENDBRANCH   5   6
ENDBRANCH   1   5
BRANCH   3  29
ATOM     29  C   UNL A   1      33.535  30.169  26.903  1.00  0.00     0.117 C 
BRANCH  29  30
ATOM     30  C   UNL A   1      34.852  29.868  27.615  1.00  0.00     0.042 C 
BRANCH  30  31
ATOM     31  C   UNL A   1      35.730  31.070  27.783  1.00  0.00     0.118 C 
BRANCH  31  32
ATOM     32  N   UNL A   1      35.324  31.973  28.861  1.00  0.00    -0.352 N 
ATOM     33  C   UNL A   1      35.600  31.818  30.220  1.00  0.00     0.251 C 
ATOM     34  H   UNL A   1      34.805  32.769  28.602  1.00  0.00     0.163 HD
ATOM     35  O   UNL A   1      34.967  32.413  31.078  1.00  0.00    -0.269 OA
BRANCH  33  36
ATOM     36  C   UNL A   1      36.707  30.908  30.572  1.00  0.00     0.039 A 
ATOM     37  C   UNL A   1      36.585  29.538  30.810  1.00  0.00     0.014 A 
ATOM     38  C   UNL A   1      37.952  31.478  30.442  1.00  0.00     0.014 A 
ATOM     39  C   UNL A   1      37.760  28.782  30.851  1.00  0.00     0.010 A 
ATOM     40  C   UNL A   1      38.909  30.674  29.926  1.00  0.00     0.010 A 
ATOM     41  C   UNL A   1      38.939  29.390  30.409  1.00  0.00    -0.014 A 
BRANCH  41  42
ATOM     42  C   UNL A   1      40.265  28.798  30.358  1.00  0.00     0.031 A 
ATOM     43  C   UNL A   1      40.947  28.714  31.668  1.00  0.00     0.074 A 
ATOM     44  C   UNL A   1      40.656  28.086  29.268  1.00  0.00     0.049 A 
ATOM     45  N   UNL A   1      42.000  29.351  32.051  1.00  0.00    -0.248 NA
ATOM     46  C   UNL A   1      40.285  27.950  32.740  1.00  0.00     0.031 C 
ATOM     47  C   UNL A   1      39.911  27.802  28.023  1.00  0.00     0.029 A 
ATOM     48  N   UNL A   1      41.789  27.356  29.088  1.00  0.00    -0.354 N 
ATOM     49  C   UNL A   1      42.271  28.883  33.332  1.00  0.00     0.074 A 
ATOM     50  C   UNL A   1      41.075  28.218  33.780  1.00  0.00     0.031 C 
ATOM     51  C   UNL A   1      40.501  26.795  27.344  1.00  0.00     0.029 A 
ATOM     52  C   UNL A   1      41.757  26.492  27.991  1.00  0.00     0.049 A 
ATOM     53  H   UNL A   1      42.569  27.430  29.684  1.00  0.00     0.167 HD
ATOM     54  C   UNL A   1      43.546  28.833  33.806  1.00  0.00     0.037 A 
ATOM     55  C   UNL A   1      42.711  25.583  27.664  1.00  0.00     0.037 A 
ATOM     56  C   UNL A   1      44.435  29.613  32.979  1.00  0.00     0.049 A 
ATOM     57  C   UNL A   1      43.949  25.997  28.374  1.00  0.00     0.074 A 
ATOM     58  C   UNL A   1      44.505  30.945  32.621  1.00  0.00     0.029 A 
ATOM     59  N   UNL A   1      45.193  28.940  32.051  1.00  0.00    -0.354 N 
ATOM     60  N   UNL A   1      44.582  27.112  28.117  1.00  0.00    -0.248 NA
ATOM     61  C   UNL A   1      44.167  25.447  29.704  1.00  0.00     0.031 C 
ATOM     62  C   UNL A   1      44.864  30.934  31.239  1.00  0.00     0.029 A 
ATOM     63  C   UNL A   1      45.076  29.608  30.857  1.00  0.00     0.049 A 
ATOM     64  H   UNL A   1      45.723  28.126  32.213  1.00  0.00     0.167 HD
ATOM     65  C   UNL A   1      44.939  27.618  29.361  1.00  0.00     0.074 A 
ATOM     66  C   UNL A   1      44.701  26.519  30.298  1.00  0.00     0.031 C 
ATOM     67  C   UNL A   1      45.099  28.960  29.563  1.00  0.00     0.037 A 
BRANCH  54  68
ATOM     68  C   UNL A   1      44.057  27.786  34.763  1.00  0.00     0.057 A 
ATOM     69  C   UNL A   1      44.730  28.199  35.927  1.00  0.00     0.134 A 
ATOM     70  C   UNL A   1      44.168  26.412  34.464  1.00  0.00     0.134 A 
ATOM     71  F   UNL A   1      44.710  29.483  36.313  1.00  0.00    -0.206 F 
ATOM     72  C   UNL A   1      45.512  27.324  36.691  1.00  0.00     0.040 A 
ATOM     73  C   UNL A   1      44.902  25.521  35.250  1.00  0.00     0.040 A 
ATOM     74  F   UNL A   1      43.662  25.874  33.348  1.00  0.00    -0.206 F 
ATOM     75  C   UNL A   1      45.606  25.981  36.349  1.00  0.00     0.006 A 
ENDBRANCH  54  68
BRANCH  55  76
ATOM     76  C   UNL A   1      42.518  24.228  27.095  1.00  0.00     0.057 A 
ATOM     77  C   UNL A   1      42.824  23.939  25.758  1.00  0.00     0.134 A 
ATOM     78  C   UNL A   1      42.284  23.114  27.925  1.00  0.00     0.134 A 
ATOM     79  F   UNL A   1      43.107  24.929  24.899  1.00  0.00    -0.206 F 
ATOM     80  C   UNL A   1      42.911  22.623  25.278  1.00  0.00     0.040 A 
ATOM     81  C   UNL A   1      42.364  21.797  27.459  1.00  0.00     0.040 A 
ATOM     82  F   UNL A   1      42.056  23.266  29.238  1.00  0.00    -0.206 F 
ATOM     83  C   UNL A   1      42.691  21.546  26.133  1.00  0.00     0.006 A 
ENDBRANCH  55  76
BRANCH  67  84
ATOM     84  C   UNL A   1      45.061  29.867  28.357  1.00  0.00     0.057 A 
ATOM     85  C   UNL A   1      43.914  30.550  27.920  1.00  0.00     0.134 A 
ATOM     86  C   UNL A   1      46.261  30.200  27.723  1.00  0.00     0.134 A 
ATOM     87  F   UNL A   1      42.736  30.378  28.524  1.00  0.00    -0.206 F 
ATOM     88  C   UNL A   1      43.952  31.491  26.886  1.00  0.00     0.040 A 
ATOM     89  C   UNL A   1      46.320  31.158  26.707  1.00  0.00     0.040 A 
ATOM     90  F   UNL A   1      47.411  29.636  28.123  1.00  0.00    -0.206 F 
ATOM     91  C   UNL A   1      45.162  31.803  26.279  1.00  0.00     0.006 A 
ENDBRANCH  67  84
ENDBRANCH  41  42
ENDBRANCH  33  36
ENDBRANCH  31  32
ENDBRANCH  30  31
ENDBRANCH  29  30
ENDBRANCH   3  29
TORSDOF 16
ENDMDL
MODEL 2
REMARK VINA RESULT:     -11.8      3.139      8.187
REMARK SMILES C[C@@H]([C@H]1CC=CS1)n1nccc1NC(=O)CC1(CC(=O)NCCCNC(=O)c2ccc(-c3c4nc(c(-c5c(F)cccc5F)c5ccc([nH]5)c(-c5c(F)cccc5F)c5nc(c(-c6c(F)cccc6F)c6ccc3[nH]6)C=C5)C=C4)cc2)CCCCC1
REMARK SMILES IDX 19 1 20 2 21 3 18 5 17 6 82 7 86 8 83 9 85 10 84 11 16 12
REMARK SMILES IDX 14 13 13 14 15 16 12 17 8 18 9 19 10 20 11 21 2 22 1 23 3 24
REMARK SMILES IDX 4 25 7 26 5 27 6 28 22 29 23 30 24 31 25 32 26 33 27 35
REMARK SMILES IDX 28 36 29 37 81 38 30 39 80 40 31 41 32 42 33 43 74 44 34 45
REMARK SMILES IDX 79 46 73 47 75 48 35 49 78 50 72 51 71 52 36 54 62 55 45 56
REMARK SMILES IDX 61 57 46 58 49 59 60 60 76 61 47 62 48 63 59 65 77 66 50 67
REMARK SMILES IDX 37 68 38 69 43 70 39 71 40 72 42 73 44 74 41 75 63 76 64 77
REMARK SMILES IDX 69 78 65 79 66 80 68 81 70 82 67 83 51 84 52 85 57 86 53 87
REMARK SMILES IDX 54 88 56 89 58 90 55 91
REMARK H PARENT 21 4 13 15 25 34 75 53 49 64
REMARK Flexibility Score: inf
ROOT
ATOM      1  C   UNL A   1      36.334  23.148  23.783  1.00  0.00     0.220 C 
ATOM      2  O   UNL A   1      36.181  23.089  22.563  1.00  0.00    -0.275 OA
ATOM      3  N   UNL A   1      37.327  22.417  24.349  1.00  0.00    -0.356 N 
ATOM      4  H   UNL A   1      37.864  21.878  23.725  1.00  0.00     0.163 HD
ENDROOT
BRANCH   1   5
ATOM      5  C   UNL A   1      35.422  24.019  24.629  1.00  0.00     0.107 C 
BRANCH   5   6
ATOM      6  C   UNL A   1      33.928  23.601  24.789  1.00  0.00    -0.012 C 
ATOM      7  C   UNL A   1      33.593  23.770  26.299  1.00  0.00     0.008 C 
ATOM      8  C   UNL A   1      33.571  22.119  24.511  1.00  0.00     0.008 C 
ATOM      9  C   UNL A   1      34.243  22.754  27.248  1.00  0.00     0.001 C 
ATOM     10  C   UNL A   1      34.296  21.100  25.378  1.00  0.00     0.001 C 
ATOM     11  C   UNL A   1      33.932  21.318  26.833  1.00  0.00     0.000 C 
BRANCH   6  12
ATOM     12  C   UNL A   1      33.024  24.396  23.783  1.00  0.00     0.108 C 
BRANCH  12  13
ATOM     13  C   UNL A   1      33.595  25.548  22.999  1.00  0.00     0.226 C 
ATOM     14  N   UNL A   1      33.618  26.871  23.524  1.00  0.00    -0.311 N 
ATOM     15  H   UNL A   1      34.100  27.543  22.990  1.00  0.00     0.171 HD
ATOM     16  O   UNL A   1      34.049  25.465  21.878  1.00  0.00    -0.275 OA
BRANCH  14  17
ATOM     17  C   UNL A   1      33.044  27.321  24.693  1.00  0.00     0.131 A 
ATOM     18  N   UNL A   1      31.739  27.735  24.859  1.00  0.00    -0.246 N 
ATOM     19  N   UNL A   1      31.533  28.318  26.055  1.00  0.00    -0.179 NA
ATOM     20  C   UNL A   1      32.631  28.022  26.749  1.00  0.00     0.137 A 
ATOM     21  C   UNL A   1      33.582  27.340  25.965  1.00  0.00     0.068 A 
BRANCH  18  22
ATOM     22  C   UNL A   1      30.594  27.471  23.999  1.00  0.00     0.120 C 
ATOM     23  C   UNL A   1      29.621  26.427  24.568  1.00  0.00     0.034 C 
BRANCH  22  24
ATOM     24  C   UNL A   1      29.888  28.782  23.564  1.00  0.00     0.079 C 
ATOM     25  C   UNL A   1      30.448  29.556  22.344  1.00  0.00     0.045 C 
ATOM     26  S   UNL A   1      28.122  28.489  23.117  1.00  0.00    -0.128 SA
ATOM     27  C   UNL A   1      29.316  30.238  21.651  1.00  0.00    -0.019 C 
ATOM     28  C   UNL A   1      28.106  29.757  21.945  1.00  0.00     0.037 C 
ENDBRANCH  22  24
ENDBRANCH  18  22
ENDBRANCH  14  17
ENDBRANCH  12  13
ENDBRANCH   6  12
ENDBRANCH   5   6
ENDBRANCH   1   5
BRANCH   3  29
ATOM     29  C   UNL A   1      37.709  22.317  25.746  1.00  0.00     0.117 C 
BRANCH  29  30
ATOM     30  C   UNL A   1      38.612  23.478  26.156  1.00  0.00     0.042 C 
BRANCH  30  31
ATOM     31  C   UNL A   1      39.628  23.108  27.192  1.00  0.00     0.118 C 
BRANCH  31  32
ATOM     32  N   UNL A   1      40.896  22.618  26.652  1.00  0.00    -0.352 N 
ATOM     33  C   UNL A   1      41.925  23.394  26.118  1.00  0.00     0.251 C 
ATOM     34  H   UNL A   1      41.038  21.643  26.666  1.00  0.00     0.163 HD
ATOM     35  O   UNL A   1      42.790  22.915  25.401  1.00  0.00    -0.269 OA
BRANCH  33  36
ATOM     36  C   UNL A   1      41.929  24.826  26.474  1.00  0.00     0.039 A 
ATOM     37  C   UNL A   1      41.211  25.826  25.814  1.00  0.00     0.014 A 
ATOM     38  C   UNL A   1      42.544  25.094  27.674  1.00  0.00     0.014 A 
ATOM     39  C   UNL A   1      41.104  27.069  26.447  1.00  0.00     0.010 A 
ATOM     40  C   UNL A   1      41.939  26.029  28.442  1.00  0.00     0.010 A 
ATOM     41  C   UNL A   1      41.497  27.151  27.786  1.00  0.00    -0.014 A 
BRANCH  41  42
ATOM     42  C   UNL A   1      41.468  28.328  28.638  1.00  0.00     0.031 A 
ATOM     43  C   UNL A   1      42.566  29.287  28.391  1.00  0.00     0.074 A 
ATOM     44  C   UNL A   1      40.339  28.647  29.325  1.00  0.00     0.049 A 
ATOM     45  N   UNL A   1      43.539  29.592  29.179  1.00  0.00    -0.248 NA
ATOM     46  C   UNL A   1      42.686  29.861  27.039  1.00  0.00     0.031 C 
ATOM     47  C   UNL A   1      39.042  27.940  29.371  1.00  0.00     0.029 A 
ATOM     48  N   UNL A   1      40.075  29.762  30.059  1.00  0.00    -0.354 N 
ATOM     49  C   UNL A   1      44.262  30.576  28.513  1.00  0.00     0.074 A 
ATOM     50  C   UNL A   1      43.837  30.528  27.139  1.00  0.00     0.031 C 
ATOM     51  C   UNL A   1      38.087  28.745  29.885  1.00  0.00     0.029 A 
ATOM     52  C   UNL A   1      38.728  29.942  30.380  1.00  0.00     0.049 A 
ATOM     53  H   UNL A   1      40.777  30.391  30.340  1.00  0.00     0.167 HD
ATOM     54  C   UNL A   1      44.937  31.536  29.202  1.00  0.00     0.037 A 
ATOM     55  C   UNL A   1      38.194  31.024  31.004  1.00  0.00     0.037 A 
ATOM     56  C   UNL A   1      45.070  31.178  30.593  1.00  0.00     0.049 A 
ATOM     57  C   UNL A   1      39.321  31.720  31.677  1.00  0.00     0.074 A 
ATOM     58  C   UNL A   1      45.655  30.126  31.272  1.00  0.00     0.029 A 
ATOM     59  N   UNL A   1      44.188  31.746  31.482  1.00  0.00    -0.354 N 
ATOM     60  N   UNL A   1      40.005  31.192  32.658  1.00  0.00    -0.248 NA
ATOM     61  C   UNL A   1      40.012  32.751  30.918  1.00  0.00     0.031 C 
ATOM     62  C   UNL A   1      44.740  29.814  32.322  1.00  0.00     0.029 A 
ATOM     63  C   UNL A   1      43.698  30.741  32.278  1.00  0.00     0.049 A 
ATOM     64  H   UNL A   1      43.950  32.700  31.536  1.00  0.00     0.167 HD
ATOM     65  C   UNL A   1      41.329  31.513  32.388  1.00  0.00     0.074 A 
ATOM     66  C   UNL A   1      41.264  32.522  31.329  1.00  0.00     0.031 C 
ATOM     67  C   UNL A   1      42.356  30.722  32.821  1.00  0.00     0.037 A 
BRANCH  54  68
ATOM     68  C   UNL A   1      45.131  32.952  28.718  1.00  0.00     0.057 A 
ATOM     69  C   UNL A   1      43.999  33.746  28.468  1.00  0.00     0.134 A 
ATOM     70  C   UNL A   1      46.347  33.470  28.226  1.00  0.00     0.134 A 
ATOM     71  F   UNL A   1      42.782  33.357  28.876  1.00  0.00    -0.206 F 
ATOM     72  C   UNL A   1      44.064  34.929  27.720  1.00  0.00     0.040 A 
ATOM     73  C   UNL A   1      46.429  34.676  27.526  1.00  0.00     0.040 A 
ATOM     74  F   UNL A   1      47.502  32.798  28.302  1.00  0.00    -0.206 F 
ATOM     75  C   UNL A   1      45.281  35.394  27.240  1.00  0.00     0.006 A 
ENDBRANCH  54  68
BRANCH  55  76
ATOM     76  C   UNL A   1      36.882  31.664  30.748  1.00  0.00     0.057 A 
ATOM     77  C   UNL A   1      35.908  31.774  31.750  1.00  0.00     0.134 A 
ATOM     78  C   UNL A   1      36.656  32.428  29.587  1.00  0.00     0.134 A 
ATOM     79  F   UNL A   1      36.054  31.121  32.912  1.00  0.00    -0.206 F 
ATOM     80  C   UNL A   1      34.787  32.607  31.614  1.00  0.00     0.040 A 
ATOM     81  C   UNL A   1      35.541  33.260  29.437  1.00  0.00     0.040 A 
ATOM     82  F   UNL A   1      37.558  32.459  28.594  1.00  0.00    -0.206 F 
ATOM     83  C   UNL A   1      34.606  33.362  30.459  1.00  0.00     0.006 A 
ENDBRANCH  55  76
BRANCH  67  84
ATOM     84  C   UNL A   1      42.027  29.588  33.762  1.00  0.00     0.057 A 
ATOM     85  C   UNL A   1      41.805  28.263  33.350  1.00  0.00     0.134 A 
ATOM     86  C   UNL A   1      42.113  29.805  35.138  1.00  0.00     0.134 A 
ATOM     87  F   UNL A   1      41.803  27.933  32.057  1.00  0.00    -0.206 F 
ATOM     88  C   UNL A   1      41.644  27.214  34.262  1.00  0.00     0.040 A 
ATOM     89  C   UNL A   1      41.983  28.762  36.062  1.00  0.00     0.040 A 
ATOM     90  F   UNL A   1      42.383  31.031  35.610  1.00  0.00    -0.206 F 
ATOM     91  C   UNL A   1      41.740  27.462  35.625  1.00  0.00     0.006 A 
ENDBRANCH  67  84
ENDBRANCH  41  42
ENDBRANCH  33  36
ENDBRANCH  31  32
ENDBRANCH  30  31
ENDBRANCH  29  30
ENDBRANCH   3  29
TORSDOF 16
ENDMDL
MODEL 3
REMARK VINA RESULT:     -11.4      2.790      6.531
REMARK SMILES C[C@@H]([C@H]1CC=CS1)n1nccc1NC(=O)CC1(CC(=O)NCCCNC(=O)c2ccc(-c3c4nc(c(-c5c(F)cccc5F)c5ccc([nH]5)c(-c5c(F)cccc5F)c5nc(c(-c6c(F)cccc6F)c6ccc3[nH]6)C=C5)C=C4)cc2)CCCCC1
REMARK SMILES IDX 19 1 20 2 21 3 18 5 17 6 82 7 86 8 83 9 85 10 84 11 16 12
REMARK SMILES IDX 14 13 13 14 15 16 12 17 8 18 9 19 10 20 11 21 2 22 1 23 3 24
REMARK SMILES IDX 4 25 7 26 5 27 6 28 22 29 23 30 24 31 25 32 26 33 27 35
REMARK SMILES IDX 28 36 29 37 81 38 30 39 80 40 31 41 32 42 33 43 74 44 34 45
REMARK SMILES IDX 79 46 73 47 75 48 35 49 78 50 72 51 71 52 36 54 62 55 45 56
REMARK SMILES IDX 61 57 46 58 49 59 60 60 76 61 47 62 48 63 59 65 77 66 50 67
REMARK SMILES IDX 37 68 38 69 43 70 39 71 40 72 42 73 44 74 41 75 63 76 64 77
REMARK SMILES IDX 69 78 65 79 66 80 68 81 70 82 67 83 51 84 52 85 57 86 53 87
REMARK SMILES IDX 54 88 56 89 58 90 55 91
REMARK H PARENT 21 4 13 15 25 34 75 53 49 64
REMARK Flexibility Score: inf
ROOT
ATOM      1  C   UNL A   1      31.871  28.309  27.284  1.00  0.00     0.220 C 
ATOM      2  O   UNL A   1      31.403  27.742  28.273  1.00  0.00    -0.275 OA
ATOM      3  N   UNL A   1      31.418  29.549  26.973  1.00  0.00    -0.356 N 
ATOM      4  H   UNL A   1      30.731  29.913  27.577  1.00  0.00     0.163 HD
ENDROOT
BRANCH   1   5
ATOM      5  C   UNL A   1      32.926  27.623  26.434  1.00  0.00     0.107 C 
BRANCH   5   6
ATOM      6  C   UNL A   1      32.518  26.364  25.610  1.00  0.00    -0.012 C 
ATOM      7  C   UNL A   1      33.391  26.390  24.323  1.00  0.00     0.008 C 
ATOM      8  C   UNL A   1      31.072  26.315  25.056  1.00  0.00     0.008 C 
ATOM      9  C   UNL A   1      33.046  27.484  23.302  1.00  0.00     0.001 C 
ATOM     10  C   UNL A   1      30.690  27.459  24.127  1.00  0.00     0.001 C 
ATOM     11  C   UNL A   1      31.575  27.432  22.897  1.00  0.00     0.000 C 
BRANCH   6  12
ATOM     12  C   UNL A   1      32.621  25.071  26.493  1.00  0.00     0.108 C 
BRANCH  12  13
ATOM     13  C   UNL A   1      31.514  24.050  26.472  1.00  0.00     0.226 C 
ATOM     14  N   UNL A   1      31.459  23.027  25.483  1.00  0.00    -0.311 N 
ATOM     15  H   UNL A   1      30.762  22.343  25.603  1.00  0.00     0.171 HD
ATOM     16  O   UNL A   1      30.586  24.019  27.252  1.00  0.00    -0.275 OA
BRANCH  14  17
ATOM     17  C   UNL A   1      32.268  22.884  24.377  1.00  0.00     0.131 A 
ATOM     18  N   UNL A   1      33.443  22.166  24.308  1.00  0.00    -0.246 N 
ATOM     19  N   UNL A   1      34.115  22.389  23.162  1.00  0.00    -0.179 NA
ATOM     20  C   UNL A   1      33.234  23.027  22.393  1.00  0.00     0.137 A 
ATOM     21  C   UNL A   1      32.036  23.303  23.081  1.00  0.00     0.068 A 
BRANCH  18  22
ATOM     22  C   UNL A   1      33.918  21.127  25.210  1.00  0.00     0.120 C 
ATOM     23  C   UNL A   1      33.800  19.707  24.635  1.00  0.00     0.034 C 
BRANCH  22  24
ATOM     24  C   UNL A   1      35.336  21.444  25.755  1.00  0.00     0.079 C 
ATOM     25  C   UNL A   1      36.564  20.873  25.002  1.00  0.00     0.045 C 
ATOM     26  S   UNL A   1      35.660  23.259  25.798  1.00  0.00    -0.128 SA
ATOM     27  C   UNL A   1      37.701  21.827  25.151  1.00  0.00    -0.019 C 
ATOM     28  C   UNL A   1      37.353  23.063  25.516  1.00  0.00     0.037 C 
ENDBRANCH  22  24
ENDBRANCH  18  22
ENDBRANCH  14  17
ENDBRANCH  12  13
ENDBRANCH   6  12
ENDBRANCH   5   6
ENDBRANCH   1   5
BRANCH   3  29
ATOM     29  C   UNL A   1      31.805  30.417  25.876  1.00  0.00     0.117 C 
BRANCH  29  30
ATOM     30  C   UNL A   1      32.928  31.366  26.291  1.00  0.00     0.042 C 
BRANCH  30  31
ATOM     31  C   UNL A   1      32.708  32.004  27.627  1.00  0.00     0.118 C 
BRANCH  31  32
ATOM     32  N   UNL A   1      32.438  33.442  27.577  1.00  0.00    -0.352 N 
ATOM     33  C   UNL A   1      33.024  34.424  28.375  1.00  0.00     0.251 C 
ATOM     34  H   UNL A   1      31.775  33.747  26.914  1.00  0.00     0.163 HD
ATOM     35  O   UNL A   1      32.525  35.531  28.507  1.00  0.00    -0.269 OA
BRANCH  33  36
ATOM     36  C   UNL A   1      34.290  34.067  29.044  1.00  0.00     0.039 A 
ATOM     37  C   UNL A   1      34.401  33.503  30.316  1.00  0.00     0.014 A 
ATOM     38  C   UNL A   1      35.388  34.131  28.218  1.00  0.00     0.014 A 
ATOM     39  C   UNL A   1      35.642  32.969  30.680  1.00  0.00     0.010 A 
ATOM     40  C   UNL A   1      36.295  33.142  28.378  1.00  0.00     0.010 A 
ATOM     41  C   UNL A   1      36.600  32.809  29.675  1.00  0.00    -0.014 A 
BRANCH  41  42
ATOM     42  C   UNL A   1      37.942  32.275  29.820  1.00  0.00     0.031 A 
ATOM     43  C   UNL A   1      38.094  30.873  29.372  1.00  0.00     0.074 A 
ATOM     44  C   UNL A   1      38.996  33.113  30.013  1.00  0.00     0.049 A 
ATOM     45  N   UNL A   1      38.348  29.837  30.095  1.00  0.00    -0.248 NA
ATOM     46  C   UNL A   1      37.763  30.560  27.970  1.00  0.00     0.031 C 
ATOM     47  C   UNL A   1      39.007  34.586  30.126  1.00  0.00     0.029 A 
ATOM     48  N   UNL A   1      40.324  32.820  30.039  1.00  0.00    -0.354 N 
ATOM     49  C   UNL A   1      38.447  28.776  29.201  1.00  0.00     0.074 A 
ATOM     50  C   UNL A   1      37.855  29.229  27.970  1.00  0.00     0.031 C 
ATOM     51  C   UNL A   1      40.264  35.058  29.973  1.00  0.00     0.029 A 
ATOM     52  C   UNL A   1      41.167  33.930  29.944  1.00  0.00     0.049 A 
ATOM     53  H   UNL A   1      40.664  31.899  30.118  1.00  0.00     0.167 HD
ATOM     54  C   UNL A   1      39.260  27.715  29.459  1.00  0.00     0.037 A 
ATOM     55  C   UNL A   1      42.520  33.897  29.837  1.00  0.00     0.037 A 
ATOM     56  C   UNL A   1      39.672  27.704  30.842  1.00  0.00     0.049 A 
ATOM     57  C   UNL A   1      42.947  32.552  30.304  1.00  0.00     0.074 A 
ATOM     58  C   UNL A   1      39.008  27.627  32.051  1.00  0.00     0.029 A 
ATOM     59  N   UNL A   1      40.919  28.203  31.137  1.00  0.00    -0.354 N 
ATOM     60  N   UNL A   1      42.795  32.141  31.536  1.00  0.00    -0.248 NA
ATOM     61  C   UNL A   1      43.044  31.502  29.302  1.00  0.00     0.031 C 
ATOM     62  C   UNL A   1      39.693  28.544  32.904  1.00  0.00     0.029 A 
ATOM     63  C   UNL A   1      40.781  29.061  32.199  1.00  0.00     0.049 A 
ATOM     64  H   UNL A   1      41.758  27.985  30.670  1.00  0.00     0.167 HD
ATOM     65  C   UNL A   1      42.364  30.825  31.425  1.00  0.00     0.074 A 
ATOM     66  C   UNL A   1      42.588  30.472  30.022  1.00  0.00     0.031 C 
ATOM     67  C   UNL A   1      41.590  30.246  32.391  1.00  0.00     0.037 A 
BRANCH  54  68
ATOM     68  C   UNL A   1      39.989  26.926  28.401  1.00  0.00     0.057 A 
ATOM     69  C   UNL A   1      40.828  27.606  27.501  1.00  0.00     0.134 A 
ATOM     70  C   UNL A   1      39.692  25.592  28.051  1.00  0.00     0.134 A 
ATOM     71  F   UNL A   1      41.174  28.884  27.717  1.00  0.00    -0.206 F 
ATOM     72  C   UNL A   1      41.276  27.025  26.308  1.00  0.00     0.040 A 
ATOM     73  C   UNL A   1      40.179  24.986  26.890  1.00  0.00     0.040 A 
ATOM     74  F   UNL A   1      38.840  24.834  28.752  1.00  0.00    -0.206 F 
ATOM     75  C   UNL A   1      40.945  25.713  25.995  1.00  0.00     0.006 A 
ENDBRANCH  54  68
BRANCH  55  76
ATOM     76  C   UNL A   1      43.389  34.791  29.035  1.00  0.00     0.057 A 
ATOM     77  C   UNL A   1      43.522  34.639  27.648  1.00  0.00     0.134 A 
ATOM     78  C   UNL A   1      43.899  35.988  29.573  1.00  0.00     0.134 A 
ATOM     79  F   UNL A   1      43.030  33.554  27.035  1.00  0.00    -0.206 F 
ATOM     80  C   UNL A   1      44.111  35.626  26.842  1.00  0.00     0.040 A 
ATOM     81  C   UNL A   1      44.490  36.979  28.782  1.00  0.00     0.040 A 
ATOM     82  F   UNL A   1      43.759  36.275  30.877  1.00  0.00    -0.206 F 
ATOM     83  C   UNL A   1      44.586  36.806  27.407  1.00  0.00     0.006 A 
ENDBRANCH  55  76
BRANCH  67  84
ATOM     84  C   UNL A   1      41.366  31.013  33.672  1.00  0.00     0.057 A 
ATOM     85  C   UNL A   1      40.253  31.835  33.914  1.00  0.00     0.134 A 
ATOM     86  C   UNL A   1      42.209  30.773  34.759  1.00  0.00     0.134 A 
ATOM     87  F   UNL A   1      39.334  32.048  32.970  1.00  0.00    -0.206 F 
ATOM     88  C   UNL A   1      40.009  32.414  35.164  1.00  0.00     0.040 A 
ATOM     89  C   UNL A   1      41.964  31.322  36.022  1.00  0.00     0.040 A 
ATOM     90  F   UNL A   1      43.261  29.950  34.626  1.00  0.00    -0.206 F 
ATOM     91  C   UNL A   1      40.864  32.152  36.226  1.00  0.00     0.006 A 
ENDBRANCH  67  84
ENDBRANCH  41  42
ENDBRANCH  33  36
ENDBRANCH  31  32
ENDBRANCH  30  31
ENDBRANCH  29  30
ENDBRANCH   3  29
TORSDOF 16
ENDMDL
