MODEL 1
REMARK VINA RESULT:     -11.4      0.000      0.000
REMARK SMILES O=C(C[C@H]1C[N@H+](Cc2ccncc2)CCO1)NCCCNC(=O)c1ccc(-c2c3nc(c(-c4c(F)cccc4F)c4ccc([nH]4)c(-c4c(F)cccc4F)c4nc(c(-c5c(F)cccc5F)c5ccc2[nH]5)C=C4)C=C3)cc1
REMARK SMILES IDX 18 1 17 2 1 3 2 4 3 6 4 7 5 8 16 9 6 10 15 11 14 12 7 14
REMARK SMILES IDX 8 15 9 16 13 17 10 18 12 19 11 20 19 21 20 22 21 23 22 24
REMARK SMILES IDX 23 26 24 27 25 28 77 29 26 30 76 31 27 32 28 33 29 34 70 35
REMARK SMILES IDX 30 36 75 37 69 38 71 39 31 40 74 41 68 42 67 43 32 45 58 46
REMARK SMILES IDX 41 47 57 48 42 49 45 50 56 51 72 52 43 53 44 54 55 56 73 57
REMARK SMILES IDX 46 58 33 59 34 60 39 61 35 62 36 63 38 64 40 65 37 66 59 67
REMARK SMILES IDX 60 68 65 69 61 70 62 71 64 72 66 73 63 74 47 75 48 76 53 77
REMARK SMILES IDX 49 78 50 79 52 80 54 81 51 82
REMARK H PARENT 17 5 6 13 21 25 71 44 45 55
REMARK Flexibility Score: inf
ROOT
ATOM      1  C   UNL A   1      31.709  30.527  26.420  1.00  0.00     0.117 C 
ENDROOT
BRANCH   1   2
ATOM      2  N   UNL A   1      32.457  30.078  25.270  1.00  0.00    -0.356 N 
ATOM      3  O   UNL A   1      34.014  28.825  26.379  1.00  0.00    -0.275 OA
ATOM      4  C   UNL A   1      33.410  29.098  25.348  1.00  0.00     0.222 C 
ATOM      5  H   UNL A   1      32.276  30.493  24.396  1.00  0.00     0.163 HD
BRANCH   4   6
ATOM      6  C   UNL A   1      33.738  28.458  24.021  1.00  0.00     0.138 C 
BRANCH   6   7
ATOM      7  C   UNL A   1      33.412  26.958  23.883  1.00  0.00     0.182 C 
ATOM      8  C   UNL A   1      31.977  26.607  24.305  1.00  0.00     0.295 C 
ATOM      9  O   UNL A   1      33.836  26.358  22.640  1.00  0.00    -0.366 OA
ATOM     10  N   UNL A   1      31.077  26.800  23.170  1.00  0.00    -0.327 N 
ATOM     11  C   UNL A   1      32.823  26.067  21.658  1.00  0.00     0.222 C 
ATOM     12  C   UNL A   1      31.404  25.787  22.175  1.00  0.00     0.291 C 
ATOM     13  H   UNL A   1      31.229  27.715  22.745  1.00  0.00     0.348 HD
BRANCH  10  14
ATOM     14  C   UNL A   1      29.674  26.914  23.540  1.00  0.00     0.299 C 
BRANCH  14  15
ATOM     15  C   UNL A   1      29.136  28.205  22.960  1.00  0.00     0.009 A 
ATOM     16  C   UNL A   1      30.012  29.131  22.382  1.00  0.00     0.029 A 
ATOM     17  C   UNL A   1      27.801  28.584  23.128  1.00  0.00     0.029 A 
ATOM     18  C   UNL A   1      29.527  30.378  22.015  1.00  0.00     0.111 A 
ATOM     19  C   UNL A   1      27.412  29.855  22.728  1.00  0.00     0.111 A 
ATOM     20  N   UNL A   1      28.239  30.753  22.151  1.00  0.00    -0.265 NA
ENDBRANCH  14  15
ENDBRANCH  10  14
ENDBRANCH   6   7
ENDBRANCH   4   6
ENDBRANCH   1   2
BRANCH   1  21
ATOM     21  C   UNL A   1      31.535  32.028  26.526  1.00  0.00     0.042 C 
BRANCH  21  22
ATOM     22  C   UNL A   1      32.675  32.721  27.250  1.00  0.00     0.118 C 
BRANCH  22  23
ATOM     23  N   UNL A   1      32.383  34.109  27.604  1.00  0.00    -0.352 N 
ATOM     24  C   UNL A   1      32.969  34.904  28.557  1.00  0.00     0.251 C 
ATOM     25  H   UNL A   1      31.663  34.534  27.085  1.00  0.00     0.163 HD
ATOM     26  O   UNL A   1      32.526  36.021  28.805  1.00  0.00    -0.269 OA
BRANCH  24  27
ATOM     27  C   UNL A   1      34.124  34.375  29.302  1.00  0.00     0.039 A 
ATOM     28  C   UNL A   1      33.906  33.634  30.465  1.00  0.00     0.014 A 
ATOM     29  C   UNL A   1      35.412  34.548  28.794  1.00  0.00     0.014 A 
ATOM     30  C   UNL A   1      34.982  32.987  31.073  1.00  0.00     0.010 A 
ATOM     31  C   UNL A   1      36.461  33.825  29.339  1.00  0.00     0.010 A 
ATOM     32  C   UNL A   1      36.257  33.043  30.486  1.00  0.00    -0.014 A 
BRANCH  32  33
ATOM     33  C   UNL A   1      37.412  32.314  31.060  1.00  0.00     0.031 A 
ATOM     34  C   UNL A   1      38.030  32.807  32.337  1.00  0.00     0.074 A 
ATOM     35  C   UNL A   1      37.959  31.285  30.386  1.00  0.00     0.049 A 
ATOM     36  N   UNL A   1      39.119  32.407  32.939  1.00  0.00    -0.248 NA
ATOM     37  C   UNL A   1      37.354  33.934  33.003  1.00  0.00     0.031 C 
ATOM     38  C   UNL A   1      37.487  30.761  29.102  1.00  0.00     0.029 A 
ATOM     39  N   UNL A   1      39.047  30.504  30.681  1.00  0.00    -0.354 N 
ATOM     40  C   UNL A   1      39.277  33.254  34.027  1.00  0.00     0.074 A 
ATOM     41  C   UNL A   1      38.206  34.223  33.975  1.00  0.00     0.031 C 
ATOM     42  C   UNL A   1      38.265  29.731  28.734  1.00  0.00     0.029 A 
ATOM     43  C   UNL A   1      39.310  29.544  29.736  1.00  0.00     0.049 A 
ATOM     44  H   UNL A   1      39.589  30.621  31.496  1.00  0.00     0.167 HD
ATOM     45  C   UNL A   1      40.214  33.210  35.002  1.00  0.00     0.037 A 
ATOM     46  C   UNL A   1      40.288  28.622  29.685  1.00  0.00     0.037 A 
ATOM     47  C   UNL A   1      41.243  32.209  35.078  1.00  0.00     0.049 A 
ATOM     48  C   UNL A   1      41.295  28.566  30.800  1.00  0.00     0.074 A 
ATOM     49  C   UNL A   1      42.191  32.018  36.066  1.00  0.00     0.029 A 
ATOM     50  N   UNL A   1      41.448  31.222  34.125  1.00  0.00    -0.354 N 
ATOM     51  N   UNL A   1      41.393  29.329  31.863  1.00  0.00    -0.248 NA
ATOM     52  C   UNL A   1      42.325  27.522  30.712  1.00  0.00     0.031 C 
ATOM     53  C   UNL A   1      42.988  30.929  35.697  1.00  0.00     0.029 A 
ATOM     54  C   UNL A   1      42.516  30.425  34.496  1.00  0.00     0.049 A 
ATOM     55  H   UNL A   1      40.914  31.107  33.306  1.00  0.00     0.167 HD
ATOM     56  C   UNL A   1      42.481  28.846  32.578  1.00  0.00     0.074 A 
ATOM     57  C   UNL A   1      43.000  27.715  31.836  1.00  0.00     0.031 C 
ATOM     58  C   UNL A   1      43.006  29.300  33.741  1.00  0.00     0.037 A 
BRANCH  45  59
ATOM     59  C   UNL A   1      40.151  34.266  36.064  1.00  0.00     0.057 A 
ATOM     60  C   UNL A   1      39.378  34.102  37.222  1.00  0.00     0.134 A 
ATOM     61  C   UNL A   1      40.871  35.459  35.932  1.00  0.00     0.134 A 
ATOM     62  F   UNL A   1      38.651  32.988  37.401  1.00  0.00    -0.206 F 
ATOM     63  C   UNL A   1      39.297  35.099  38.195  1.00  0.00     0.040 A 
ATOM     64  C   UNL A   1      40.820  36.454  36.911  1.00  0.00     0.040 A 
ATOM     65  F   UNL A   1      41.632  35.680  34.850  1.00  0.00    -0.206 F 
ATOM     66  C   UNL A   1      40.024  36.278  38.042  1.00  0.00     0.006 A 
ENDBRANCH  45  59
BRANCH  46  67
ATOM     67  C   UNL A   1      40.346  27.657  28.560  1.00  0.00     0.057 A 
ATOM     68  C   UNL A   1      41.102  27.935  27.415  1.00  0.00     0.134 A 
ATOM     69  C   UNL A   1      39.652  26.442  28.596  1.00  0.00     0.134 A 
ATOM     70  F   UNL A   1      41.775  29.092  27.316  1.00  0.00    -0.206 F 
ATOM     71  C   UNL A   1      41.156  27.048  26.339  1.00  0.00     0.040 A 
ATOM     72  C   UNL A   1      39.713  25.536  27.535  1.00  0.00     0.040 A 
ATOM     73  F   UNL A   1      38.916  26.114  29.667  1.00  0.00    -0.206 F 
ATOM     74  C   UNL A   1      40.462  25.842  26.399  1.00  0.00     0.006 A 
ENDBRANCH  46  67
BRANCH  58  75
ATOM     75  C   UNL A   1      44.187  28.559  34.290  1.00  0.00     0.057 A 
ATOM     76  C   UNL A   1      44.030  27.443  35.121  1.00  0.00     0.134 A 
ATOM     77  C   UNL A   1      45.490  28.937  33.945  1.00  0.00     0.134 A 
ATOM     78  F   UNL A   1      42.807  27.041  35.496  1.00  0.00    -0.206 F 
ATOM     79  C   UNL A   1      45.132  26.736  35.603  1.00  0.00     0.040 A 
ATOM     80  C   UNL A   1      46.599  28.226  34.403  1.00  0.00     0.040 A 
ATOM     81  F   UNL A   1      45.704  29.994  33.146  1.00  0.00    -0.206 F 
ATOM     82  C   UNL A   1      46.421  27.124  35.237  1.00  0.00     0.006 A 
ENDBRANCH  58  75
ENDBRANCH  32  33
ENDBRANCH  24  27
ENDBRANCH  22  23
ENDBRANCH  21  22
ENDBRANCH   1  21
TORSDOF 13
ENDMDL
MODEL 2
REMARK VINA RESULT:     -11.3      1.093      6.469
REMARK SMILES O=C(C[C@H]1C[N@H+](Cc2ccncc2)CCO1)NCCCNC(=O)c1ccc(-c2c3nc(c(-c4c(F)cccc4F)c4ccc([nH]4)c(-c4c(F)cccc4F)c4nc(c(-c5c(F)cccc5F)c5ccc2[nH]5)C=C4)C=C3)cc1
REMARK SMILES IDX 18 1 17 2 1 3 2 4 3 6 4 7 5 8 16 9 6 10 15 11 14 12 7 14
REMARK SMILES IDX 8 15 9 16 13 17 10 18 12 19 11 20 19 21 20 22 21 23 22 24
REMARK SMILES IDX 23 26 24 27 25 28 77 29 26 30 76 31 27 32 28 33 29 34 70 35
REMARK SMILES IDX 30 36 75 37 69 38 71 39 31 40 74 41 68 42 67 43 32 45 58 46
REMARK SMILES IDX 41 47 57 48 42 49 45 50 56 51 72 52 43 53 44 54 55 56 73 57
REMARK SMILES IDX 46 58 33 59 34 60 39 61 35 62 36 63 38 64 40 65 37 66 59 67
REMARK SMILES IDX 60 68 65 69 61 70 62 71 64 72 66 73 63 74 47 75 48 76 53 77
REMARK SMILES IDX 49 78 50 79 52 80 54 81 51 82
REMARK H PARENT 17 5 6 13 21 25 71 44 45 55
REMARK Flexibility Score: inf
ROOT
ATOM      1  C   UNL A   1      32.064  30.562  27.254  1.00  0.00     0.117 C 
ENDROOT
BRANCH   1   2
ATOM      2  N   UNL A   1      31.586  29.486  26.418  1.00  0.00    -0.356 N 
ATOM      3  O   UNL A   1      33.055  27.877  27.108  1.00  0.00    -0.275 OA
ATOM      4  C   UNL A   1      31.993  28.189  26.583  1.00  0.00     0.222 C 
ATOM      5  H   UNL A   1      30.944  29.693  25.701  1.00  0.00     0.163 HD
BRANCH   4   6
ATOM      6  C   UNL A   1      31.070  27.174  25.952  1.00  0.00     0.138 C 
BRANCH   6   7
ATOM      7  C   UNL A   1      31.246  26.932  24.441  1.00  0.00     0.182 C 
ATOM      8  C   UNL A   1      29.952  27.138  23.638  1.00  0.00     0.295 C 
ATOM      9  O   UNL A   1      32.416  27.548  23.860  1.00  0.00    -0.366 OA
ATOM     10  N   UNL A   1      29.817  28.551  23.291  1.00  0.00    -0.327 N 
ATOM     11  C   UNL A   1      32.222  28.724  23.052  1.00  0.00     0.222 C 
ATOM     12  C   UNL A   1      30.871  28.870  22.336  1.00  0.00     0.291 C 
ATOM     13  H   UNL A   1      29.955  29.137  24.114  1.00  0.00     0.348 HD
BRANCH  10  14
ATOM     14  C   UNL A   1      28.466  28.942  22.916  1.00  0.00     0.299 C 
BRANCH  14  15
ATOM     15  C   UNL A   1      28.488  30.405  22.524  1.00  0.00     0.009 A 
ATOM     16  C   UNL A   1      28.683  31.387  23.502  1.00  0.00     0.029 A 
ATOM     17  C   UNL A   1      28.154  30.822  21.233  1.00  0.00     0.029 A 
ATOM     18  C   UNL A   1      28.527  32.721  23.155  1.00  0.00     0.111 A 
ATOM     19  C   UNL A   1      28.022  32.182  20.986  1.00  0.00     0.111 A 
ATOM     20  N   UNL A   1      28.225  33.144  21.911  1.00  0.00    -0.265 NA
ENDBRANCH  14  15
ENDBRANCH  10  14
ENDBRANCH   6   7
ENDBRANCH   4   6
ENDBRANCH   1   2
BRANCH   1  21
ATOM     21  C   UNL A   1      31.554  31.938  26.880  1.00  0.00     0.042 C 
BRANCH  21  22
ATOM     22  C   UNL A   1      32.652  32.981  26.764  1.00  0.00     0.118 C 
BRANCH  22  23
ATOM     23  N   UNL A   1      32.424  34.163  27.593  1.00  0.00    -0.352 N 
ATOM     24  C   UNL A   1      33.105  34.589  28.705  1.00  0.00     0.251 C 
ATOM     25  H   UNL A   1      31.674  34.735  27.312  1.00  0.00     0.163 HD
ATOM     26  O   UNL A   1      32.711  35.553  29.355  1.00  0.00    -0.269 OA
BRANCH  24  27
ATOM     27  C   UNL A   1      34.303  33.843  29.125  1.00  0.00     0.039 A 
ATOM     28  C   UNL A   1      35.565  34.312  28.755  1.00  0.00     0.014 A 
ATOM     29  C   UNL A   1      34.168  32.729  29.955  1.00  0.00     0.014 A 
ATOM     30  C   UNL A   1      36.701  33.710  29.295  1.00  0.00     0.010 A 
ATOM     31  C   UNL A   1      35.292  32.197  30.567  1.00  0.00     0.010 A 
ATOM     32  C   UNL A   1      36.568  32.678  30.239  1.00  0.00    -0.014 A 
BRANCH  32  33
ATOM     33  C   UNL A   1      37.747  32.060  30.889  1.00  0.00     0.031 A 
ATOM     34  C   UNL A   1      38.503  30.983  30.165  1.00  0.00     0.074 A 
ATOM     35  C   UNL A   1      38.068  32.391  32.153  1.00  0.00     0.049 A 
ATOM     36  N   UNL A   1      39.472  30.218  30.595  1.00  0.00    -0.248 NA
ATOM     37  C   UNL A   1      38.079  30.697  28.783  1.00  0.00     0.031 C 
ATOM     38  C   UNL A   1      37.365  33.374  32.981  1.00  0.00     0.029 A 
ATOM     39  N   UNL A   1      39.063  31.922  32.972  1.00  0.00    -0.354 N 
ATOM     40  C   UNL A   1      39.745  29.341  29.554  1.00  0.00     0.074 A 
ATOM     41  C   UNL A   1      38.807  29.630  28.493  1.00  0.00     0.031 C 
ATOM     42  C   UNL A   1      37.966  33.452  34.179  1.00  0.00     0.029 A 
ATOM     43  C   UNL A   1      39.072  32.501  34.217  1.00  0.00     0.049 A 
ATOM     44  H   UNL A   1      39.711  31.234  32.693  1.00  0.00     0.167 HD
ATOM     45  C   UNL A   1      40.713  28.398  29.477  1.00  0.00     0.037 A 
ATOM     46  C   UNL A   1      39.883  32.283  35.269  1.00  0.00     0.037 A 
ATOM     47  C   UNL A   1      41.677  28.156  30.514  1.00  0.00     0.049 A 
ATOM     48  C   UNL A   1      40.976  31.259  35.146  1.00  0.00     0.074 A 
ATOM     49  C   UNL A   1      42.752  27.287  30.508  1.00  0.00     0.029 A 
ATOM     50  N   UNL A   1      41.684  28.797  31.744  1.00  0.00    -0.354 N 
ATOM     51  N   UNL A   1      41.271  30.484  34.130  1.00  0.00    -0.248 NA
ATOM     52  C   UNL A   1      41.851  31.081  36.312  1.00  0.00     0.031 C 
ATOM     53  C   UNL A   1      43.396  27.383  31.746  1.00  0.00     0.029 A 
ATOM     54  C   UNL A   1      42.740  28.335  32.510  1.00  0.00     0.049 A 
ATOM     55  H   UNL A   1      41.035  29.480  32.029  1.00  0.00     0.167 HD
ATOM     56  C   UNL A   1      42.374  29.741  34.526  1.00  0.00     0.074 A 
ATOM     57  C   UNL A   1      42.706  30.169  35.870  1.00  0.00     0.031 C 
ATOM     58  C   UNL A   1      43.050  28.786  33.842  1.00  0.00     0.037 A 
BRANCH  45  59
ATOM     59  C   UNL A   1      40.776  27.580  28.223  1.00  0.00     0.057 A 
ATOM     60  C   UNL A   1      40.100  26.358  28.105  1.00  0.00     0.134 A 
ATOM     61  C   UNL A   1      41.518  28.016  27.119  1.00  0.00     0.134 A 
ATOM     62  F   UNL A   1      39.385  25.875  29.134  1.00  0.00    -0.206 F 
ATOM     63  C   UNL A   1      40.185  25.583  26.947  1.00  0.00     0.040 A 
ATOM     64  C   UNL A   1      41.590  27.263  25.945  1.00  0.00     0.040 A 
ATOM     65  F   UNL A   1      42.189  29.177  27.164  1.00  0.00    -0.206 F 
ATOM     66  C   UNL A   1      40.929  26.039  25.860  1.00  0.00     0.006 A 
ENDBRANCH  45  59
BRANCH  46  67
ATOM     67  C   UNL A   1      39.713  33.070  36.515  1.00  0.00     0.057 A 
ATOM     68  C   UNL A   1      38.775  32.687  37.482  1.00  0.00     0.134 A 
ATOM     69  C   UNL A   1      40.476  34.214  36.773  1.00  0.00     0.134 A 
ATOM     70  F   UNL A   1      38.003  31.608  37.283  1.00  0.00    -0.206 F 
ATOM     71  C   UNL A   1      38.590  33.423  38.653  1.00  0.00     0.040 A 
ATOM     72  C   UNL A   1      40.315  34.948  37.950  1.00  0.00     0.040 A 
ATOM     73  F   UNL A   1      41.396  34.628  35.890  1.00  0.00    -0.206 F 
ATOM     74  C   UNL A   1      39.364  34.556  38.891  1.00  0.00     0.006 A 
ENDBRANCH  46  67
BRANCH  58  75
ATOM     75  C   UNL A   1      44.225  28.160  34.529  1.00  0.00     0.057 A 
ATOM     76  C   UNL A   1      44.097  26.982  35.274  1.00  0.00     0.134 A 
ATOM     77  C   UNL A   1      45.504  28.716  34.403  1.00  0.00     0.134 A 
ATOM     78  F   UNL A   1      42.896  26.410  35.442  1.00  0.00    -0.206 F 
ATOM     79  C   UNL A   1      45.201  26.386  35.885  1.00  0.00     0.040 A 
ATOM     80  C   UNL A   1      46.618  28.118  34.989  1.00  0.00     0.040 A 
ATOM     81  F   UNL A   1      45.691  29.841  33.694  1.00  0.00    -0.206 F 
ATOM     82  C   UNL A   1      46.468  26.951  35.736  1.00  0.00     0.006 A 
ENDBRANCH  58  75
ENDBRANCH  32  33
ENDBRANCH  24  27
ENDBRANCH  22  23
ENDBRANCH  21  22
ENDBRANCH   1  21
TORSDOF 13
ENDMDL
MODEL 3
REMARK VINA RESULT:     -11.3      5.716     10.589
REMARK SMILES O=C(C[C@H]1C[N@H+](Cc2ccncc2)CCO1)NCCCNC(=O)c1ccc(-c2c3nc(c(-c4c(F)cccc4F)c4ccc([nH]4)c(-c4c(F)cccc4F)c4nc(c(-c5c(F)cccc5F)c5ccc2[nH]5)C=C4)C=C3)cc1
REMARK SMILES IDX 18 1 17 2 1 3 2 4 3 6 4 7 5 8 16 9 6 10 15 11 14 12 7 14
REMARK SMILES IDX 8 15 9 16 13 17 10 18 12 19 11 20 19 21 20 22 21 23 22 24
REMARK SMILES IDX 23 26 24 27 25 28 77 29 26 30 76 31 27 32 28 33 29 34 70 35
REMARK SMILES IDX 30 36 75 37 69 38 71 39 31 40 74 41 68 42 67 43 32 45 58 46
REMARK SMILES IDX 41 47 57 48 42 49 45 50 56 51 72 52 43 53 44 54 55 56 73 57
REMARK SMILES IDX 46 58 33 59 34 60 39 61 35 62 36 63 38 64 40 65 37 66 59 67
REMARK SMILES IDX 60 68 65 69 61 70 62 71 64 72 66 73 63 74 47 75 48 76 53 77
REMARK SMILES IDX 49 78 50 79 52 80 54 81 51 82
REMARK H PARENT 17 5 6 13 21 25 71 44 45 55
REMARK Flexibility Score: inf
ROOT
ATOM      1  C   UNL A   1      37.147  21.051  24.676  1.00  0.00     0.117 C 
ENDROOT
BRANCH   1   2
ATOM      2  N   UNL A   1      36.219  21.434  25.712  1.00  0.00    -0.356 N 
ATOM      3  O   UNL A   1      36.759  23.653  25.813  1.00  0.00    -0.275 OA
ATOM      4  C   UNL A   1      35.968  22.742  26.030  1.00  0.00     0.222 C 
ATOM      5  H   UNL A   1      35.747  20.728  26.210  1.00  0.00     0.163 HD
BRANCH   4   6
ATOM      6  C   UNL A   1      34.675  22.952  26.780  1.00  0.00     0.138 C 
BRANCH   6   7
ATOM      7  C   UNL A   1      33.601  23.801  26.073  1.00  0.00     0.182 C 
ATOM      8  C   UNL A   1      33.286  23.319  24.648  1.00  0.00     0.295 C 
ATOM      9  O   UNL A   1      32.439  24.100  26.876  1.00  0.00    -0.366 OA
ATOM     10  N   UNL A   1      32.270  22.271  24.706  1.00  0.00    -0.327 N 
ATOM     11  C   UNL A   1      31.223  23.385  26.587  1.00  0.00     0.222 C 
ATOM     12  C   UNL A   1      31.026  22.890  25.145  1.00  0.00     0.291 C 
ATOM     13  H   UNL A   1      32.525  21.562  25.393  1.00  0.00     0.348 HD
BRANCH  10  14
ATOM     14  C   UNL A   1      32.195  21.454  23.503  1.00  0.00     0.299 C 
BRANCH  14  15
ATOM     15  C   UNL A   1      32.554  20.030  23.877  1.00  0.00     0.009 A 
ATOM     16  C   UNL A   1      32.528  19.025  22.904  1.00  0.00     0.029 A 
ATOM     17  C   UNL A   1      32.752  19.650  25.207  1.00  0.00     0.029 A 
ATOM     18  C   UNL A   1      32.688  17.704  23.298  1.00  0.00     0.111 A 
ATOM     19  C   UNL A   1      32.903  18.301  25.500  1.00  0.00     0.111 A 
ATOM     20  N   UNL A   1      32.901  17.320  24.572  1.00  0.00    -0.265 NA
ENDBRANCH  14  15
ENDBRANCH  10  14
ENDBRANCH   6   7
ENDBRANCH   4   6
ENDBRANCH   1   2
BRANCH   1  21
ATOM     21  C   UNL A   1      38.011  19.850  25.001  1.00  0.00     0.042 C 
BRANCH  21  22
ATOM     22  C   UNL A   1      39.201  20.180  25.884  1.00  0.00     0.118 C 
BRANCH  22  23
ATOM     23  N   UNL A   1      40.204  19.117  25.934  1.00  0.00    -0.352 N 
ATOM     24  C   UNL A   1      41.559  19.211  26.126  1.00  0.00     0.251 C 
ATOM     25  H   UNL A   1      39.856  18.205  25.813  1.00  0.00     0.163 HD
ATOM     26  O   UNL A   1      42.279  18.221  26.028  1.00  0.00    -0.269 OA
BRANCH  24  27
ATOM     27  C   UNL A   1      42.140  20.531  26.419  1.00  0.00     0.039 A 
ATOM     28  C   UNL A   1      42.542  21.352  25.364  1.00  0.00     0.014 A 
ATOM     29  C   UNL A   1      42.203  20.980  27.740  1.00  0.00     0.014 A 
ATOM     30  C   UNL A   1      42.928  22.665  25.631  1.00  0.00     0.010 A 
ATOM     31  C   UNL A   1      42.489  22.312  27.992  1.00  0.00     0.010 A 
ATOM     32  C   UNL A   1      42.860  23.165  26.941  1.00  0.00    -0.014 A 
BRANCH  32  33
ATOM     33  C   UNL A   1      43.193  24.574  27.257  1.00  0.00     0.031 A 
ATOM     34  C   UNL A   1      44.626  25.018  27.205  1.00  0.00     0.074 A 
ATOM     35  C   UNL A   1      42.230  25.412  27.684  1.00  0.00     0.049 A 
ATOM     36  N   UNL A   1      45.155  26.156  27.570  1.00  0.00    -0.248 NA
ATOM     37  C   UNL A   1      45.605  24.029  26.719  1.00  0.00     0.031 C 
ATOM     38  C   UNL A   1      40.813  25.074  27.840  1.00  0.00     0.029 A 
ATOM     39  N   UNL A   1      42.302  26.723  28.082  1.00  0.00    -0.354 N 
ATOM     40  C   UNL A   1      46.524  26.006  27.393  1.00  0.00     0.074 A 
ATOM     41  C   UNL A   1      46.751  24.653  26.941  1.00  0.00     0.031 C 
ATOM     42  C   UNL A   1      40.148  26.155  28.276  1.00  0.00     0.029 A 
ATOM     43  C   UNL A   1      41.093  27.250  28.463  1.00  0.00     0.049 A 
ATOM     44  H   UNL A   1      43.142  27.237  28.093  1.00  0.00     0.167 HD
ATOM     45  C   UNL A   1      47.502  26.925  27.563  1.00  0.00     0.037 A 
ATOM     46  C   UNL A   1      40.789  28.480  28.917  1.00  0.00     0.037 A 
ATOM     47  C   UNL A   1      47.262  28.285  27.959  1.00  0.00     0.049 A 
ATOM     48  C   UNL A   1      41.886  29.496  29.060  1.00  0.00     0.074 A 
ATOM     49  C   UNL A   1      48.168  29.323  28.079  1.00  0.00     0.029 A 
ATOM     50  N   UNL A   1      46.016  28.797  28.291  1.00  0.00    -0.354 N 
ATOM     51  N   UNL A   1      43.169  29.365  28.821  1.00  0.00    -0.248 NA
ATOM     52  C   UNL A   1      41.496  30.832  29.531  1.00  0.00     0.031 C 
ATOM     53  C   UNL A   1      47.473  30.458  28.509  1.00  0.00     0.029 A 
ATOM     54  C   UNL A   1      46.131  30.135  28.627  1.00  0.00     0.049 A 
ATOM     55  H   UNL A   1      45.175  28.285  28.288  1.00  0.00     0.167 HD
ATOM     56  C   UNL A   1      43.736  30.603  29.095  1.00  0.00     0.074 A 
ATOM     57  C   UNL A   1      42.654  31.476  29.501  1.00  0.00     0.031 C 
ATOM     58  C   UNL A   1      45.034  30.982  29.021  1.00  0.00     0.037 A 
BRANCH  45  59
ATOM     59  C   UNL A   1      48.911  26.484  27.304  1.00  0.00     0.057 A 
ATOM     60  C   UNL A   1      49.479  26.544  26.024  1.00  0.00     0.134 A 
ATOM     61  C   UNL A   1      49.711  25.996  28.343  1.00  0.00     0.134 A 
ATOM     62  F   UNL A   1      48.759  26.987  24.982  1.00  0.00    -0.206 F 
ATOM     63  C   UNL A   1      50.781  26.105  25.781  1.00  0.00     0.040 A 
ATOM     64  C   UNL A   1      51.025  25.578  28.118  1.00  0.00     0.040 A 
ATOM     65  F   UNL A   1      49.231  25.912  29.593  1.00  0.00    -0.206 F 
ATOM     66  C   UNL A   1      51.560  25.624  26.832  1.00  0.00     0.006 A 
ENDBRANCH  45  59
BRANCH  46  67
ATOM     67  C   UNL A   1      39.383  28.829  29.237  1.00  0.00     0.057 A 
ATOM     68  C   UNL A   1      38.540  29.376  28.263  1.00  0.00     0.134 A 
ATOM     69  C   UNL A   1      38.847  28.627  30.514  1.00  0.00     0.134 A 
ATOM     70  F   UNL A   1      39.002  29.608  27.024  1.00  0.00    -0.206 F 
ATOM     71  C   UNL A   1      37.220  29.726  28.548  1.00  0.00     0.040 A 
ATOM     72  C   UNL A   1      37.521  28.953  30.809  1.00  0.00     0.040 A 
ATOM     73  F   UNL A   1      39.601  28.100  31.490  1.00  0.00    -0.206 F 
ATOM     74  C   UNL A   1      36.706  29.511  29.825  1.00  0.00     0.006 A 
ENDBRANCH  46  67
BRANCH  58  75
ATOM     75  C   UNL A   1      45.349  32.406  29.365  1.00  0.00     0.057 A 
ATOM     76  C   UNL A   1      45.282  33.424  28.407  1.00  0.00     0.134 A 
ATOM     77  C   UNL A   1      45.674  32.766  30.679  1.00  0.00     0.134 A 
ATOM     78  F   UNL A   1      44.990  33.137  27.130  1.00  0.00    -0.206 F 
ATOM     79  C   UNL A   1      45.544  34.753  28.741  1.00  0.00     0.040 A 
ATOM     80  C   UNL A   1      45.916  34.094  31.029  1.00  0.00     0.040 A 
ATOM     81  F   UNL A   1      45.745  31.836  31.644  1.00  0.00    -0.206 F 
ATOM     82  C   UNL A   1      45.855  35.091  30.057  1.00  0.00     0.006 A 
ENDBRANCH  58  75
ENDBRANCH  32  33
ENDBRANCH  24  27
ENDBRANCH  22  23
ENDBRANCH  21  22
ENDBRANCH   1  21
TORSDOF 13
ENDMDL
