MODEL 1
REMARK VINA RESULT:     -11.4      0.000      0.000
REMARK SMILES Cc1ccc(C)c(NC(=O)/C=C/C(=O)NCCCNC(=O)c2ccc(-c3c4nc(c(-c5c(F)cccc5F)c5ccc([nH]5)c(-c5c(F)cccc5F)c5nc(c(-c6c(F)cccc6F)c6ccc3[nH]6)C=C5)C=C4)cc2)c1
REMARK SMILES IDX 17 1 16 2 15 3 13 4 14 5 12 7 11 8 9 9 8 10 10 12 7 13 1 14
REMARK SMILES IDX 2 15 3 16 76 17 4 18 5 19 6 20 18 21 19 22 20 23 21 25 22 26
REMARK SMILES IDX 23 27 75 28 24 29 74 30 25 31 26 32 27 33 68 34 28 35 73 36
REMARK SMILES IDX 67 37 69 38 29 39 72 40 66 41 65 42 30 44 56 45 39 46 55 47
REMARK SMILES IDX 40 48 43 49 54 50 70 51 41 52 42 53 53 55 71 56 44 57 31 58
REMARK SMILES IDX 32 59 37 60 33 61 34 62 36 63 38 64 35 65 57 66 58 67 63 68
REMARK SMILES IDX 59 69 60 70 62 71 64 72 61 73 45 74 46 75 51 76 47 77 48 78
REMARK SMILES IDX 50 79 52 80 49 81
REMARK H PARENT 15 6 8 11 19 24 69 43 43 54
REMARK Flexibility Score: inf
ROOT
ATOM      1  C   UNL A   1      42.282  19.682  27.097  1.00  0.00     0.042 C 
ENDROOT
BRANCH   1   2
ATOM      2  C   UNL A   1      42.784  18.674  26.053  1.00  0.00     0.118 C 
BRANCH   2   3
ATOM      3  N   UNL A   1      44.211  18.447  26.165  1.00  0.00    -0.352 N 
ATOM      4  C   UNL A   1      45.139  18.781  25.229  1.00  0.00     0.244 C 
ATOM      5  O   UNL A   1      46.141  18.091  25.075  1.00  0.00    -0.270 OA
ATOM      6  H   UNL A   1      44.536  18.014  26.987  1.00  0.00     0.163 HD
BRANCH   4   7
ATOM      7  C   UNL A   1      44.899  20.038  24.492  1.00  0.00     0.077 C 
ATOM      8  C   UNL A   1      45.483  21.172  24.897  1.00  0.00     0.077 C 
BRANCH   8   9
ATOM      9  C   UNL A   1      44.995  22.412  24.289  1.00  0.00     0.248 C 
ATOM     10  N   UNL A   1      45.124  23.605  24.931  1.00  0.00    -0.322 N 
ATOM     11  H   UNL A   1      44.927  24.364  24.336  1.00  0.00     0.170 HD
ATOM     12  O   UNL A   1      44.523  22.378  23.151  1.00  0.00    -0.270 OA
BRANCH  10  13
ATOM     13  C   UNL A   1      45.470  24.036  26.236  1.00  0.00     0.044 A 
ATOM     14  C   UNL A   1      44.160  23.010  29.695  1.00  0.00     0.044 C 
ATOM     15  C   UNL A   1      44.886  23.748  28.614  1.00  0.00    -0.049 A 
ATOM     16  C   UNL A   1      45.807  24.728  28.962  1.00  0.00     0.004 A 
ATOM     17  C   UNL A   1      44.701  23.438  27.257  1.00  0.00     0.029 A 
ATOM     18  C   UNL A   1      46.602  25.297  27.981  1.00  0.00     0.006 A 
ATOM     19  C   UNL A   1      46.507  24.896  26.632  1.00  0.00    -0.027 A 
ATOM     20  C   UNL A   1      47.643  25.366  25.783  1.00  0.00     0.046 C 
ENDBRANCH  10  13
ENDBRANCH   8   9
ENDBRANCH   4   7
ENDBRANCH   2   3
ENDBRANCH   1   2
BRANCH   1  21
ATOM     21  C   UNL A   1      41.992  21.094  26.585  1.00  0.00     0.118 C 
BRANCH  21  22
ATOM     22  N   UNL A   1      40.583  21.271  26.226  1.00  0.00    -0.352 N 
ATOM     23  C   UNL A   1      39.620  22.223  26.462  1.00  0.00     0.251 C 
ATOM     24  H   UNL A   1      40.242  20.525  25.682  1.00  0.00     0.163 HD
ATOM     25  O   UNL A   1      38.460  21.961  26.126  1.00  0.00    -0.269 OA
BRANCH  23  26
ATOM     26  C   UNL A   1      39.903  23.530  27.098  1.00  0.00     0.039 A 
ATOM     27  C   UNL A   1      41.068  23.732  27.851  1.00  0.00     0.014 A 
ATOM     28  C   UNL A   1      39.004  24.579  26.981  1.00  0.00     0.014 A 
ATOM     29  C   UNL A   1      41.268  24.964  28.474  1.00  0.00     0.010 A 
ATOM     30  C   UNL A   1      39.313  25.851  27.365  1.00  0.00     0.010 A 
ATOM     31  C   UNL A   1      40.370  26.013  28.223  1.00  0.00    -0.014 A 
BRANCH  31  32
ATOM     32  C   UNL A   1      40.564  27.347  28.745  1.00  0.00     0.031 A 
ATOM     33  C   UNL A   1      41.690  28.037  28.103  1.00  0.00     0.074 A 
ATOM     34  C   UNL A   1      39.706  28.025  29.531  1.00  0.00     0.049 A 
ATOM     35  N   UNL A   1      42.898  28.086  28.544  1.00  0.00    -0.248 NA
ATOM     36  C   UNL A   1      41.514  28.540  26.735  1.00  0.00     0.031 C 
ATOM     37  C   UNL A   1      38.340  27.687  29.937  1.00  0.00     0.029 A 
ATOM     38  N   UNL A   1      39.903  29.246  30.095  1.00  0.00    -0.354 N 
ATOM     39  C   UNL A   1      43.587  28.849  27.619  1.00  0.00     0.074 A 
ATOM     40  C   UNL A   1      42.771  28.877  26.433  1.00  0.00     0.031 C 
ATOM     41  C   UNL A   1      37.777  28.758  30.548  1.00  0.00     0.029 A 
ATOM     42  C   UNL A   1      38.786  29.795  30.707  1.00  0.00     0.049 A 
ATOM     43  H   UNL A   1      40.773  29.707  30.071  1.00  0.00     0.167 HD
ATOM     44  C   UNL A   1      44.622  29.633  28.018  1.00  0.00     0.037 A 
ATOM     45  C   UNL A   1      38.717  31.025  31.274  1.00  0.00     0.037 A 
ATOM     46  C   UNL A   1      45.015  29.327  29.377  1.00  0.00     0.049 A 
ATOM     47  C   UNL A   1      40.110  31.452  31.570  1.00  0.00     0.074 A 
ATOM     48  C   UNL A   1      45.424  28.185  30.043  1.00  0.00     0.029 A 
ATOM     49  N   UNL A   1      44.604  30.201  30.358  1.00  0.00    -0.354 N 
ATOM     50  N   UNL A   1      40.862  30.912  32.487  1.00  0.00    -0.248 NA
ATOM     51  C   UNL A   1      40.821  32.223  30.561  1.00  0.00     0.031 C 
ATOM     52  C   UNL A   1      44.807  28.259  31.329  1.00  0.00     0.029 A 
ATOM     53  C   UNL A   1      44.107  29.464  31.403  1.00  0.00     0.049 A 
ATOM     54  H   UNL A   1      44.659  31.183  30.317  1.00  0.00     0.167 HD
ATOM     55  C   UNL A   1      42.132  30.886  31.929  1.00  0.00     0.074 A 
ATOM     56  C   UNL A   1      42.069  31.815  30.806  1.00  0.00     0.031 C 
ATOM     57  C   UNL A   1      43.020  29.900  32.253  1.00  0.00     0.037 A 
BRANCH  44  58
ATOM     58  C   UNL A   1      45.000  30.926  27.351  1.00  0.00     0.057 A 
ATOM     59  C   UNL A   1      46.303  31.066  26.848  1.00  0.00     0.134 A 
ATOM     60  C   UNL A   1      44.248  32.117  27.419  1.00  0.00     0.134 A 
ATOM     61  F   UNL A   1      47.121  30.007  26.757  1.00  0.00    -0.206 F 
ATOM     62  C   UNL A   1      46.840  32.310  26.501  1.00  0.00     0.040 A 
ATOM     63  C   UNL A   1      44.753  33.354  27.019  1.00  0.00     0.040 A 
ATOM     64  F   UNL A   1      43.030  32.174  27.973  1.00  0.00    -0.206 F 
ATOM     65  C   UNL A   1      46.065  33.460  26.588  1.00  0.00     0.006 A 
ENDBRANCH  44  58
BRANCH  45  66
ATOM     66  C   UNL A   1      37.579  31.964  31.386  1.00  0.00     0.057 A 
ATOM     67  C   UNL A   1      37.103  32.657  30.261  1.00  0.00     0.134 A 
ATOM     68  C   UNL A   1      36.746  31.976  32.515  1.00  0.00     0.134 A 
ATOM     69  F   UNL A   1      37.812  32.681  29.123  1.00  0.00    -0.206 F 
ATOM     70  C   UNL A   1      35.849  33.281  30.245  1.00  0.00     0.040 A 
ATOM     71  C   UNL A   1      35.494  32.601  32.515  1.00  0.00     0.040 A 
ATOM     72  F   UNL A   1      37.075  31.300  33.625  1.00  0.00    -0.206 F 
ATOM     73  C   UNL A   1      35.032  33.240  31.369  1.00  0.00     0.006 A 
ENDBRANCH  45  66
BRANCH  57  74
ATOM     74  C   UNL A   1      42.715  29.060  33.466  1.00  0.00     0.057 A 
ATOM     75  C   UNL A   1      41.876  27.934  33.467  1.00  0.00     0.134 A 
ATOM     76  C   UNL A   1      43.386  29.344  34.661  1.00  0.00     0.134 A 
ATOM     77  F   UNL A   1      41.268  27.517  32.349  1.00  0.00    -0.206 F 
ATOM     78  C   UNL A   1      41.671  27.166  34.619  1.00  0.00     0.040 A 
ATOM     79  C   UNL A   1      43.219  28.564  35.807  1.00  0.00     0.040 A 
ATOM     80  F   UNL A   1      44.245  30.373  34.726  1.00  0.00    -0.206 F 
ATOM     81  C   UNL A   1      42.348  27.479  35.794  1.00  0.00     0.006 A 
ENDBRANCH  57  74
ENDBRANCH  31  32
ENDBRANCH  23  26
ENDBRANCH  21  22
ENDBRANCH   1  21
TORSDOF 12
ENDMDL
MODEL 2
REMARK VINA RESULT:     -11.3      0.648      1.383
REMARK SMILES Cc1ccc(C)c(NC(=O)/C=C/C(=O)NCCCNC(=O)c2ccc(-c3c4nc(c(-c5c(F)cccc5F)c5ccc([nH]5)c(-c5c(F)cccc5F)c5nc(c(-c6c(F)cccc6F)c6ccc3[nH]6)C=C5)C=C4)cc2)c1
REMARK SMILES IDX 17 1 16 2 15 3 13 4 14 5 12 7 11 8 9 9 8 10 10 12 7 13 1 14
REMARK SMILES IDX 2 15 3 16 76 17 4 18 5 19 6 20 18 21 19 22 20 23 21 25 22 26
REMARK SMILES IDX 23 27 75 28 24 29 74 30 25 31 26 32 27 33 68 34 28 35 73 36
REMARK SMILES IDX 67 37 69 38 29 39 72 40 66 41 65 42 30 44 56 45 39 46 55 47
REMARK SMILES IDX 40 48 43 49 54 50 70 51 41 52 42 53 53 55 71 56 44 57 31 58
REMARK SMILES IDX 32 59 37 60 33 61 34 62 36 63 38 64 35 65 57 66 58 67 63 68
REMARK SMILES IDX 59 69 60 70 62 71 64 72 61 73 45 74 46 75 51 76 47 77 48 78
REMARK SMILES IDX 50 79 52 80 49 81
REMARK H PARENT 15 6 8 11 19 24 69 43 43 54
REMARK Flexibility Score: inf
ROOT
ATOM      1  C   UNL A   1      42.286  19.728  27.142  1.00  0.00     0.042 C 
ENDROOT
BRANCH   1   2
ATOM      2  C   UNL A   1      42.875  18.836  26.039  1.00  0.00     0.118 C 
BRANCH   2   3
ATOM      3  N   UNL A   1      44.272  18.537  26.276  1.00  0.00    -0.352 N 
ATOM      4  C   UNL A   1      45.265  18.625  25.352  1.00  0.00     0.244 C 
ATOM      5  O   UNL A   1      46.216  17.850  25.388  1.00  0.00    -0.270 OA
ATOM      6  H   UNL A   1      44.524  18.245  27.182  1.00  0.00     0.163 HD
BRANCH   4   7
ATOM      7  C   UNL A   1      45.159  19.733  24.382  1.00  0.00     0.077 C 
ATOM      8  C   UNL A   1      45.220  21.001  24.808  1.00  0.00     0.077 C 
BRANCH   8   9
ATOM      9  C   UNL A   1      44.844  22.034  23.839  1.00  0.00     0.248 C 
ATOM     10  N   UNL A   1      44.912  23.354  24.163  1.00  0.00    -0.322 N 
ATOM     11  H   UNL A   1      44.812  23.930  23.370  1.00  0.00     0.170 HD
ATOM     12  O   UNL A   1      44.527  21.700  22.697  1.00  0.00    -0.270 OA
BRANCH  10  13
ATOM     13  C   UNL A   1      45.090  24.113  25.345  1.00  0.00     0.044 A 
ATOM     14  C   UNL A   1      48.201  24.833  27.475  1.00  0.00     0.044 C 
ATOM     15  C   UNL A   1      46.776  24.762  27.023  1.00  0.00    -0.049 A 
ATOM     16  C   UNL A   1      45.800  25.430  27.751  1.00  0.00     0.004 A 
ATOM     17  C   UNL A   1      46.407  24.083  25.851  1.00  0.00     0.029 A 
ATOM     18  C   UNL A   1      44.511  25.510  27.251  1.00  0.00     0.006 A 
ATOM     19  C   UNL A   1      44.165  24.935  26.010  1.00  0.00    -0.027 A 
ATOM     20  C   UNL A   1      42.844  25.392  25.483  1.00  0.00     0.046 C 
ENDBRANCH  10  13
ENDBRANCH   8   9
ENDBRANCH   4   7
ENDBRANCH   2   3
ENDBRANCH   1   2
BRANCH   1  21
ATOM     21  C   UNL A   1      42.002  21.180  26.755  1.00  0.00     0.118 C 
BRANCH  21  22
ATOM     22  N   UNL A   1      40.617  21.374  26.321  1.00  0.00    -0.352 N 
ATOM     23  C   UNL A   1      39.657  22.342  26.500  1.00  0.00     0.251 C 
ATOM     24  H   UNL A   1      40.294  20.629  25.765  1.00  0.00     0.163 HD
ATOM     25  O   UNL A   1      38.512  22.093  26.105  1.00  0.00    -0.269 OA
BRANCH  23  26
ATOM     26  C   UNL A   1      39.924  23.648  27.141  1.00  0.00     0.039 A 
ATOM     27  C   UNL A   1      41.007  23.818  28.015  1.00  0.00     0.014 A 
ATOM     28  C   UNL A   1      39.090  24.732  26.907  1.00  0.00     0.014 A 
ATOM     29  C   UNL A   1      41.190  25.054  28.636  1.00  0.00     0.010 A 
ATOM     30  C   UNL A   1      39.411  25.997  27.302  1.00  0.00     0.010 A 
ATOM     31  C   UNL A   1      40.372  26.134  28.269  1.00  0.00    -0.014 A 
BRANCH  31  32
ATOM     32  C   UNL A   1      40.566  27.470  28.787  1.00  0.00     0.031 A 
ATOM     33  C   UNL A   1      41.688  28.160  28.140  1.00  0.00     0.074 A 
ATOM     34  C   UNL A   1      39.709  28.148  29.574  1.00  0.00     0.049 A 
ATOM     35  N   UNL A   1      42.898  28.212  28.577  1.00  0.00    -0.248 NA
ATOM     36  C   UNL A   1      41.507  28.659  26.771  1.00  0.00     0.031 C 
ATOM     37  C   UNL A   1      38.345  27.809  29.985  1.00  0.00     0.029 A 
ATOM     38  N   UNL A   1      39.905  29.371  30.134  1.00  0.00    -0.354 N 
ATOM     39  C   UNL A   1      43.583  28.973  27.648  1.00  0.00     0.074 A 
ATOM     40  C   UNL A   1      42.763  28.997  26.464  1.00  0.00     0.031 C 
ATOM     41  C   UNL A   1      37.782  28.881  30.595  1.00  0.00     0.029 A 
ATOM     42  C   UNL A   1      38.789  29.920  30.748  1.00  0.00     0.049 A 
ATOM     43  H   UNL A   1      40.774  29.834  30.106  1.00  0.00     0.167 HD
ATOM     44  C   UNL A   1      44.617  29.761  28.042  1.00  0.00     0.037 A 
ATOM     45  C   UNL A   1      38.720  31.151  31.312  1.00  0.00     0.037 A 
ATOM     46  C   UNL A   1      45.015  29.459  29.400  1.00  0.00     0.049 A 
ATOM     47  C   UNL A   1      40.113  31.582  31.603  1.00  0.00     0.074 A 
ATOM     48  C   UNL A   1      45.428  28.320  30.068  1.00  0.00     0.029 A 
ATOM     49  N   UNL A   1      44.606  30.335  30.380  1.00  0.00    -0.354 N 
ATOM     50  N   UNL A   1      40.869  31.045  32.518  1.00  0.00    -0.248 NA
ATOM     51  C   UNL A   1      40.820  32.351  30.589  1.00  0.00     0.031 C 
ATOM     52  C   UNL A   1      44.815  28.396  31.356  1.00  0.00     0.029 A 
ATOM     53  C   UNL A   1      44.113  29.600  31.428  1.00  0.00     0.049 A 
ATOM     54  H   UNL A   1      44.659  31.316  30.336  1.00  0.00     0.167 HD
ATOM     55  C   UNL A   1      42.138  31.020  31.957  1.00  0.00     0.074 A 
ATOM     56  C   UNL A   1      42.069  31.946  30.831  1.00  0.00     0.031 C 
ATOM     57  C   UNL A   1      43.028  30.036  32.281  1.00  0.00     0.037 A 
BRANCH  44  58
ATOM     58  C   UNL A   1      44.991  31.052  27.370  1.00  0.00     0.057 A 
ATOM     59  C   UNL A   1      46.290  31.190  26.856  1.00  0.00     0.134 A 
ATOM     60  C   UNL A   1      44.241  32.244  27.443  1.00  0.00     0.134 A 
ATOM     61  F   UNL A   1      47.107  30.131  26.760  1.00  0.00    -0.206 F 
ATOM     62  C   UNL A   1      46.825  32.434  26.504  1.00  0.00     0.040 A 
ATOM     63  C   UNL A   1      44.744  33.481  27.036  1.00  0.00     0.040 A 
ATOM     64  F   UNL A   1      43.028  32.303  28.005  1.00  0.00    -0.206 F 
ATOM     65  C   UNL A   1      46.052  33.585  26.595  1.00  0.00     0.006 A 
ENDBRANCH  44  58
BRANCH  45  66
ATOM     66  C   UNL A   1      37.581  32.089  31.424  1.00  0.00     0.057 A 
ATOM     67  C   UNL A   1      37.119  32.800  30.305  1.00  0.00     0.134 A 
ATOM     68  C   UNL A   1      36.734  32.082  32.543  1.00  0.00     0.134 A 
ATOM     69  F   UNL A   1      37.843  32.843  29.177  1.00  0.00    -0.206 F 
ATOM     70  C   UNL A   1      35.866  33.425  30.283  1.00  0.00     0.040 A 
ATOM     71  C   UNL A   1      35.482  32.708  32.537  1.00  0.00     0.040 A 
ATOM     72  F   UNL A   1      37.048  31.388  33.645  1.00  0.00    -0.206 F 
ATOM     73  C   UNL A   1      35.035  33.366  31.396  1.00  0.00     0.006 A 
ENDBRANCH  45  66
BRANCH  57  74
ATOM     74  C   UNL A   1      42.728  29.199  33.497  1.00  0.00     0.057 A 
ATOM     75  C   UNL A   1      43.084  29.543  34.811  1.00  0.00     0.134 A 
ATOM     76  C   UNL A   1      41.953  28.045  33.338  1.00  0.00     0.134 A 
ATOM     77  F   UNL A   1      43.738  30.680  35.081  1.00  0.00    -0.206 F 
ATOM     78  C   UNL A   1      42.733  28.743  35.904  1.00  0.00     0.040 A 
ATOM     79  C   UNL A   1      41.564  27.258  34.424  1.00  0.00     0.040 A 
ATOM     80  F   UNL A   1      41.529  27.677  32.118  1.00  0.00    -0.206 F 
ATOM     81  C   UNL A   1      41.966  27.598  35.712  1.00  0.00     0.006 A 
ENDBRANCH  57  74
ENDBRANCH  31  32
ENDBRANCH  23  26
ENDBRANCH  21  22
ENDBRANCH   1  21
TORSDOF 12
ENDMDL
MODEL 3
REMARK VINA RESULT:     -11.2      5.101     10.834
REMARK SMILES Cc1ccc(C)c(NC(=O)/C=C/C(=O)NCCCNC(=O)c2ccc(-c3c4nc(c(-c5c(F)cccc5F)c5ccc([nH]5)c(-c5c(F)cccc5F)c5nc(c(-c6c(F)cccc6F)c6ccc3[nH]6)C=C5)C=C4)cc2)c1
REMARK SMILES IDX 17 1 16 2 15 3 13 4 14 5 12 7 11 8 9 9 8 10 10 12 7 13 1 14
REMARK SMILES IDX 2 15 3 16 76 17 4 18 5 19 6 20 18 21 19 22 20 23 21 25 22 26
REMARK SMILES IDX 23 27 75 28 24 29 74 30 25 31 26 32 27 33 68 34 28 35 73 36
REMARK SMILES IDX 67 37 69 38 29 39 72 40 66 41 65 42 30 44 56 45 39 46 55 47
REMARK SMILES IDX 40 48 43 49 54 50 70 51 41 52 42 53 53 55 71 56 44 57 31 58
REMARK SMILES IDX 32 59 37 60 33 61 34 62 36 63 38 64 35 65 57 66 58 67 63 68
REMARK SMILES IDX 59 69 60 70 62 71 64 72 61 73 45 74 46 75 51 76 47 77 48 78
REMARK SMILES IDX 50 79 52 80 49 81
REMARK H PARENT 15 6 8 11 19 24 69 43 43 54
REMARK Flexibility Score: inf
ROOT
ATOM      1  C   UNL A   1      33.915  31.630  27.636  1.00  0.00     0.042 C 
ENDROOT
BRANCH   1   2
ATOM      2  C   UNL A   1      34.688  30.307  27.535  1.00  0.00     0.118 C 
BRANCH   2   3
ATOM      3  N   UNL A   1      33.853  29.168  27.857  1.00  0.00    -0.352 N 
ATOM      4  C   UNL A   1      32.951  28.590  27.020  1.00  0.00     0.244 C 
ATOM      5  O   UNL A   1      31.921  28.093  27.466  1.00  0.00    -0.270 OA
ATOM      6  H   UNL A   1      33.946  28.780  28.757  1.00  0.00     0.163 HD
BRANCH   4   7
ATOM      7  C   UNL A   1      33.325  28.535  25.593  1.00  0.00     0.077 C 
ATOM      8  C   UNL A   1      32.689  29.310  24.706  1.00  0.00     0.077 C 
BRANCH   8   9
ATOM      9  C   UNL A   1      32.925  29.013  23.291  1.00  0.00     0.248 C 
ATOM     10  N   UNL A   1      31.902  29.024  22.393  1.00  0.00    -0.322 N 
ATOM     11  H   UNL A   1      32.230  28.992  21.465  1.00  0.00     0.170 HD
ATOM     12  O   UNL A   1      34.077  28.816  22.903  1.00  0.00    -0.270 OA
BRANCH  10  13
ATOM     13  C   UNL A   1      30.487  29.070  22.449  1.00  0.00     0.044 A 
ATOM     14  C   UNL A   1      27.939  31.407  20.781  1.00  0.00     0.044 C 
ATOM     15  C   UNL A   1      28.536  30.357  21.666  1.00  0.00    -0.049 A 
ATOM     16  C   UNL A   1      27.694  29.543  22.413  1.00  0.00     0.004 A 
ATOM     17  C   UNL A   1      29.921  30.136  21.718  1.00  0.00     0.029 A 
ATOM     18  C   UNL A   1      28.224  28.464  23.102  1.00  0.00     0.006 A 
ATOM     19  C   UNL A   1      29.602  28.164  23.055  1.00  0.00    -0.027 A 
ATOM     20  C   UNL A   1      29.940  26.806  23.575  1.00  0.00     0.046 C 
ENDBRANCH  10  13
ENDBRANCH   8   9
ENDBRANCH   4   7
ENDBRANCH   2   3
ENDBRANCH   1   2
BRANCH   1  21
ATOM     21  C   UNL A   1      34.675  32.809  28.247  1.00  0.00     0.118 C 
BRANCH  21  22
ATOM     22  N   UNL A   1      34.592  32.819  29.709  1.00  0.00    -0.352 N 
ATOM     23  C   UNL A   1      35.290  32.232  30.738  1.00  0.00     0.251 C 
ATOM     24  H   UNL A   1      33.856  33.386  30.035  1.00  0.00     0.163 HD
ATOM     25  O   UNL A   1      34.829  32.344  31.880  1.00  0.00    -0.269 OA
BRANCH  23  26
ATOM     26  C   UNL A   1      36.547  31.476  30.545  1.00  0.00     0.039 A 
ATOM     27  C   UNL A   1      37.757  32.137  30.293  1.00  0.00     0.014 A 
ATOM     28  C   UNL A   1      36.549  30.090  30.586  1.00  0.00     0.014 A 
ATOM     29  C   UNL A   1      38.909  31.381  30.067  1.00  0.00     0.010 A 
ATOM     30  C   UNL A   1      37.703  29.363  30.625  1.00  0.00     0.010 A 
ATOM     31  C   UNL A   1      38.858  29.988  30.231  1.00  0.00    -0.014 A 
BRANCH  31  32
ATOM     32  C   UNL A   1      40.028  29.147  30.119  1.00  0.00     0.031 A 
ATOM     33  C   UNL A   1      40.654  28.889  31.422  1.00  0.00     0.074 A 
ATOM     34  C   UNL A   1      40.401  28.447  29.031  1.00  0.00     0.049 A 
ATOM     35  N   UNL A   1      41.632  29.550  31.935  1.00  0.00    -0.248 NA
ATOM     36  C   UNL A   1      39.999  27.947  32.339  1.00  0.00     0.031 C 
ATOM     37  C   UNL A   1      39.691  28.227  27.769  1.00  0.00     0.029 A 
ATOM     38  N   UNL A   1      41.535  27.713  28.879  1.00  0.00    -0.354 N 
ATOM     39  C   UNL A   1      41.880  28.938  33.150  1.00  0.00     0.074 A 
ATOM     40  C   UNL A   1      40.711  28.152  33.451  1.00  0.00     0.031 C 
ATOM     41  C   UNL A   1      40.342  27.281  27.048  1.00  0.00     0.029 A 
ATOM     42  C   UNL A   1      41.584  26.943  27.727  1.00  0.00     0.049 A 
ATOM     43  H   UNL A   1      42.267  27.727  29.537  1.00  0.00     0.167 HD
ATOM     44  C   UNL A   1      43.143  28.898  33.648  1.00  0.00     0.037 A 
ATOM     45  C   UNL A   1      42.576  26.081  27.391  1.00  0.00     0.037 A 
ATOM     46  C   UNL A   1      44.025  29.774  32.905  1.00  0.00     0.049 A 
ATOM     47  C   UNL A   1      43.780  26.467  28.173  1.00  0.00     0.074 A 
ATOM     48  C   UNL A   1      44.027  31.121  32.592  1.00  0.00     0.029 A 
ATOM     49  N   UNL A   1      44.878  29.182  32.002  1.00  0.00    -0.354 N 
ATOM     50  N   UNL A   1      44.463  27.559  27.973  1.00  0.00    -0.248 NA
ATOM     51  C   UNL A   1      43.993  25.832  29.465  1.00  0.00     0.031 C 
ATOM     52  C   UNL A   1      44.505  31.194  31.248  1.00  0.00     0.029 A 
ATOM     53  C   UNL A   1      44.825  29.900  30.834  1.00  0.00     0.049 A 
ATOM     54  H   UNL A   1      45.429  28.384  32.166  1.00  0.00     0.167 HD
ATOM     55  C   UNL A   1      44.824  27.986  29.243  1.00  0.00     0.074 A 
ATOM     56  C   UNL A   1      44.619  26.825  30.102  1.00  0.00     0.031 C 
ATOM     57  C   UNL A   1      44.974  29.315  29.519  1.00  0.00     0.037 A 
BRANCH  44  58
ATOM     58  C   UNL A   1      43.668  27.789  34.516  1.00  0.00     0.057 A 
ATOM     59  C   UNL A   1      44.243  28.120  35.753  1.00  0.00     0.134 A 
ATOM     60  C   UNL A   1      43.880  26.462  34.087  1.00  0.00     0.134 A 
ATOM     61  F   UNL A   1      44.129  29.358  36.254  1.00  0.00    -0.206 F 
ATOM     62  C   UNL A   1      45.028  27.216  36.477  1.00  0.00     0.040 A 
ATOM     63  C   UNL A   1      44.609  25.534  34.831  1.00  0.00     0.040 A 
ATOM     64  F   UNL A   1      43.491  26.019  32.886  1.00  0.00    -0.206 F 
ATOM     65  C   UNL A   1      45.215  25.919  36.016  1.00  0.00     0.006 A 
ENDBRANCH  44  58
BRANCH  45  66
ATOM     66  C   UNL A   1      42.525  24.816  26.625  1.00  0.00     0.057 A 
ATOM     67  C   UNL A   1      43.267  24.658  25.444  1.00  0.00     0.134 A 
ATOM     68  C   UNL A   1      41.998  23.641  27.184  1.00  0.00     0.134 A 
ATOM     69  F   UNL A   1      43.836  25.716  24.848  1.00  0.00    -0.206 F 
ATOM     70  C   UNL A   1      43.514  23.400  24.880  1.00  0.00     0.040 A 
ATOM     71  C   UNL A   1      42.231  22.378  26.626  1.00  0.00     0.040 A 
ATOM     72  F   UNL A   1      41.322  23.667  28.340  1.00  0.00    -0.206 F 
ATOM     73  C   UNL A   1      43.009  22.252  25.481  1.00  0.00     0.006 A 
ENDBRANCH  45  66
BRANCH  57  74
ATOM     74  C   UNL A   1      45.076  30.262  28.352  1.00  0.00     0.057 A 
ATOM     75  C   UNL A   1      43.978  30.860  27.711  1.00  0.00     0.134 A 
ATOM     76  C   UNL A   1      46.346  30.665  27.927  1.00  0.00     0.134 A 
ATOM     77  F   UNL A   1      42.723  30.619  28.110  1.00  0.00    -0.206 F 
ATOM     78  C   UNL A   1      44.143  31.770  26.661  1.00  0.00     0.040 A 
ATOM     79  C   UNL A   1      46.524  31.600  26.906  1.00  0.00     0.040 A 
ATOM     80  F   UNL A   1      47.445  30.177  28.525  1.00  0.00    -0.206 F 
ATOM     81  C   UNL A   1      45.420  32.145  26.258  1.00  0.00     0.006 A 
ENDBRANCH  57  74
ENDBRANCH  31  32
ENDBRANCH  23  26
ENDBRANCH  21  22
ENDBRANCH   1  21
TORSDOF 12
ENDMDL
