MODEL 1
REMARK VINA RESULT:     -12.3      0.000      0.000
REMARK SMILES Cc1ccccc1[C@@H](Cc1ncnn1C(C)C)C(=O)NCCCNC(=O)c1ccc(-c2c3nc(c(-c4c(F)cccc4F)c4ccc([nH]4)c(-c4c(F)cccc4F)c4nc(c(-c5c(F)cccc5F)c5ccc2[nH]5)C=C4)C=C3)cc1
REMARK SMILES IDX 21 1 20 2 18 3 19 4 8 6 7 7 1 8 2 9 3 10 4 11 6 12 5 13 9 14
REMARK SMILES IDX 10 15 11 16 14 17 12 18 13 19 15 20 16 21 17 22 22 23 23 24
REMARK SMILES IDX 24 25 25 26 26 28 27 29 28 30 80 31 29 32 79 33 30 34 31 35
REMARK SMILES IDX 32 36 73 37 33 38 78 39 72 40 74 41 34 42 77 43 71 44 70 45
REMARK SMILES IDX 35 47 61 48 44 49 60 50 45 51 48 52 59 53 75 54 46 55 47 56
REMARK SMILES IDX 58 58 76 59 49 60 36 61 37 62 42 63 38 64 39 65 41 66 43 67
REMARK SMILES IDX 40 68 62 69 63 70 68 71 64 72 65 73 67 74 69 75 66 76 50 77
REMARK SMILES IDX 51 78 56 79 52 80 53 81 55 82 57 83 54 84
REMARK H PARENT 20 5 24 27 74 46 48 57
REMARK Flexibility Score: inf
ROOT
ATOM      1  C   UNL A   1      32.968  30.629  26.802  1.00  0.00     0.117 C 
ENDROOT
BRANCH   1   2
ATOM      2  N   UNL A   1      32.201  29.566  27.422  1.00  0.00    -0.355 N 
ATOM      3  C   UNL A   1      31.872  28.302  27.059  1.00  0.00     0.228 C 
ATOM      4  O   UNL A   1      31.352  27.619  27.954  1.00  0.00    -0.274 OA
ATOM      5  H   UNL A   1      31.838  29.818  28.303  1.00  0.00     0.163 HD
BRANCH   3   6
ATOM      6  C   UNL A   1      32.085  27.682  25.670  1.00  0.00     0.116 C 
BRANCH   6   7
ATOM      7  C   UNL A   1      30.966  28.045  24.684  1.00  0.00    -0.032 A 
ATOM      8  C   UNL A   1      29.956  25.663  24.698  1.00  0.00     0.044 C 
ATOM      9  C   UNL A   1      29.944  27.125  24.320  1.00  0.00    -0.047 A 
ATOM     10  C   UNL A   1      28.882  27.542  23.489  1.00  0.00     0.004 A 
ATOM     11  C   UNL A   1      28.794  28.852  23.032  1.00  0.00     0.000 A 
ATOM     12  C   UNL A   1      30.866  29.342  24.164  1.00  0.00     0.005 A 
ATOM     13  C   UNL A   1      29.793  29.750  23.367  1.00  0.00     0.000 A 
ENDBRANCH   6   7
BRANCH   6  14
ATOM     14  C   UNL A   1      33.559  27.469  25.239  1.00  0.00     0.095 C 
BRANCH  14  15
ATOM     15  C   UNL A   1      33.981  26.182  24.614  1.00  0.00     0.128 A 
ATOM     16  N   UNL A   1      34.543  25.171  25.253  1.00  0.00    -0.220 NA
ATOM     17  N   UNL A   1      33.928  25.854  23.273  1.00  0.00    -0.248 N 
ATOM     18  C   UNL A   1      34.697  24.212  24.304  1.00  0.00     0.246 A 
ATOM     19  N   UNL A   1      34.284  24.562  23.090  1.00  0.00    -0.159 NA
BRANCH  17  20
ATOM     20  C   UNL A   1      33.560  26.654  22.109  1.00  0.00     0.103 C 
ATOM     21  C   UNL A   1      32.098  26.415  21.724  1.00  0.00     0.033 C 
ATOM     22  C   UNL A   1      33.809  28.147  22.333  1.00  0.00     0.033 C 
ENDBRANCH  17  20
ENDBRANCH  14  15
ENDBRANCH   6  14
ENDBRANCH   3   6
ENDBRANCH   1   2
BRANCH   1  23
ATOM     23  C   UNL A   1      34.411  30.710  27.250  1.00  0.00     0.042 C 
BRANCH  23  24
ATOM     24  C   UNL A   1      34.546  31.141  28.697  1.00  0.00     0.118 C 
BRANCH  24  25
ATOM     25  N   UNL A   1      35.745  31.914  29.029  1.00  0.00    -0.352 N 
ATOM     26  C   UNL A   1      37.045  31.439  29.184  1.00  0.00     0.251 C 
ATOM     27  H   UNL A   1      35.617  32.882  29.156  1.00  0.00     0.163 HD
ATOM     28  O   UNL A   1      37.976  32.191  29.425  1.00  0.00    -0.269 OA
BRANCH  26  29
ATOM     29  C   UNL A   1      37.293  30.002  28.900  1.00  0.00     0.039 A 
ATOM     30  C   UNL A   1      37.509  29.172  30.002  1.00  0.00     0.014 A 
ATOM     31  C   UNL A   1      37.740  29.636  27.636  1.00  0.00     0.014 A 
ATOM     32  C   UNL A   1      38.455  28.159  29.896  1.00  0.00     0.010 A 
ATOM     33  C   UNL A   1      38.785  28.735  27.569  1.00  0.00     0.010 A 
ATOM     34  C   UNL A   1      39.205  28.061  28.725  1.00  0.00    -0.014 A 
BRANCH  34  35
ATOM     35  C   UNL A   1      40.531  27.437  28.699  1.00  0.00     0.031 A 
ATOM     36  C   UNL A   1      40.678  25.990  28.428  1.00  0.00     0.074 A 
ATOM     37  C   UNL A   1      41.644  28.186  28.893  1.00  0.00     0.049 A 
ATOM     38  N   UNL A   1      41.696  25.282  28.791  1.00  0.00    -0.248 NA
ATOM     39  C   UNL A   1      39.635  25.198  27.794  1.00  0.00     0.031 C 
ATOM     40  C   UNL A   1      43.029  27.788  28.650  1.00  0.00     0.029 A 
ATOM     41  N   UNL A   1      41.752  29.411  29.568  1.00  0.00    -0.354 N 
ATOM     42  C   UNL A   1      41.581  24.038  28.210  1.00  0.00     0.074 A 
ATOM     43  C   UNL A   1      40.235  24.010  27.695  1.00  0.00     0.031 C 
ATOM     44  C   UNL A   1      43.841  28.561  29.386  1.00  0.00     0.029 A 
ATOM     45  C   UNL A   1      43.002  29.400  30.223  1.00  0.00     0.049 A 
ATOM     46  H   UNL A   1      41.086  30.137  29.582  1.00  0.00     0.167 HD
ATOM     47  C   UNL A   1      42.687  23.242  28.125  1.00  0.00     0.037 A 
ATOM     48  C   UNL A   1      43.112  29.510  31.578  1.00  0.00     0.037 A 
ATOM     49  C   UNL A   1      43.793  23.801  28.911  1.00  0.00     0.049 A 
ATOM     50  C   UNL A   1      43.792  28.337  32.245  1.00  0.00     0.074 A 
ATOM     51  C   UNL A   1      44.946  24.490  28.571  1.00  0.00     0.029 A 
ATOM     52  N   UNL A   1      43.665  23.915  30.294  1.00  0.00    -0.354 N 
ATOM     53  N   UNL A   1      43.999  27.190  31.662  1.00  0.00    -0.248 NA
ATOM     54  C   UNL A   1      44.243  28.343  33.634  1.00  0.00     0.031 C 
ATOM     55  C   UNL A   1      45.487  25.059  29.752  1.00  0.00     0.029 A 
ATOM     56  C   UNL A   1      44.672  24.704  30.813  1.00  0.00     0.049 A 
ATOM     57  H   UNL A   1      42.956  23.489  30.827  1.00  0.00     0.167 HD
ATOM     58  C   UNL A   1      44.523  26.303  32.566  1.00  0.00     0.074 A 
ATOM     59  C   UNL A   1      44.694  27.085  33.776  1.00  0.00     0.031 C 
ATOM     60  C   UNL A   1      44.737  24.993  32.241  1.00  0.00     0.037 A 
BRANCH  47  61
ATOM     61  C   UNL A   1      42.880  22.113  27.116  1.00  0.00     0.057 A 
ATOM     62  C   UNL A   1      42.138  20.916  27.235  1.00  0.00     0.134 A 
ATOM     63  C   UNL A   1      43.827  22.076  26.076  1.00  0.00     0.134 A 
ATOM     64  F   UNL A   1      41.117  20.800  28.094  1.00  0.00    -0.206 F 
ATOM     65  C   UNL A   1      42.399  19.764  26.475  1.00  0.00     0.040 A 
ATOM     66  C   UNL A   1      44.118  20.925  25.326  1.00  0.00     0.040 A 
ATOM     67  F   UNL A   1      44.500  23.153  25.677  1.00  0.00    -0.206 F 
ATOM     68  C   UNL A   1      43.417  19.754  25.537  1.00  0.00     0.006 A 
ENDBRANCH  47  61
BRANCH  48  69
ATOM     69  C   UNL A   1      42.046  30.337  32.195  1.00  0.00     0.057 A 
ATOM     70  C   UNL A   1      40.922  29.693  32.738  1.00  0.00     0.134 A 
ATOM     71  C   UNL A   1      42.270  31.662  32.578  1.00  0.00     0.134 A 
ATOM     72  F   UNL A   1      40.650  28.419  32.411  1.00  0.00    -0.206 F 
ATOM     73  C   UNL A   1      40.118  30.302  33.705  1.00  0.00     0.040 A 
ATOM     74  C   UNL A   1      41.467  32.285  33.541  1.00  0.00     0.040 A 
ATOM     75  F   UNL A   1      43.339  32.332  32.123  1.00  0.00    -0.206 F 
ATOM     76  C   UNL A   1      40.412  31.593  34.133  1.00  0.00     0.006 A 
ENDBRANCH  48  69
BRANCH  60  77
ATOM     77  C   UNL A   1      45.090  23.881  33.201  1.00  0.00     0.057 A 
ATOM     78  C   UNL A   1      46.339  23.732  33.823  1.00  0.00     0.134 A 
ATOM     79  C   UNL A   1      44.093  22.983  33.648  1.00  0.00     0.134 A 
ATOM     80  F   UNL A   1      47.348  24.579  33.584  1.00  0.00    -0.206 F 
ATOM     81  C   UNL A   1      46.595  22.731  34.772  1.00  0.00     0.040 A 
ATOM     82  C   UNL A   1      44.322  22.015  34.633  1.00  0.00     0.040 A 
ATOM     83  F   UNL A   1      42.843  23.021  33.164  1.00  0.00    -0.206 F 
ATOM     84  C   UNL A   1      45.583  21.876  35.189  1.00  0.00     0.006 A 
ENDBRANCH  60  77
ENDBRANCH  34  35
ENDBRANCH  26  29
ENDBRANCH  24  25
ENDBRANCH  23  24
ENDBRANCH   1  23
TORSDOF 14
ENDMDL
MODEL 2
REMARK VINA RESULT:     -11.9      3.568      8.445
REMARK SMILES Cc1ccccc1[C@@H](Cc1ncnn1C(C)C)C(=O)NCCCNC(=O)c1ccc(-c2c3nc(c(-c4c(F)cccc4F)c4ccc([nH]4)c(-c4c(F)cccc4F)c4nc(c(-c5c(F)cccc5F)c5ccc2[nH]5)C=C4)C=C3)cc1
REMARK SMILES IDX 21 1 20 2 18 3 19 4 8 6 7 7 1 8 2 9 3 10 4 11 6 12 5 13 9 14
REMARK SMILES IDX 10 15 11 16 14 17 12 18 13 19 15 20 16 21 17 22 22 23 23 24
REMARK SMILES IDX 24 25 25 26 26 28 27 29 28 30 80 31 29 32 79 33 30 34 31 35
REMARK SMILES IDX 32 36 73 37 33 38 78 39 72 40 74 41 34 42 77 43 71 44 70 45
REMARK SMILES IDX 35 47 61 48 44 49 60 50 45 51 48 52 59 53 75 54 46 55 47 56
REMARK SMILES IDX 58 58 76 59 49 60 36 61 37 62 42 63 38 64 39 65 41 66 43 67
REMARK SMILES IDX 40 68 62 69 63 70 68 71 64 72 65 73 67 74 69 75 66 76 50 77
REMARK SMILES IDX 51 78 56 79 52 80 53 81 55 82 57 83 54 84
REMARK H PARENT 20 5 24 27 74 46 48 57
REMARK Flexibility Score: inf
ROOT
ATOM      1  C   UNL A   1      37.804  22.223  25.734  1.00  0.00     0.117 C 
ENDROOT
BRANCH   1   2
ATOM      2  N   UNL A   1      37.457  22.456  24.345  1.00  0.00    -0.355 N 
ATOM      3  C   UNL A   1      36.346  22.905  23.711  1.00  0.00     0.228 C 
ATOM      4  O   UNL A   1      36.495  23.153  22.506  1.00  0.00    -0.274 OA
ATOM      5  H   UNL A   1      38.191  22.241  23.725  1.00  0.00     0.163 HD
BRANCH   3   6
ATOM      6  C   UNL A   1      34.966  23.113  24.354  1.00  0.00     0.116 C 
BRANCH   6   7
ATOM      7  C   UNL A   1      34.059  21.881  24.218  1.00  0.00    -0.032 A 
ATOM      8  C   UNL A   1      32.362  23.097  22.689  1.00  0.00     0.044 C 
ATOM      9  C   UNL A   1      32.914  21.870  23.374  1.00  0.00    -0.047 A 
ATOM     10  C   UNL A   1      32.174  20.680  23.206  1.00  0.00     0.004 A 
ATOM     11  C   UNL A   1      32.554  19.498  23.831  1.00  0.00     0.000 A 
ATOM     12  C   UNL A   1      34.381  20.682  24.866  1.00  0.00     0.005 A 
ATOM     13  C   UNL A   1      33.657  19.504  24.668  1.00  0.00     0.000 A 
ENDBRANCH   6   7
BRANCH   6  14
ATOM     14  C   UNL A   1      34.922  24.067  25.575  1.00  0.00     0.095 C 
BRANCH  14  15
ATOM     15  C   UNL A   1      33.711  24.896  25.839  1.00  0.00     0.128 A 
ATOM     16  N   UNL A   1      33.669  26.216  25.809  1.00  0.00    -0.220 NA
ATOM     17  N   UNL A   1      32.463  24.444  26.224  1.00  0.00    -0.248 N 
ATOM     18  C   UNL A   1      32.368  26.521  26.052  1.00  0.00     0.246 A 
ATOM     19  N   UNL A   1      31.580  25.469  26.255  1.00  0.00    -0.159 NA
BRANCH  17  20
ATOM     20  C   UNL A   1      31.999  23.105  26.569  1.00  0.00     0.103 C 
ATOM     21  C   UNL A   1      32.712  22.586  27.822  1.00  0.00     0.033 C 
ATOM     22  C   UNL A   1      30.482  23.052  26.766  1.00  0.00     0.033 C 
ENDBRANCH  17  20
ENDBRANCH  14  15
ENDBRANCH   6  14
ENDBRANCH   3   6
ENDBRANCH   1   2
BRANCH   1  23
ATOM     23  C   UNL A   1      38.850  23.165  26.289  1.00  0.00     0.042 C 
BRANCH  23  24
ATOM     24  C   UNL A   1      39.991  22.430  26.966  1.00  0.00     0.118 C 
BRANCH  24  25
ATOM     25  N   UNL A   1      40.552  21.297  26.228  1.00  0.00    -0.352 N 
ATOM     26  C   UNL A   1      41.893  20.935  26.121  1.00  0.00     0.251 C 
ATOM     27  H   UNL A   1      39.907  20.724  25.754  1.00  0.00     0.163 HD
ATOM     28  O   UNL A   1      42.239  19.940  25.504  1.00  0.00    -0.269 OA
BRANCH  26  29
ATOM     29  C   UNL A   1      42.884  21.715  26.906  1.00  0.00     0.039 A 
ATOM     30  C   UNL A   1      42.794  21.624  28.297  1.00  0.00     0.014 A 
ATOM     31  C   UNL A   1      43.517  22.795  26.303  1.00  0.00     0.014 A 
ATOM     32  C   UNL A   1      43.033  22.765  29.054  1.00  0.00     0.010 A 
ATOM     33  C   UNL A   1      43.606  23.965  27.033  1.00  0.00     0.010 A 
ATOM     34  C   UNL A   1      43.274  23.970  28.394  1.00  0.00    -0.014 A 
BRANCH  34  35
ATOM     35  C   UNL A   1      43.002  25.268  29.019  1.00  0.00     0.031 A 
ATOM     36  C   UNL A   1      41.831  26.073  28.605  1.00  0.00     0.074 A 
ATOM     37  C   UNL A   1      43.803  25.733  30.008  1.00  0.00     0.049 A 
ATOM     38  N   UNL A   1      41.737  27.352  28.760  1.00  0.00    -0.248 NA
ATOM     39  C   UNL A   1      40.696  25.504  27.895  1.00  0.00     0.031 C 
ATOM     40  C   UNL A   1      43.539  26.859  30.902  1.00  0.00     0.029 A 
ATOM     41  N   UNL A   1      45.142  25.400  30.261  1.00  0.00    -0.354 N 
ATOM     42  C   UNL A   1      40.451  27.728  28.440  1.00  0.00     0.074 A 
ATOM     43  C   UNL A   1      39.887  26.562  27.809  1.00  0.00     0.031 C 
ATOM     44  C   UNL A   1      44.703  27.312  31.388  1.00  0.00     0.029 A 
ATOM     45  C   UNL A   1      45.766  26.576  30.728  1.00  0.00     0.049 A 
ATOM     46  H   UNL A   1      45.564  24.518  30.138  1.00  0.00     0.167 HD
ATOM     47  C   UNL A   1      39.989  28.939  28.869  1.00  0.00     0.037 A 
ATOM     48  C   UNL A   1      46.823  27.143  30.079  1.00  0.00     0.037 A 
ATOM     49  C   UNL A   1      41.081  29.745  29.427  1.00  0.00     0.049 A 
ATOM     50  C   UNL A   1      46.581  28.561  29.615  1.00  0.00     0.074 A 
ATOM     51  C   UNL A   1      41.466  30.056  30.722  1.00  0.00     0.029 A 
ATOM     52  N   UNL A   1      42.128  30.150  28.602  1.00  0.00    -0.354 N 
ATOM     53  N   UNL A   1      45.403  29.115  29.559  1.00  0.00    -0.248 NA
ATOM     54  C   UNL A   1      47.636  29.447  29.129  1.00  0.00     0.031 C 
ATOM     55  C   UNL A   1      42.771  30.609  30.674  1.00  0.00     0.029 A 
ATOM     56  C   UNL A   1      43.176  30.647  29.351  1.00  0.00     0.049 A 
ATOM     57  H   UNL A   1      42.121  30.090  27.620  1.00  0.00     0.167 HD
ATOM     58  C   UNL A   1      45.507  30.357  28.987  1.00  0.00     0.074 A 
ATOM     59  C   UNL A   1      46.930  30.534  28.772  1.00  0.00     0.031 C 
ATOM     60  C   UNL A   1      44.401  31.111  28.712  1.00  0.00     0.037 A 
BRANCH  47  61
ATOM     61  C   UNL A   1      38.518  29.301  29.055  1.00  0.00     0.057 A 
ATOM     62  C   UNL A   1      37.771  29.828  27.977  1.00  0.00     0.134 A 
ATOM     63  C   UNL A   1      37.794  29.260  30.261  1.00  0.00     0.134 A 
ATOM     64  F   UNL A   1      38.252  29.846  26.727  1.00  0.00    -0.206 F 
ATOM     65  C   UNL A   1      36.483  30.368  28.119  1.00  0.00     0.040 A 
ATOM     66  C   UNL A   1      36.516  29.818  30.425  1.00  0.00     0.040 A 
ATOM     67  F   UNL A   1      38.243  28.636  31.349  1.00  0.00    -0.206 F 
ATOM     68  C   UNL A   1      35.861  30.396  29.355  1.00  0.00     0.006 A 
ENDBRANCH  47  61
BRANCH  48  69
ATOM     69  C   UNL A   1      47.691  26.160  29.386  1.00  0.00     0.057 A 
ATOM     70  C   UNL A   1      47.494  25.935  28.013  1.00  0.00     0.134 A 
ATOM     71  C   UNL A   1      48.901  25.729  29.936  1.00  0.00     0.134 A 
ATOM     72  F   UNL A   1      46.354  26.327  27.422  1.00  0.00    -0.206 F 
ATOM     73  C   UNL A   1      48.499  25.405  27.200  1.00  0.00     0.040 A 
ATOM     74  C   UNL A   1      49.913  25.190  29.132  1.00  0.00     0.040 A 
ATOM     75  F   UNL A   1      49.171  25.934  31.233  1.00  0.00    -0.206 F 
ATOM     76  C   UNL A   1      49.727  25.061  27.756  1.00  0.00     0.006 A 
ENDBRANCH  48  69
BRANCH  60  77
ATOM     77  C   UNL A   1      44.367  32.378  27.888  1.00  0.00     0.057 A 
ATOM     78  C   UNL A   1      44.025  33.644  28.386  1.00  0.00     0.134 A 
ATOM     79  C   UNL A   1      44.835  32.371  26.553  1.00  0.00     0.134 A 
ATOM     80  F   UNL A   1      43.672  33.824  29.665  1.00  0.00    -0.206 F 
ATOM     81  C   UNL A   1      44.088  34.805  27.601  1.00  0.00     0.040 A 
ATOM     82  C   UNL A   1      44.952  33.531  25.779  1.00  0.00     0.040 A 
ATOM     83  F   UNL A   1      45.222  31.238  25.949  1.00  0.00    -0.206 F 
ATOM     84  C   UNL A   1      44.564  34.754  26.298  1.00  0.00     0.006 A 
ENDBRANCH  60  77
ENDBRANCH  34  35
ENDBRANCH  26  29
ENDBRANCH  24  25
ENDBRANCH  23  24
ENDBRANCH   1  23
TORSDOF 14
ENDMDL
MODEL 3
REMARK VINA RESULT:     -11.9      1.718      2.627
REMARK SMILES Cc1ccccc1[C@@H](Cc1ncnn1C(C)C)C(=O)NCCCNC(=O)c1ccc(-c2c3nc(c(-c4c(F)cccc4F)c4ccc([nH]4)c(-c4c(F)cccc4F)c4nc(c(-c5c(F)cccc5F)c5ccc2[nH]5)C=C4)C=C3)cc1
REMARK SMILES IDX 21 1 20 2 18 3 19 4 8 6 7 7 1 8 2 9 3 10 4 11 6 12 5 13 9 14
REMARK SMILES IDX 10 15 11 16 14 17 12 18 13 19 15 20 16 21 17 22 22 23 23 24
REMARK SMILES IDX 24 25 25 26 26 28 27 29 28 30 80 31 29 32 79 33 30 34 31 35
REMARK SMILES IDX 32 36 73 37 33 38 78 39 72 40 74 41 34 42 77 43 71 44 70 45
REMARK SMILES IDX 35 47 61 48 44 49 60 50 45 51 48 52 59 53 75 54 46 55 47 56
REMARK SMILES IDX 58 58 76 59 49 60 36 61 37 62 42 63 38 64 39 65 41 66 43 67
REMARK SMILES IDX 40 68 62 69 63 70 68 71 64 72 65 73 67 74 69 75 66 76 50 77
REMARK SMILES IDX 51 78 56 79 52 80 53 81 55 82 57 83 54 84
REMARK H PARENT 20 5 24 27 74 46 48 57
REMARK Flexibility Score: inf
ROOT
ATOM      1  C   UNL A   1      31.678  29.690  25.714  1.00  0.00     0.117 C 
ENDROOT
BRANCH   1   2
ATOM      2  N   UNL A   1      32.584  29.469  24.603  1.00  0.00    -0.355 N 
ATOM      3  C   UNL A   1      32.482  28.824  23.415  1.00  0.00     0.228 C 
ATOM      4  O   UNL A   1      33.424  29.017  22.633  1.00  0.00    -0.274 OA
ATOM      5  H   UNL A   1      33.469  29.879  24.742  1.00  0.00     0.163 HD
BRANCH   3   6
ATOM      6  C   UNL A   1      31.330  27.901  22.989  1.00  0.00     0.116 C 
BRANCH   6   7
ATOM      7  C   UNL A   1      30.045  28.675  22.662  1.00  0.00    -0.032 A 
ATOM      8  C   UNL A   1      28.507  26.911  23.766  1.00  0.00     0.044 C 
ATOM      9  C   UNL A   1      28.764  28.245  23.107  1.00  0.00    -0.047 A 
ATOM     10  C   UNL A   1      27.628  29.047  22.865  1.00  0.00     0.004 A 
ATOM     11  C   UNL A   1      27.733  30.273  22.218  1.00  0.00     0.000 A 
ATOM     12  C   UNL A   1      30.100  29.892  21.971  1.00  0.00     0.005 A 
ATOM     13  C   UNL A   1      28.972  30.691  21.765  1.00  0.00     0.000 A 
ENDBRANCH   6   7
BRANCH   6  14
ATOM     14  C   UNL A   1      31.740  26.592  22.266  1.00  0.00     0.095 C 
BRANCH  14  15
ATOM     15  C   UNL A   1      32.662  25.625  22.928  1.00  0.00     0.128 A 
ATOM     16  N   UNL A   1      33.818  25.216  22.436  1.00  0.00    -0.220 NA
ATOM     17  N   UNL A   1      32.443  24.945  24.111  1.00  0.00    -0.248 N 
ATOM     18  C   UNL A   1      34.325  24.397  23.395  1.00  0.00     0.246 A 
ATOM     19  N   UNL A   1      33.546  24.246  24.463  1.00  0.00    -0.159 NA
BRANCH  17  20
ATOM     20  C   UNL A   1      31.269  24.889  24.975  1.00  0.00     0.103 C 
ATOM     21  C   UNL A   1      31.079  23.481  25.545  1.00  0.00     0.033 C 
ATOM     22  C   UNL A   1      31.338  25.914  26.109  1.00  0.00     0.033 C 
ENDBRANCH  17  20
ENDBRANCH  14  15
ENDBRANCH   6  14
ENDBRANCH   3   6
ENDBRANCH   1   2
BRANCH   1  23
ATOM     23  C   UNL A   1      32.213  30.608  26.792  1.00  0.00     0.042 C 
BRANCH  23  24
ATOM     24  C   UNL A   1      33.707  30.448  27.001  1.00  0.00     0.118 C 
BRANCH  24  25
ATOM     25  N   UNL A   1      34.366  31.507  27.768  1.00  0.00    -0.352 N 
ATOM     26  C   UNL A   1      35.413  31.371  28.676  1.00  0.00     0.251 C 
ATOM     27  H   UNL A   1      34.030  32.421  27.624  1.00  0.00     0.163 HD
ATOM     28  O   UNL A   1      35.908  32.339  29.230  1.00  0.00    -0.269 OA
BRANCH  26  29
ATOM     29  C   UNL A   1      36.012  30.022  28.842  1.00  0.00     0.039 A 
ATOM     30  C   UNL A   1      36.451  29.683  30.124  1.00  0.00     0.014 A 
ATOM     31  C   UNL A   1      36.515  29.369  27.723  1.00  0.00     0.014 A 
ATOM     32  C   UNL A   1      37.621  28.943  30.252  1.00  0.00     0.010 A 
ATOM     33  C   UNL A   1      37.753  28.768  27.843  1.00  0.00     0.010 A 
ATOM     34  C   UNL A   1      38.351  28.637  29.104  1.00  0.00    -0.014 A 
BRANCH  34  35
ATOM     35  C   UNL A   1      39.791  28.368  29.145  1.00  0.00     0.031 A 
ATOM     36  C   UNL A   1      40.331  27.077  28.664  1.00  0.00     0.074 A 
ATOM     37  C   UNL A   1      40.651  29.313  29.597  1.00  0.00     0.049 A 
ATOM     38  N   UNL A   1      41.465  26.580  29.032  1.00  0.00    -0.248 NA
ATOM     39  C   UNL A   1      39.584  26.191  27.783  1.00  0.00     0.031 C 
ATOM     40  C   UNL A   1      42.107  29.315  29.469  1.00  0.00     0.029 A 
ATOM     41  N   UNL A   1      40.381  30.378  30.470  1.00  0.00    -0.354 N 
ATOM     42  C   UNL A   1      41.725  25.479  28.247  1.00  0.00     0.074 A 
ATOM     43  C   UNL A   1      40.479  25.225  27.569  1.00  0.00     0.031 C 
ATOM     44  C   UNL A   1      42.627  30.107  30.418  1.00  0.00     0.029 A 
ATOM     45  C   UNL A   1      41.534  30.545  31.267  1.00  0.00     0.049 A 
ATOM     46  H   UNL A   1      39.551  30.905  30.518  1.00  0.00     0.167 HD
ATOM     47  C   UNL A   1      43.003  25.004  28.175  1.00  0.00     0.037 A 
ATOM     48  C   UNL A   1      41.501  30.421  32.624  1.00  0.00     0.037 A 
ATOM     49  C   UNL A   1      43.858  25.655  29.175  1.00  0.00     0.049 A 
ATOM     50  C   UNL A   1      42.406  29.342  33.173  1.00  0.00     0.074 A 
ATOM     51  C   UNL A   1      44.816  26.654  29.099  1.00  0.00     0.029 A 
ATOM     52  N   UNL A   1      43.594  25.471  30.530  1.00  0.00    -0.354 N 
ATOM     53  N   UNL A   1      42.952  28.411  32.442  1.00  0.00    -0.248 NA
ATOM     54  C   UNL A   1      42.726  29.194  34.591  1.00  0.00     0.031 C 
ATOM     55  C   UNL A   1      45.092  27.102  30.416  1.00  0.00     0.029 A 
ATOM     56  C   UNL A   1      44.314  26.367  31.294  1.00  0.00     0.049 A 
ATOM     57  H   UNL A   1      42.978  24.794  30.893  1.00  0.00     0.167 HD
ATOM     58  C   UNL A   1      43.614  27.522  33.250  1.00  0.00     0.074 A 
ATOM     59  C   UNL A   1      43.477  28.078  34.582  1.00  0.00     0.031 C 
ATOM     60  C   UNL A   1      44.186  26.388  32.746  1.00  0.00     0.037 A 
BRANCH  47  61
ATOM     61  C   UNL A   1      43.565  24.166  27.029  1.00  0.00     0.057 A 
ATOM     62  C   UNL A   1      44.161  24.794  25.912  1.00  0.00     0.134 A 
ATOM     63  C   UNL A   1      43.474  22.769  26.895  1.00  0.00     0.134 A 
ATOM     64  F   UNL A   1      44.433  26.105  25.901  1.00  0.00    -0.206 F 
ATOM     65  C   UNL A   1      44.516  24.111  24.738  1.00  0.00     0.040 A 
ATOM     66  C   UNL A   1      43.800  22.075  25.719  1.00  0.00     0.040 A 
ATOM     67  F   UNL A   1      43.114  21.971  27.899  1.00  0.00    -0.206 F 
ATOM     68  C   UNL A   1      44.305  22.747  24.624  1.00  0.00     0.006 A 
ENDBRANCH  47  61
BRANCH  48  69
ATOM     69  C   UNL A   1      40.211  30.834  33.228  1.00  0.00     0.057 A 
ATOM     70  C   UNL A   1      39.934  32.206  33.356  1.00  0.00     0.134 A 
ATOM     71  C   UNL A   1      39.132  29.952  33.337  1.00  0.00     0.134 A 
ATOM     72  F   UNL A   1      40.926  33.106  33.260  1.00  0.00    -0.206 F 
ATOM     73  C   UNL A   1      38.628  32.687  33.476  1.00  0.00     0.040 A 
ATOM     74  C   UNL A   1      37.820  30.423  33.464  1.00  0.00     0.040 A 
ATOM     75  F   UNL A   1      39.315  28.631  33.197  1.00  0.00    -0.206 F 
ATOM     76  C   UNL A   1      37.562  31.793  33.497  1.00  0.00     0.006 A 
ENDBRANCH  48  69
BRANCH  60  77
ATOM     77  C   UNL A   1      44.737  25.234  33.550  1.00  0.00     0.057 A 
ATOM     78  C   UNL A   1      46.093  24.878  33.608  1.00  0.00     0.134 A 
ATOM     79  C   UNL A   1      43.897  24.515  34.432  1.00  0.00     0.134 A 
ATOM     80  F   UNL A   1      47.024  25.545  32.914  1.00  0.00    -0.206 F 
ATOM     81  C   UNL A   1      46.569  23.849  34.434  1.00  0.00     0.040 A 
ATOM     82  C   UNL A   1      44.369  23.523  35.299  1.00  0.00     0.040 A 
ATOM     83  F   UNL A   1      42.580  24.761  34.506  1.00  0.00    -0.206 F 
ATOM     84  C   UNL A   1      45.709  23.176  35.292  1.00  0.00     0.006 A 
ENDBRANCH  60  77
ENDBRANCH  34  35
ENDBRANCH  26  29
ENDBRANCH  24  25
ENDBRANCH  23  24
ENDBRANCH   1  23
TORSDOF 14
ENDMDL
