MODEL 1
REMARK VINA RESULT:     -12.2      0.000      0.000
REMARK SMILES CCNC(=O)c1cccc(-c2ccc(Cl)c(C(=O)NCCCNC(=O)c3ccc(-c4c5nc(c(-c6c(F)cccc6F)c6ccc([nH]6)c(-c6c(F)cccc6F)c6nc(c(-c7c(F)cccc7F)c7ccc4[nH]7)C=C6)C=C5)cc3)c2)c1
REMARK SMILES IDX 20 1 19 2 17 3 18 4 16 6 11 7 12 8 80 9 13 10 14 11 15 12
REMARK SMILES IDX 10 13 6 14 7 15 81 16 8 17 9 18 4 19 3 20 5 22 2 23 1 24
REMARK SMILES IDX 21 25 22 26 23 27 24 28 25 30 26 31 27 32 79 33 28 34 78 35
REMARK SMILES IDX 29 36 30 37 31 38 72 39 32 40 77 41 71 42 73 43 33 44 76 45
REMARK SMILES IDX 70 46 69 47 34 49 60 50 43 51 59 52 44 53 47 54 58 55 74 56
REMARK SMILES IDX 45 57 46 58 57 60 75 61 48 62 35 63 36 64 41 65 37 66 38 67
REMARK SMILES IDX 40 68 42 69 39 70 61 71 62 72 67 73 63 74 64 75 66 76 68 77
REMARK SMILES IDX 65 78 49 79 50 80 55 81 51 82 52 83 54 84 56 85 53 86
REMARK H PARENT 19 5 3 21 23 29 73 48 47 59
REMARK Flexibility Score: inf
ROOT
ATOM      1  C   UNL A   1      31.431  30.349  26.114  1.00  0.00     0.118 C 
ENDROOT
BRANCH   1   2
ATOM      2  N   UNL A   1      32.327  30.065  24.992  1.00  0.00    -0.352 N 
ATOM      3  C   UNL A   1      32.474  29.036  24.081  1.00  0.00     0.252 C 
ATOM      4  O   UNL A   1      33.286  29.228  23.179  1.00  0.00    -0.269 OA
ATOM      5  H   UNL A   1      32.986  30.784  24.852  1.00  0.00     0.163 HD
BRANCH   3   6
ATOM      6  C   UNL A   1      31.732  27.740  24.164  1.00  0.00     0.059 A 
ATOM      7  C   UNL A   1      31.918  25.296  24.367  1.00  0.00    -0.017 A 
ATOM      8  C   UNL A   1      30.573  25.181  24.013  1.00  0.00     0.010 A 
ATOM      9  C   UNL A   1      32.402  26.595  24.595  1.00  0.00     0.024 A 
ATOM     10  C   UNL A   1      29.801  26.323  23.779  1.00  0.00     0.022 A 
ATOM     11  C   UNL A   1      30.387  27.598  23.797  1.00  0.00     0.053 A 
ATOM     12  Cl  UNL A   1      29.361  28.906  23.325  1.00  0.00    -0.083 Cl
BRANCH   7  13
ATOM     13  C   UNL A   1      32.859  24.149  24.356  1.00  0.00    -0.018 A 
ATOM     14  C   UNL A   1      33.806  22.157  25.431  1.00  0.00     0.040 A 
ATOM     15  C   UNL A   1      34.865  22.149  24.525  1.00  0.00     0.014 A 
ATOM     16  C   UNL A   1      32.836  23.166  25.360  1.00  0.00     0.022 A 
ATOM     17  C   UNL A   1      34.918  23.111  23.520  1.00  0.00     0.001 A 
ATOM     18  C   UNL A   1      33.923  24.092  23.435  1.00  0.00     0.009 A 
BRANCH  14  19
ATOM     19  C   UNL A   1      33.800  21.168  26.533  1.00  0.00     0.251 C 
ATOM     20  N   UNL A   1      33.278  19.911  26.355  1.00  0.00    -0.352 N 
ATOM     21  H   UNL A   1      33.172  19.388  27.182  1.00  0.00     0.163 HD
ATOM     22  O   UNL A   1      34.260  21.485  27.625  1.00  0.00    -0.269 OA
BRANCH  20  23
ATOM     23  C   UNL A   1      32.858  19.225  25.144  1.00  0.00     0.112 C 
ATOM     24  C   UNL A   1      34.014  18.484  24.505  1.00  0.00     0.027 C 
ENDBRANCH  20  23
ENDBRANCH  14  19
ENDBRANCH   7  13
ENDBRANCH   3   6
ENDBRANCH   1   2
BRANCH   1  25
ATOM     25  C   UNL A   1      31.330  31.814  26.501  1.00  0.00     0.042 C 
BRANCH  25  26
ATOM     26  C   UNL A   1      32.644  32.471  26.884  1.00  0.00     0.118 C 
BRANCH  26  27
ATOM     27  N   UNL A   1      32.482  33.830  27.387  1.00  0.00    -0.352 N 
ATOM     28  C   UNL A   1      33.092  34.506  28.416  1.00  0.00     0.251 C 
ATOM     29  H   UNL A   1      31.812  34.360  26.899  1.00  0.00     0.163 HD
ATOM     30  O   UNL A   1      32.647  35.603  28.751  1.00  0.00    -0.269 OA
BRANCH  28  31
ATOM     31  C   UNL A   1      34.254  33.942  29.139  1.00  0.00     0.039 A 
ATOM     32  C   UNL A   1      34.028  32.986  30.137  1.00  0.00     0.014 A 
ATOM     33  C   UNL A   1      35.557  34.374  28.890  1.00  0.00     0.014 A 
ATOM     34  C   UNL A   1      35.107  32.415  30.818  1.00  0.00     0.010 A 
ATOM     35  C   UNL A   1      36.636  33.731  29.491  1.00  0.00     0.010 A 
ATOM     36  C   UNL A   1      36.425  32.750  30.469  1.00  0.00    -0.014 A 
BRANCH  36  37
ATOM     37  C   UNL A   1      37.590  32.086  31.109  1.00  0.00     0.031 A 
ATOM     38  C   UNL A   1      38.338  30.995  30.389  1.00  0.00     0.074 A 
ATOM     39  C   UNL A   1      37.929  32.413  32.371  1.00  0.00     0.049 A 
ATOM     40  N   UNL A   1      39.337  30.260  30.811  1.00  0.00    -0.248 NA
ATOM     41  C   UNL A   1      37.885  30.665  29.029  1.00  0.00     0.031 C 
ATOM     42  C   UNL A   1      37.245  33.407  33.200  1.00  0.00     0.029 A 
ATOM     43  N   UNL A   1      38.931  31.939  33.180  1.00  0.00    -0.354 N 
ATOM     44  C   UNL A   1      39.612  29.370  29.781  1.00  0.00     0.074 A 
ATOM     45  C   UNL A   1      38.643  29.618  28.736  1.00  0.00     0.031 C 
ATOM     46  C   UNL A   1      37.867  33.493  34.387  1.00  0.00     0.029 A 
ATOM     47  C   UNL A   1      38.968  32.536  34.417  1.00  0.00     0.049 A 
ATOM     48  H   UNL A   1      39.562  31.237  32.902  1.00  0.00     0.167 HD
ATOM     49  C   UNL A   1      40.599  28.445  29.699  1.00  0.00     0.037 A 
ATOM     50  C   UNL A   1      39.796  32.336  35.459  1.00  0.00     0.037 A 
ATOM     51  C   UNL A   1      41.585  28.223  30.724  1.00  0.00     0.049 A 
ATOM     52  C   UNL A   1      40.895  31.318  35.339  1.00  0.00     0.074 A 
ATOM     53  C   UNL A   1      42.671  27.365  30.707  1.00  0.00     0.029 A 
ATOM     54  N   UNL A   1      41.603  28.865  31.954  1.00  0.00    -0.354 N 
ATOM     55  N   UNL A   1      41.190  30.537  34.328  1.00  0.00    -0.248 NA
ATOM     56  C   UNL A   1      41.779  31.160  36.501  1.00  0.00     0.031 C 
ATOM     57  C   UNL A   1      43.322  27.458  31.941  1.00  0.00     0.029 A 
ATOM     58  C   UNL A   1      42.669  28.406  32.712  1.00  0.00     0.049 A 
ATOM     59  H   UNL A   1      40.954  29.545  32.246  1.00  0.00     0.167 HD
ATOM     60  C   UNL A   1      42.306  29.811  34.723  1.00  0.00     0.074 A 
ATOM     61  C   UNL A   1      42.644  30.258  36.059  1.00  0.00     0.031 C 
ATOM     62  C   UNL A   1      42.990  28.860  34.041  1.00  0.00     0.037 A 
BRANCH  49  63
ATOM     63  C   UNL A   1      40.662  27.609  28.453  1.00  0.00     0.057 A 
ATOM     64  C   UNL A   1      41.419  27.996  27.340  1.00  0.00     0.134 A 
ATOM     65  C   UNL A   1      39.976  26.390  28.373  1.00  0.00     0.134 A 
ATOM     66  F   UNL A   1      42.091  29.159  27.345  1.00  0.00    -0.206 F 
ATOM     67  C   UNL A   1      41.465  27.220  26.180  1.00  0.00     0.040 A 
ATOM     68  C   UNL A   1      40.038  25.591  27.230  1.00  0.00     0.040 A 
ATOM     69  F   UNL A   1      39.238  25.954  29.405  1.00  0.00    -0.206 F 
ATOM     70  C   UNL A   1      40.778  26.010  26.126  1.00  0.00     0.006 A 
ENDBRANCH  49  63
BRANCH  50  71
ATOM     71  C   UNL A   1      39.641  33.146  36.693  1.00  0.00     0.057 A 
ATOM     72  C   UNL A   1      38.762  32.748  37.707  1.00  0.00     0.134 A 
ATOM     73  C   UNL A   1      40.367  34.326  36.894  1.00  0.00     0.134 A 
ATOM     74  F   UNL A   1      38.027  31.635  37.563  1.00  0.00    -0.206 F 
ATOM     75  C   UNL A   1      38.601  33.499  38.871  1.00  0.00     0.040 A 
ATOM     76  C   UNL A   1      40.232  35.076  38.063  1.00  0.00     0.040 A 
ATOM     77  F   UNL A   1      41.230  34.756  35.962  1.00  0.00    -0.206 F 
ATOM     78  C   UNL A   1      39.343  34.664  39.054  1.00  0.00     0.006 A 
ENDBRANCH  50  71
BRANCH  62  79
ATOM     79  C   UNL A   1      44.184  28.260  34.720  1.00  0.00     0.057 A 
ATOM     80  C   UNL A   1      45.457  28.837  34.622  1.00  0.00     0.134 A 
ATOM     81  C   UNL A   1      44.055  27.107  35.505  1.00  0.00     0.134 A 
ATOM     82  F   UNL A   1      45.649  29.935  33.875  1.00  0.00    -0.206 F 
ATOM     83  C   UNL A   1      46.563  28.275  35.260  1.00  0.00     0.040 A 
ATOM     84  C   UNL A   1      45.149  26.550  36.168  1.00  0.00     0.040 A 
ATOM     85  F   UNL A   1      42.862  26.509  35.646  1.00  0.00    -0.206 F 
ATOM     86  C   UNL A   1      46.409  27.130  36.041  1.00  0.00     0.006 A 
ENDBRANCH  62  79
ENDBRANCH  36  37
ENDBRANCH  28  31
ENDBRANCH  26  27
ENDBRANCH  25  26
ENDBRANCH   1  25
TORSDOF 13
ENDMDL
MODEL 2
REMARK VINA RESULT:     -12.1      1.098      2.002
REMARK SMILES CCNC(=O)c1cccc(-c2ccc(Cl)c(C(=O)NCCCNC(=O)c3ccc(-c4c5nc(c(-c6c(F)cccc6F)c6ccc([nH]6)c(-c6c(F)cccc6F)c6nc(c(-c7c(F)cccc7F)c7ccc4[nH]7)C=C6)C=C5)cc3)c2)c1
REMARK SMILES IDX 20 1 19 2 17 3 18 4 16 6 11 7 12 8 80 9 13 10 14 11 15 12
REMARK SMILES IDX 10 13 6 14 7 15 81 16 8 17 9 18 4 19 3 20 5 22 2 23 1 24
REMARK SMILES IDX 21 25 22 26 23 27 24 28 25 30 26 31 27 32 79 33 28 34 78 35
REMARK SMILES IDX 29 36 30 37 31 38 72 39 32 40 77 41 71 42 73 43 33 44 76 45
REMARK SMILES IDX 70 46 69 47 34 49 60 50 43 51 59 52 44 53 47 54 58 55 74 56
REMARK SMILES IDX 45 57 46 58 57 60 75 61 48 62 35 63 36 64 41 65 37 66 38 67
REMARK SMILES IDX 40 68 42 69 39 70 61 71 62 72 67 73 63 74 64 75 66 76 68 77
REMARK SMILES IDX 65 78 49 79 50 80 55 81 51 82 52 83 54 84 56 85 53 86
REMARK H PARENT 19 5 3 21 23 29 73 48 47 59
REMARK Flexibility Score: inf
ROOT
ATOM      1  C   UNL A   1      31.460  30.340  26.152  1.00  0.00     0.118 C 
ENDROOT
BRANCH   1   2
ATOM      2  N   UNL A   1      32.290  30.018  24.990  1.00  0.00    -0.352 N 
ATOM      3  C   UNL A   1      32.385  28.958  24.107  1.00  0.00     0.252 C 
ATOM      4  O   UNL A   1      33.144  29.120  23.153  1.00  0.00    -0.269 OA
ATOM      5  H   UNL A   1      32.939  30.731  24.787  1.00  0.00     0.163 HD
BRANCH   3   6
ATOM      6  C   UNL A   1      31.651  27.666  24.276  1.00  0.00     0.059 A 
ATOM      7  C   UNL A   1      31.851  25.250  24.687  1.00  0.00    -0.017 A 
ATOM      8  C   UNL A   1      30.517  25.092  24.306  1.00  0.00     0.010 A 
ATOM      9  C   UNL A   1      32.318  26.568  24.819  1.00  0.00     0.024 A 
ATOM     10  C   UNL A   1      29.744  26.203  23.956  1.00  0.00     0.022 A 
ATOM     11  C   UNL A   1      30.319  27.481  23.885  1.00  0.00     0.053 A 
ATOM     12  Cl  UNL A   1      29.297  28.734  23.278  1.00  0.00    -0.083 Cl
BRANCH   7  13
ATOM     13  C   UNL A   1      32.801  24.115  24.797  1.00  0.00    -0.018 A 
ATOM     14  C   UNL A   1      34.942  23.062  24.224  1.00  0.00     0.040 A 
ATOM     15  C   UNL A   1      34.490  21.836  24.709  1.00  0.00     0.014 A 
ATOM     16  C   UNL A   1      34.091  24.176  24.243  1.00  0.00     0.022 A 
ATOM     17  C   UNL A   1      33.215  21.742  25.260  1.00  0.00     0.001 A 
ATOM     18  C   UNL A   1      32.387  22.870  25.310  1.00  0.00     0.009 A 
BRANCH  14  19
ATOM     19  C   UNL A   1      36.273  23.130  23.580  1.00  0.00     0.251 C 
ATOM     20  N   UNL A   1      37.402  23.398  24.313  1.00  0.00    -0.352 N 
ATOM     21  H   UNL A   1      38.207  23.582  23.776  1.00  0.00     0.163 HD
ATOM     22  O   UNL A   1      36.363  22.953  22.369  1.00  0.00    -0.269 OA
BRANCH  20  23
ATOM     23  C   UNL A   1      37.605  23.454  25.751  1.00  0.00     0.112 C 
ATOM     24  C   UNL A   1      38.461  22.299  26.229  1.00  0.00     0.027 C 
ENDBRANCH  20  23
ENDBRANCH  14  19
ENDBRANCH   7  13
ENDBRANCH   3   6
ENDBRANCH   1   2
BRANCH   1  25
ATOM     25  C   UNL A   1      31.356  31.820  26.477  1.00  0.00     0.042 C 
BRANCH  25  26
ATOM     26  C   UNL A   1      32.662  32.485  26.875  1.00  0.00     0.118 C 
BRANCH  26  27
ATOM     27  N   UNL A   1      32.483  33.838  27.387  1.00  0.00    -0.352 N 
ATOM     28  C   UNL A   1      33.082  34.513  28.424  1.00  0.00     0.251 C 
ATOM     29  H   UNL A   1      31.810  34.365  26.901  1.00  0.00     0.163 HD
ATOM     30  O   UNL A   1      32.625  35.602  28.766  1.00  0.00    -0.269 OA
BRANCH  28  31
ATOM     31  C   UNL A   1      34.248  33.955  29.148  1.00  0.00     0.039 A 
ATOM     32  C   UNL A   1      34.026  33.008  30.154  1.00  0.00     0.014 A 
ATOM     33  C   UNL A   1      35.550  34.384  28.889  1.00  0.00     0.014 A 
ATOM     34  C   UNL A   1      35.107  32.443  30.837  1.00  0.00     0.010 A 
ATOM     35  C   UNL A   1      36.631  33.748  29.491  1.00  0.00     0.010 A 
ATOM     36  C   UNL A   1      36.424  32.775  30.478  1.00  0.00    -0.014 A 
BRANCH  36  37
ATOM     37  C   UNL A   1      37.592  32.117  31.120  1.00  0.00     0.031 A 
ATOM     38  C   UNL A   1      38.349  31.033  30.398  1.00  0.00     0.074 A 
ATOM     39  C   UNL A   1      37.925  32.442  32.383  1.00  0.00     0.049 A 
ATOM     40  N   UNL A   1      39.351  30.304  30.821  1.00  0.00    -0.248 NA
ATOM     41  C   UNL A   1      37.902  30.704  29.036  1.00  0.00     0.031 C 
ATOM     42  C   UNL A   1      37.232  33.429  33.215  1.00  0.00     0.029 A 
ATOM     43  N   UNL A   1      38.928  31.972  33.194  1.00  0.00    -0.354 N 
ATOM     44  C   UNL A   1      39.636  29.419  29.788  1.00  0.00     0.074 A 
ATOM     45  C   UNL A   1      38.668  29.664  28.742  1.00  0.00     0.031 C 
ATOM     46  C   UNL A   1      37.850  33.515  34.403  1.00  0.00     0.029 A 
ATOM     47  C   UNL A   1      38.957  32.565  34.433  1.00  0.00     0.049 A 
ATOM     48  H   UNL A   1      39.564  31.275  32.915  1.00  0.00     0.167 HD
ATOM     49  C   UNL A   1      40.629  28.501  29.707  1.00  0.00     0.037 A 
ATOM     50  C   UNL A   1      39.784  32.367  35.477  1.00  0.00     0.037 A 
ATOM     51  C   UNL A   1      41.614  28.281  30.734  1.00  0.00     0.049 A 
ATOM     52  C   UNL A   1      40.890  31.357  35.356  1.00  0.00     0.074 A 
ATOM     53  C   UNL A   1      42.706  27.431  30.716  1.00  0.00     0.029 A 
ATOM     54  N   UNL A   1      41.623  28.919  31.965  1.00  0.00    -0.354 N 
ATOM     55  N   UNL A   1      41.193  30.581  34.344  1.00  0.00    -0.248 NA
ATOM     56  C   UNL A   1      41.772  31.200  36.521  1.00  0.00     0.031 C 
ATOM     57  C   UNL A   1      43.353  27.524  31.952  1.00  0.00     0.029 A 
ATOM     58  C   UNL A   1      42.691  28.465  32.724  1.00  0.00     0.049 A 
ATOM     59  H   UNL A   1      40.970  29.594  32.257  1.00  0.00     0.167 HD
ATOM     60  C   UNL A   1      42.313  29.861  34.740  1.00  0.00     0.074 A 
ATOM     61  C   UNL A   1      42.645  30.306  36.078  1.00  0.00     0.031 C 
ATOM     62  C   UNL A   1      43.005  28.917  34.056  1.00  0.00     0.037 A 
BRANCH  49  63
ATOM     63  C   UNL A   1      40.701  27.669  28.458  1.00  0.00     0.057 A 
ATOM     64  C   UNL A   1      41.461  28.064  27.349  1.00  0.00     0.134 A 
ATOM     65  C   UNL A   1      40.021  26.447  28.371  1.00  0.00     0.134 A 
ATOM     66  F   UNL A   1      42.127  29.229  27.361  1.00  0.00    -0.206 F 
ATOM     67  C   UNL A   1      41.515  27.291  26.186  1.00  0.00     0.040 A 
ATOM     68  C   UNL A   1      40.091  25.652  27.225  1.00  0.00     0.040 A 
ATOM     69  F   UNL A   1      39.281  26.004  29.398  1.00  0.00    -0.206 F 
ATOM     70  C   UNL A   1      40.834  26.078  26.126  1.00  0.00     0.006 A 
ENDBRANCH  49  63
BRANCH  50  71
ATOM     71  C   UNL A   1      39.620  33.172  36.712  1.00  0.00     0.057 A 
ATOM     72  C   UNL A   1      40.364  34.341  36.911  1.00  0.00     0.134 A 
ATOM     73  C   UNL A   1      38.717  32.803  37.716  1.00  0.00     0.134 A 
ATOM     74  F   UNL A   1      41.259  34.735  35.992  1.00  0.00    -0.206 F 
ATOM     75  C   UNL A   1      40.226  35.108  38.068  1.00  0.00     0.040 A 
ATOM     76  C   UNL A   1      38.552  33.573  38.868  1.00  0.00     0.040 A 
ATOM     77  F   UNL A   1      37.970  31.697  37.581  1.00  0.00    -0.206 F 
ATOM     78  C   UNL A   1      39.312  34.727  39.048  1.00  0.00     0.006 A 
ENDBRANCH  50  71
BRANCH  62  79
ATOM     79  C   UNL A   1      44.202  28.322  34.737  1.00  0.00     0.057 A 
ATOM     80  C   UNL A   1      44.111  27.148  35.495  1.00  0.00     0.134 A 
ATOM     81  C   UNL A   1      45.464  28.915  34.608  1.00  0.00     0.134 A 
ATOM     82  F   UNL A   1      42.928  26.540  35.667  1.00  0.00    -0.206 F 
ATOM     83  C   UNL A   1      45.230  26.599  36.122  1.00  0.00     0.040 A 
ATOM     84  C   UNL A   1      46.594  28.361  35.210  1.00  0.00     0.040 A 
ATOM     85  F   UNL A   1      45.620  30.037  33.889  1.00  0.00    -0.206 F 
ATOM     86  C   UNL A   1      46.478  27.203  35.975  1.00  0.00     0.006 A 
ENDBRANCH  62  79
ENDBRANCH  36  37
ENDBRANCH  28  31
ENDBRANCH  26  27
ENDBRANCH  25  26
ENDBRANCH   1  25
TORSDOF 13
ENDMDL
MODEL 3
REMARK VINA RESULT:     -12.0      2.648      7.218
REMARK SMILES CCNC(=O)c1cccc(-c2ccc(Cl)c(C(=O)NCCCNC(=O)c3ccc(-c4c5nc(c(-c6c(F)cccc6F)c6ccc([nH]6)c(-c6c(F)cccc6F)c6nc(c(-c7c(F)cccc7F)c7ccc4[nH]7)C=C6)C=C5)cc3)c2)c1
REMARK SMILES IDX 20 1 19 2 17 3 18 4 16 6 11 7 12 8 80 9 13 10 14 11 15 12
REMARK SMILES IDX 10 13 6 14 7 15 81 16 8 17 9 18 4 19 3 20 5 22 2 23 1 24
REMARK SMILES IDX 21 25 22 26 23 27 24 28 25 30 26 31 27 32 79 33 28 34 78 35
REMARK SMILES IDX 29 36 30 37 31 38 72 39 32 40 77 41 71 42 73 43 33 44 76 45
REMARK SMILES IDX 70 46 69 47 34 49 60 50 43 51 59 52 44 53 47 54 58 55 74 56
REMARK SMILES IDX 45 57 46 58 57 60 75 61 48 62 35 63 36 64 41 65 37 66 38 67
REMARK SMILES IDX 40 68 42 69 39 70 61 71 62 72 67 73 63 74 64 75 66 76 68 77
REMARK SMILES IDX 65 78 49 79 50 80 55 81 51 82 52 83 54 84 56 85 53 86
REMARK H PARENT 19 5 3 21 23 29 73 48 47 59
REMARK Flexibility Score: inf
ROOT
ATOM      1  C   UNL A   1      32.530  27.217  26.699  1.00  0.00     0.118 C 
ENDROOT
BRANCH   1   2
ATOM      2  N   UNL A   1      31.177  26.663  26.762  1.00  0.00    -0.352 N 
ATOM      3  C   UNL A   1      30.460  25.721  26.046  1.00  0.00     0.252 C 
ATOM      4  O   UNL A   1      29.356  25.428  26.499  1.00  0.00    -0.269 OA
ATOM      5  H   UNL A   1      30.647  27.058  27.492  1.00  0.00     0.163 HD
BRANCH   3   6
ATOM      6  C   UNL A   1      30.947  25.092  24.780  1.00  0.00     0.059 A 
ATOM      7  C   UNL A   1      32.194  23.220  23.785  1.00  0.00    -0.017 A 
ATOM      8  C   UNL A   1      32.231  23.912  22.573  1.00  0.00     0.010 A 
ATOM      9  C   UNL A   1      31.398  23.772  24.802  1.00  0.00     0.024 A 
ATOM     10  C   UNL A   1      31.602  25.155  22.445  1.00  0.00     0.022 A 
ATOM     11  C   UNL A   1      31.010  25.773  23.557  1.00  0.00     0.053 A 
ATOM     12  Cl  UNL A   1      30.420  27.376  23.301  1.00  0.00    -0.083 Cl
BRANCH   7  13
ATOM     13  C   UNL A   1      33.060  22.052  24.076  1.00  0.00    -0.018 A 
ATOM     14  C   UNL A   1      33.325  19.719  24.789  1.00  0.00     0.040 A 
ATOM     15  C   UNL A   1      34.696  19.909  24.963  1.00  0.00     0.014 A 
ATOM     16  C   UNL A   1      32.519  20.790  24.381  1.00  0.00     0.022 A 
ATOM     17  C   UNL A   1      35.260  21.148  24.674  1.00  0.00     0.001 A 
ATOM     18  C   UNL A   1      34.452  22.201  24.229  1.00  0.00     0.009 A 
BRANCH  14  19
ATOM     19  C   UNL A   1      32.730  18.416  25.165  1.00  0.00     0.251 C 
ATOM     20  N   UNL A   1      32.483  17.451  24.222  1.00  0.00    -0.352 N 
ATOM     21  H   UNL A   1      31.942  16.693  24.540  1.00  0.00     0.163 HD
ATOM     22  O   UNL A   1      32.445  18.205  26.340  1.00  0.00    -0.269 OA
BRANCH  20  23
ATOM     23  C   UNL A   1      32.890  17.364  22.829  1.00  0.00     0.112 C 
ATOM     24  C   UNL A   1      34.271  16.755  22.699  1.00  0.00     0.027 C 
ENDBRANCH  20  23
ENDBRANCH  14  19
ENDBRANCH   7  13
ENDBRANCH   3   6
ENDBRANCH   1   2
BRANCH   1  25
ATOM     25  C   UNL A   1      32.685  28.602  27.302  1.00  0.00     0.042 C 
BRANCH  25  26
ATOM     26  C   UNL A   1      33.675  29.507  26.591  1.00  0.00     0.118 C 
BRANCH  26  27
ATOM     27  N   UNL A   1      33.740  30.847  27.162  1.00  0.00    -0.352 N 
ATOM     28  C   UNL A   1      34.608  31.420  28.061  1.00  0.00     0.251 C 
ATOM     29  H   UNL A   1      33.032  31.453  26.845  1.00  0.00     0.163 HD
ATOM     30  O   UNL A   1      34.340  32.529  28.519  1.00  0.00    -0.269 OA
BRANCH  28  31
ATOM     31  C   UNL A   1      35.842  30.730  28.502  1.00  0.00     0.039 A 
ATOM     32  C   UNL A   1      37.057  31.070  27.897  1.00  0.00     0.014 A 
ATOM     33  C   UNL A   1      35.816  29.721  29.465  1.00  0.00     0.014 A 
ATOM     34  C   UNL A   1      38.243  30.456  28.311  1.00  0.00     0.010 A 
ATOM     35  C   UNL A   1      37.006  29.186  29.952  1.00  0.00     0.010 A 
ATOM     36  C   UNL A   1      38.233  29.540  29.376  1.00  0.00    -0.014 A 
BRANCH  36  37
ATOM     37  C   UNL A   1      39.491  28.947  29.901  1.00  0.00     0.031 A 
ATOM     38  C   UNL A   1      40.150  29.518  31.129  1.00  0.00     0.074 A 
ATOM     39  C   UNL A   1      40.081  27.942  29.227  1.00  0.00     0.049 A 
ATOM     40  N   UNL A   1      41.279  29.175  31.696  1.00  0.00    -0.248 NA
ATOM     41  C   UNL A   1      39.467  30.642  31.788  1.00  0.00     0.031 C 
ATOM     42  C   UNL A   1      39.579  27.342  27.989  1.00  0.00     0.029 A 
ATOM     43  N   UNL A   1      41.238  27.250  29.485  1.00  0.00    -0.354 N 
ATOM     44  C   UNL A   1      41.451  30.052  32.759  1.00  0.00     0.074 A 
ATOM     45  C   UNL A   1      40.340  30.978  32.726  1.00  0.00     0.031 C 
ATOM     46  C   UNL A   1      40.404  26.351  27.614  1.00  0.00     0.029 A 
ATOM     47  C   UNL A   1      41.510  26.269  28.561  1.00  0.00     0.049 A 
ATOM     48  H   UNL A   1      41.819  27.438  30.257  1.00  0.00     0.167 HD
ATOM     49  C   UNL A   1      42.431  30.072  33.694  1.00  0.00     0.037 A 
ATOM     50  C   UNL A   1      42.536  25.400  28.486  1.00  0.00     0.037 A 
ATOM     51  C   UNL A   1      43.517  29.129  33.747  1.00  0.00     0.049 A 
ATOM     52  C   UNL A   1      43.602  25.429  29.545  1.00  0.00     0.074 A 
ATOM     53  C   UNL A   1      44.517  29.015  34.696  1.00  0.00     0.029 A 
ATOM     54  N   UNL A   1      43.745  28.136  32.806  1.00  0.00    -0.354 N 
ATOM     55  N   UNL A   1      43.709  26.217  30.587  1.00  0.00    -0.248 NA
ATOM     56  C   UNL A   1      44.684  24.444  29.420  1.00  0.00     0.031 C 
ATOM     57  C   UNL A   1      45.373  27.980  34.309  1.00  0.00     0.029 A 
ATOM     58  C   UNL A   1      44.883  27.419  33.141  1.00  0.00     0.049 A 
ATOM     59  H   UNL A   1      43.183  27.965  32.016  1.00  0.00     0.167 HD
ATOM     60  C   UNL A   1      44.857  25.808  31.255  1.00  0.00     0.074 A 
ATOM     61  C   UNL A   1      45.400  24.692  30.508  1.00  0.00     0.031 C 
ATOM     62  C   UNL A   1      45.411  26.311  32.385  1.00  0.00     0.037 A 
BRANCH  49  63
ATOM     63  C   UNL A   1      42.366  31.148  34.741  1.00  0.00     0.057 A 
ATOM     64  C   UNL A   1      41.661  30.973  35.939  1.00  0.00     0.134 A 
ATOM     65  C   UNL A   1      43.036  32.365  34.560  1.00  0.00     0.134 A 
ATOM     66  F   UNL A   1      40.987  29.835  36.171  1.00  0.00    -0.206 F 
ATOM     67  C   UNL A   1      41.595  31.980  36.903  1.00  0.00     0.040 A 
ATOM     68  C   UNL A   1      43.002  33.368  35.530  1.00  0.00     0.040 A 
ATOM     69  F   UNL A   1      43.737  32.597  33.440  1.00  0.00    -0.206 F 
ATOM     70  C   UNL A   1      42.274  33.180  36.702  1.00  0.00     0.006 A 
ENDBRANCH  49  63
BRANCH  50  71
ATOM     71  C   UNL A   1      42.582  24.404  27.387  1.00  0.00     0.057 A 
ATOM     72  C   UNL A   1      43.178  24.717  26.160  1.00  0.00     0.134 A 
ATOM     73  C   UNL A   1      42.043  23.121  27.535  1.00  0.00     0.134 A 
ATOM     74  F   UNL A   1      43.696  25.937  25.953  1.00  0.00    -0.206 F 
ATOM     75  C   UNL A   1      43.227  23.795  25.114  1.00  0.00     0.040 A 
ATOM     76  C   UNL A   1      42.104  22.180  26.506  1.00  0.00     0.040 A 
ATOM     77  F   UNL A   1      41.465  22.759  28.690  1.00  0.00    -0.206 F 
ATOM     78  C   UNL A   1      42.693  22.519  25.290  1.00  0.00     0.006 A 
ENDBRANCH  50  71
BRANCH  62  79
ATOM     79  C   UNL A   1      46.653  25.642  32.892  1.00  0.00     0.057 A 
ATOM     80  C   UNL A   1      47.928  26.030  32.462  1.00  0.00     0.134 A 
ATOM     81  C   UNL A   1      46.574  24.617  33.843  1.00  0.00     0.134 A 
ATOM     82  F   UNL A   1      48.070  26.997  31.542  1.00  0.00    -0.206 F 
ATOM     83  C   UNL A   1      49.080  25.405  32.941  1.00  0.00     0.040 A 
ATOM     84  C   UNL A   1      47.720  24.002  34.349  1.00  0.00     0.040 A 
ATOM     85  F   UNL A   1      45.383  24.204  34.302  1.00  0.00    -0.206 F 
ATOM     86  C   UNL A   1      48.977  24.391  33.892  1.00  0.00     0.006 A 
ENDBRANCH  62  79
ENDBRANCH  36  37
ENDBRANCH  28  31
ENDBRANCH  26  27
ENDBRANCH  25  26
ENDBRANCH   1  25
TORSDOF 13
ENDMDL
