MODEL 1
REMARK VINA RESULT:     -11.1      0.000      0.000
REMARK SMILES O=C(CC1CC[NH+](CC[NH+]2CCCCC2)CC1)NCCCNC(=O)c1ccc(-c2c3nc(c(-c4c(F)cccc4F)c4ccc([nH]4)c(-c4c(F)cccc4F)c4nc(c(-c5c(F)cccc5F)c5ccc2[nH]5)C=C4)C=C3)cc1
REMARK SMILES IDX 19 1 18 2 1 3 2 4 3 6 4 7 5 8 17 9 6 10 16 11 7 12 8 14 9 15
REMARK SMILES IDX 10 16 11 17 15 18 12 20 14 21 13 22 20 23 21 24 22 25 23 26
REMARK SMILES IDX 24 28 25 29 26 30 78 31 27 32 77 33 28 34 29 35 30 36 71 37
REMARK SMILES IDX 31 38 76 39 70 40 72 41 32 42 75 43 69 44 68 45 33 47 59 48
REMARK SMILES IDX 42 49 58 50 43 51 46 52 57 53 73 54 44 55 45 56 56 58 74 59
REMARK SMILES IDX 47 60 34 61 35 62 40 63 36 64 37 65 39 66 41 67 38 68 60 69
REMARK SMILES IDX 61 70 66 71 62 72 63 73 65 74 67 75 64 76 48 77 49 78 54 79
REMARK SMILES IDX 50 80 51 81 53 82 55 83 52 84
REMARK H PARENT 18 5 7 13 10 19 22 27 72 46 46 57
REMARK Flexibility Score: inf
ROOT
ATOM      1  C   UNL A   1      36.971  22.320  23.848  1.00  0.00     0.117 C 
ENDROOT
BRANCH   1   2
ATOM      2  N   UNL A   1      35.653  22.914  23.941  1.00  0.00    -0.356 N 
ATOM      3  O   UNL A   1      36.166  24.257  25.739  1.00  0.00    -0.275 OA
ATOM      4  C   UNL A   1      35.390  23.924  24.850  1.00  0.00     0.220 C 
ATOM      5  H   UNL A   1      34.934  22.595  23.349  1.00  0.00     0.163 HD
BRANCH   4   6
ATOM      6  C   UNL A   1      34.076  24.645  24.610  1.00  0.00     0.104 C 
BRANCH   6   7
ATOM      7  C   UNL A   1      33.675  25.637  25.732  1.00  0.00     0.009 C 
ATOM      8  C   UNL A   1      32.198  25.484  26.126  1.00  0.00     0.066 C 
ATOM      9  C   UNL A   1      33.888  27.126  25.437  1.00  0.00     0.066 C 
ATOM     10  C   UNL A   1      31.269  25.951  25.002  1.00  0.00     0.262 C 
ATOM     11  C   UNL A   1      32.957  27.664  24.351  1.00  0.00     0.262 C 
ATOM     12  N   UNL A   1      31.550  27.297  24.503  1.00  0.00    -0.330 N 
ATOM     13  H   UNL A   1      31.239  27.890  25.272  1.00  0.00     0.348 HD
BRANCH  12  14
ATOM     14  C   UNL A   1      30.752  27.632  23.301  1.00  0.00     0.324 C 
BRANCH  14  15
ATOM     15  C   UNL A   1      31.115  28.919  22.489  1.00  0.00     0.324 C 
BRANCH  15  16
ATOM     16  N   UNL A   1      30.151  30.026  22.566  1.00  0.00    -0.330 N 
ATOM     17  C   UNL A   1      28.935  29.741  21.791  1.00  0.00     0.262 C 
ATOM     18  C   UNL A   1      29.796  30.422  23.933  1.00  0.00     0.262 C 
ATOM     19  H   UNL A   1      30.637  30.820  22.152  1.00  0.00     0.348 HD
ATOM     20  C   UNL A   1      28.067  30.995  21.683  1.00  0.00     0.062 C 
ATOM     21  C   UNL A   1      28.999  31.729  23.897  1.00  0.00     0.062 C 
ATOM     22  C   UNL A   1      27.739  31.583  23.052  1.00  0.00     0.012 C 
ENDBRANCH  15  16
ENDBRANCH  14  15
ENDBRANCH  12  14
ENDBRANCH   6   7
ENDBRANCH   4   6
ENDBRANCH   1   2
BRANCH   1  23
ATOM     23  C   UNL A   1      37.191  21.077  24.711  1.00  0.00     0.042 C 
BRANCH  23  24
ATOM     24  C   UNL A   1      38.383  21.076  25.668  1.00  0.00     0.118 C 
BRANCH  24  25
ATOM     25  N   UNL A   1      39.283  19.938  25.550  1.00  0.00    -0.352 N 
ATOM     26  C   UNL A   1      40.613  19.866  25.906  1.00  0.00     0.251 C 
ATOM     27  H   UNL A   1      38.894  19.119  25.167  1.00  0.00     0.163 HD
ATOM     28  O   UNL A   1      41.267  18.850  25.684  1.00  0.00    -0.269 OA
BRANCH  26  29
ATOM     29  C   UNL A   1      41.264  21.032  26.537  1.00  0.00     0.039 A 
ATOM     30  C   UNL A   1      41.955  21.949  25.741  1.00  0.00     0.014 A 
ATOM     31  C   UNL A   1      41.172  21.230  27.915  1.00  0.00     0.014 A 
ATOM     32  C   UNL A   1      42.473  23.113  26.319  1.00  0.00     0.010 A 
ATOM     33  C   UNL A   1      41.659  22.403  28.486  1.00  0.00     0.010 A 
ATOM     34  C   UNL A   1      42.286  23.370  27.688  1.00  0.00    -0.014 A 
BRANCH  34  35
ATOM     35  C   UNL A   1      42.640  24.679  28.294  1.00  0.00     0.031 A 
ATOM     36  C   UNL A   1      41.606  25.750  28.484  1.00  0.00     0.074 A 
ATOM     37  C   UNL A   1      43.936  24.943  28.555  1.00  0.00     0.049 A 
ATOM     38  N   UNL A   1      41.764  26.990  28.873  1.00  0.00    -0.248 NA
ATOM     39  C   UNL A   1      40.215  25.389  28.173  1.00  0.00     0.031 C 
ATOM     40  C   UNL A   1      45.046  24.008  28.356  1.00  0.00     0.029 A 
ATOM     41  N   UNL A   1      44.542  26.084  29.016  1.00  0.00    -0.354 N 
ATOM     42  C   UNL A   1      40.501  27.562  28.841  1.00  0.00     0.074 A 
ATOM     43  C   UNL A   1      39.590  26.543  28.360  1.00  0.00     0.031 C 
ATOM     44  C   UNL A   1      46.195  24.611  28.701  1.00  0.00     0.029 A 
ATOM     45  C   UNL A   1      45.909  25.982  29.109  1.00  0.00     0.049 A 
ATOM     46  H   UNL A   1      44.046  26.900  29.257  1.00  0.00     0.167 HD
ATOM     47  C   UNL A   1      40.132  28.818  29.193  1.00  0.00     0.037 A 
ATOM     48  C   UNL A   1      46.833  26.892  29.469  1.00  0.00     0.037 A 
ATOM     49  C   UNL A   1      41.032  29.823  29.694  1.00  0.00     0.049 A 
ATOM     50  C   UNL A   1      46.397  28.275  29.860  1.00  0.00     0.074 A 
ATOM     51  C   UNL A   1      40.737  31.101  30.138  1.00  0.00     0.029 A 
ATOM     52  N   UNL A   1      42.405  29.667  29.812  1.00  0.00    -0.354 N 
ATOM     53  N   UNL A   1      45.188  28.781  29.889  1.00  0.00    -0.248 NA
ATOM     54  C   UNL A   1      47.452  29.213  30.272  1.00  0.00     0.031 C 
ATOM     55  C   UNL A   1      41.935  31.729  30.496  1.00  0.00     0.029 A 
ATOM     56  C   UNL A   1      42.972  30.830  30.308  1.00  0.00     0.049 A 
ATOM     57  H   UNL A   1      42.903  28.850  29.578  1.00  0.00     0.167 HD
ATOM     58  C   UNL A   1      45.333  30.082  30.351  1.00  0.00     0.074 A 
ATOM     59  C   UNL A   1      46.745  30.288  30.591  1.00  0.00     0.031 C 
ATOM     60  C   UNL A   1      44.377  31.019  30.559  1.00  0.00     0.037 A 
BRANCH  47  61
ATOM     61  C   UNL A   1      38.681  29.177  29.059  1.00  0.00     0.057 A 
ATOM     62  C   UNL A   1      37.816  29.164  30.160  1.00  0.00     0.134 A 
ATOM     63  C   UNL A   1      38.156  29.592  27.828  1.00  0.00     0.134 A 
ATOM     64  F   UNL A   1      38.256  28.771  31.365  1.00  0.00    -0.206 F 
ATOM     65  C   UNL A   1      36.474  29.530  30.038  1.00  0.00     0.040 A 
ATOM     66  C   UNL A   1      36.822  29.980  27.698  1.00  0.00     0.040 A 
ATOM     67  F   UNL A   1      38.934  29.635  26.736  1.00  0.00    -0.206 F 
ATOM     68  C   UNL A   1      35.976  29.945  28.805  1.00  0.00     0.006 A 
ENDBRANCH  47  61
BRANCH  48  69
ATOM     69  C   UNL A   1      48.267  26.515  29.501  1.00  0.00     0.057 A 
ATOM     70  C   UNL A   1      48.819  25.891  30.625  1.00  0.00     0.134 A 
ATOM     71  C   UNL A   1      49.114  26.762  28.415  1.00  0.00     0.134 A 
ATOM     72  F   UNL A   1      48.056  25.644  31.702  1.00  0.00    -0.206 F 
ATOM     73  C   UNL A   1      50.167  25.537  30.675  1.00  0.00     0.040 A 
ATOM     74  C   UNL A   1      50.460  26.395  28.443  1.00  0.00     0.040 A 
ATOM     75  F   UNL A   1      48.641  27.348  27.306  1.00  0.00    -0.206 F 
ATOM     76  C   UNL A   1      50.991  25.787  29.579  1.00  0.00     0.006 A 
ENDBRANCH  48  69
BRANCH  60  77
ATOM     77  C   UNL A   1      44.817  32.340  31.114  1.00  0.00     0.057 A 
ATOM     78  C   UNL A   1      45.149  33.416  30.284  1.00  0.00     0.134 A 
ATOM     79  C   UNL A   1      44.859  32.549  32.499  1.00  0.00     0.134 A 
ATOM     80  F   UNL A   1      45.141  33.274  28.951  1.00  0.00    -0.206 F 
ATOM     81  C   UNL A   1      45.518  34.655  30.812  1.00  0.00     0.040 A 
ATOM     82  C   UNL A   1      45.207  33.789  33.038  1.00  0.00     0.040 A 
ATOM     83  F   UNL A   1      44.548  31.558  33.348  1.00  0.00    -0.206 F 
ATOM     84  C   UNL A   1      45.540  34.845  32.193  1.00  0.00     0.006 A 
ENDBRANCH  60  77
ENDBRANCH  34  35
ENDBRANCH  26  29
ENDBRANCH  24  25
ENDBRANCH  23  24
ENDBRANCH   1  23
TORSDOF 14
ENDMDL
MODEL 2
REMARK VINA RESULT:     -11.1      3.022      7.656
REMARK SMILES O=C(CC1CC[NH+](CC[NH+]2CCCCC2)CC1)NCCCNC(=O)c1ccc(-c2c3nc(c(-c4c(F)cccc4F)c4ccc([nH]4)c(-c4c(F)cccc4F)c4nc(c(-c5c(F)cccc5F)c5ccc2[nH]5)C=C4)C=C3)cc1
REMARK SMILES IDX 19 1 18 2 1 3 2 4 3 6 4 7 5 8 17 9 6 10 16 11 7 12 8 14 9 15
REMARK SMILES IDX 10 16 11 17 15 18 12 20 14 21 13 22 20 23 21 24 22 25 23 26
REMARK SMILES IDX 24 28 25 29 26 30 78 31 27 32 77 33 28 34 29 35 30 36 71 37
REMARK SMILES IDX 31 38 76 39 70 40 72 41 32 42 75 43 69 44 68 45 33 47 59 48
REMARK SMILES IDX 42 49 58 50 43 51 46 52 57 53 73 54 44 55 45 56 56 58 74 59
REMARK SMILES IDX 47 60 34 61 35 62 40 63 36 64 37 65 39 66 41 67 38 68 60 69
REMARK SMILES IDX 61 70 66 71 62 72 63 73 65 74 67 75 64 76 48 77 49 78 54 79
REMARK SMILES IDX 50 80 51 81 53 82 55 83 52 84
REMARK H PARENT 18 5 7 13 10 19 22 27 72 46 46 57
REMARK Flexibility Score: inf
ROOT
ATOM      1  C   UNL A   1      37.450  21.068  24.485  1.00  0.00     0.117 C 
ENDROOT
BRANCH   1   2
ATOM      2  N   UNL A   1      36.488  21.747  25.327  1.00  0.00    -0.356 N 
ATOM      3  O   UNL A   1      37.699  23.699  25.482  1.00  0.00    -0.275 OA
ATOM      4  C   UNL A   1      36.665  23.073  25.686  1.00  0.00     0.220 C 
ATOM      5  H   UNL A   1      35.695  21.259  25.650  1.00  0.00     0.163 HD
BRANCH   4   6
ATOM      6  C   UNL A   1      35.434  23.718  26.296  1.00  0.00     0.104 C 
BRANCH   6   7
ATOM      7  C   UNL A   1      34.708  24.722  25.365  1.00  0.00     0.009 C 
ATOM      8  C   UNL A   1      33.230  24.888  25.750  1.00  0.00     0.066 C 
ATOM      9  C   UNL A   1      34.726  24.401  23.866  1.00  0.00     0.066 C 
ATOM     10  C   UNL A   1      32.430  23.616  25.459  1.00  0.00     0.262 C 
ATOM     11  C   UNL A   1      33.908  23.163  23.505  1.00  0.00     0.262 C 
ATOM     12  N   UNL A   1      32.570  23.111  24.094  1.00  0.00    -0.330 N 
ATOM     13  H   UNL A   1      32.051  23.797  23.547  1.00  0.00     0.348 HD
BRANCH  12  14
ATOM     14  C   UNL A   1      31.931  21.786  23.913  1.00  0.00     0.324 C 
BRANCH  14  15
ATOM     15  C   UNL A   1      32.154  20.686  25.003  1.00  0.00     0.324 C 
BRANCH  15  16
ATOM     16  N   UNL A   1      32.633  19.384  24.518  1.00  0.00    -0.330 N 
ATOM     17  C   UNL A   1      32.244  19.148  23.120  1.00  0.00     0.262 C 
ATOM     18  C   UNL A   1      34.075  19.173  24.681  1.00  0.00     0.262 C 
ATOM     19  H   UNL A   1      32.172  18.700  25.118  1.00  0.00     0.348 HD
ATOM     20  C   UNL A   1      32.534  17.699  22.725  1.00  0.00     0.062 C 
ATOM     21  C   UNL A   1      34.417  17.710  24.387  1.00  0.00     0.062 C 
ATOM     22  C   UNL A   1      33.988  17.318  22.978  1.00  0.00     0.012 C 
ENDBRANCH  15  16
ENDBRANCH  14  15
ENDBRANCH  12  14
ENDBRANCH   6   7
ENDBRANCH   4   6
ENDBRANCH   1   2
BRANCH   1  23
ATOM     23  C   UNL A   1      38.106  19.833  25.106  1.00  0.00     0.042 C 
BRANCH  23  24
ATOM     24  C   UNL A   1      39.357  20.043  25.960  1.00  0.00     0.118 C 
BRANCH  24  25
ATOM     25  N   UNL A   1      40.306  18.940  25.965  1.00  0.00    -0.352 N 
ATOM     26  C   UNL A   1      41.675  18.997  26.125  1.00  0.00     0.251 C 
ATOM     27  H   UNL A   1      39.925  18.042  25.839  1.00  0.00     0.163 HD
ATOM     28  O   UNL A   1      42.359  17.981  26.040  1.00  0.00    -0.269 OA
BRANCH  26  29
ATOM     29  C   UNL A   1      42.326  20.300  26.372  1.00  0.00     0.039 A 
ATOM     30  C   UNL A   1      43.012  20.936  25.335  1.00  0.00     0.014 A 
ATOM     31  C   UNL A   1      42.240  20.903  27.628  1.00  0.00     0.014 A 
ATOM     32  C   UNL A   1      43.530  22.220  25.534  1.00  0.00     0.010 A 
ATOM     33  C   UNL A   1      42.727  22.194  27.818  1.00  0.00     0.010 A 
ATOM     34  C   UNL A   1      43.349  22.876  26.763  1.00  0.00    -0.014 A 
BRANCH  34  35
ATOM     35  C   UNL A   1      43.704  24.306  26.945  1.00  0.00     0.031 A 
ATOM     36  C   UNL A   1      45.124  24.777  26.812  1.00  0.00     0.074 A 
ATOM     37  C   UNL A   1      42.750  25.164  27.361  1.00  0.00     0.049 A 
ATOM     38  N   UNL A   1      45.629  25.957  27.065  1.00  0.00    -0.248 NA
ATOM     39  C   UNL A   1      46.108  23.783  26.360  1.00  0.00     0.031 C 
ATOM     40  C   UNL A   1      41.344  24.818  27.587  1.00  0.00     0.029 A 
ATOM     41  N   UNL A   1      42.823  26.492  27.694  1.00  0.00    -0.354 N 
ATOM     42  C   UNL A   1      46.990  25.848  26.817  1.00  0.00     0.074 A 
ATOM     43  C   UNL A   1      47.238  24.475  26.427  1.00  0.00     0.031 C 
ATOM     44  C   UNL A   1      40.688  25.908  28.014  1.00  0.00     0.029 A 
ATOM     45  C   UNL A   1      41.629  27.018  28.126  1.00  0.00     0.049 A 
ATOM     46  H   UNL A   1      43.651  27.020  27.631  1.00  0.00     0.167 HD
ATOM     47  C   UNL A   1      47.943  26.809  26.894  1.00  0.00     0.037 A 
ATOM     48  C   UNL A   1      41.325  28.249  28.575  1.00  0.00     0.037 A 
ATOM     49  C   UNL A   1      47.694  28.179  27.258  1.00  0.00     0.049 A 
ATOM     50  C   UNL A   1      42.400  29.297  28.645  1.00  0.00     0.074 A 
ATOM     51  C   UNL A   1      48.586  29.237  27.298  1.00  0.00     0.029 A 
ATOM     52  N   UNL A   1      46.462  28.682  27.649  1.00  0.00    -0.354 N 
ATOM     53  N   UNL A   1      43.670  29.196  28.343  1.00  0.00    -0.248 NA
ATOM     54  C   UNL A   1      41.997  30.631  29.117  1.00  0.00     0.031 C 
ATOM     55  C   UNL A   1      47.902  30.372  27.744  1.00  0.00     0.029 A 
ATOM     56  C   UNL A   1      46.575  30.030  27.946  1.00  0.00     0.049 A 
ATOM     57  H   UNL A   1      45.630  28.158  27.706  1.00  0.00     0.167 HD
ATOM     58  C   UNL A   1      44.212  30.457  28.555  1.00  0.00     0.074 A 
ATOM     59  C   UNL A   1      43.132  31.307  29.011  1.00  0.00     0.031 C 
ATOM     60  C   UNL A   1      45.490  30.871  28.384  1.00  0.00     0.037 A 
BRANCH  47  61
ATOM     61  C   UNL A   1      49.354  26.413  26.567  1.00  0.00     0.057 A 
ATOM     62  C   UNL A   1      49.888  26.591  25.285  1.00  0.00     0.134 A 
ATOM     63  C   UNL A   1      50.201  25.900  27.557  1.00  0.00     0.134 A 
ATOM     64  F   UNL A   1      49.125  27.072  24.292  1.00  0.00    -0.206 F 
ATOM     65  C   UNL A   1      51.210  26.252  24.993  1.00  0.00     0.040 A 
ATOM     66  C   UNL A   1      51.531  25.578  27.283  1.00  0.00     0.040 A 
ATOM     67  F   UNL A   1      49.753  25.714  28.808  1.00  0.00    -0.206 F 
ATOM     68  C   UNL A   1      52.037  25.750  25.995  1.00  0.00     0.006 A 
ENDBRANCH  47  61
BRANCH  48  69
ATOM     69  C   UNL A   1      39.933  28.568  28.971  1.00  0.00     0.057 A 
ATOM     70  C   UNL A   1      39.493  28.353  30.282  1.00  0.00     0.134 A 
ATOM     71  C   UNL A   1      39.014  29.097  28.058  1.00  0.00     0.134 A 
ATOM     72  F   UNL A   1      40.327  27.833  31.195  1.00  0.00    -0.206 F 
ATOM     73  C   UNL A   1      38.184  28.639  30.669  1.00  0.00     0.040 A 
ATOM     74  C   UNL A   1      37.706  29.407  28.436  1.00  0.00     0.040 A 
ATOM     75  F   UNL A   1      39.379  29.334  26.789  1.00  0.00    -0.206 F 
ATOM     76  C   UNL A   1      37.287  29.172  29.744  1.00  0.00     0.006 A 
ENDBRANCH  48  69
BRANCH  60  77
ATOM     77  C   UNL A   1      45.787  32.316  28.647  1.00  0.00     0.057 A 
ATOM     78  C   UNL A   1      46.215  32.765  29.901  1.00  0.00     0.134 A 
ATOM     79  C   UNL A   1      45.693  33.259  27.615  1.00  0.00     0.134 A 
ATOM     80  F   UNL A   1      46.312  31.913  30.932  1.00  0.00    -0.206 F 
ATOM     81  C   UNL A   1      46.528  34.108  30.124  1.00  0.00     0.040 A 
ATOM     82  C   UNL A   1      46.022  34.600  27.821  1.00  0.00     0.040 A 
ATOM     83  F   UNL A   1      45.293  32.890  26.389  1.00  0.00    -0.206 F 
ATOM     84  C   UNL A   1      46.439  35.026  29.080  1.00  0.00     0.006 A 
ENDBRANCH  60  77
ENDBRANCH  34  35
ENDBRANCH  26  29
ENDBRANCH  24  25
ENDBRANCH  23  24
ENDBRANCH   1  23
TORSDOF 14
ENDMDL
MODEL 3
REMARK VINA RESULT:     -11.0      1.480      2.433
REMARK SMILES O=C(CC1CC[NH+](CC[NH+]2CCCCC2)CC1)NCCCNC(=O)c1ccc(-c2c3nc(c(-c4c(F)cccc4F)c4ccc([nH]4)c(-c4c(F)cccc4F)c4nc(c(-c5c(F)cccc5F)c5ccc2[nH]5)C=C4)C=C3)cc1
REMARK SMILES IDX 19 1 18 2 1 3 2 4 3 6 4 7 5 8 17 9 6 10 16 11 7 12 8 14 9 15
REMARK SMILES IDX 10 16 11 17 15 18 12 20 14 21 13 22 20 23 21 24 22 25 23 26
REMARK SMILES IDX 24 28 25 29 26 30 78 31 27 32 77 33 28 34 29 35 30 36 71 37
REMARK SMILES IDX 31 38 76 39 70 40 72 41 32 42 75 43 69 44 68 45 33 47 59 48
REMARK SMILES IDX 42 49 58 50 43 51 46 52 57 53 73 54 44 55 45 56 56 58 74 59
REMARK SMILES IDX 47 60 34 61 35 62 40 63 36 64 37 65 39 66 41 67 38 68 60 69
REMARK SMILES IDX 61 70 66 71 62 72 63 73 65 74 67 75 64 76 48 77 49 78 54 79
REMARK SMILES IDX 50 80 51 81 53 82 55 83 52 84
REMARK H PARENT 18 5 7 13 10 19 22 27 72 46 46 57
REMARK Flexibility Score: inf
ROOT
ATOM      1  C   UNL A   1      36.043  20.491  25.016  1.00  0.00     0.117 C 
ENDROOT
BRANCH   1   2
ATOM      2  N   UNL A   1      34.898  21.311  24.678  1.00  0.00    -0.356 N 
ATOM      3  O   UNL A   1      35.014  22.609  26.575  1.00  0.00    -0.275 OA
ATOM      4  C   UNL A   1      34.531  22.385  25.471  1.00  0.00     0.220 C 
ATOM      5  H   UNL A   1      34.372  21.101  23.872  1.00  0.00     0.163 HD
BRANCH   4   6
ATOM      6  C   UNL A   1      33.522  23.315  24.823  1.00  0.00     0.104 C 
BRANCH   6   7
ATOM      7  C   UNL A   1      32.872  22.757  23.532  1.00  0.00     0.009 C 
ATOM      8  C   UNL A   1      33.455  23.415  22.272  1.00  0.00     0.066 C 
ATOM      9  C   UNL A   1      31.349  22.889  23.419  1.00  0.00     0.066 C 
ATOM     10  C   UNL A   1      33.046  24.887  22.171  1.00  0.00     0.262 C 
ATOM     11  C   UNL A   1      30.880  24.336  23.272  1.00  0.00     0.262 C 
ATOM     12  N   UNL A   1      31.607  25.125  22.278  1.00  0.00    -0.330 N 
ATOM     13  H   UNL A   1      31.253  24.763  21.393  1.00  0.00     0.348 HD
BRANCH  12  14
ATOM     14  C   UNL A   1      31.277  26.567  22.360  1.00  0.00     0.324 C 
BRANCH  14  15
ATOM     15  C   UNL A   1      32.335  27.550  22.962  1.00  0.00     0.324 C 
BRANCH  15  16
ATOM     16  N   UNL A   1      32.454  27.552  24.427  1.00  0.00    -0.330 N 
ATOM     17  C   UNL A   1      33.275  28.675  24.903  1.00  0.00     0.262 C 
ATOM     18  C   UNL A   1      31.171  27.531  25.137  1.00  0.00     0.262 C 
ATOM     19  H   UNL A   1      32.922  26.673  24.649  1.00  0.00     0.348 HD
ATOM     20  C   UNL A   1      33.589  28.512  26.391  1.00  0.00     0.062 C 
ATOM     21  C   UNL A   1      31.413  27.278  26.628  1.00  0.00     0.062 C 
ATOM     22  C   UNL A   1      32.324  28.344  27.226  1.00  0.00     0.012 C 
ENDBRANCH  15  16
ENDBRANCH  14  15
ENDBRANCH  12  14
ENDBRANCH   6   7
ENDBRANCH   4   6
ENDBRANCH   1   2
BRANCH   1  23
ATOM     23  C   UNL A   1      37.402  21.068  24.613  1.00  0.00     0.042 C 
BRANCH  23  24
ATOM     24  C   UNL A   1      38.522  21.046  25.654  1.00  0.00     0.118 C 
BRANCH  24  25
ATOM     25  N   UNL A   1      39.421  19.903  25.586  1.00  0.00    -0.352 N 
ATOM     26  C   UNL A   1      40.746  19.840  25.962  1.00  0.00     0.251 C 
ATOM     27  H   UNL A   1      39.035  19.072  25.226  1.00  0.00     0.163 HD
ATOM     28  O   UNL A   1      41.400  18.816  25.783  1.00  0.00    -0.269 OA
BRANCH  26  29
ATOM     29  C   UNL A   1      41.391  21.026  26.561  1.00  0.00     0.039 A 
ATOM     30  C   UNL A   1      41.981  21.982  25.731  1.00  0.00     0.014 A 
ATOM     31  C   UNL A   1      41.394  21.201  27.945  1.00  0.00     0.014 A 
ATOM     32  C   UNL A   1      42.490  23.160  26.287  1.00  0.00     0.010 A 
ATOM     33  C   UNL A   1      41.872  22.388  28.497  1.00  0.00     0.010 A 
ATOM     34  C   UNL A   1      42.396  23.391  27.670  1.00  0.00    -0.014 A 
BRANCH  34  35
ATOM     35  C   UNL A   1      42.738  24.707  28.268  1.00  0.00     0.031 A 
ATOM     36  C   UNL A   1      41.690  25.764  28.467  1.00  0.00     0.074 A 
ATOM     37  C   UNL A   1      44.033  24.990  28.514  1.00  0.00     0.049 A 
ATOM     38  N   UNL A   1      41.835  27.007  28.851  1.00  0.00    -0.248 NA
ATOM     39  C   UNL A   1      40.302  25.382  28.171  1.00  0.00     0.031 C 
ATOM     40  C   UNL A   1      45.153  24.070  28.306  1.00  0.00     0.029 A 
ATOM     41  N   UNL A   1      44.627  26.141  28.966  1.00  0.00    -0.354 N 
ATOM     42  C   UNL A   1      40.563  27.561  28.831  1.00  0.00     0.074 A 
ATOM     43  C   UNL A   1      39.662  26.528  28.362  1.00  0.00     0.031 C 
ATOM     44  C   UNL A   1      46.297  24.690  28.637  1.00  0.00     0.029 A 
ATOM     45  C   UNL A   1      45.997  26.059  29.045  1.00  0.00     0.049 A 
ATOM     46  H   UNL A   1      44.122  26.950  29.210  1.00  0.00     0.167 HD
ATOM     47  C   UNL A   1      40.180  28.812  29.184  1.00  0.00     0.037 A 
ATOM     48  C   UNL A   1      46.911  26.982  29.392  1.00  0.00     0.037 A 
ATOM     49  C   UNL A   1      41.072  29.832  29.672  1.00  0.00     0.049 A 
ATOM     50  C   UNL A   1      46.459  28.361  29.784  1.00  0.00     0.074 A 
ATOM     51  C   UNL A   1      40.763  31.107  30.117  1.00  0.00     0.029 A 
ATOM     52  N   UNL A   1      42.448  29.696  29.776  1.00  0.00    -0.354 N 
ATOM     53  N   UNL A   1      45.244  28.849  29.825  1.00  0.00    -0.248 NA
ATOM     54  C   UNL A   1      47.506  29.315  30.182  1.00  0.00     0.031 C 
ATOM     55  C   UNL A   1      41.956  31.753  30.459  1.00  0.00     0.029 A 
ATOM     56  C   UNL A   1      43.003  30.867  30.263  1.00  0.00     0.049 A 
ATOM     57  H   UNL A   1      42.955  28.885  29.539  1.00  0.00     0.167 HD
ATOM     58  C   UNL A   1      45.375  30.153  30.282  1.00  0.00     0.074 A 
ATOM     59  C   UNL A   1      46.787  30.380  30.506  1.00  0.00     0.031 C 
ATOM     60  C   UNL A   1      44.409  31.078  30.498  1.00  0.00     0.037 A 
BRANCH  47  61
ATOM     61  C   UNL A   1      38.723  29.151  29.064  1.00  0.00     0.057 A 
ATOM     62  C   UNL A   1      37.865  29.102  30.170  1.00  0.00     0.134 A 
ATOM     63  C   UNL A   1      38.185  29.581  27.845  1.00  0.00     0.134 A 
ATOM     64  F   UNL A   1      38.318  28.692  31.365  1.00  0.00    -0.206 F 
ATOM     65  C   UNL A   1      36.517  29.448  30.062  1.00  0.00     0.040 A 
ATOM     66  C   UNL A   1      36.844  29.950  27.730  1.00  0.00     0.040 A 
ATOM     67  F   UNL A   1      38.955  29.658  26.750  1.00  0.00    -0.206 F 
ATOM     68  C   UNL A   1      36.005  29.880  28.840  1.00  0.00     0.006 A 
ENDBRANCH  47  61
BRANCH  48  69
ATOM     69  C   UNL A   1      48.350  26.626  29.410  1.00  0.00     0.057 A 
ATOM     70  C   UNL A   1      49.169  26.898  28.309  1.00  0.00     0.134 A 
ATOM     71  C   UNL A   1      48.940  26.014  30.521  1.00  0.00     0.134 A 
ATOM     72  F   UNL A   1      48.653  27.470  27.209  1.00  0.00    -0.206 F 
ATOM     73  C   UNL A   1      50.523  26.562  28.305  1.00  0.00     0.040 A 
ATOM     74  C   UNL A   1      50.298  25.691  30.539  1.00  0.00     0.040 A 
ATOM     75  F   UNL A   1      48.209  25.737  31.610  1.00  0.00    -0.206 F 
ATOM     76  C   UNL A   1      51.092  25.959  29.426  1.00  0.00     0.006 A 
ENDBRANCH  48  69
BRANCH  60  77
ATOM     77  C   UNL A   1      44.836  32.406  31.045  1.00  0.00     0.057 A 
ATOM     78  C   UNL A   1      44.949  32.636  32.420  1.00  0.00     0.134 A 
ATOM     79  C   UNL A   1      45.187  33.450  30.179  1.00  0.00     0.134 A 
ATOM     80  F   UNL A   1      44.615  31.680  33.299  1.00  0.00    -0.206 F 
ATOM     81  C   UNL A   1      45.388  33.865  32.918  1.00  0.00     0.040 A 
ATOM     82  C   UNL A   1      45.646  34.676  30.665  1.00  0.00     0.040 A 
ATOM     83  F   UNL A   1      45.105  33.290  28.850  1.00  0.00    -0.206 F 
ATOM     84  C   UNL A   1      45.745  34.885  32.038  1.00  0.00     0.006 A 
ENDBRANCH  60  77
ENDBRANCH  34  35
ENDBRANCH  26  29
ENDBRANCH  24  25
ENDBRANCH  23  24
ENDBRANCH   1  23
TORSDOF 14
ENDMDL
