MODEL 1
REMARK VINA RESULT:     -13.0      0.000      0.000
REMARK SMILES O=C(N[C@]1(C(=O)NCCCNC(=O)c2ccc(-c3c4nc(c(-c5c(F)cccc5F)c5ccc([nH]5)c(-c5c(F)cccc5F)c5nc(c(-c6c(F)cccc6F)c6ccc3[nH]6)C=C5)C=C4)cc2)CC[C@H](c2ccccc2)CC1)OCC1c2ccccc2-c2ccccc21
REMARK SMILES IDX 8 1 7 2 5 3 6 4 4 6 68 7 78 8 69 9 77 10 70 11 3 12 1 13
REMARK SMILES IDX 2 14 79 16 80 17 81 18 82 19 93 20 83 21 87 22 88 23 92 24
REMARK SMILES IDX 84 25 86 26 89 27 91 28 85 29 90 30 71 31 72 32 76 33 73 34
REMARK SMILES IDX 75 35 74 36 9 37 10 38 11 39 12 40 13 42 14 43 15 44 67 45
REMARK SMILES IDX 16 46 66 47 17 48 18 49 19 50 60 51 20 52 65 53 59 54 61 55
REMARK SMILES IDX 21 56 64 57 58 58 57 59 22 61 48 62 31 63 47 64 32 65 35 66
REMARK SMILES IDX 46 67 62 68 33 69 34 70 45 72 63 73 36 74 23 75 24 76 29 77
REMARK SMILES IDX 25 78 26 79 28 80 30 81 27 82 49 83 50 84 55 85 51 86 52 87
REMARK SMILES IDX 54 88 56 89 53 90 37 91 38 92 43 93 39 94 40 95 42 96 44 97
REMARK SMILES IDX 41 98
REMARK H PARENT 7 5 3 15 11 41 61 60 35 71
REMARK Flexibility Score: inf
ROOT
ATOM      1  C   UNL A   1      35.970  21.018  25.170  1.00  0.00     0.117 C 
ENDROOT
BRANCH   1   2
ATOM      2  N   UNL A   1      34.950  21.604  25.987  1.00  0.00    -0.354 N 
ATOM      3  C   UNL A   1      33.679  21.423  25.516  1.00  0.00     0.245 C 
ATOM      4  O   UNL A   1      33.409  20.404  24.877  1.00  0.00    -0.272 OA
ATOM      5  H   UNL A   1      35.147  22.096  26.817  1.00  0.00     0.163 HD
BRANCH   3   6
ATOM      6  C   UNL A   1      32.676  22.602  25.666  1.00  0.00     0.122 C 
ATOM      7  C   UNL A   1      32.040  22.770  24.270  1.00  0.00     0.039 C 
ATOM      8  C   UNL A   1      33.393  23.932  25.984  1.00  0.00     0.039 C 
ATOM      9  C   UNL A   1      33.132  22.983  23.198  1.00  0.00     0.011 C 
ATOM     10  C   UNL A   1      34.465  24.337  24.976  1.00  0.00     0.011 C 
ATOM     11  C   UNL A   1      34.101  24.152  23.482  1.00  0.00     0.019 C 
BRANCH   6  12
ATOM     12  N   UNL A   1      31.693  22.382  26.735  1.00  0.00    -0.307 N 
ATOM     13  O   UNL A   1      29.780  22.729  27.878  1.00  0.00    -0.225 OA
ATOM     14  C   UNL A   1      30.516  23.030  26.946  1.00  0.00     0.408 C 
ATOM     15  H   UNL A   1      31.914  21.674  27.383  1.00  0.00     0.168 HD
BRANCH  14  16
ATOM     16  O   UNL A   1      30.208  23.889  25.961  1.00  0.00    -0.449 OA
BRANCH  16  17
ATOM     17  C   UNL A   1      30.232  25.265  26.343  1.00  0.00     0.248 C 
BRANCH  17  18
ATOM     18  C   UNL A   1      30.844  26.175  25.267  1.00  0.00     0.088 C 
ATOM     19  C   UNL A   1      31.855  27.235  25.710  1.00  0.00    -0.029 A 
ATOM     20  C   UNL A   1      29.874  26.998  24.427  1.00  0.00    -0.029 A 
ATOM     21  C   UNL A   1      32.937  27.120  26.571  1.00  0.00     0.005 A 
ATOM     22  C   UNL A   1      31.590  28.452  25.041  1.00  0.00    -0.014 A 
ATOM     23  C   UNL A   1      30.385  28.304  24.251  1.00  0.00    -0.014 A 
ATOM     24  C   UNL A   1      28.653  26.630  23.884  1.00  0.00     0.005 A 
ATOM     25  C   UNL A   1      33.750  28.242  26.770  1.00  0.00     0.000 A 
ATOM     26  C   UNL A   1      32.395  29.565  25.243  1.00  0.00     0.009 A 
ATOM     27  C   UNL A   1      29.710  29.228  23.467  1.00  0.00     0.009 A 
ATOM     28  C   UNL A   1      27.957  27.573  23.125  1.00  0.00     0.000 A 
ATOM     29  C   UNL A   1      33.482  29.454  26.112  1.00  0.00     0.001 A 
ATOM     30  C   UNL A   1      28.491  28.853  22.900  1.00  0.00     0.001 A 
ENDBRANCH  17  18
ENDBRANCH  16  17
ENDBRANCH  14  16
ENDBRANCH   6  12
BRANCH  11  31
ATOM     31  C   UNL A   1      33.735  25.479  22.836  1.00  0.00    -0.045 A 
ATOM     32  C   UNL A   1      34.410  26.676  23.102  1.00  0.00     0.004 A 
ATOM     33  C   UNL A   1      32.617  25.525  21.982  1.00  0.00     0.004 A 
ATOM     34  C   UNL A   1      33.985  27.876  22.533  1.00  0.00     0.000 A 
ATOM     35  C   UNL A   1      32.213  26.718  21.386  1.00  0.00     0.000 A 
ATOM     36  C   UNL A   1      32.896  27.895  21.668  1.00  0.00     0.000 A 
ENDBRANCH  11  31
ENDBRANCH   3   6
ENDBRANCH   1   2
BRANCH   1  37
ATOM     37  C   UNL A   1      37.096  21.963  24.825  1.00  0.00     0.042 C 
BRANCH  37  38
ATOM     38  C   UNL A   1      38.267  21.697  25.742  1.00  0.00     0.118 C 
BRANCH  38  39
ATOM     39  N   UNL A   1      38.908  20.400  25.527  1.00  0.00    -0.352 N 
ATOM     40  C   UNL A   1      40.182  20.032  25.889  1.00  0.00     0.251 C 
ATOM     41  H   UNL A   1      38.368  19.715  25.073  1.00  0.00     0.163 HD
ATOM     42  O   UNL A   1      40.614  18.906  25.681  1.00  0.00    -0.269 OA
BRANCH  40  43
ATOM     43  C   UNL A   1      41.031  21.074  26.481  1.00  0.00     0.039 A 
ATOM     44  C   UNL A   1      41.711  21.937  25.621  1.00  0.00     0.014 A 
ATOM     45  C   UNL A   1      40.965  21.313  27.855  1.00  0.00     0.014 A 
ATOM     46  C   UNL A   1      42.251  23.109  26.138  1.00  0.00     0.010 A 
ATOM     47  C   UNL A   1      41.403  22.531  28.343  1.00  0.00     0.010 A 
ATOM     48  C   UNL A   1      42.047  23.438  27.489  1.00  0.00    -0.014 A 
BRANCH  48  49
ATOM     49  C   UNL A   1      42.505  24.732  28.034  1.00  0.00     0.031 A 
ATOM     50  C   UNL A   1      41.494  25.806  28.311  1.00  0.00     0.074 A 
ATOM     51  C   UNL A   1      43.823  24.953  28.198  1.00  0.00     0.049 A 
ATOM     52  N   UNL A   1      41.682  27.031  28.723  1.00  0.00    -0.248 NA
ATOM     53  C   UNL A   1      40.084  25.471  28.040  1.00  0.00     0.031 C 
ATOM     54  C   UNL A   1      44.892  24.002  27.874  1.00  0.00     0.029 A 
ATOM     55  N   UNL A   1      44.493  26.049  28.674  1.00  0.00    -0.354 N 
ATOM     56  C   UNL A   1      40.423  27.616  28.735  1.00  0.00     0.074 A 
ATOM     57  C   UNL A   1      39.490  26.639  28.223  1.00  0.00     0.031 C 
ATOM     58  C   UNL A   1      46.077  24.541  28.200  1.00  0.00     0.029 A 
ATOM     59  C   UNL A   1      45.856  25.882  28.729  1.00  0.00     0.049 A 
ATOM     60  H   UNL A   1      44.040  26.879  28.950  1.00  0.00     0.167 HD
ATOM     61  C   UNL A   1      40.074  28.847  29.171  1.00  0.00     0.037 A 
ATOM     62  C   UNL A   1      46.811  26.720  29.174  1.00  0.00     0.037 A 
ATOM     63  C   UNL A   1      41.011  29.784  29.726  1.00  0.00     0.049 A 
ATOM     64  C   UNL A   1      46.390  28.055  29.720  1.00  0.00     0.074 A 
ATOM     65  C   UNL A   1      40.771  31.035  30.261  1.00  0.00     0.029 A 
ATOM     66  N   UNL A   1      42.377  29.555  29.827  1.00  0.00    -0.354 N 
ATOM     67  N   UNL A   1      45.186  28.573  29.795  1.00  0.00    -0.248 NA
ATOM     68  C   UNL A   1      47.451  28.918  30.256  1.00  0.00     0.031 C 
ATOM     69  C   UNL A   1      41.997  31.573  30.668  1.00  0.00     0.029 A 
ATOM     70  C   UNL A   1      42.994  30.643  30.415  1.00  0.00     0.049 A 
ATOM     71  H   UNL A   1      42.837  28.739  29.525  1.00  0.00     0.167 HD
ATOM     72  C   UNL A   1      45.340  29.809  30.405  1.00  0.00     0.074 A 
ATOM     73  C   UNL A   1      46.754  29.955  30.696  1.00  0.00     0.031 C 
ATOM     74  C   UNL A   1      44.404  30.744  30.697  1.00  0.00     0.037 A 
BRANCH  61  75
ATOM     75  C   UNL A   1      38.624  29.223  29.078  1.00  0.00     0.057 A 
ATOM     76  C   UNL A   1      38.060  29.694  27.885  1.00  0.00     0.134 A 
ATOM     77  C   UNL A   1      37.785  29.125  30.194  1.00  0.00     0.134 A 
ATOM     78  F   UNL A   1      38.815  29.833  26.784  1.00  0.00    -0.206 F 
ATOM     79  C   UNL A   1      36.723  30.088  27.813  1.00  0.00     0.040 A 
ATOM     80  C   UNL A   1      36.438  29.489  30.127  1.00  0.00     0.040 A 
ATOM     81  F   UNL A   1      38.259  28.683  31.369  1.00  0.00    -0.206 F 
ATOM     82  C   UNL A   1      35.906  29.981  28.937  1.00  0.00     0.006 A 
ENDBRANCH  61  75
BRANCH  62  83
ATOM     83  C   UNL A   1      48.234  26.297  29.178  1.00  0.00     0.057 A 
ATOM     84  C   UNL A   1      49.044  26.489  28.052  1.00  0.00     0.134 A 
ATOM     85  C   UNL A   1      48.825  25.704  30.300  1.00  0.00     0.134 A 
ATOM     86  F   UNL A   1      48.534  27.043  26.941  1.00  0.00    -0.206 F 
ATOM     87  C   UNL A   1      50.382  26.088  28.033  1.00  0.00     0.040 A 
ATOM     88  C   UNL A   1      50.166  25.318  30.303  1.00  0.00     0.040 A 
ATOM     89  F   UNL A   1      48.109  25.505  31.416  1.00  0.00    -0.206 F 
ATOM     90  C   UNL A   1      50.948  25.504  29.164  1.00  0.00     0.006 A 
ENDBRANCH  62  83
BRANCH  74  91
ATOM     91  C   UNL A   1      44.880  31.986  31.384  1.00  0.00     0.057 A 
ATOM     92  C   UNL A   1      45.276  33.117  30.663  1.00  0.00     0.134 A 
ATOM     93  C   UNL A   1      44.893  32.065  32.782  1.00  0.00     0.134 A 
ATOM     94  F   UNL A   1      45.295  33.096  29.322  1.00  0.00    -0.206 F 
ATOM     95  C   UNL A   1      45.687  34.282  31.309  1.00  0.00     0.040 A 
ATOM     96  C   UNL A   1      45.280  33.231  33.440  1.00  0.00     0.040 A 
ATOM     97  F   UNL A   1      44.515  31.015  33.528  1.00  0.00    -0.206 F 
ATOM     98  C   UNL A   1      45.684  34.343  32.703  1.00  0.00     0.006 A 
ENDBRANCH  74  91
ENDBRANCH  48  49
ENDBRANCH  40  43
ENDBRANCH  38  39
ENDBRANCH  37  38
ENDBRANCH   1  37
TORSDOF 15
ENDMDL
MODEL 2
REMARK VINA RESULT:     -12.9      1.836      5.819
REMARK SMILES O=C(N[C@]1(C(=O)NCCCNC(=O)c2ccc(-c3c4nc(c(-c5c(F)cccc5F)c5ccc([nH]5)c(-c5c(F)cccc5F)c5nc(c(-c6c(F)cccc6F)c6ccc3[nH]6)C=C5)C=C4)cc2)CC[C@H](c2ccccc2)CC1)OCC1c2ccccc2-c2ccccc21
REMARK SMILES IDX 8 1 7 2 5 3 6 4 4 6 68 7 78 8 69 9 77 10 70 11 3 12 1 13
REMARK SMILES IDX 2 14 79 16 80 17 81 18 82 19 93 20 83 21 87 22 88 23 92 24
REMARK SMILES IDX 84 25 86 26 89 27 91 28 85 29 90 30 71 31 72 32 76 33 73 34
REMARK SMILES IDX 75 35 74 36 9 37 10 38 11 39 12 40 13 42 14 43 15 44 67 45
REMARK SMILES IDX 16 46 66 47 17 48 18 49 19 50 60 51 20 52 65 53 59 54 61 55
REMARK SMILES IDX 21 56 64 57 58 58 57 59 22 61 48 62 31 63 47 64 32 65 35 66
REMARK SMILES IDX 46 67 62 68 33 69 34 70 45 72 63 73 36 74 23 75 24 76 29 77
REMARK SMILES IDX 25 78 26 79 28 80 30 81 27 82 49 83 50 84 55 85 51 86 52 87
REMARK SMILES IDX 54 88 56 89 53 90 37 91 38 92 43 93 39 94 40 95 42 96 44 97
REMARK SMILES IDX 41 98
REMARK H PARENT 7 5 3 15 11 41 61 60 35 71
REMARK Flexibility Score: inf
ROOT
ATOM      1  C   UNL A   1      34.881  20.622  24.957  1.00  0.00     0.117 C 
ENDROOT
BRANCH   1   2
ATOM      2  N   UNL A   1      33.756  21.162  25.660  1.00  0.00    -0.354 N 
ATOM      3  C   UNL A   1      32.685  21.460  24.864  1.00  0.00     0.245 C 
ATOM      4  O   UNL A   1      32.479  20.791  23.850  1.00  0.00    -0.272 OA
ATOM      5  H   UNL A   1      33.754  21.306  26.634  1.00  0.00     0.163 HD
BRANCH   3   6
ATOM      6  C   UNL A   1      31.875  22.746  25.193  1.00  0.00     0.122 C 
ATOM      7  C   UNL A   1      31.413  23.293  23.825  1.00  0.00     0.039 C 
ATOM      8  C   UNL A   1      32.761  23.840  25.826  1.00  0.00     0.039 C 
ATOM      9  C   UNL A   1      32.626  23.513  22.893  1.00  0.00     0.011 C 
ATOM     10  C   UNL A   1      33.978  24.237  24.995  1.00  0.00     0.011 C 
ATOM     11  C   UNL A   1      33.737  24.414  23.476  1.00  0.00     0.019 C 
BRANCH   6  12
ATOM     12  N   UNL A   1      30.768  22.499  26.129  1.00  0.00    -0.307 N 
ATOM     13  O   UNL A   1      29.254  23.029  27.714  1.00  0.00    -0.225 OA
ATOM     14  C   UNL A   1      30.188  23.370  26.996  1.00  0.00     0.408 C 
ATOM     15  H   UNL A   1      30.400  21.586  26.127  1.00  0.00     0.168 HD
BRANCH  14  16
ATOM     16  O   UNL A   1      30.642  24.627  26.860  1.00  0.00    -0.449 OA
BRANCH  16  17
ATOM     17  C   UNL A   1      29.789  25.488  26.103  1.00  0.00     0.248 C 
BRANCH  17  18
ATOM     18  C   UNL A   1      30.568  26.476  25.221  1.00  0.00     0.088 C 
ATOM     19  C   UNL A   1      31.507  27.470  25.909  1.00  0.00    -0.029 A 
ATOM     20  C   UNL A   1      29.746  27.392  24.322  1.00  0.00    -0.029 A 
ATOM     21  C   UNL A   1      32.441  27.255  26.912  1.00  0.00     0.005 A 
ATOM     22  C   UNL A   1      31.357  28.748  25.322  1.00  0.00    -0.014 A 
ATOM     23  C   UNL A   1      30.288  28.697  24.346  1.00  0.00    -0.014 A 
ATOM     24  C   UNL A   1      28.620  27.101  23.567  1.00  0.00     0.005 A 
ATOM     25  C   UNL A   1      33.223  28.336  27.335  1.00  0.00     0.000 A 
ATOM     26  C   UNL A   1      32.131  29.820  25.745  1.00  0.00     0.009 A 
ATOM     27  C   UNL A   1      29.750  29.702  23.556  1.00  0.00     0.009 A 
ATOM     28  C   UNL A   1      28.058  28.123  22.800  1.00  0.00     0.000 A 
ATOM     29  C   UNL A   1      33.070  29.608  26.757  1.00  0.00     0.001 A 
ATOM     30  C   UNL A   1      28.630  29.406  22.777  1.00  0.00     0.001 A 
ENDBRANCH  17  18
ENDBRANCH  16  17
ENDBRANCH  14  16
ENDBRANCH   6  12
BRANCH  11  31
ATOM     31  C   UNL A   1      33.654  25.885  23.099  1.00  0.00    -0.045 A 
ATOM     32  C   UNL A   1      34.381  26.888  23.750  1.00  0.00     0.004 A 
ATOM     33  C   UNL A   1      32.748  26.271  22.092  1.00  0.00     0.004 A 
ATOM     34  C   UNL A   1      34.211  28.229  23.407  1.00  0.00     0.000 A 
ATOM     35  C   UNL A   1      32.603  27.607  21.726  1.00  0.00     0.000 A 
ATOM     36  C   UNL A   1      33.333  28.586  22.389  1.00  0.00     0.000 A 
ENDBRANCH  11  31
ENDBRANCH   3   6
ENDBRANCH   1   2
BRANCH   1  37
ATOM     37  C   UNL A   1      35.896  21.658  24.539  1.00  0.00     0.042 C 
BRANCH  37  38
ATOM     38  C   UNL A   1      36.928  21.812  25.632  1.00  0.00     0.118 C 
BRANCH  38  39
ATOM     39  N   UNL A   1      38.043  20.871  25.534  1.00  0.00    -0.352 N 
ATOM     40  C   UNL A   1      39.306  21.022  26.055  1.00  0.00     0.251 C 
ATOM     41  H   UNL A   1      37.871  20.038  25.040  1.00  0.00     0.163 HD
ATOM     42  O   UNL A   1      40.164  20.157  25.934  1.00  0.00    -0.269 OA
BRANCH  40  43
ATOM     43  C   UNL A   1      39.606  22.302  26.710  1.00  0.00     0.039 A 
ATOM     44  C   UNL A   1      40.621  22.330  27.666  1.00  0.00     0.014 A 
ATOM     45  C   UNL A   1      39.035  23.476  26.214  1.00  0.00     0.014 A 
ATOM     46  C   UNL A   1      41.137  23.561  28.059  1.00  0.00     0.010 A 
ATOM     47  C   UNL A   1      39.626  24.688  26.521  1.00  0.00     0.010 A 
ATOM     48  C   UNL A   1      40.681  24.739  27.444  1.00  0.00    -0.014 A 
BRANCH  48  49
ATOM     49  C   UNL A   1      41.297  26.046  27.754  1.00  0.00     0.031 A 
ATOM     50  C   UNL A   1      42.686  26.333  27.266  1.00  0.00     0.074 A 
ATOM     51  C   UNL A   1      40.634  26.922  28.533  1.00  0.00     0.049 A 
ATOM     52  N   UNL A   1      43.437  27.380  27.480  1.00  0.00    -0.248 NA
ATOM     53  C   UNL A   1      43.337  25.278  26.470  1.00  0.00     0.031 C 
ATOM     54  C   UNL A   1      39.312  26.699  29.129  1.00  0.00     0.029 A 
ATOM     55  N   UNL A   1      40.980  28.176  28.962  1.00  0.00    -0.354 N 
ATOM     56  C   UNL A   1      44.651  27.097  26.869  1.00  0.00     0.074 A 
ATOM     57  C   UNL A   1      44.564  25.756  26.339  1.00  0.00     0.031 C 
ATOM     58  C   UNL A   1      38.945  27.796  29.811  1.00  0.00     0.029 A 
ATOM     59  C   UNL A   1      40.011  28.786  29.723  1.00  0.00     0.049 A 
ATOM     60  H   UNL A   1      41.842  28.600  28.746  1.00  0.00     0.167 HD
ATOM     61  C   UNL A   1      45.729  27.902  26.732  1.00  0.00     0.037 A 
ATOM     62  C   UNL A   1      39.991  30.015  30.270  1.00  0.00     0.037 A 
ATOM     63  C   UNL A   1      45.776  29.252  27.222  1.00  0.00     0.049 A 
ATOM     64  C   UNL A   1      41.172  30.917  30.044  1.00  0.00     0.074 A 
ATOM     65  C   UNL A   1      46.783  30.187  27.089  1.00  0.00     0.029 A 
ATOM     66  N   UNL A   1      44.749  29.860  27.932  1.00  0.00    -0.354 N 
ATOM     67  N   UNL A   1      42.289  30.666  29.401  1.00  0.00    -0.248 NA
ATOM     68  C   UNL A   1      41.089  32.273  30.601  1.00  0.00     0.031 C 
ATOM     69  C   UNL A   1      46.375  31.357  27.738  1.00  0.00     0.029 A 
ATOM     70  C   UNL A   1      45.099  31.159  28.246  1.00  0.00     0.049 A 
ATOM     71  H   UNL A   1      43.898  29.430  28.176  1.00  0.00     0.167 HD
ATOM     72  C   UNL A   1      43.032  31.837  29.457  1.00  0.00     0.074 A 
ATOM     73  C   UNL A   1      42.229  32.803  30.181  1.00  0.00     0.031 C 
ATOM     74  C   UNL A   1      44.266  32.093  28.960  1.00  0.00     0.037 A 
BRANCH  61  75
ATOM     75  C   UNL A   1      46.918  27.339  26.011  1.00  0.00     0.057 A 
ATOM     76  C   UNL A   1      47.070  27.474  24.623  1.00  0.00     0.134 A 
ATOM     77  C   UNL A   1      47.917  26.646  26.705  1.00  0.00     0.134 A 
ATOM     78  F   UNL A   1      46.138  28.108  23.896  1.00  0.00    -0.206 F 
ATOM     79  C   UNL A   1      48.153  26.909  23.948  1.00  0.00     0.040 A 
ATOM     80  C   UNL A   1      49.020  26.101  26.044  1.00  0.00     0.040 A 
ATOM     81  F   UNL A   1      47.834  26.479  28.033  1.00  0.00    -0.206 F 
ATOM     82  C   UNL A   1      49.135  26.224  24.660  1.00  0.00     0.006 A 
ENDBRANCH  61  75
BRANCH  62  83
ATOM     83  C   UNL A   1      38.799  30.479  31.024  1.00  0.00     0.057 A 
ATOM     84  C   UNL A   1      38.686  30.252  32.401  1.00  0.00     0.134 A 
ATOM     85  C   UNL A   1      37.751  31.165  30.399  1.00  0.00     0.134 A 
ATOM     86  F   UNL A   1      39.652  29.591  33.057  1.00  0.00    -0.206 F 
ATOM     87  C   UNL A   1      37.568  30.671  33.125  1.00  0.00     0.040 A 
ATOM     88  C   UNL A   1      36.637  31.609  31.114  1.00  0.00     0.040 A 
ATOM     89  F   UNL A   1      37.803  31.427  29.085  1.00  0.00    -0.206 F 
ATOM     90  C   UNL A   1      36.540  31.356  32.480  1.00  0.00     0.006 A 
ENDBRANCH  62  83
BRANCH  74  91
ATOM     91  C   UNL A   1      44.803  33.476  29.164  1.00  0.00     0.057 A 
ATOM     92  C   UNL A   1      44.543  34.506  28.253  1.00  0.00     0.134 A 
ATOM     93  C   UNL A   1      45.545  33.788  30.310  1.00  0.00     0.134 A 
ATOM     94  F   UNL A   1      43.848  34.262  27.132  1.00  0.00    -0.206 F 
ATOM     95  C   UNL A   1      45.019  35.799  28.466  1.00  0.00     0.040 A 
ATOM     96  C   UNL A   1      46.006  35.082  30.545  1.00  0.00     0.040 A 
ATOM     97  F   UNL A   1      45.818  32.845  31.224  1.00  0.00    -0.206 F 
ATOM     98  C   UNL A   1      45.748  36.092  29.619  1.00  0.00     0.006 A 
ENDBRANCH  74  91
ENDBRANCH  48  49
ENDBRANCH  40  43
ENDBRANCH  38  39
ENDBRANCH  37  38
ENDBRANCH   1  37
TORSDOF 15
ENDMDL
MODEL 3
REMARK VINA RESULT:     -12.9      2.498      7.461
REMARK SMILES O=C(N[C@]1(C(=O)NCCCNC(=O)c2ccc(-c3c4nc(c(-c5c(F)cccc5F)c5ccc([nH]5)c(-c5c(F)cccc5F)c5nc(c(-c6c(F)cccc6F)c6ccc3[nH]6)C=C5)C=C4)cc2)CC[C@H](c2ccccc2)CC1)OCC1c2ccccc2-c2ccccc21
REMARK SMILES IDX 8 1 7 2 5 3 6 4 4 6 68 7 78 8 69 9 77 10 70 11 3 12 1 13
REMARK SMILES IDX 2 14 79 16 80 17 81 18 82 19 93 20 83 21 87 22 88 23 92 24
REMARK SMILES IDX 84 25 86 26 89 27 91 28 85 29 90 30 71 31 72 32 76 33 73 34
REMARK SMILES IDX 75 35 74 36 9 37 10 38 11 39 12 40 13 42 14 43 15 44 67 45
REMARK SMILES IDX 16 46 66 47 17 48 18 49 19 50 60 51 20 52 65 53 59 54 61 55
REMARK SMILES IDX 21 56 64 57 58 58 57 59 22 61 48 62 31 63 47 64 32 65 35 66
REMARK SMILES IDX 46 67 62 68 33 69 34 70 45 72 63 73 36 74 23 75 24 76 29 77
REMARK SMILES IDX 25 78 26 79 28 80 30 81 27 82 49 83 50 84 55 85 51 86 52 87
REMARK SMILES IDX 54 88 56 89 53 90 37 91 38 92 43 93 39 94 40 95 42 96 44 97
REMARK SMILES IDX 41 98
REMARK H PARENT 7 5 3 15 11 41 61 60 35 71
REMARK Flexibility Score: inf
ROOT
ATOM      1  C   UNL A   1      31.991  29.580  25.386  1.00  0.00     0.117 C 
ENDROOT
BRANCH   1   2
ATOM      2  N   UNL A   1      32.565  28.848  24.296  1.00  0.00    -0.354 N 
ATOM      3  C   UNL A   1      31.717  27.945  23.717  1.00  0.00     0.245 C 
ATOM      4  O   UNL A   1      30.507  28.175  23.699  1.00  0.00    -0.272 OA
ATOM      5  H   UNL A   1      33.491  28.984  23.991  1.00  0.00     0.163 HD
BRANCH   3   6
ATOM      6  C   UNL A   1      32.314  26.584  23.259  1.00  0.00     0.122 C 
ATOM      7  C   UNL A   1      31.295  25.521  23.723  1.00  0.00     0.039 C 
ATOM      8  C   UNL A   1      33.640  26.263  23.980  1.00  0.00     0.039 C 
ATOM      9  C   UNL A   1      31.043  25.639  25.242  1.00  0.00     0.011 C 
ATOM     10  C   UNL A   1      33.555  26.263  25.504  1.00  0.00     0.011 C 
ATOM     11  C   UNL A   1      32.315  25.570  26.118  1.00  0.00     0.019 C 
BRANCH   6  12
ATOM     12  N   UNL A   1      32.591  26.539  21.816  1.00  0.00    -0.307 N 
ATOM     13  O   UNL A   1      33.000  25.560  19.827  1.00  0.00    -0.225 OA
ATOM     14  C   UNL A   1      32.791  25.449  21.029  1.00  0.00     0.408 C 
ATOM     15  H   UNL A   1      32.639  27.411  21.361  1.00  0.00     0.168 HD
BRANCH  14  16
ATOM     16  O   UNL A   1      32.585  24.291  21.677  1.00  0.00    -0.449 OA
BRANCH  16  17
ATOM     17  C   UNL A   1      33.762  23.509  21.886  1.00  0.00     0.248 C 
BRANCH  17  18
ATOM     18  C   UNL A   1      33.829  22.892  23.291  1.00  0.00     0.088 C 
ATOM     19  C   UNL A   1      35.190  22.835  23.988  1.00  0.00    -0.029 A 
ATOM     20  C   UNL A   1      33.342  21.455  23.438  1.00  0.00    -0.029 A 
ATOM     21  C   UNL A   1      36.164  23.817  24.109  1.00  0.00     0.005 A 
ATOM     22  C   UNL A   1      35.352  21.577  24.613  1.00  0.00    -0.014 A 
ATOM     23  C   UNL A   1      34.218  20.738  24.284  1.00  0.00    -0.014 A 
ATOM     24  C   UNL A   1      32.238  20.841  22.867  1.00  0.00     0.005 A 
ATOM     25  C   UNL A   1      37.313  23.526  24.854  1.00  0.00     0.000 A 
ATOM     26  C   UNL A   1      36.493  21.289  25.348  1.00  0.00     0.009 A 
ATOM     27  C   UNL A   1      33.953  19.420  24.622  1.00  0.00     0.009 A 
ATOM     28  C   UNL A   1      31.993  19.502  23.180  1.00  0.00     0.000 A 
ATOM     29  C   UNL A   1      37.476  22.273  25.468  1.00  0.00     0.001 A 
ATOM     30  C   UNL A   1      32.830  18.804  24.067  1.00  0.00     0.001 A 
ENDBRANCH  17  18
ENDBRANCH  16  17
ENDBRANCH  14  16
ENDBRANCH   6  12
BRANCH  11  31
ATOM     31  C   UNL A   1      32.665  24.193  26.660  1.00  0.00    -0.045 A 
ATOM     32  C   UNL A   1      33.913  23.876  27.207  1.00  0.00     0.004 A 
ATOM     33  C   UNL A   1      31.713  23.162  26.542  1.00  0.00     0.004 A 
ATOM     34  C   UNL A   1      34.201  22.577  27.625  1.00  0.00     0.000 A 
ATOM     35  C   UNL A   1      31.988  21.872  26.989  1.00  0.00     0.000 A 
ATOM     36  C   UNL A   1      33.236  21.580  27.527  1.00  0.00     0.000 A 
ENDBRANCH  11  31
ENDBRANCH   3   6
ENDBRANCH   1   2
BRANCH   1  37
ATOM     37  C   UNL A   1      32.335  29.022  26.746  1.00  0.00     0.042 C 
BRANCH  37  38
ATOM     38  C   UNL A   1      33.731  29.458  27.124  1.00  0.00     0.118 C 
BRANCH  38  39
ATOM     39  N   UNL A   1      33.772  30.627  28.002  1.00  0.00    -0.352 N 
ATOM     40  C   UNL A   1      34.842  31.080  28.735  1.00  0.00     0.251 C 
ATOM     41  H   UNL A   1      32.940  31.146  28.078  1.00  0.00     0.163 HD
ATOM     42  O   UNL A   1      34.775  32.089  29.424  1.00  0.00    -0.269 OA
BRANCH  40  43
ATOM     43  C   UNL A   1      36.061  30.259  28.707  1.00  0.00     0.039 A 
ATOM     44  C   UNL A   1      36.889  30.347  27.588  1.00  0.00     0.014 A 
ATOM     45  C   UNL A   1      36.466  29.597  29.868  1.00  0.00     0.014 A 
ATOM     46  C   UNL A   1      38.182  29.843  27.671  1.00  0.00     0.010 A 
ATOM     47  C   UNL A   1      37.787  29.201  29.984  1.00  0.00     0.010 A 
ATOM     48  C   UNL A   1      38.654  29.322  28.888  1.00  0.00    -0.014 A 
BRANCH  48  49
ATOM     49  C   UNL A   1      40.059  28.893  29.038  1.00  0.00     0.031 A 
ATOM     50  C   UNL A   1      41.059  29.853  29.612  1.00  0.00     0.074 A 
ATOM     51  C   UNL A   1      40.434  27.681  28.584  1.00  0.00     0.049 A 
ATOM     52  N   UNL A   1      42.347  29.709  29.768  1.00  0.00    -0.248 NA
ATOM     53  C   UNL A   1      40.547  31.172  30.022  1.00  0.00     0.031 C 
ATOM     54  C   UNL A   1      39.552  26.708  27.930  1.00  0.00     0.029 A 
ATOM     55  N   UNL A   1      41.654  27.059  28.600  1.00  0.00    -0.354 N 
ATOM     56  C   UNL A   1      42.799  30.923  30.267  1.00  0.00     0.074 A 
ATOM     57  C   UNL A   1      41.664  31.815  30.321  1.00  0.00     0.031 C 
ATOM     58  C   UNL A   1      40.252  25.599  27.646  1.00  0.00     0.029 A 
ATOM     59  C   UNL A   1      41.634  25.790  28.072  1.00  0.00     0.049 A 
ATOM     60  H   UNL A   1      42.469  27.481  28.957  1.00  0.00     0.167 HD
ATOM     61  C   UNL A   1      44.045  31.250  30.678  1.00  0.00     0.037 A 
ATOM     62  C   UNL A   1      42.623  24.885  27.963  1.00  0.00     0.037 A 
ATOM     63  C   UNL A   1      45.149  30.331  30.664  1.00  0.00     0.049 A 
ATOM     64  C   UNL A   1      43.983  25.247  28.492  1.00  0.00     0.074 A 
ATOM     65  C   UNL A   1      46.441  30.522  31.114  1.00  0.00     0.029 A 
ATOM     66  N   UNL A   1      45.076  29.030  30.182  1.00  0.00    -0.354 N 
ATOM     67  N   UNL A   1      44.385  26.375  29.030  1.00  0.00    -0.248 NA
ATOM     68  C   UNL A   1      45.022  24.212  28.416  1.00  0.00     0.031 C 
ATOM     69  C   UNL A   1      47.157  29.343  30.885  1.00  0.00     0.029 A 
ATOM     70  C   UNL A   1      46.301  28.407  30.322  1.00  0.00     0.049 A 
ATOM     71  H   UNL A   1      44.271  28.614  29.798  1.00  0.00     0.167 HD
ATOM     72  C   UNL A   1      45.713  26.180  29.377  1.00  0.00     0.074 A 
ATOM     73  C   UNL A   1      46.044  24.818  29.003  1.00  0.00     0.031 C 
ATOM     74  C   UNL A   1      46.586  27.045  29.948  1.00  0.00     0.037 A 
BRANCH  61  75
ATOM     75  C   UNL A   1      44.255  32.645  31.188  1.00  0.00     0.057 A 
ATOM     76  C   UNL A   1      44.115  32.962  32.547  1.00  0.00     0.134 A 
ATOM     77  C   UNL A   1      44.589  33.686  30.314  1.00  0.00     0.134 A 
ATOM     78  F   UNL A   1      43.775  32.015  33.434  1.00  0.00    -0.206 F 
ATOM     79  C   UNL A   1      44.265  34.269  33.012  1.00  0.00     0.040 A 
ATOM     80  C   UNL A   1      44.770  34.993  30.772  1.00  0.00     0.040 A 
ATOM     81  F   UNL A   1      44.738  33.454  29.001  1.00  0.00    -0.206 F 
ATOM     82  C   UNL A   1      44.598  35.290  32.123  1.00  0.00     0.006 A 
ENDBRANCH  61  75
BRANCH  62  83
ATOM     83  C   UNL A   1      42.351  23.543  27.389  1.00  0.00     0.057 A 
ATOM     84  C   UNL A   1      41.984  22.470  28.211  1.00  0.00     0.134 A 
ATOM     85  C   UNL A   1      42.439  23.297  26.014  1.00  0.00     0.134 A 
ATOM     86  F   UNL A   1      41.893  22.639  29.539  1.00  0.00    -0.206 F 
ATOM     87  C   UNL A   1      41.734  21.198  27.691  1.00  0.00     0.040 A 
ATOM     88  C   UNL A   1      42.171  22.036  25.478  1.00  0.00     0.040 A 
ATOM     89  F   UNL A   1      42.771  24.284  25.170  1.00  0.00    -0.206 F 
ATOM     90  C   UNL A   1      41.824  20.980  26.318  1.00  0.00     0.006 A 
ENDBRANCH  62  83
BRANCH  74  91
ATOM     91  C   UNL A   1      47.966  26.532  30.221  1.00  0.00     0.057 A 
ATOM     92  C   UNL A   1      48.285  25.893  31.424  1.00  0.00     0.134 A 
ATOM     93  C   UNL A   1      48.968  26.635  29.249  1.00  0.00     0.134 A 
ATOM     94  F   UNL A   1      47.369  25.777  32.397  1.00  0.00    -0.206 F 
ATOM     95  C   UNL A   1      49.564  25.389  31.660  1.00  0.00     0.040 A 
ATOM     96  C   UNL A   1      50.243  26.113  29.464  1.00  0.00     0.040 A 
ATOM     97  F   UNL A   1      48.718  27.228  28.072  1.00  0.00    -0.206 F 
ATOM     98  C   UNL A   1      50.546  25.493  30.675  1.00  0.00     0.006 A 
ENDBRANCH  74  91
ENDBRANCH  48  49
ENDBRANCH  40  43
ENDBRANCH  38  39
ENDBRANCH  37  38
ENDBRANCH   1  37
TORSDOF 15
ENDMDL
