MODEL 1
REMARK VINA RESULT:     -12.6      0.000      0.000
REMARK SMILES N#C/C(=C\c1ccc(Oc2ccccc2Cl)c([N+](=O)[O-])c1)C(=O)NCCCNC(=O)c1ccc(-c2c3nc(c(-c4c(F)cccc4F)c4ccc([nH]4)c(-c4c(F)cccc4F)c4nc(c(-c5c(F)cccc5F)c5ccc2[nH]5)C=C4)C=C3)cc1
REMARK SMILES IDX 25 1 24 2 22 3 23 4 3 6 4 7 2 8 1 9 5 10 6 11 21 12 7 13
REMARK SMILES IDX 17 14 8 15 18 16 19 17 20 18 9 19 10 20 11 21 15 22 12 23
REMARK SMILES IDX 14 24 16 25 13 26 26 27 27 28 28 29 29 30 30 32 31 33 32 34
REMARK SMILES IDX 84 35 33 36 83 37 34 38 35 39 36 40 77 41 37 42 82 43 76 44
REMARK SMILES IDX 78 45 38 46 81 47 75 48 74 49 39 51 65 52 48 53 64 54 49 55
REMARK SMILES IDX 52 56 63 57 79 58 50 59 51 60 62 62 80 63 53 64 40 65 41 66
REMARK SMILES IDX 46 67 42 68 43 69 45 70 47 71 44 72 66 73 67 74 72 75 68 76
REMARK SMILES IDX 69 77 71 78 73 79 70 80 54 81 55 82 60 83 56 84 57 85 59 86
REMARK SMILES IDX 61 87 58 88
REMARK H PARENT 24 5 28 31 78 50 52 61
REMARK Flexibility Score: inf
ROOT
ATOM      1  C   UNL A   1      31.671  30.700  26.116  1.00  0.00     0.118 C 
ENDROOT
BRANCH   1   2
ATOM      2  N   UNL A   1      31.029  30.457  24.836  1.00  0.00    -0.351 N 
ATOM      3  C   UNL A   1      30.926  29.349  24.053  1.00  0.00     0.261 C 
ATOM      4  O   UNL A   1      30.261  29.452  23.022  1.00  0.00    -0.268 OA
ATOM      5  H   UNL A   1      30.581  31.249  24.463  1.00  0.00     0.163 HD
BRANCH   3   6
ATOM      6  C   UNL A   1      31.558  28.048  24.399  1.00  0.00     0.117 C 
ATOM      7  C   UNL A   1      32.870  27.724  24.293  1.00  0.00     0.033 C 
BRANCH   6   8
ATOM      8  C   UNL A   1      30.633  26.879  24.696  1.00  0.00     0.105 C 
ATOM      9  N   UNL A   1      29.865  25.910  24.943  1.00  0.00    -0.192 NA
ENDBRANCH   6   8
BRANCH   7  10
ATOM     10  C   UNL A   1      33.454  26.397  24.606  1.00  0.00    -0.017 A 
ATOM     11  C   UNL A   1      33.416  25.906  25.913  1.00  0.00     0.012 A 
ATOM     12  C   UNL A   1      34.014  25.591  23.611  1.00  0.00     0.098 A 
ATOM     13  C   UNL A   1      33.918  24.627  26.209  1.00  0.00     0.055 A 
ATOM     14  C   UNL A   1      34.418  24.277  23.899  1.00  0.00     0.312 A 
ATOM     15  C   UNL A   1      34.433  23.786  25.207  1.00  0.00     0.204 A 
BRANCH  14  16
ATOM     16  N   UNL A   1      34.683  23.462  22.732  1.00  0.00     0.066 N 
ATOM     17  O   UNL A   1      35.821  22.989  22.617  1.00  0.00    -0.258 OA
ATOM     18  O   UNL A   1      33.726  23.236  21.976  1.00  0.00    -0.258 OA
ENDBRANCH  14  16
BRANCH  15  19
ATOM     19  O   UNL A   1      34.883  22.583  25.710  1.00  0.00    -0.449 OA
BRANCH  19  20
ATOM     20  C   UNL A   1      34.268  21.407  25.365  1.00  0.00     0.146 A 
ATOM     21  C   UNL A   1      32.872  21.405  25.440  1.00  0.00     0.049 A 
ATOM     22  C   UNL A   1      34.951  20.248  24.977  1.00  0.00     0.083 A 
ATOM     23  C   UNL A   1      32.153  20.291  25.009  1.00  0.00     0.004 A 
ATOM     24  C   UNL A   1      34.225  19.144  24.522  1.00  0.00     0.024 A 
ATOM     25  Cl  UNL A   1      36.674  20.148  25.001  1.00  0.00    -0.080 Cl
ATOM     26  C   UNL A   1      32.828  19.173  24.523  1.00  0.00     0.002 A 
ENDBRANCH  19  20
ENDBRANCH  15  19
ENDBRANCH   7  10
ENDBRANCH   3   6
ENDBRANCH   1   2
BRANCH   1  27
ATOM     27  C   UNL A   1      31.419  32.128  26.602  1.00  0.00     0.042 C 
BRANCH  27  28
ATOM     28  C   UNL A   1      32.630  32.732  27.301  1.00  0.00     0.118 C 
BRANCH  28  29
ATOM     29  N   UNL A   1      32.426  34.145  27.601  1.00  0.00    -0.352 N 
ATOM     30  C   UNL A   1      33.001  34.926  28.572  1.00  0.00     0.251 C 
ATOM     31  H   UNL A   1      31.779  34.607  27.020  1.00  0.00     0.163 HD
ATOM     32  O   UNL A   1      32.530  36.024  28.836  1.00  0.00    -0.269 OA
BRANCH  30  33
ATOM     33  C   UNL A   1      34.186  34.430  29.296  1.00  0.00     0.039 A 
ATOM     34  C   UNL A   1      34.026  33.850  30.558  1.00  0.00     0.014 A 
ATOM     35  C   UNL A   1      35.456  34.550  28.727  1.00  0.00     0.014 A 
ATOM     36  C   UNL A   1      35.136  33.328  31.222  1.00  0.00     0.010 A 
ATOM     37  C   UNL A   1      36.545  33.959  29.351  1.00  0.00     0.010 A 
ATOM     38  C   UNL A   1      36.397  33.349  30.606  1.00  0.00    -0.014 A 
BRANCH  38  39
ATOM     39  C   UNL A   1      37.597  32.754  31.241  1.00  0.00     0.031 A 
ATOM     40  C   UNL A   1      38.287  31.599  30.575  1.00  0.00     0.074 A 
ATOM     41  C   UNL A   1      37.975  33.161  32.466  1.00  0.00     0.049 A 
ATOM     42  N   UNL A   1      39.218  30.809  31.040  1.00  0.00    -0.248 NA
ATOM     43  C   UNL A   1      37.836  31.264  29.215  1.00  0.00     0.031 C 
ATOM     44  C   UNL A   1      37.353  34.243  33.229  1.00  0.00     0.029 A 
ATOM     45  N   UNL A   1      38.952  32.682  33.303  1.00  0.00    -0.354 N 
ATOM     46  C   UNL A   1      39.436  29.862  30.049  1.00  0.00     0.074 A 
ATOM     47  C   UNL A   1      38.507  30.149  28.978  1.00  0.00     0.031 C 
ATOM     48  C   UNL A   1      37.958  34.344  34.422  1.00  0.00     0.029 A 
ATOM     49  C   UNL A   1      38.974  33.301  34.528  1.00  0.00     0.049 A 
ATOM     50  H   UNL A   1      39.575  31.963  33.049  1.00  0.00     0.167 HD
ATOM     51  C   UNL A   1      40.338  28.853  30.030  1.00  0.00     0.037 A 
ATOM     52  C   UNL A   1      39.710  33.039  35.626  1.00  0.00     0.037 A 
ATOM     53  C   UNL A   1      41.271  28.595  31.095  1.00  0.00     0.049 A 
ATOM     54  C   UNL A   1      40.706  31.915  35.588  1.00  0.00     0.074 A 
ATOM     55  C   UNL A   1      42.280  27.651  31.146  1.00  0.00     0.029 A 
ATOM     56  N   UNL A   1      41.298  29.279  32.302  1.00  0.00    -0.354 N 
ATOM     57  N   UNL A   1      40.958  31.068  34.617  1.00  0.00    -0.248 NA
ATOM     58  C   UNL A   1      41.526  31.709  36.790  1.00  0.00     0.031 C 
ATOM     59  C   UNL A   1      42.878  27.722  32.408  1.00  0.00     0.029 A 
ATOM     60  C   UNL A   1      42.286  28.756  33.118  1.00  0.00     0.049 A 
ATOM     61  H   UNL A   1      40.702  30.025  32.543  1.00  0.00     0.167 HD
ATOM     62  C   UNL A   1      41.983  30.252  35.078  1.00  0.00     0.074 A 
ATOM     63  C   UNL A   1      42.306  30.704  36.415  1.00  0.00     0.031 C 
ATOM     64  C   UNL A   1      42.604  29.227  34.444  1.00  0.00     0.037 A 
BRANCH  51  65
ATOM     65  C   UNL A   1      40.334  27.945  28.833  1.00  0.00     0.057 A 
ATOM     66  C   UNL A   1      39.617  26.741  28.807  1.00  0.00     0.134 A 
ATOM     67  C   UNL A   1      41.066  28.281  27.685  1.00  0.00     0.134 A 
ATOM     68  F   UNL A   1      38.904  26.353  29.876  1.00  0.00    -0.206 F 
ATOM     69  C   UNL A   1      39.666  25.883  27.707  1.00  0.00     0.040 A 
ATOM     70  C   UNL A   1      41.093  27.447  26.565  1.00  0.00     0.040 A 
ATOM     71  F   UNL A   1      41.769  29.422  27.633  1.00  0.00    -0.206 F 
ATOM     72  C   UNL A   1      40.404  26.237  26.580  1.00  0.00     0.006 A 
ENDBRANCH  51  65
BRANCH  52  73
ATOM     73  C   UNL A   1      39.524  33.868  36.842  1.00  0.00     0.057 A 
ATOM     74  C   UNL A   1      38.687  33.449  37.881  1.00  0.00     0.134 A 
ATOM     75  C   UNL A   1      40.215  35.075  37.016  1.00  0.00     0.134 A 
ATOM     76  F   UNL A   1      37.989  32.310  37.768  1.00  0.00    -0.206 F 
ATOM     77  C   UNL A   1      38.538  34.201  39.048  1.00  0.00     0.040 A 
ATOM     78  C   UNL A   1      40.094  35.823  38.187  1.00  0.00     0.040 A 
ATOM     79  F   UNL A   1      41.044  35.524  36.062  1.00  0.00    -0.206 F 
ATOM     80  C   UNL A   1      39.250  35.389  39.206  1.00  0.00     0.006 A 
ENDBRANCH  52  73
BRANCH  64  81
ATOM     81  C   UNL A   1      43.733  28.546  35.160  1.00  0.00     0.057 A 
ATOM     82  C   UNL A   1      43.524  27.459  36.016  1.00  0.00     0.134 A 
ATOM     83  C   UNL A   1      45.058  28.929  34.910  1.00  0.00     0.134 A 
ATOM     84  F   UNL A   1      42.279  27.050  36.306  1.00  0.00    -0.206 F 
ATOM     85  C   UNL A   1      44.594  26.778  36.601  1.00  0.00     0.040 A 
ATOM     86  C   UNL A   1      46.136  28.240  35.466  1.00  0.00     0.040 A 
ATOM     87  F   UNL A   1      45.327  29.958  34.092  1.00  0.00    -0.206 F 
ATOM     88  C   UNL A   1      45.903  27.160  36.316  1.00  0.00     0.006 A 
ENDBRANCH  64  81
ENDBRANCH  38  39
ENDBRANCH  30  33
ENDBRANCH  28  29
ENDBRANCH  27  28
ENDBRANCH   1  27
TORSDOF 15
ENDMDL
MODEL 2
REMARK VINA RESULT:     -12.6      1.448      2.348
REMARK SMILES N#C/C(=C\c1ccc(Oc2ccccc2Cl)c([N+](=O)[O-])c1)C(=O)NCCCNC(=O)c1ccc(-c2c3nc(c(-c4c(F)cccc4F)c4ccc([nH]4)c(-c4c(F)cccc4F)c4nc(c(-c5c(F)cccc5F)c5ccc2[nH]5)C=C4)C=C3)cc1
REMARK SMILES IDX 25 1 24 2 22 3 23 4 3 6 4 7 2 8 1 9 5 10 6 11 21 12 7 13
REMARK SMILES IDX 17 14 8 15 18 16 19 17 20 18 9 19 10 20 11 21 15 22 12 23
REMARK SMILES IDX 14 24 16 25 13 26 26 27 27 28 28 29 29 30 30 32 31 33 32 34
REMARK SMILES IDX 84 35 33 36 83 37 34 38 35 39 36 40 77 41 37 42 82 43 76 44
REMARK SMILES IDX 78 45 38 46 81 47 75 48 74 49 39 51 65 52 48 53 64 54 49 55
REMARK SMILES IDX 52 56 63 57 79 58 50 59 51 60 62 62 80 63 53 64 40 65 41 66
REMARK SMILES IDX 46 67 42 68 43 69 45 70 47 71 44 72 66 73 67 74 72 75 68 76
REMARK SMILES IDX 69 77 71 78 73 79 70 80 54 81 55 82 60 83 56 84 57 85 59 86
REMARK SMILES IDX 61 87 58 88
REMARK H PARENT 24 5 28 31 78 50 52 61
REMARK Flexibility Score: inf
ROOT
ATOM      1  C   UNL A   1      31.694  30.444  25.721  1.00  0.00     0.118 C 
ENDROOT
BRANCH   1   2
ATOM      2  N   UNL A   1      30.808  30.496  24.572  1.00  0.00    -0.351 N 
ATOM      3  C   UNL A   1      30.340  29.540  23.724  1.00  0.00     0.261 C 
ATOM      4  O   UNL A   1      29.548  29.903  22.855  1.00  0.00    -0.268 OA
ATOM      5  H   UNL A   1      30.482  31.402  24.367  1.00  0.00     0.163 HD
BRANCH   3   6
ATOM      6  C   UNL A   1      30.730  28.109  23.820  1.00  0.00     0.117 C 
ATOM      7  C   UNL A   1      29.919  27.058  24.098  1.00  0.00     0.033 C 
BRANCH   6   8
ATOM      8  C   UNL A   1      32.216  27.789  23.829  1.00  0.00     0.105 C 
ATOM      9  N   UNL A   1      33.449  27.524  23.836  1.00  0.00    -0.192 NA
ENDBRANCH   6   8
BRANCH   7  10
ATOM     10  C   UNL A   1      30.357  25.648  24.231  1.00  0.00    -0.017 A 
ATOM     11  C   UNL A   1      30.822  24.951  23.113  1.00  0.00     0.012 A 
ATOM     12  C   UNL A   1      30.358  24.995  25.467  1.00  0.00     0.098 A 
ATOM     13  C   UNL A   1      31.290  23.632  23.240  1.00  0.00     0.055 A 
ATOM     14  C   UNL A   1      30.922  23.715  25.599  1.00  0.00     0.312 A 
ATOM     15  C   UNL A   1      31.347  22.985  24.486  1.00  0.00     0.204 A 
BRANCH  14  16
ATOM     16  N   UNL A   1      31.138  23.294  26.967  1.00  0.00     0.066 N 
ATOM     17  O   UNL A   1      32.300  23.323  27.392  1.00  0.00    -0.258 OA
ATOM     18  O   UNL A   1      30.131  23.009  27.632  1.00  0.00    -0.258 OA
ENDBRANCH  14  16
BRANCH  15  19
ATOM     19  O   UNL A   1      31.825  21.695  24.388  1.00  0.00    -0.449 OA
BRANCH  19  20
ATOM     20  C   UNL A   1      33.169  21.438  24.473  1.00  0.00     0.146 A 
ATOM     21  C   UNL A   1      34.014  22.494  24.120  1.00  0.00     0.049 A 
ATOM     22  C   UNL A   1      33.711  20.208  24.862  1.00  0.00     0.083 A 
ATOM     23  C   UNL A   1      35.394  22.364  24.274  1.00  0.00     0.004 A 
ATOM     24  C   UNL A   1      35.092  20.090  25.040  1.00  0.00     0.024 A 
ATOM     25  Cl  UNL A   1      32.721  18.828  25.174  1.00  0.00    -0.080 Cl
ATOM     26  C   UNL A   1      35.930  21.174  24.763  1.00  0.00     0.002 A 
ENDBRANCH  19  20
ENDBRANCH  15  19
ENDBRANCH   7  10
ENDBRANCH   3   6
ENDBRANCH   1   2
BRANCH   1  27
ATOM     27  C   UNL A   1      31.442  31.614  26.673  1.00  0.00     0.042 C 
BRANCH  27  28
ATOM     28  C   UNL A   1      32.732  32.248  27.177  1.00  0.00     0.118 C 
BRANCH  28  29
ATOM     29  N   UNL A   1      32.547  33.661  27.489  1.00  0.00    -0.352 N 
ATOM     30  C   UNL A   1      33.145  34.429  28.456  1.00  0.00     0.251 C 
ATOM     31  H   UNL A   1      31.896  34.134  26.921  1.00  0.00     0.163 HD
ATOM     32  O   UNL A   1      32.689  35.531  28.735  1.00  0.00    -0.269 OA
BRANCH  30  33
ATOM     33  C   UNL A   1      34.335  33.916  29.160  1.00  0.00     0.039 A 
ATOM     34  C   UNL A   1      34.181  32.941  30.148  1.00  0.00     0.014 A 
ATOM     35  C   UNL A   1      35.603  34.411  28.844  1.00  0.00     0.014 A 
ATOM     36  C   UNL A   1      35.309  32.411  30.776  1.00  0.00     0.010 A 
ATOM     37  C   UNL A   1      36.727  33.827  29.409  1.00  0.00     0.010 A 
ATOM     38  C   UNL A   1      36.591  32.827  30.385  1.00  0.00    -0.014 A 
BRANCH  38  39
ATOM     39  C   UNL A   1      37.823  32.253  30.976  1.00  0.00     0.031 A 
ATOM     40  C   UNL A   1      38.554  31.166  30.243  1.00  0.00     0.074 A 
ATOM     41  C   UNL A   1      38.197  32.611  32.217  1.00  0.00     0.049 A 
ATOM     42  N   UNL A   1      39.524  30.394  30.657  1.00  0.00    -0.248 NA
ATOM     43  C   UNL A   1      38.102  30.884  28.871  1.00  0.00     0.031 C 
ATOM     44  C   UNL A   1      37.538  33.623  33.042  1.00  0.00     0.029 A 
ATOM     45  N   UNL A   1      39.204  32.132  33.018  1.00  0.00    -0.354 N 
ATOM     46  C   UNL A   1      39.770  29.511  29.615  1.00  0.00     0.074 A 
ATOM     47  C   UNL A   1      38.817  29.812  28.569  1.00  0.00     0.031 C 
ATOM     48  C   UNL A   1      38.152  33.688  34.233  1.00  0.00     0.029 A 
ATOM     49  C   UNL A   1      39.214  32.687  34.274  1.00  0.00     0.049 A 
ATOM     50  H   UNL A   1      39.855  31.455  32.720  1.00  0.00     0.167 HD
ATOM     51  C   UNL A   1      40.716  28.544  29.534  1.00  0.00     0.037 A 
ATOM     52  C   UNL A   1      39.973  32.399  35.349  1.00  0.00     0.037 A 
ATOM     53  C   UNL A   1      41.671  28.272  30.574  1.00  0.00     0.049 A 
ATOM     54  C   UNL A   1      41.017  31.323  35.242  1.00  0.00     0.074 A 
ATOM     55  C   UNL A   1      42.720  27.372  30.566  1.00  0.00     0.029 A 
ATOM     56  N   UNL A   1      41.683  28.892  31.816  1.00  0.00    -0.354 N 
ATOM     57  N   UNL A   1      41.293  30.541  34.226  1.00  0.00    -0.248 NA
ATOM     58  C   UNL A   1      41.858  31.091  36.424  1.00  0.00     0.031 C 
ATOM     59  C   UNL A   1      43.330  27.403  31.824  1.00  0.00     0.029 A 
ATOM     60  C   UNL A   1      42.702  28.371  32.594  1.00  0.00     0.049 A 
ATOM     61  H   UNL A   1      41.058  29.598  32.101  1.00  0.00     0.167 HD
ATOM     62  C   UNL A   1      42.358  29.747  34.632  1.00  0.00     0.074 A 
ATOM     63  C   UNL A   1      42.677  30.142  35.989  1.00  0.00     0.031 C 
ATOM     64  C   UNL A   1      43.015  28.785  33.940  1.00  0.00     0.037 A 
BRANCH  51  65
ATOM     65  C   UNL A   1      40.737  27.702  28.290  1.00  0.00     0.057 A 
ATOM     66  C   UNL A   1      40.029  26.496  28.189  1.00  0.00     0.134 A 
ATOM     67  C   UNL A   1      41.484  28.103  27.173  1.00  0.00     0.134 A 
ATOM     68  F   UNL A   1      39.302  26.047  29.224  1.00  0.00    -0.206 F 
ATOM     69  C   UNL A   1      40.101  25.698  27.046  1.00  0.00     0.040 A 
ATOM     70  C   UNL A   1      41.534  27.330  26.011  1.00  0.00     0.040 A 
ATOM     71  F   UNL A   1      42.179  29.250  27.193  1.00  0.00    -0.206 F 
ATOM     72  C   UNL A   1      40.853  26.117  25.951  1.00  0.00     0.006 A 
ENDBRANCH  51  65
BRANCH  52  73
ATOM     73  C   UNL A   1      39.766  33.155  36.610  1.00  0.00     0.057 A 
ATOM     74  C   UNL A   1      40.475  34.331  36.872  1.00  0.00     0.134 A 
ATOM     75  C   UNL A   1      38.820  32.745  37.559  1.00  0.00     0.134 A 
ATOM     76  F   UNL A   1      41.402  34.767  36.007  1.00  0.00    -0.206 F 
ATOM     77  C   UNL A   1      40.257  35.072  38.034  1.00  0.00     0.040 A 
ATOM     78  C   UNL A   1      38.574  33.489  38.713  1.00  0.00     0.040 A 
ATOM     79  F   UNL A   1      38.097  31.633  37.358  1.00  0.00    -0.206 F 
ATOM     80  C   UNL A   1      39.297  34.655  38.955  1.00  0.00     0.006 A 
ENDBRANCH  52  73
BRANCH  64  81
ATOM     81  C   UNL A   1      44.181  28.117  34.607  1.00  0.00     0.057 A 
ATOM     82  C   UNL A   1      45.470  28.661  34.571  1.00  0.00     0.134 A 
ATOM     83  C   UNL A   1      43.986  26.962  35.376  1.00  0.00     0.134 A 
ATOM     84  F   UNL A   1      45.726  29.759  33.844  1.00  0.00    -0.206 F 
ATOM     85  C   UNL A   1      46.525  28.076  35.274  1.00  0.00     0.040 A 
ATOM     86  C   UNL A   1      45.025  26.384  36.105  1.00  0.00     0.040 A 
ATOM     87  F   UNL A   1      42.772  26.396  35.458  1.00  0.00    -0.206 F 
ATOM     88  C   UNL A   1      46.301  26.943  36.053  1.00  0.00     0.006 A 
ENDBRANCH  64  81
ENDBRANCH  38  39
ENDBRANCH  30  33
ENDBRANCH  28  29
ENDBRANCH  27  28
ENDBRANCH   1  27
TORSDOF 15
ENDMDL
MODEL 3
REMARK VINA RESULT:     -12.6      5.182     10.412
REMARK SMILES N#C/C(=C\c1ccc(Oc2ccccc2Cl)c([N+](=O)[O-])c1)C(=O)NCCCNC(=O)c1ccc(-c2c3nc(c(-c4c(F)cccc4F)c4ccc([nH]4)c(-c4c(F)cccc4F)c4nc(c(-c5c(F)cccc5F)c5ccc2[nH]5)C=C4)C=C3)cc1
REMARK SMILES IDX 25 1 24 2 22 3 23 4 3 6 4 7 2 8 1 9 5 10 6 11 21 12 7 13
REMARK SMILES IDX 17 14 8 15 18 16 19 17 20 18 9 19 10 20 11 21 15 22 12 23
REMARK SMILES IDX 14 24 16 25 13 26 26 27 27 28 28 29 29 30 30 32 31 33 32 34
REMARK SMILES IDX 84 35 33 36 83 37 34 38 35 39 36 40 77 41 37 42 82 43 76 44
REMARK SMILES IDX 78 45 38 46 81 47 75 48 74 49 39 51 65 52 48 53 64 54 49 55
REMARK SMILES IDX 52 56 63 57 79 58 50 59 51 60 62 62 80 63 53 64 40 65 41 66
REMARK SMILES IDX 46 67 42 68 43 69 45 70 47 71 44 72 66 73 67 74 72 75 68 76
REMARK SMILES IDX 69 77 71 78 73 79 70 80 54 81 55 82 60 83 56 84 57 85 59 86
REMARK SMILES IDX 61 87 58 88
REMARK H PARENT 24 5 28 31 78 50 52 61
REMARK Flexibility Score: inf
ROOT
ATOM      1  C   UNL A   1      36.442  20.214  25.004  1.00  0.00     0.118 C 
ENDROOT
BRANCH   1   2
ATOM      2  N   UNL A   1      35.330  19.281  24.971  1.00  0.00    -0.351 N 
ATOM      3  C   UNL A   1      33.987  19.452  24.829  1.00  0.00     0.261 C 
ATOM      4  O   UNL A   1      33.294  18.435  24.793  1.00  0.00    -0.268 OA
ATOM      5  H   UNL A   1      35.601  18.341  25.070  1.00  0.00     0.163 HD
BRANCH   3   6
ATOM      6  C   UNL A   1      33.348  20.788  24.703  1.00  0.00     0.117 C 
ATOM      7  C   UNL A   1      32.903  21.377  23.565  1.00  0.00     0.033 C 
BRANCH   6   8
ATOM      8  C   UNL A   1      33.384  21.697  25.920  1.00  0.00     0.105 C 
ATOM      9  N   UNL A   1      33.413  22.452  26.931  1.00  0.00    -0.192 NA
ENDBRANCH   6   8
BRANCH   7  10
ATOM     10  C   UNL A   1      32.313  22.733  23.475  1.00  0.00    -0.017 A 
ATOM     11  C   UNL A   1      31.060  22.991  24.037  1.00  0.00     0.012 A 
ATOM     12  C   UNL A   1      32.998  23.792  22.872  1.00  0.00     0.098 A 
ATOM     13  C   UNL A   1      30.516  24.286  24.004  1.00  0.00     0.055 A 
ATOM     14  C   UNL A   1      32.491  25.101  22.936  1.00  0.00     0.312 A 
ATOM     15  C   UNL A   1      31.219  25.368  23.450  1.00  0.00     0.204 A 
BRANCH  14  16
ATOM     16  N   UNL A   1      33.437  26.129  22.553  1.00  0.00     0.066 N 
ATOM     17  O   UNL A   1      34.014  26.735  23.466  1.00  0.00    -0.258 OA
ATOM     18  O   UNL A   1      33.653  26.270  21.341  1.00  0.00    -0.258 OA
ENDBRANCH  14  16
BRANCH  15  19
ATOM     19  O   UNL A   1      30.504  26.547  23.507  1.00  0.00    -0.449 OA
BRANCH  19  20
ATOM     20  C   UNL A   1      30.857  27.536  24.389  1.00  0.00     0.146 A 
ATOM     21  C   UNL A   1      31.157  27.116  25.688  1.00  0.00     0.049 A 
ATOM     22  C   UNL A   1      30.907  28.897  24.064  1.00  0.00     0.083 A 
ATOM     23  C   UNL A   1      31.627  28.034  26.627  1.00  0.00     0.004 A 
ATOM     24  C   UNL A   1      31.402  29.809  24.999  1.00  0.00     0.024 A 
ATOM     25  Cl  UNL A   1      30.412  29.488  22.519  1.00  0.00    -0.080 Cl
ATOM     26  C   UNL A   1      31.778  29.374  26.273  1.00  0.00     0.002 A 
ENDBRANCH  19  20
ENDBRANCH  15  19
ENDBRANCH   7  10
ENDBRANCH   3   6
ENDBRANCH   1   2
BRANCH   1  27
ATOM     27  C   UNL A   1      37.778  19.495  24.807  1.00  0.00     0.042 C 
BRANCH  27  28
ATOM     28  C   UNL A   1      38.886  20.068  25.682  1.00  0.00     0.118 C 
BRANCH  28  29
ATOM     29  N   UNL A   1      40.013  19.147  25.787  1.00  0.00    -0.352 N 
ATOM     30  C   UNL A   1      41.339  19.411  26.024  1.00  0.00     0.251 C 
ATOM     31  H   UNL A   1      39.789  18.195  25.670  1.00  0.00     0.163 HD
ATOM     32  O   UNL A   1      42.182  18.544  25.833  1.00  0.00    -0.269 OA
BRANCH  30  33
ATOM     33  C   UNL A   1      41.740  20.746  26.505  1.00  0.00     0.039 A 
ATOM     34  C   UNL A   1      41.909  20.959  27.876  1.00  0.00     0.014 A 
ATOM     35  C   UNL A   1      41.939  21.788  25.596  1.00  0.00     0.014 A 
ATOM     36  C   UNL A   1      42.344  22.204  28.331  1.00  0.00     0.010 A 
ATOM     37  C   UNL A   1      42.449  22.999  26.042  1.00  0.00     0.010 A 
ATOM     38  C   UNL A   1      42.650  23.221  27.413  1.00  0.00    -0.014 A 
BRANCH  38  39
ATOM     39  C   UNL A   1      43.172  24.540  27.840  1.00  0.00     0.031 A 
ATOM     40  C   UNL A   1      42.208  25.622  28.232  1.00  0.00     0.074 A 
ATOM     41  C   UNL A   1      44.488  24.800  27.745  1.00  0.00     0.049 A 
ATOM     42  N   UNL A   1      42.429  26.893  28.444  1.00  0.00    -0.248 NA
ATOM     43  C   UNL A   1      40.797  25.226  28.359  1.00  0.00     0.031 C 
ATOM     44  C   UNL A   1      45.514  23.841  27.334  1.00  0.00     0.029 A 
ATOM     45  N   UNL A   1      45.184  25.966  27.949  1.00  0.00    -0.354 N 
ATOM     46  C   UNL A   1      41.183  27.453  28.691  1.00  0.00     0.074 A 
ATOM     47  C   UNL A   1      40.207  26.394  28.555  1.00  0.00     0.031 C 
ATOM     48  C   UNL A   1      46.706  24.456  27.312  1.00  0.00     0.029 A 
ATOM     49  C   UNL A   1      46.521  25.862  27.655  1.00  0.00     0.049 A 
ATOM     50  H   UNL A   1      44.764  26.795  28.273  1.00  0.00     0.167 HD
ATOM     51  C   UNL A   1      40.883  28.734  29.014  1.00  0.00     0.037 A 
ATOM     52  C   UNL A   1      47.486  26.802  27.634  1.00  0.00     0.037 A 
ATOM     53  C   UNL A   1      41.868  29.770  29.168  1.00  0.00     0.049 A 
ATOM     54  C   UNL A   1      47.136  28.219  27.995  1.00  0.00     0.074 A 
ATOM     55  C   UNL A   1      41.685  31.081  29.569  1.00  0.00     0.029 A 
ATOM     56  N   UNL A   1      43.224  29.615  28.912  1.00  0.00    -0.354 N 
ATOM     57  N   UNL A   1      45.965  28.726  28.300  1.00  0.00    -0.248 NA
ATOM     58  C   UNL A   1      48.236  29.193  28.016  1.00  0.00     0.031 C 
ATOM     59  C   UNL A   1      42.919  31.734  29.498  1.00  0.00     0.029 A 
ATOM     60  C   UNL A   1      43.884  30.814  29.116  1.00  0.00     0.049 A 
ATOM     61  H   UNL A   1      43.652  28.775  28.626  1.00  0.00     0.167 HD
ATOM     62  C   UNL A   1      46.191  30.068  28.579  1.00  0.00     0.074 A 
ATOM     63  C   UNL A   1      47.611  30.296  28.407  1.00  0.00     0.031 C 
ATOM     64  C   UNL A   1      45.302  31.021  28.952  1.00  0.00     0.037 A 
BRANCH  51  65
ATOM     65  C   UNL A   1      39.432  29.078  29.195  1.00  0.00     0.057 A 
ATOM     66  C   UNL A   1      38.625  29.504  28.131  1.00  0.00     0.134 A 
ATOM     67  C   UNL A   1      38.833  28.987  30.459  1.00  0.00     0.134 A 
ATOM     68  F   UNL A   1      39.137  29.624  26.896  1.00  0.00    -0.206 F 
ATOM     69  C   UNL A   1      37.292  29.872  28.324  1.00  0.00     0.040 A 
ATOM     70  C   UNL A   1      37.490  29.318  30.657  1.00  0.00     0.040 A 
ATOM     71  F   UNL A   1      39.540  28.578  31.523  1.00  0.00    -0.206 F 
ATOM     72  C   UNL A   1      36.721  29.776  29.591  1.00  0.00     0.006 A 
ENDBRANCH  51  65
BRANCH  52  73
ATOM     73  C   UNL A   1      48.870  26.417  27.263  1.00  0.00     0.057 A 
ATOM     74  C   UNL A   1      49.786  25.991  28.230  1.00  0.00     0.134 A 
ATOM     75  C   UNL A   1      49.295  26.420  25.928  1.00  0.00     0.134 A 
ATOM     76  F   UNL A   1      49.441  25.979  29.526  1.00  0.00    -0.206 F 
ATOM     77  C   UNL A   1      51.077  25.586  27.886  1.00  0.00     0.040 A 
ATOM     78  C   UNL A   1      50.574  25.995  25.568  1.00  0.00     0.040 A 
ATOM     79  F   UNL A   1      48.459  26.805  24.952  1.00  0.00    -0.206 F 
ATOM     80  C   UNL A   1      51.471  25.579  26.550  1.00  0.00     0.006 A 
ENDBRANCH  52  73
BRANCH  64  81
ATOM     81  C   UNL A   1      45.832  32.392  29.252  1.00  0.00     0.057 A 
ATOM     82  C   UNL A   1      45.881  33.400  28.282  1.00  0.00     0.134 A 
ATOM     83  C   UNL A   1      46.211  32.731  30.559  1.00  0.00     0.134 A 
ATOM     84  F   UNL A   1      45.543  33.137  27.011  1.00  0.00    -0.206 F 
ATOM     85  C   UNL A   1      46.291  34.696  28.601  1.00  0.00     0.040 A 
ATOM     86  C   UNL A   1      46.596  34.028  30.895  1.00  0.00     0.040 A 
ATOM     87  F   UNL A   1      46.179  31.812  31.536  1.00  0.00    -0.206 F 
ATOM     88  C   UNL A   1      46.637  35.015  29.913  1.00  0.00     0.006 A 
ENDBRANCH  64  81
ENDBRANCH  38  39
ENDBRANCH  30  33
ENDBRANCH  28  29
ENDBRANCH  27  28
ENDBRANCH   1  27
TORSDOF 15
ENDMDL
