MODEL 1
REMARK VINA RESULT:     -13.4      0.000      0.000
REMARK SMILES C[C@H](C(=O)NCCCNC(=O)c1ccc(-c2c3nc(c(-c4c(F)cccc4F)c4ccc([nH]4)c(-c4c(F)cccc4F)c4nc(c(-c5c(F)cccc5F)c5ccc2[nH]5)C=C4)C=C3)cc1)c1ccc2c3cc(Cl)ccc3n(C(=O)c3ccc(Cl)cc3)c2c1
REMARK SMILES IDX 6 1 5 2 3 3 4 4 2 6 1 7 66 8 67 9 88 10 68 11 87 12 69 13
REMARK SMILES IDX 77 14 70 15 76 16 71 17 75 18 72 19 74 20 73 21 78 22 79 23
REMARK SMILES IDX 80 24 81 25 86 26 82 27 85 28 83 29 84 30 7 31 8 32 9 33
REMARK SMILES IDX 10 34 11 36 12 37 13 38 65 39 14 40 64 41 15 42 16 43 17 44
REMARK SMILES IDX 58 45 18 46 63 47 57 48 59 49 19 50 62 51 56 52 55 53 20 55
REMARK SMILES IDX 46 56 29 57 45 58 30 59 33 60 44 61 60 62 31 63 32 64 43 66
REMARK SMILES IDX 61 67 34 68 21 69 22 70 27 71 23 72 24 73 26 74 28 75 25 76
REMARK SMILES IDX 47 77 48 78 53 79 49 80 50 81 52 82 54 83 51 84 35 85 36 86
REMARK SMILES IDX 41 87 37 88 38 89 40 90 42 91 39 92
REMARK H PARENT 5 5 9 35 59 54 33 65
REMARK Flexibility Score: inf
ROOT
ATOM      1  C   UNL A   1      33.233  28.695  25.004  1.00  0.00     0.117 C 
ENDROOT
BRANCH   1   2
ATOM      2  N   UNL A   1      32.795  27.721  24.015  1.00  0.00    -0.356 N 
ATOM      3  C   UNL A   1      32.288  26.458  24.169  1.00  0.00     0.227 C 
ATOM      4  O   UNL A   1      32.032  25.835  23.136  1.00  0.00    -0.274 OA
ATOM      5  H   UNL A   1      32.878  28.019  23.081  1.00  0.00     0.163 HD
BRANCH   3   6
ATOM      6  C   UNL A   1      32.023  25.883  25.575  1.00  0.00     0.105 C 
ATOM      7  C   UNL A   1      30.637  26.239  26.129  1.00  0.00     0.023 C 
BRANCH   6   8
ATOM      8  C   UNL A   1      32.248  24.379  25.622  1.00  0.00    -0.034 A 
ATOM      9  C   UNL A   1      31.190  23.482  25.751  1.00  0.00     0.005 A 
ATOM     10  C   UNL A   1      33.551  23.897  25.424  1.00  0.00     0.032 A 
ATOM     11  C   UNL A   1      31.403  22.116  25.553  1.00  0.00     0.011 A 
ATOM     12  C   UNL A   1      33.759  22.529  25.167  1.00  0.00     0.057 A 
ATOM     13  C   UNL A   1      32.690  21.642  25.211  1.00  0.00     0.008 A 
ATOM     14  N   UNL A   1      34.913  21.826  24.763  1.00  0.00    -0.276 N 
ATOM     15  C   UNL A   1      33.200  20.358  24.898  1.00  0.00     0.009 A 
ATOM     16  C   UNL A   1      34.595  20.459  24.779  1.00  0.00     0.057 A 
ATOM     17  C   UNL A   1      32.565  19.105  24.775  1.00  0.00     0.031 A 
ATOM     18  C   UNL A   1      35.379  19.291  24.715  1.00  0.00     0.029 A 
ATOM     19  C   UNL A   1      33.345  17.963  24.649  1.00  0.00     0.041 A 
ATOM     20  C   UNL A   1      34.731  18.048  24.655  1.00  0.00     0.023 A 
ATOM     21  Cl  UNL A   1      32.578  16.432  24.537  1.00  0.00    -0.084 Cl
BRANCH  14  22
ATOM     22  C   UNL A   1      36.133  22.475  24.407  1.00  0.00     0.262 C 
ATOM     23  O   UNL A   1      36.182  22.963  23.273  1.00  0.00    -0.268 OA
BRANCH  22  24
ATOM     24  C   UNL A   1      37.419  22.625  25.137  1.00  0.00     0.040 A 
ATOM     25  C   UNL A   1      38.215  21.461  25.228  1.00  0.00     0.015 A 
ATOM     26  C   UNL A   1      37.770  23.738  25.905  1.00  0.00     0.015 A 
ATOM     27  C   UNL A   1      39.326  21.400  26.069  1.00  0.00     0.021 A 
ATOM     28  C   UNL A   1      38.909  23.686  26.728  1.00  0.00     0.021 A 
ATOM     29  C   UNL A   1      39.669  22.516  26.818  1.00  0.00     0.041 A 
ATOM     30  Cl  UNL A   1      41.008  22.435  27.894  1.00  0.00    -0.084 Cl
ENDBRANCH  22  24
ENDBRANCH  14  22
ENDBRANCH   6   8
ENDBRANCH   3   6
ENDBRANCH   1   2
BRANCH   1  31
ATOM     31  C   UNL A   1      32.150  29.723  25.328  1.00  0.00     0.042 C 
BRANCH  31  32
ATOM     32  C   UNL A   1      32.211  30.268  26.749  1.00  0.00     0.118 C 
BRANCH  32  33
ATOM     33  N   UNL A   1      32.018  31.710  26.805  1.00  0.00    -0.352 N 
ATOM     34  C   UNL A   1      32.770  32.671  27.439  1.00  0.00     0.251 C 
ATOM     35  H   UNL A   1      31.233  32.047  26.317  1.00  0.00     0.163 HD
ATOM     36  O   UNL A   1      32.358  33.820  27.521  1.00  0.00    -0.269 OA
BRANCH  34  37
ATOM     37  C   UNL A   1      34.073  32.311  28.043  1.00  0.00     0.039 A 
ATOM     38  C   UNL A   1      35.042  33.304  28.210  1.00  0.00     0.014 A 
ATOM     39  C   UNL A   1      34.340  30.997  28.433  1.00  0.00     0.014 A 
ATOM     40  C   UNL A   1      36.254  32.996  28.835  1.00  0.00     0.010 A 
ATOM     41  C   UNL A   1      35.513  30.708  29.121  1.00  0.00     0.010 A 
ATOM     42  C   UNL A   1      36.482  31.702  29.327  1.00  0.00    -0.014 A 
BRANCH  42  43
ATOM     43  C   UNL A   1      37.732  31.336  30.042  1.00  0.00     0.031 A 
ATOM     44  C   UNL A   1      38.740  30.451  29.364  1.00  0.00     0.074 A 
ATOM     45  C   UNL A   1      37.907  31.697  31.327  1.00  0.00     0.049 A 
ATOM     46  N   UNL A   1      39.791  29.853  29.864  1.00  0.00    -0.248 NA
ATOM     47  C   UNL A   1      38.508  30.170  27.938  1.00  0.00     0.031 C 
ATOM     48  C   UNL A   1      36.990  32.526  32.111  1.00  0.00     0.029 A 
ATOM     49  N   UNL A   1      38.908  31.380  32.211  1.00  0.00    -0.354 N 
ATOM     50  C   UNL A   1      40.324  29.099  28.825  1.00  0.00     0.074 A 
ATOM     51  C   UNL A   1      39.453  29.279  27.683  1.00  0.00     0.031 C 
ATOM     52  C   UNL A   1      37.469  32.650  33.361  1.00  0.00     0.029 A 
ATOM     53  C   UNL A   1      38.701  31.876  33.475  1.00  0.00     0.049 A 
ATOM     54  H   UNL A   1      39.698  30.847  31.963  1.00  0.00     0.167 HD
ATOM     55  C   UNL A   1      41.444  28.336  28.820  1.00  0.00     0.037 A 
ATOM     56  C   UNL A   1      39.411  31.701  34.606  1.00  0.00     0.037 A 
ATOM     57  C   UNL A   1      42.313  28.175  29.956  1.00  0.00     0.049 A 
ATOM     58  C   UNL A   1      40.636  30.834  34.588  1.00  0.00     0.074 A 
ATOM     59  C   UNL A   1      43.501  27.470  30.039  1.00  0.00     0.029 A 
ATOM     60  N   UNL A   1      42.081  28.720  31.211  1.00  0.00    -0.354 N 
ATOM     61  N   UNL A   1      41.153  30.156  33.593  1.00  0.00    -0.248 NA
ATOM     62  C   UNL A   1      41.375  30.705  35.852  1.00  0.00     0.031 C 
ATOM     63  C   UNL A   1      43.960  27.544  31.358  1.00  0.00     0.029 A 
ATOM     64  C   UNL A   1      43.092  28.347  32.081  1.00  0.00     0.049 A 
ATOM     65  H   UNL A   1      41.312  29.287  31.447  1.00  0.00     0.167 HD
ATOM     66  C   UNL A   1      42.292  29.545  34.101  1.00  0.00     0.074 A 
ATOM     67  C   UNL A   1      42.388  29.930  35.494  1.00  0.00     0.031 C 
ATOM     68  C   UNL A   1      43.181  28.744  33.464  1.00  0.00     0.037 A 
BRANCH  55  69
ATOM     69  C   UNL A   1      41.771  27.604  27.549  1.00  0.00     0.057 A 
ATOM     70  C   UNL A   1      41.488  26.241  27.380  1.00  0.00     0.134 A 
ATOM     71  C   UNL A   1      42.384  28.269  26.479  1.00  0.00     0.134 A 
ATOM     72  F   UNL A   1      40.912  25.538  28.367  1.00  0.00    -0.206 F 
ATOM     73  C   UNL A   1      41.847  25.558  26.215  1.00  0.00     0.040 A 
ATOM     74  C   UNL A   1      42.713  27.607  25.296  1.00  0.00     0.040 A 
ATOM     75  F   UNL A   1      42.673  29.577  26.565  1.00  0.00    -0.206 F 
ATOM     76  C   UNL A   1      42.457  26.243  25.168  1.00  0.00     0.006 A 
ENDBRANCH  55  69
BRANCH  56  77
ATOM     77  C   UNL A   1      38.972  32.359  35.859  1.00  0.00     0.057 A 
ATOM     78  C   UNL A   1      39.342  33.676  36.149  1.00  0.00     0.134 A 
ATOM     79  C   UNL A   1      38.177  31.687  36.793  1.00  0.00     0.134 A 
ATOM     80  F   UNL A   1      40.130  34.357  35.305  1.00  0.00    -0.206 F 
ATOM     81  C   UNL A   1      38.935  34.307  37.326  1.00  0.00     0.040 A 
ATOM     82  C   UNL A   1      37.759  32.308  37.971  1.00  0.00     0.040 A 
ATOM     83  F   UNL A   1      37.788  30.424  36.566  1.00  0.00    -0.206 F 
ATOM     84  C   UNL A   1      38.133  33.623  38.238  1.00  0.00     0.006 A 
ENDBRANCH  56  77
BRANCH  68  85
ATOM     85  C   UNL A   1      44.374  28.272  34.243  1.00  0.00     0.057 A 
ATOM     86  C   UNL A   1      44.393  27.038  34.904  1.00  0.00     0.134 A 
ATOM     87  C   UNL A   1      45.548  29.038  34.265  1.00  0.00     0.134 A 
ATOM     88  F   UNL A   1      43.298  26.264  34.932  1.00  0.00    -0.206 F 
ATOM     89  C   UNL A   1      45.537  26.586  35.564  1.00  0.00     0.040 A 
ATOM     90  C   UNL A   1      46.704  28.585  34.899  1.00  0.00     0.040 A 
ATOM     91  F   UNL A   1      45.596  30.228  33.647  1.00  0.00    -0.206 F 
ATOM     92  C   UNL A   1      46.700  27.354  35.553  1.00  0.00     0.006 A 
ENDBRANCH  68  85
ENDBRANCH  42  43
ENDBRANCH  34  37
ENDBRANCH  32  33
ENDBRANCH  31  32
ENDBRANCH   1  31
TORSDOF 13
ENDMDL
MODEL 2
REMARK VINA RESULT:     -13.3      4.014      9.341
REMARK SMILES C[C@H](C(=O)NCCCNC(=O)c1ccc(-c2c3nc(c(-c4c(F)cccc4F)c4ccc([nH]4)c(-c4c(F)cccc4F)c4nc(c(-c5c(F)cccc5F)c5ccc2[nH]5)C=C4)C=C3)cc1)c1ccc2c3cc(Cl)ccc3n(C(=O)c3ccc(Cl)cc3)c2c1
REMARK SMILES IDX 6 1 5 2 3 3 4 4 2 6 1 7 66 8 67 9 88 10 68 11 87 12 69 13
REMARK SMILES IDX 77 14 70 15 76 16 71 17 75 18 72 19 74 20 73 21 78 22 79 23
REMARK SMILES IDX 80 24 81 25 86 26 82 27 85 28 83 29 84 30 7 31 8 32 9 33
REMARK SMILES IDX 10 34 11 36 12 37 13 38 65 39 14 40 64 41 15 42 16 43 17 44
REMARK SMILES IDX 58 45 18 46 63 47 57 48 59 49 19 50 62 51 56 52 55 53 20 55
REMARK SMILES IDX 46 56 29 57 45 58 30 59 33 60 44 61 60 62 31 63 32 64 43 66
REMARK SMILES IDX 61 67 34 68 21 69 22 70 27 71 23 72 24 73 26 74 28 75 25 76
REMARK SMILES IDX 47 77 48 78 53 79 49 80 50 81 52 82 54 83 51 84 35 85 36 86
REMARK SMILES IDX 41 87 37 88 38 89 40 90 42 91 39 92
REMARK H PARENT 5 5 9 35 59 54 33 65
REMARK Flexibility Score: inf
ROOT
ATOM      1  C   UNL A   1      34.357  22.777  24.028  1.00  0.00     0.117 C 
ENDROOT
BRANCH   1   2
ATOM      2  N   UNL A   1      33.459  21.646  24.206  1.00  0.00    -0.356 N 
ATOM      3  C   UNL A   1      32.396  21.473  25.052  1.00  0.00     0.227 C 
ATOM      4  O   UNL A   1      31.829  20.379  25.012  1.00  0.00    -0.274 OA
ATOM      5  H   UNL A   1      33.648  20.876  23.621  1.00  0.00     0.163 HD
BRANCH   3   6
ATOM      6  C   UNL A   1      31.928  22.620  25.971  1.00  0.00     0.105 C 
ATOM      7  C   UNL A   1      32.928  22.957  27.084  1.00  0.00     0.023 C 
BRANCH   6   8
ATOM      8  C   UNL A   1      31.567  23.867  25.179  1.00  0.00    -0.034 A 
ATOM      9  C   UNL A   1      30.851  23.797  23.986  1.00  0.00     0.005 A 
ATOM     10  C   UNL A   1      31.880  25.118  25.732  1.00  0.00     0.032 A 
ATOM     11  C   UNL A   1      30.333  24.960  23.411  1.00  0.00     0.011 A 
ATOM     12  C   UNL A   1      31.312  26.285  25.188  1.00  0.00     0.057 A 
ATOM     13  C   UNL A   1      30.525  26.209  24.045  1.00  0.00     0.008 A 
ATOM     14  N   UNL A   1      31.313  27.618  25.648  1.00  0.00    -0.276 N 
ATOM     15  C   UNL A   1      30.089  27.524  23.750  1.00  0.00     0.009 A 
ATOM     16  C   UNL A   1      30.707  28.403  24.654  1.00  0.00     0.057 A 
ATOM     17  C   UNL A   1      29.256  28.026  22.730  1.00  0.00     0.031 A 
ATOM     18  C   UNL A   1      30.643  29.792  24.435  1.00  0.00     0.029 A 
ATOM     19  C   UNL A   1      29.149  29.400  22.560  1.00  0.00     0.041 A 
ATOM     20  C   UNL A   1      29.858  30.272  23.376  1.00  0.00     0.023 A 
ATOM     21  Cl  UNL A   1      28.167  30.014  21.295  1.00  0.00    -0.084 Cl
BRANCH  14  22
ATOM     22  C   UNL A   1      31.841  28.002  26.918  1.00  0.00     0.262 C 
ATOM     23  O   UNL A   1      31.341  27.455  27.906  1.00  0.00    -0.268 OA
BRANCH  22  24
ATOM     24  C   UNL A   1      32.864  29.011  27.294  1.00  0.00     0.040 A 
ATOM     25  C   UNL A   1      32.413  30.348  27.369  1.00  0.00     0.015 A 
ATOM     26  C   UNL A   1      34.238  28.765  27.353  1.00  0.00     0.015 A 
ATOM     27  C   UNL A   1      33.304  31.414  27.488  1.00  0.00     0.021 A 
ATOM     28  C   UNL A   1      35.134  29.838  27.505  1.00  0.00     0.021 A 
ATOM     29  C   UNL A   1      34.665  31.154  27.555  1.00  0.00     0.041 A 
ATOM     30  Cl  UNL A   1      35.774  32.464  27.653  1.00  0.00    -0.084 Cl
ENDBRANCH  22  24
ENDBRANCH  14  22
ENDBRANCH   6   8
ENDBRANCH   3   6
ENDBRANCH   1   2
BRANCH   1  31
ATOM     31  C   UNL A   1      35.826  22.359  24.019  1.00  0.00     0.042 C 
BRANCH  31  32
ATOM     32  C   UNL A   1      36.416  22.119  25.403  1.00  0.00     0.118 C 
BRANCH  32  33
ATOM     33  N   UNL A   1      37.288  20.954  25.447  1.00  0.00    -0.352 N 
ATOM     34  C   UNL A   1      38.622  20.870  25.770  1.00  0.00     0.251 C 
ATOM     35  H   UNL A   1      36.859  20.100  25.209  1.00  0.00     0.163 HD
ATOM     36  O   UNL A   1      39.235  19.828  25.584  1.00  0.00    -0.269 OA
BRANCH  34  37
ATOM     37  C   UNL A   1      39.324  22.049  26.324  1.00  0.00     0.039 A 
ATOM     38  C   UNL A   1      40.390  21.853  27.207  1.00  0.00     0.014 A 
ATOM     39  C   UNL A   1      38.925  23.344  25.983  1.00  0.00     0.014 A 
ATOM     40  C   UNL A   1      41.104  22.953  27.691  1.00  0.00     0.010 A 
ATOM     41  C   UNL A   1      39.681  24.431  26.405  1.00  0.00     0.010 A 
ATOM     42  C   UNL A   1      40.776  24.249  27.264  1.00  0.00    -0.014 A 
BRANCH  42  43
ATOM     43  C   UNL A   1      41.534  25.445  27.711  1.00  0.00     0.031 A 
ATOM     44  C   UNL A   1      40.843  26.493  28.537  1.00  0.00     0.074 A 
ATOM     45  C   UNL A   1      42.795  25.646  27.283  1.00  0.00     0.049 A 
ATOM     46  N   UNL A   1      41.247  27.694  28.865  1.00  0.00    -0.248 NA
ATOM     47  C   UNL A   1      39.496  26.156  29.026  1.00  0.00     0.031 C 
ATOM     48  C   UNL A   1      43.568  24.724  26.449  1.00  0.00     0.029 A 
ATOM     49  N   UNL A   1      43.634  26.715  27.464  1.00  0.00    -0.354 N 
ATOM     50  C   UNL A   1      40.192  28.267  29.566  1.00  0.00     0.074 A 
ATOM     51  C   UNL A   1      39.116  27.299  29.574  1.00  0.00     0.031 C 
ATOM     52  C   UNL A   1      44.769  25.268  26.190  1.00  0.00     0.029 A 
ATOM     53  C   UNL A   1      44.832  26.592  26.802  1.00  0.00     0.049 A 
ATOM     54  H   UNL A   1      43.402  27.497  28.016  1.00  0.00     0.167 HD
ATOM     55  C   UNL A   1      40.132  29.483  30.160  1.00  0.00     0.037 A 
ATOM     56  C   UNL A   1      45.853  27.461  26.678  1.00  0.00     0.037 A 
ATOM     57  C   UNL A   1      41.213  30.433  30.160  1.00  0.00     0.049 A 
ATOM     58  C   UNL A   1      45.759  28.813  27.323  1.00  0.00     0.074 A 
ATOM     59  C   UNL A   1      41.274  31.669  30.779  1.00  0.00     0.029 A 
ATOM     60  N   UNL A   1      42.421  30.255  29.500  1.00  0.00    -0.354 N 
ATOM     61  N   UNL A   1      44.775  29.332  28.015  1.00  0.00    -0.248 NA
ATOM     62  C   UNL A   1      46.919  29.703  27.165  1.00  0.00     0.031 C 
ATOM     63  C   UNL A   1      42.498  32.262  30.449  1.00  0.00     0.029 A 
ATOM     64  C   UNL A   1      43.224  31.369  29.678  1.00  0.00     0.049 A 
ATOM     65  H   UNL A   1      42.669  29.455  28.983  1.00  0.00     0.167 HD
ATOM     66  C   UNL A   1      45.206  30.595  28.401  1.00  0.00     0.074 A 
ATOM     67  C   UNL A   1      46.539  30.765  27.863  1.00  0.00     0.031 C 
ATOM     68  C   UNL A   1      44.554  31.523  29.144  1.00  0.00     0.037 A 
BRANCH  55  69
ATOM     69  C   UNL A   1      38.842  29.856  30.836  1.00  0.00     0.057 A 
ATOM     70  C   UNL A   1      37.847  30.599  30.185  1.00  0.00     0.134 A 
ATOM     71  C   UNL A   1      38.592  29.469  32.159  1.00  0.00     0.134 A 
ATOM     72  F   UNL A   1      38.023  31.011  28.920  1.00  0.00    -0.206 F 
ATOM     73  C   UNL A   1      36.676  30.986  30.840  1.00  0.00     0.040 A 
ATOM     74  C   UNL A   1      37.410  29.817  32.813  1.00  0.00     0.040 A 
ATOM     75  F   UNL A   1      39.494  28.746  32.840  1.00  0.00    -0.206 F 
ATOM     76  C   UNL A   1      36.454  30.591  32.157  1.00  0.00     0.006 A 
ENDBRANCH  55  69
BRANCH  56  77
ATOM     77  C   UNL A   1      47.054  27.079  25.900  1.00  0.00     0.057 A 
ATOM     78  C   UNL A   1      48.105  26.374  26.497  1.00  0.00     0.134 A 
ATOM     79  C   UNL A   1      47.180  27.410  24.547  1.00  0.00     0.134 A 
ATOM     80  F   UNL A   1      48.051  26.058  27.799  1.00  0.00    -0.206 F 
ATOM     81  C   UNL A   1      49.242  26.008  25.775  1.00  0.00     0.040 A 
ATOM     82  C   UNL A   1      48.310  27.047  23.813  1.00  0.00     0.040 A 
ATOM     83  F   UNL A   1      46.203  28.082  23.921  1.00  0.00    -0.206 F 
ATOM     84  C   UNL A   1      49.342  26.338  24.425  1.00  0.00     0.006 A 
ENDBRANCH  56  77
BRANCH  68  85
ATOM     85  C   UNL A   1      45.290  32.789  29.474  1.00  0.00     0.057 A 
ATOM     86  C   UNL A   1      45.161  33.950  28.703  1.00  0.00     0.134 A 
ATOM     87  C   UNL A   1      46.080  32.862  30.630  1.00  0.00     0.134 A 
ATOM     88  F   UNL A   1      44.430  33.943  27.578  1.00  0.00    -0.206 F 
ATOM     89  C   UNL A   1      45.798  35.138  29.068  1.00  0.00     0.040 A 
ATOM     90  C   UNL A   1      46.700  34.050  31.017  1.00  0.00     0.040 A 
ATOM     91  F   UNL A   1      46.240  31.785  31.414  1.00  0.00    -0.206 F 
ATOM     92  C   UNL A   1      46.560  35.193  30.233  1.00  0.00     0.006 A 
ENDBRANCH  68  85
ENDBRANCH  42  43
ENDBRANCH  34  37
ENDBRANCH  32  33
ENDBRANCH  31  32
ENDBRANCH   1  31
TORSDOF 13
ENDMDL
MODEL 3
REMARK VINA RESULT:     -13.0      1.234      3.233
REMARK SMILES C[C@H](C(=O)NCCCNC(=O)c1ccc(-c2c3nc(c(-c4c(F)cccc4F)c4ccc([nH]4)c(-c4c(F)cccc4F)c4nc(c(-c5c(F)cccc5F)c5ccc2[nH]5)C=C4)C=C3)cc1)c1ccc2c3cc(Cl)ccc3n(C(=O)c3ccc(Cl)cc3)c2c1
REMARK SMILES IDX 6 1 5 2 3 3 4 4 2 6 1 7 66 8 67 9 88 10 68 11 87 12 69 13
REMARK SMILES IDX 77 14 70 15 76 16 71 17 75 18 72 19 74 20 73 21 78 22 79 23
REMARK SMILES IDX 80 24 81 25 86 26 82 27 85 28 83 29 84 30 7 31 8 32 9 33
REMARK SMILES IDX 10 34 11 36 12 37 13 38 65 39 14 40 64 41 15 42 16 43 17 44
REMARK SMILES IDX 58 45 18 46 63 47 57 48 59 49 19 50 62 51 56 52 55 53 20 55
REMARK SMILES IDX 46 56 29 57 45 58 30 59 33 60 44 61 60 62 31 63 32 64 43 66
REMARK SMILES IDX 61 67 34 68 21 69 22 70 27 71 23 72 24 73 26 74 28 75 25 76
REMARK SMILES IDX 47 77 48 78 53 79 49 80 50 81 52 82 54 83 51 84 35 85 36 86
REMARK SMILES IDX 41 87 37 88 38 89 40 90 42 91 39 92
REMARK H PARENT 5 5 9 35 59 54 33 65
REMARK Flexibility Score: inf
ROOT
ATOM      1  C   UNL A   1      31.339  28.156  23.949  1.00  0.00     0.117 C 
ENDROOT
BRANCH   1   2
ATOM      2  N   UNL A   1      31.028  27.612  25.262  1.00  0.00    -0.356 N 
ATOM      3  C   UNL A   1      30.846  26.318  25.673  1.00  0.00     0.227 C 
ATOM      4  O   UNL A   1      30.551  26.151  26.859  1.00  0.00    -0.274 OA
ATOM      5  H   UNL A   1      30.933  28.286  25.973  1.00  0.00     0.163 HD
BRANCH   3   6
ATOM      6  C   UNL A   1      31.044  25.146  24.691  1.00  0.00     0.105 C 
ATOM      7  C   UNL A   1      30.601  25.469  23.258  1.00  0.00     0.023 C 
BRANCH   6   8
ATOM      8  C   UNL A   1      32.474  24.631  24.707  1.00  0.00    -0.034 A 
ATOM      9  C   UNL A   1      33.531  25.413  25.166  1.00  0.00     0.005 A 
ATOM     10  C   UNL A   1      32.703  23.295  24.343  1.00  0.00     0.032 A 
ATOM     11  C   UNL A   1      34.784  24.837  25.390  1.00  0.00     0.011 A 
ATOM     12  C   UNL A   1      33.947  22.697  24.622  1.00  0.00     0.057 A 
ATOM     13  C   UNL A   1      34.979  23.455  25.161  1.00  0.00     0.008 A 
ATOM     14  N   UNL A   1      34.371  21.355  24.531  1.00  0.00    -0.276 N 
ATOM     15  C   UNL A   1      36.083  22.588  25.342  1.00  0.00     0.009 A 
ATOM     16  C   UNL A   1      35.748  21.334  24.806  1.00  0.00     0.057 A 
ATOM     17  C   UNL A   1      37.371  22.811  25.872  1.00  0.00     0.031 A 
ATOM     18  C   UNL A   1      36.746  20.357  24.631  1.00  0.00     0.029 A 
ATOM     19  C   UNL A   1      38.332  21.818  25.751  1.00  0.00     0.041 A 
ATOM     20  C   UNL A   1      38.038  20.621  25.109  1.00  0.00     0.023 A 
ATOM     21  Cl  UNL A   1      39.911  22.101  26.359  1.00  0.00    -0.084 Cl
BRANCH  14  22
ATOM     22  C   UNL A   1      33.485  20.278  24.226  1.00  0.00     0.262 C 
ATOM     23  O   UNL A   1      32.539  20.544  23.476  1.00  0.00    -0.268 OA
BRANCH  22  24
ATOM     24  C   UNL A   1      33.445  18.871  24.702  1.00  0.00     0.040 A 
ATOM     25  C   UNL A   1      34.072  17.920  23.867  1.00  0.00     0.015 A 
ATOM     26  C   UNL A   1      32.660  18.415  25.764  1.00  0.00     0.015 A 
ATOM     27  C   UNL A   1      33.915  16.550  24.076  1.00  0.00     0.021 A 
ATOM     28  C   UNL A   1      32.528  17.035  25.992  1.00  0.00     0.021 A 
ATOM     29  C   UNL A   1      33.141  16.111  25.140  1.00  0.00     0.041 A 
ATOM     30  Cl  UNL A   1      32.903  14.425  25.376  1.00  0.00    -0.084 Cl
ENDBRANCH  22  24
ENDBRANCH  14  22
ENDBRANCH   6   8
ENDBRANCH   3   6
ENDBRANCH   1   2
BRANCH   1  31
ATOM     31  C   UNL A   1      32.699  28.851  23.913  1.00  0.00     0.042 C 
BRANCH  31  32
ATOM     32  C   UNL A   1      33.238  29.240  25.283  1.00  0.00     0.118 C 
BRANCH  32  33
ATOM     33  N   UNL A   1      32.623  30.452  25.805  1.00  0.00    -0.352 N 
ATOM     34  C   UNL A   1      33.012  31.251  26.854  1.00  0.00     0.251 C 
ATOM     35  H   UNL A   1      31.808  30.743  25.336  1.00  0.00     0.163 HD
ATOM     36  O   UNL A   1      32.273  32.137  27.259  1.00  0.00    -0.269 OA
BRANCH  34  37
ATOM     37  C   UNL A   1      34.319  31.023  27.511  1.00  0.00     0.039 A 
ATOM     38  C   UNL A   1      35.216  32.089  27.626  1.00  0.00     0.014 A 
ATOM     39  C   UNL A   1      34.662  29.761  28.001  1.00  0.00     0.014 A 
ATOM     40  C   UNL A   1      36.429  31.909  28.298  1.00  0.00     0.010 A 
ATOM     41  C   UNL A   1      35.833  29.602  28.734  1.00  0.00     0.010 A 
ATOM     42  C   UNL A   1      36.729  30.671  28.888  1.00  0.00    -0.014 A 
BRANCH  42  43
ATOM     43  C   UNL A   1      37.981  30.443  29.654  1.00  0.00     0.031 A 
ATOM     44  C   UNL A   1      39.052  29.560  29.076  1.00  0.00     0.074 A 
ATOM     45  C   UNL A   1      38.108  30.927  30.904  1.00  0.00     0.049 A 
ATOM     46  N   UNL A   1      40.122  29.070  29.646  1.00  0.00    -0.248 NA
ATOM     47  C   UNL A   1      38.867  29.140  27.677  1.00  0.00     0.031 C 
ATOM     48  C   UNL A   1      37.128  31.769  31.594  1.00  0.00     0.029 A 
ATOM     49  N   UNL A   1      39.104  30.747  31.829  1.00  0.00    -0.354 N 
ATOM     50  C   UNL A   1      40.719  28.258  28.689  1.00  0.00     0.074 A 
ATOM     51  C   UNL A   1      39.865  28.285  27.521  1.00  0.00     0.031 C 
ATOM     52  C   UNL A   1      37.572  32.031  32.835  1.00  0.00     0.029 A 
ATOM     53  C   UNL A   1      38.843  31.342  33.040  1.00  0.00     0.049 A 
ATOM     54  H   UNL A   1      39.928  30.241  31.644  1.00  0.00     0.167 HD
ATOM     55  C   UNL A   1      41.879  27.563  28.772  1.00  0.00     0.037 A 
ATOM     56  C   UNL A   1      39.535  31.310  34.194  1.00  0.00     0.037 A 
ATOM     57  C   UNL A   1      42.730  27.553  29.933  1.00  0.00     0.049 A 
ATOM     58  C   UNL A   1      40.806  30.516  34.275  1.00  0.00     0.074 A 
ATOM     59  C   UNL A   1      43.954  26.928  30.099  1.00  0.00     0.029 A 
ATOM     60  N   UNL A   1      42.441  28.194  31.129  1.00  0.00    -0.354 N 
ATOM     61  N   UNL A   1      41.383  29.782  33.355  1.00  0.00    -0.248 NA
ATOM     62  C   UNL A   1      41.523  30.543  35.559  1.00  0.00     0.031 C 
ATOM     63  C   UNL A   1      44.378  27.145  31.414  1.00  0.00     0.029 A 
ATOM     64  C   UNL A   1      43.451  27.959  32.046  1.00  0.00     0.049 A 
ATOM     65  H   UNL A   1      41.637  28.736  31.299  1.00  0.00     0.167 HD
ATOM     66  C   UNL A   1      42.542  29.285  33.936  1.00  0.00     0.074 A 
ATOM     67  C   UNL A   1      42.586  29.797  35.290  1.00  0.00     0.031 C 
ATOM     68  C   UNL A   1      43.488  28.483  33.389  1.00  0.00     0.037 A 
BRANCH  55  69
ATOM     69  C   UNL A   1      42.275  26.739  27.578  1.00  0.00     0.057 A 
ATOM     70  C   UNL A   1      41.960  25.377  27.475  1.00  0.00     0.134 A 
ATOM     71  C   UNL A   1      42.985  27.316  26.517  1.00  0.00     0.134 A 
ATOM     72  F   UNL A   1      41.291  24.757  28.458  1.00  0.00    -0.206 F 
ATOM     73  C   UNL A   1      42.381  24.609  26.387  1.00  0.00     0.040 A 
ATOM     74  C   UNL A   1      43.379  26.568  25.407  1.00  0.00     0.040 A 
ATOM     75  F   UNL A   1      43.310  28.618  26.542  1.00  0.00    -0.206 F 
ATOM     76  C   UNL A   1      43.088  25.207  25.346  1.00  0.00     0.006 A 
ENDBRANCH  55  69
BRANCH  56  77
ATOM     77  C   UNL A   1      39.033  32.051  35.375  1.00  0.00     0.057 A 
ATOM     78  C   UNL A   1      38.256  31.413  36.348  1.00  0.00     0.134 A 
ATOM     79  C   UNL A   1      39.314  33.408  35.556  1.00  0.00     0.134 A 
ATOM     80  F   UNL A   1      37.929  30.120  36.209  1.00  0.00    -0.206 F 
ATOM     81  C   UNL A   1      37.776  32.099  37.465  1.00  0.00     0.040 A 
ATOM     82  C   UNL A   1      38.844  34.105  36.669  1.00  0.00     0.040 A 
ATOM     83  F   UNL A   1      40.057  34.070  34.657  1.00  0.00    -0.206 F 
ATOM     84  C   UNL A   1      38.078  33.449  37.632  1.00  0.00     0.006 A 
ENDBRANCH  56  77
BRANCH  68  85
ATOM     85  C   UNL A   1      44.687  28.151  34.228  1.00  0.00     0.057 A 
ATOM     86  C   UNL A   1      44.764  26.980  34.990  1.00  0.00     0.134 A 
ATOM     87  C   UNL A   1      45.813  28.987  34.208  1.00  0.00     0.134 A 
ATOM     88  F   UNL A   1      43.716  26.144  35.062  1.00  0.00    -0.206 F 
ATOM     89  C   UNL A   1      45.916  26.654  35.708  1.00  0.00     0.040 A 
ATOM     90  C   UNL A   1      46.978  28.660  34.901  1.00  0.00     0.040 A 
ATOM     91  F   UNL A   1      45.805  30.122  33.493  1.00  0.00    -0.206 F 
ATOM     92  C   UNL A   1      47.031  27.489  35.656  1.00  0.00     0.006 A 
ENDBRANCH  68  85
ENDBRANCH  42  43
ENDBRANCH  34  37
ENDBRANCH  32  33
ENDBRANCH  31  32
ENDBRANCH   1  31
TORSDOF 13
ENDMDL
