MODEL 1
REMARK VINA RESULT:      -9.1      0.000      0.000
REMARK SMILES CC(C)(C(=O)NCCCNC(=O)c1ccc(-c2c3nc(c(-c4c(F)cccc4F)c4ccc([nH]4)c(-c4c(F)cccc4F)c4nc(c(-c5c(F)cccc5F)c5ccc2[nH]5)C=C4)C=C3)cc1)c1ccc(C(=O)CCCCl)cc1
REMARK SMILES IDX 4 1 5 2 6 3 2 5 1 6 3 7 67 8 68 9 78 10 69 11 77 12 70 13
REMARK SMILES IDX 71 14 72 15 73 16 74 17 75 18 76 19 7 20 8 21 9 22 10 23
REMARK SMILES IDX 11 24 12 26 13 27 14 28 66 29 15 30 65 31 16 32 17 33 18 34
REMARK SMILES IDX 59 35 19 36 64 37 58 38 60 39 20 40 63 41 57 42 56 43 21 45
REMARK SMILES IDX 47 46 30 47 46 48 31 49 34 50 45 51 61 52 32 53 33 54 44 56
REMARK SMILES IDX 62 57 35 58 22 59 23 60 28 61 24 62 25 63 27 64 29 65 26 66
REMARK SMILES IDX 48 67 49 68 54 69 50 70 51 71 53 72 55 73 52 74 36 75 37 76
REMARK SMILES IDX 42 77 38 78 39 79 41 80 43 81 40 82
REMARK H PARENT 6 4 10 25 60 44 34 55
REMARK Flexibility Score: inf
ROOT
ATOM      1  C   UNL A   1      35.942  35.099  33.115  1.00  0.00     0.230 C 
ATOM      2  O   UNL A   1      37.104  35.386  32.804  1.00  0.00    -0.274 OA
ATOM      3  N   UNL A   1      34.995  35.885  32.532  1.00  0.00    -0.355 N 
ATOM      4  H   UNL A   1      35.356  36.487  31.842  1.00  0.00     0.163 HD
ENDROOT
BRANCH   1   5
ATOM      5  C   UNL A   1      35.597  33.944  34.109  1.00  0.00     0.068 C 
ATOM      6  C   UNL A   1      35.193  34.591  35.453  1.00  0.00     0.026 C 
ATOM      7  C   UNL A   1      34.459  33.057  33.567  1.00  0.00     0.026 C 
BRANCH   5   8
ATOM      8  C   UNL A   1      36.803  32.977  34.294  1.00  0.00    -0.033 A 
ATOM      9  C   UNL A   1      37.776  33.226  35.284  1.00  0.00     0.005 A 
ATOM     10  C   UNL A   1      37.008  31.869  33.457  1.00  0.00     0.005 A 
ATOM     11  C   UNL A   1      38.842  32.347  35.494  1.00  0.00     0.012 A 
ATOM     12  C   UNL A   1      38.092  31.010  33.640  1.00  0.00     0.012 A 
ATOM     13  C   UNL A   1      38.976  31.207  34.698  1.00  0.00     0.018 A 
BRANCH  13  14
ATOM     14  C   UNL A   1      40.016  30.203  35.048  1.00  0.00     0.162 C 
ATOM     15  O   UNL A   1      39.901  29.552  36.085  1.00  0.00    -0.294 OA
BRANCH  14  16
ATOM     16  C   UNL A   1      41.161  29.939  34.081  1.00  0.00     0.082 C 
BRANCH  16  17
ATOM     17  C   UNL A   1      40.708  29.275  32.777  1.00  0.00     0.024 C 
BRANCH  17  18
ATOM     18  C   UNL A   1      40.049  27.901  32.896  1.00  0.00     0.110 C 
ATOM     19  Cl  UNL A   1      38.502  27.820  32.019  1.00  0.00    -0.127 Cl
ENDBRANCH  17  18
ENDBRANCH  16  17
ENDBRANCH  14  16
ENDBRANCH  13  14
ENDBRANCH   5   8
ENDBRANCH   1   5
BRANCH   3  20
ATOM     20  C   UNL A   1      33.562  36.017  32.721  1.00  0.00     0.117 C 
BRANCH  20  21
ATOM     21  C   UNL A   1      32.881  36.612  31.494  1.00  0.00     0.042 C 
BRANCH  21  22
ATOM     22  C   UNL A   1      33.601  36.304  30.187  1.00  0.00     0.118 C 
BRANCH  22  23
ATOM     23  N   UNL A   1      32.803  35.465  29.303  1.00  0.00    -0.352 N 
ATOM     24  C   UNL A   1      33.151  34.347  28.586  1.00  0.00     0.251 C 
ATOM     25  H   UNL A   1      31.863  35.744  29.205  1.00  0.00     0.163 HD
ATOM     26  O   UNL A   1      32.394  33.922  27.718  1.00  0.00    -0.269 OA
BRANCH  24  27
ATOM     27  C   UNL A   1      34.436  33.665  28.843  1.00  0.00     0.039 A 
ATOM     28  C   UNL A   1      35.512  33.897  27.982  1.00  0.00     0.014 A 
ATOM     29  C   UNL A   1      34.577  32.780  29.915  1.00  0.00     0.014 A 
ATOM     30  C   UNL A   1      36.746  33.294  28.237  1.00  0.00     0.010 A 
ATOM     31  C   UNL A   1      35.827  32.256  30.222  1.00  0.00     0.010 A 
ATOM     32  C   UNL A   1      36.923  32.501  29.382  1.00  0.00    -0.014 A 
BRANCH  32  33
ATOM     33  C   UNL A   1      38.242  31.910  29.718  1.00  0.00     0.031 A 
ATOM     34  C   UNL A   1      39.244  32.702  30.513  1.00  0.00     0.074 A 
ATOM     35  C   UNL A   1      38.565  30.691  29.245  1.00  0.00     0.049 A 
ATOM     36  N   UNL A   1      40.476  32.396  30.831  1.00  0.00    -0.248 NA
ATOM     37  C   UNL A   1      38.816  34.030  30.985  1.00  0.00     0.031 C 
ATOM     38  C   UNL A   1      37.700  29.844  28.421  1.00  0.00     0.029 A 
ATOM     39  N   UNL A   1      39.717  29.956  29.378  1.00  0.00    -0.354 N 
ATOM     40  C   UNL A   1      40.972  33.495  31.522  1.00  0.00     0.074 A 
ATOM     41  C   UNL A   1      39.930  34.498  31.526  1.00  0.00     0.031 C 
ATOM     42  C   UNL A   1      38.341  28.698  28.144  1.00  0.00     0.029 A 
ATOM     43  C   UNL A   1      39.675  28.744  28.733  1.00  0.00     0.049 A 
ATOM     44  H   UNL A   1      40.499  30.268  29.889  1.00  0.00     0.167 HD
ATOM     45  C   UNL A   1      42.176  33.646  32.120  1.00  0.00     0.037 A 
ATOM     46  C   UNL A   1      40.611  27.783  28.620  1.00  0.00     0.037 A 
ATOM     47  C   UNL A   1      43.201  32.635  32.136  1.00  0.00     0.049 A 
ATOM     48  C   UNL A   1      41.944  27.976  29.289  1.00  0.00     0.074 A 
ATOM     49  C   UNL A   1      44.432  32.665  32.767  1.00  0.00     0.029 A 
ATOM     50  N   UNL A   1      43.111  31.411  31.489  1.00  0.00    -0.354 N 
ATOM     51  N   UNL A   1      42.373  28.991  29.998  1.00  0.00    -0.248 NA
ATOM     52  C   UNL A   1      42.920  26.885  29.148  1.00  0.00     0.031 C 
ATOM     53  C   UNL A   1      45.106  31.478  32.462  1.00  0.00     0.029 A 
ATOM     54  C   UNL A   1      44.274  30.686  31.688  1.00  0.00     0.049 A 
ATOM     55  H   UNL A   1      42.335  31.102  30.967  1.00  0.00     0.167 HD
ATOM     56  C   UNL A   1      43.653  28.651  30.414  1.00  0.00     0.074 A 
ATOM     57  C   UNL A   1      43.926  27.330  29.887  1.00  0.00     0.031 C 
ATOM     58  C   UNL A   1      44.524  29.366  31.167  1.00  0.00     0.037 A 
BRANCH  45  59
ATOM     59  C   UNL A   1      42.450  34.951  32.811  1.00  0.00     0.057 A 
ATOM     60  C   UNL A   1      42.007  35.204  34.116  1.00  0.00     0.134 A 
ATOM     61  C   UNL A   1      43.194  35.954  32.177  1.00  0.00     0.134 A 
ATOM     62  F   UNL A   1      41.278  34.290  34.776  1.00  0.00    -0.206 F 
ATOM     63  C   UNL A   1      42.269  36.417  34.755  1.00  0.00     0.040 A 
ATOM     64  C   UNL A   1      43.489  37.160  32.817  1.00  0.00     0.040 A 
ATOM     65  F   UNL A   1      43.657  35.776  30.930  1.00  0.00    -0.206 F 
ATOM     66  C   UNL A   1      43.019  37.396  34.106  1.00  0.00     0.006 A 
ENDBRANCH  45  59
BRANCH  46  67
ATOM     67  C   UNL A   1      40.313  26.540  27.864  1.00  0.00     0.057 A 
ATOM     68  C   UNL A   1      40.838  26.332  26.583  1.00  0.00     0.134 A 
ATOM     69  C   UNL A   1      39.497  25.535  28.396  1.00  0.00     0.134 A 
ATOM     70  F   UNL A   1      41.614  27.266  26.011  1.00  0.00    -0.206 F 
ATOM     71  C   UNL A   1      40.545  25.181  25.849  1.00  0.00     0.040 A 
ATOM     72  C   UNL A   1      39.217  24.367  27.685  1.00  0.00     0.040 A 
ATOM     73  F   UNL A   1      38.972  25.669  29.623  1.00  0.00    -0.206 F 
ATOM     74  C   UNL A   1      39.736  24.192  26.404  1.00  0.00     0.006 A 
ENDBRANCH  46  67
BRANCH  58  75
ATOM     75  C   UNL A   1      45.836  28.720  31.506  1.00  0.00     0.057 A 
ATOM     76  C   UNL A   1      46.944  28.800  30.653  1.00  0.00     0.134 A 
ATOM     77  C   UNL A   1      46.002  28.051  32.725  1.00  0.00     0.134 A 
ATOM     78  F   UNL A   1      46.846  29.415  29.466  1.00  0.00    -0.206 F 
ATOM     79  C   UNL A   1      48.167  28.221  30.995  1.00  0.00     0.040 A 
ATOM     80  C   UNL A   1      47.227  27.493  33.090  1.00  0.00     0.040 A 
ATOM     81  F   UNL A   1      44.983  27.947  33.591  1.00  0.00    -0.206 F 
ATOM     82  C   UNL A   1      48.314  27.572  32.220  1.00  0.00     0.006 A 
ENDBRANCH  58  75
ENDBRANCH  32  33
ENDBRANCH  24  27
ENDBRANCH  22  23
ENDBRANCH  21  22
ENDBRANCH  20  21
ENDBRANCH   3  20
TORSDOF 15
ENDMDL
MODEL 2
REMARK VINA RESULT:      -9.0      4.996     10.622
REMARK SMILES CC(C)(C(=O)NCCCNC(=O)c1ccc(-c2c3nc(c(-c4c(F)cccc4F)c4ccc([nH]4)c(-c4c(F)cccc4F)c4nc(c(-c5c(F)cccc5F)c5ccc2[nH]5)C=C4)C=C3)cc1)c1ccc(C(=O)CCCCl)cc1
REMARK SMILES IDX 4 1 5 2 6 3 2 5 1 6 3 7 67 8 68 9 78 10 69 11 77 12 70 13
REMARK SMILES IDX 71 14 72 15 73 16 74 17 75 18 76 19 7 20 8 21 9 22 10 23
REMARK SMILES IDX 11 24 12 26 13 27 14 28 66 29 15 30 65 31 16 32 17 33 18 34
REMARK SMILES IDX 59 35 19 36 64 37 58 38 60 39 20 40 63 41 57 42 56 43 21 45
REMARK SMILES IDX 47 46 30 47 46 48 31 49 34 50 45 51 61 52 32 53 33 54 44 56
REMARK SMILES IDX 62 57 35 58 22 59 23 60 28 61 24 62 25 63 27 64 29 65 26 66
REMARK SMILES IDX 48 67 49 68 54 69 50 70 51 71 53 72 55 73 52 74 36 75 37 76
REMARK SMILES IDX 42 77 38 78 39 79 41 80 43 81 40 82
REMARK H PARENT 6 4 10 25 60 44 34 55
REMARK Flexibility Score: inf
ROOT
ATOM      1  C   UNL A   1      35.972  22.826  25.532  1.00  0.00     0.230 C 
ATOM      2  O   UNL A   1      36.502  23.741  26.173  1.00  0.00    -0.274 OA
ATOM      3  N   UNL A   1      36.585  21.617  25.668  1.00  0.00    -0.355 N 
ATOM      4  H   UNL A   1      37.284  21.610  26.362  1.00  0.00     0.163 HD
ENDROOT
BRANCH   1   5
ATOM      5  C   UNL A   1      34.719  23.048  24.627  1.00  0.00     0.068 C 
ATOM      6  C   UNL A   1      35.218  23.235  23.176  1.00  0.00     0.026 C 
ATOM      7  C   UNL A   1      33.741  21.858  24.717  1.00  0.00     0.026 C 
BRANCH   5   8
ATOM      8  C   UNL A   1      33.892  24.280  25.096  1.00  0.00    -0.033 A 
ATOM      9  C   UNL A   1      32.842  24.127  26.025  1.00  0.00     0.005 A 
ATOM     10  C   UNL A   1      34.107  25.567  24.577  1.00  0.00     0.005 A 
ATOM     11  C   UNL A   1      32.116  25.228  26.490  1.00  0.00     0.012 A 
ATOM     12  C   UNL A   1      33.359  26.661  25.011  1.00  0.00     0.012 A 
ATOM     13  C   UNL A   1      32.406  26.509  26.015  1.00  0.00     0.018 A 
BRANCH  13  14
ATOM     14  C   UNL A   1      31.739  27.679  26.647  1.00  0.00     0.162 C 
ATOM     15  O   UNL A   1      31.221  27.551  27.756  1.00  0.00    -0.294 OA
BRANCH  14  16
ATOM     16  C   UNL A   1      31.778  29.031  25.951  1.00  0.00     0.082 C 
BRANCH  16  17
ATOM     17  C   UNL A   1      32.207  30.174  26.876  1.00  0.00     0.024 C 
BRANCH  17  18
ATOM     18  C   UNL A   1      33.696  30.273  27.203  1.00  0.00     0.110 C 
ATOM     19  Cl  UNL A   1      34.107  31.811  28.001  1.00  0.00    -0.127 Cl
ENDBRANCH  17  18
ENDBRANCH  16  17
ENDBRANCH  14  16
ENDBRANCH  13  14
ENDBRANCH   5   8
ENDBRANCH   1   5
BRANCH   3  20
ATOM     20  C   UNL A   1      36.418  20.340  25.001  1.00  0.00     0.117 C 
BRANCH  20  21
ATOM     21  C   UNL A   1      37.760  19.687  24.685  1.00  0.00     0.042 C 
BRANCH  21  22
ATOM     22  C   UNL A   1      38.897  20.165  25.577  1.00  0.00     0.118 C 
BRANCH  22  23
ATOM     23  N   UNL A   1      39.903  19.133  25.791  1.00  0.00    -0.352 N 
ATOM     24  C   UNL A   1      41.247  19.241  26.044  1.00  0.00     0.251 C 
ATOM     25  H   UNL A   1      39.562  18.210  25.749  1.00  0.00     0.163 HD
ATOM     26  O   UNL A   1      41.963  18.247  25.961  1.00  0.00    -0.269 OA
BRANCH  24  27
ATOM     27  C   UNL A   1      41.838  20.548  26.399  1.00  0.00     0.039 A 
ATOM     28  C   UNL A   1      42.209  21.425  25.376  1.00  0.00     0.014 A 
ATOM     29  C   UNL A   1      42.049  20.901  27.734  1.00  0.00     0.014 A 
ATOM     30  C   UNL A   1      42.727  22.682  25.696  1.00  0.00     0.010 A 
ATOM     31  C   UNL A   1      42.476  22.185  28.052  1.00  0.00     0.010 A 
ATOM     32  C   UNL A   1      42.827  23.086  27.037  1.00  0.00    -0.014 A 
BRANCH  32  33
ATOM     33  C   UNL A   1      43.303  24.443  27.404  1.00  0.00     0.031 A 
ATOM     34  C   UNL A   1      42.321  25.497  27.835  1.00  0.00     0.074 A 
ATOM     35  C   UNL A   1      44.609  24.748  27.275  1.00  0.00     0.049 A 
ATOM     36  N   UNL A   1      42.529  26.760  28.111  1.00  0.00    -0.248 NA
ATOM     37  C   UNL A   1      40.911  25.086  27.941  1.00  0.00     0.031 C 
ATOM     38  C   UNL A   1      45.653  23.828  26.817  1.00  0.00     0.029 A 
ATOM     39  N   UNL A   1      45.281  25.922  27.506  1.00  0.00    -0.354 N 
ATOM     40  C   UNL A   1      41.280  27.293  28.403  1.00  0.00     0.074 A 
ATOM     41  C   UNL A   1      40.313  26.235  28.216  1.00  0.00     0.031 C 
ATOM     42  C   UNL A   1      46.834  24.465  26.826  1.00  0.00     0.029 A 
ATOM     43  C   UNL A   1      46.628  25.847  27.246  1.00  0.00     0.049 A 
ATOM     44  H   UNL A   1      44.839  26.742  27.827  1.00  0.00     0.167 HD
ATOM     45  C   UNL A   1      40.969  28.545  28.815  1.00  0.00     0.037 A 
ATOM     46  C   UNL A   1      47.586  26.788  27.328  1.00  0.00     0.037 A 
ATOM     47  C   UNL A   1      41.939  29.588  29.026  1.00  0.00     0.049 A 
ATOM     48  C   UNL A   1      47.215  28.173  27.784  1.00  0.00     0.074 A 
ATOM     49  C   UNL A   1      41.735  30.871  29.501  1.00  0.00     0.029 A 
ATOM     50  N   UNL A   1      43.297  29.464  28.774  1.00  0.00    -0.354 N 
ATOM     51  N   UNL A   1      46.041  28.644  28.124  1.00  0.00    -0.248 NA
ATOM     52  C   UNL A   1      48.306  29.155  27.873  1.00  0.00     0.031 C 
ATOM     53  C   UNL A   1      42.963  31.540  29.491  1.00  0.00     0.029 A 
ATOM     54  C   UNL A   1      43.940  30.657  29.062  1.00  0.00     0.049 A 
ATOM     55  H   UNL A   1      43.739  28.651  28.439  1.00  0.00     0.167 HD
ATOM     56  C   UNL A   1      46.254  29.965  28.498  1.00  0.00     0.074 A 
ATOM     57  C   UNL A   1      47.672  30.216  28.352  1.00  0.00     0.031 C 
ATOM     58  C   UNL A   1      45.356  30.885  28.925  1.00  0.00     0.037 A 
BRANCH  45  59
ATOM     59  C   UNL A   1      39.522  28.853  29.069  1.00  0.00     0.057 A 
ATOM     60  C   UNL A   1      38.934  28.661  30.327  1.00  0.00     0.134 A 
ATOM     61  C   UNL A   1      38.713  29.380  28.054  1.00  0.00     0.134 A 
ATOM     62  F   UNL A   1      39.649  28.148  31.340  1.00  0.00    -0.206 F 
ATOM     63  C   UNL A   1      37.589  28.954  30.558  1.00  0.00     0.040 A 
ATOM     64  C   UNL A   1      37.374  29.706  28.281  1.00  0.00     0.040 A 
ATOM     65  F   UNL A   1      39.212  29.597  26.827  1.00  0.00    -0.206 F 
ATOM     66  C   UNL A   1      36.808  29.486  29.534  1.00  0.00     0.006 A 
ENDBRANCH  45  59
BRANCH  46  67
ATOM     67  C   UNL A   1      48.993  26.449  26.997  1.00  0.00     0.057 A 
ATOM     68  C   UNL A   1      49.504  26.666  25.712  1.00  0.00     0.134 A 
ATOM     69  C   UNL A   1      49.859  25.898  27.949  1.00  0.00     0.134 A 
ATOM     70  F   UNL A   1      48.719  27.177  24.751  1.00  0.00    -0.206 F 
ATOM     71  C   UNL A   1      50.816  26.327  25.377  1.00  0.00     0.040 A 
ATOM     72  C   UNL A   1      51.181  25.578  27.637  1.00  0.00     0.040 A 
ATOM     73  F   UNL A   1      49.434  25.675  29.201  1.00  0.00    -0.206 F 
ATOM     74  C   UNL A   1      51.660  25.786  26.345  1.00  0.00     0.006 A 
ENDBRANCH  46  67
BRANCH  58  75
ATOM     75  C   UNL A   1      45.884  32.237  29.310  1.00  0.00     0.057 A 
ATOM     76  C   UNL A   1      45.919  33.305  28.406  1.00  0.00     0.134 A 
ATOM     77  C   UNL A   1      46.317  32.481  30.620  1.00  0.00     0.134 A 
ATOM     78  F   UNL A   1      45.532  33.133  27.134  1.00  0.00    -0.206 F 
ATOM     79  C   UNL A   1      46.385  34.565  28.786  1.00  0.00     0.040 A 
ATOM     80  C   UNL A   1      46.757  33.743  31.020  1.00  0.00     0.040 A 
ATOM     81  F   UNL A   1      46.300  31.503  31.538  1.00  0.00    -0.206 F 
ATOM     82  C   UNL A   1      46.797  34.789  30.099  1.00  0.00     0.006 A 
ENDBRANCH  58  75
ENDBRANCH  32  33
ENDBRANCH  24  27
ENDBRANCH  22  23
ENDBRANCH  21  22
ENDBRANCH  20  21
ENDBRANCH   3  20
TORSDOF 15
ENDMDL
MODEL 3
REMARK VINA RESULT:      -8.9      4.638     10.616
REMARK SMILES CC(C)(C(=O)NCCCNC(=O)c1ccc(-c2c3nc(c(-c4c(F)cccc4F)c4ccc([nH]4)c(-c4c(F)cccc4F)c4nc(c(-c5c(F)cccc5F)c5ccc2[nH]5)C=C4)C=C3)cc1)c1ccc(C(=O)CCCCl)cc1
REMARK SMILES IDX 4 1 5 2 6 3 2 5 1 6 3 7 67 8 68 9 78 10 69 11 77 12 70 13
REMARK SMILES IDX 71 14 72 15 73 16 74 17 75 18 76 19 7 20 8 21 9 22 10 23
REMARK SMILES IDX 11 24 12 26 13 27 14 28 66 29 15 30 65 31 16 32 17 33 18 34
REMARK SMILES IDX 59 35 19 36 64 37 58 38 60 39 20 40 63 41 57 42 56 43 21 45
REMARK SMILES IDX 47 46 30 47 46 48 31 49 34 50 45 51 61 52 32 53 33 54 44 56
REMARK SMILES IDX 62 57 35 58 22 59 23 60 28 61 24 62 25 63 27 64 29 65 26 66
REMARK SMILES IDX 48 67 49 68 54 69 50 70 51 71 53 72 55 73 52 74 36 75 37 76
REMARK SMILES IDX 42 77 38 78 39 79 41 80 43 81 40 82
REMARK H PARENT 6 4 10 25 60 44 34 55
REMARK Flexibility Score: inf
ROOT
ATOM      1  C   UNL A   1      35.950  22.705  25.668  1.00  0.00     0.230 C 
ATOM      2  O   UNL A   1      36.391  23.557  26.448  1.00  0.00    -0.274 OA
ATOM      3  N   UNL A   1      36.525  21.477  25.794  1.00  0.00    -0.355 N 
ATOM      4  H   UNL A   1      37.117  21.401  26.577  1.00  0.00     0.163 HD
ENDROOT
BRANCH   1   5
ATOM      5  C   UNL A   1      34.841  23.022  24.614  1.00  0.00     0.068 C 
ATOM      6  C   UNL A   1      35.542  23.267  23.259  1.00  0.00     0.026 C 
ATOM      7  C   UNL A   1      33.825  21.868  24.501  1.00  0.00     0.026 C 
BRANCH   5   8
ATOM      8  C   UNL A   1      33.995  24.259  25.036  1.00  0.00    -0.033 A 
ATOM      9  C   UNL A   1      33.005  24.144  26.033  1.00  0.00     0.005 A 
ATOM     10  C   UNL A   1      34.133  25.508  24.409  1.00  0.00     0.005 A 
ATOM     11  C   UNL A   1      32.264  25.252  26.455  1.00  0.00     0.012 A 
ATOM     12  C   UNL A   1      33.370  26.608  24.803  1.00  0.00     0.012 A 
ATOM     13  C   UNL A   1      32.479  26.501  25.869  1.00  0.00     0.018 A 
BRANCH  13  14
ATOM     14  C   UNL A   1      31.804  27.694  26.448  1.00  0.00     0.162 C 
ATOM     15  O   UNL A   1      31.306  27.619  27.570  1.00  0.00    -0.294 OA
BRANCH  14  16
ATOM     16  C   UNL A   1      31.811  29.007  25.680  1.00  0.00     0.082 C 
BRANCH  16  17
ATOM     17  C   UNL A   1      31.934  30.236  26.586  1.00  0.00     0.024 C 
BRANCH  17  18
ATOM     18  C   UNL A   1      33.216  30.361  27.408  1.00  0.00     0.110 C 
ATOM     19  Cl  UNL A   1      33.634  32.059  27.746  1.00  0.00    -0.127 Cl
ENDBRANCH  17  18
ENDBRANCH  16  17
ENDBRANCH  14  16
ENDBRANCH  13  14
ENDBRANCH   5   8
ENDBRANCH   1   5
BRANCH   3  20
ATOM     20  C   UNL A   1      36.443  20.258  25.011  1.00  0.00     0.117 C 
BRANCH  20  21
ATOM     21  C   UNL A   1      37.816  19.636  24.788  1.00  0.00     0.042 C 
BRANCH  21  22
ATOM     22  C   UNL A   1      38.883  20.149  25.746  1.00  0.00     0.118 C 
BRANCH  22  23
ATOM     23  N   UNL A   1      39.999  19.222  25.878  1.00  0.00    -0.352 N 
ATOM     24  C   UNL A   1      41.326  19.460  26.133  1.00  0.00     0.251 C 
ATOM     25  H   UNL A   1      39.762  18.272  25.768  1.00  0.00     0.163 HD
ATOM     26  O   UNL A   1      42.146  18.561  25.974  1.00  0.00    -0.269 OA
BRANCH  24  27
ATOM     27  C   UNL A   1      41.773  20.794  26.584  1.00  0.00     0.039 A 
ATOM     28  C   UNL A   1      42.203  21.723  25.632  1.00  0.00     0.014 A 
ATOM     29  C   UNL A   1      41.792  21.125  27.941  1.00  0.00     0.014 A 
ATOM     30  C   UNL A   1      42.586  23.004  26.037  1.00  0.00     0.010 A 
ATOM     31  C   UNL A   1      42.082  22.426  28.334  1.00  0.00     0.010 A 
ATOM     32  C   UNL A   1      42.490  23.377  27.387  1.00  0.00    -0.014 A 
BRANCH  32  33
ATOM     33  C   UNL A   1      42.818  24.753  27.835  1.00  0.00     0.031 A 
ATOM     34  C   UNL A   1      44.251  25.152  28.059  1.00  0.00     0.074 A 
ATOM     35  C   UNL A   1      41.824  25.618  28.112  1.00  0.00     0.049 A 
ATOM     36  N   UNL A   1      44.734  26.274  28.531  1.00  0.00    -0.248 NA
ATOM     37  C   UNL A   1      45.277  24.145  27.742  1.00  0.00     0.031 C 
ATOM     38  C   UNL A   1      40.392  25.334  27.984  1.00  0.00     0.029 A 
ATOM     39  N   UNL A   1      41.864  26.910  28.573  1.00  0.00    -0.354 N 
ATOM     40  C   UNL A   1      46.111  26.100  28.582  1.00  0.00     0.074 A 
ATOM     41  C   UNL A   1      46.384  24.748  28.150  1.00  0.00     0.031 C 
ATOM     42  C   UNL A   1      39.694  26.426  28.332  1.00  0.00     0.029 A 
ATOM     43  C   UNL A   1      40.622  27.473  28.749  1.00  0.00     0.049 A 
ATOM     44  H   UNL A   1      42.704  27.390  28.759  1.00  0.00     0.167 HD
ATOM     45  C   UNL A   1      47.065  26.995  28.933  1.00  0.00     0.037 A 
ATOM     46  C   UNL A   1      40.273  28.690  29.204  1.00  0.00     0.037 A 
ATOM     47  C   UNL A   1      46.790  28.349  29.337  1.00  0.00     0.049 A 
ATOM     48  C   UNL A   1      41.350  29.664  29.593  1.00  0.00     0.074 A 
ATOM     49  C   UNL A   1      47.688  29.353  29.653  1.00  0.00     0.029 A 
ATOM     50  N   UNL A   1      45.519  28.887  29.481  1.00  0.00    -0.354 N 
ATOM     51  N   UNL A   1      42.651  29.510  29.569  1.00  0.00    -0.248 NA
ATOM     52  C   UNL A   1      40.909  30.985  30.064  1.00  0.00     0.031 C 
ATOM     53  C   UNL A   1      46.959  30.484  30.034  1.00  0.00     0.029 A 
ATOM     54  C   UNL A   1      45.609  30.203  29.902  1.00  0.00     0.049 A 
ATOM     55  H   UNL A   1      44.678  28.405  29.308  1.00  0.00     0.167 HD
ATOM     56  C   UNL A   1      43.186  30.720  29.991  1.00  0.00     0.074 A 
ATOM     57  C   UNL A   1      42.068  31.602  30.253  1.00  0.00     0.031 C 
ATOM     58  C   UNL A   1      44.486  31.071  30.145  1.00  0.00     0.037 A 
BRANCH  45  59
ATOM     59  C   UNL A   1      48.494  26.538  28.891  1.00  0.00     0.057 A 
ATOM     60  C   UNL A   1      49.297  26.721  27.757  1.00  0.00     0.134 A 
ATOM     61  C   UNL A   1      49.087  25.938  30.009  1.00  0.00     0.134 A 
ATOM     62  F   UNL A   1      48.787  27.278  26.647  1.00  0.00    -0.206 F 
ATOM     63  C   UNL A   1      50.626  26.298  27.725  1.00  0.00     0.040 A 
ATOM     64  C   UNL A   1      50.425  25.539  30.001  1.00  0.00     0.040 A 
ATOM     65  F   UNL A   1      48.380  25.739  31.132  1.00  0.00    -0.206 F 
ATOM     66  C   UNL A   1      51.196  25.712  28.854  1.00  0.00     0.006 A 
ENDBRANCH  45  59
BRANCH  46  67
ATOM     67  C   UNL A   1      38.839  29.067  29.293  1.00  0.00     0.057 A 
ATOM     68  C   UNL A   1      38.152  29.561  28.179  1.00  0.00     0.134 A 
ATOM     69  C   UNL A   1      38.123  28.948  30.490  1.00  0.00     0.134 A 
ATOM     70  F   UNL A   1      38.788  29.713  27.007  1.00  0.00    -0.206 F 
ATOM     71  C   UNL A   1      36.812  29.945  28.254  1.00  0.00     0.040 A 
ATOM     72  C   UNL A   1      36.775  29.303  30.575  1.00  0.00     0.040 A 
ATOM     73  F   UNL A   1      38.720  28.471  31.592  1.00  0.00    -0.206 F 
ATOM     74  C   UNL A   1      36.119  29.811  29.456  1.00  0.00     0.006 A 
ENDBRANCH  46  67
BRANCH  58  75
ATOM     75  C   UNL A   1      44.773  32.480  30.575  1.00  0.00     0.057 A 
ATOM     76  C   UNL A   1      44.935  32.827  31.922  1.00  0.00     0.134 A 
ATOM     77  C   UNL A   1      44.940  33.492  29.620  1.00  0.00     0.134 A 
ATOM     78  F   UNL A   1      44.775  31.907  32.885  1.00  0.00    -0.206 F 
ATOM     79  C   UNL A   1      45.233  34.135  32.305  1.00  0.00     0.040 A 
ATOM     80  C   UNL A   1      45.266  34.797  29.989  1.00  0.00     0.040 A 
ATOM     81  F   UNL A   1      44.809  33.224  28.312  1.00  0.00    -0.206 F 
ATOM     82  C   UNL A   1      45.408  35.123  31.337  1.00  0.00     0.006 A 
ENDBRANCH  58  75
ENDBRANCH  32  33
ENDBRANCH  24  27
ENDBRANCH  22  23
ENDBRANCH  21  22
ENDBRANCH  20  21
ENDBRANCH   3  20
TORSDOF 15
ENDMDL
