MODEL 1
REMARK VINA RESULT:     -11.7      0.000      0.000
REMARK SMILES C[NH2+]C[C@@H](C)C(=O)Nc1ccc(Cl)cc1C(=O)NCCCNC(=O)c1ccc(-c2c3nc(c(-c4c(F)cccc4F)c4ccc([nH]4)c(-c4c(F)cccc4F)c4nc(c(-c5c(F)cccc5F)c5ccc2[nH]5)C=C4)C=C3)cc1
REMARK SMILES IDX 19 1 18 2 16 3 17 4 15 6 9 7 10 8 11 9 14 10 12 11 13 12
REMARK SMILES IDX 8 13 6 14 7 15 4 17 5 18 3 19 2 20 1 21 20 24 21 25 22 26
REMARK SMILES IDX 23 27 24 29 25 30 26 31 78 32 27 33 77 34 28 35 29 36 30 37
REMARK SMILES IDX 71 38 31 39 76 40 70 41 72 42 32 43 75 44 69 45 68 46 33 48
REMARK SMILES IDX 59 49 42 50 58 51 43 52 46 53 57 54 73 55 44 56 45 57 56 59
REMARK SMILES IDX 74 60 47 61 34 62 35 63 40 64 36 65 37 66 39 67 41 68 38 69
REMARK SMILES IDX 60 70 61 71 66 72 62 73 63 74 65 75 67 76 64 77 48 78 49 79
REMARK SMILES IDX 54 80 50 81 51 82 53 83 55 84 52 85
REMARK H PARENT 18 5 8 16 2 22 2 23 22 28 72 47 46 58
REMARK Flexibility Score: inf
ROOT
ATOM      1  C   UNL A   1      37.013  21.052  24.824  1.00  0.00     0.118 C 
ENDROOT
BRANCH   1   2
ATOM      2  N   UNL A   1      36.240  21.415  25.984  1.00  0.00    -0.352 N 
ATOM      3  C   UNL A   1      34.923  21.757  26.146  1.00  0.00     0.253 C 
ATOM      4  O   UNL A   1      34.585  21.988  27.313  1.00  0.00    -0.269 OA
ATOM      5  H   UNL A   1      36.758  21.416  26.822  1.00  0.00     0.163 HD
BRANCH   3   6
ATOM      6  C   UNL A   1      33.877  21.907  25.078  1.00  0.00     0.064 A 
ATOM      7  C   UNL A   1      32.745  21.117  24.793  1.00  0.00     0.054 A 
ATOM      8  C   UNL A   1      31.780  21.583  23.883  1.00  0.00     0.028 A 
ATOM      9  C   UNL A   1      31.984  22.731  23.126  1.00  0.00     0.023 A 
ATOM     10  C   UNL A   1      34.070  23.062  24.280  1.00  0.00     0.036 A 
ATOM     11  C   UNL A   1      33.151  23.450  23.304  1.00  0.00     0.041 A 
ATOM     12  Cl  UNL A   1      33.448  24.841  22.340  1.00  0.00    -0.084 Cl
BRANCH   7  13
ATOM     13  N   UNL A   1      32.429  19.911  25.421  1.00  0.00    -0.325 N 
ATOM     14  C   UNL A   1      32.556  18.632  24.930  1.00  0.00     0.232 C 
ATOM     15  O   UNL A   1      32.176  17.717  25.672  1.00  0.00    -0.274 OA
ATOM     16  H   UNL A   1      32.067  19.984  26.333  1.00  0.00     0.169 HD
BRANCH  14  17
ATOM     17  C   UNL A   1      33.241  18.272  23.589  1.00  0.00     0.130 C 
ATOM     18  C   UNL A   1      32.303  18.077  22.394  1.00  0.00     0.024 C 
BRANCH  17  19
ATOM     19  C   UNL A   1      34.273  17.149  23.750  1.00  0.00     0.273 C 
BRANCH  19  20
ATOM     20  N   UNL A   1      35.075  17.151  24.977  1.00  0.00    -0.348 N 
ATOM     21  C   UNL A   1      35.527  15.829  25.376  1.00  0.00     0.330 C 
ATOM     22  H   UNL A   1      35.894  17.740  24.826  1.00  0.00     0.346 HD
ATOM     23  H   UNL A   1      34.478  17.501  25.726  1.00  0.00     0.346 HD
ENDBRANCH  19  20
ENDBRANCH  17  19
ENDBRANCH  14  17
ENDBRANCH   7  13
ENDBRANCH   3   6
ENDBRANCH   1   2
BRANCH   1  24
ATOM     24  C   UNL A   1      37.997  19.911  25.001  1.00  0.00     0.042 C 
BRANCH  24  25
ATOM     25  C   UNL A   1      39.249  20.265  25.781  1.00  0.00     0.118 C 
BRANCH  25  26
ATOM     26  N   UNL A   1      40.247  19.203  25.811  1.00  0.00    -0.352 N 
ATOM     27  C   UNL A   1      41.602  19.206  26.063  1.00  0.00     0.251 C 
ATOM     28  H   UNL A   1      39.883  18.311  25.613  1.00  0.00     0.163 HD
ATOM     29  O   UNL A   1      42.237  18.168  25.922  1.00  0.00    -0.269 OA
BRANCH  27  30
ATOM     30  C   UNL A   1      42.317  20.448  26.447  1.00  0.00     0.039 A 
ATOM     31  C   UNL A   1      42.996  21.167  25.457  1.00  0.00     0.014 A 
ATOM     32  C   UNL A   1      42.342  20.909  27.760  1.00  0.00     0.014 A 
ATOM     33  C   UNL A   1      43.585  22.399  25.765  1.00  0.00     0.010 A 
ATOM     34  C   UNL A   1      42.816  22.187  28.041  1.00  0.00     0.010 A 
ATOM     35  C   UNL A   1      43.433  22.955  27.044  1.00  0.00    -0.014 A 
BRANCH  35  36
ATOM     36  C   UNL A   1      43.875  24.339  27.363  1.00  0.00     0.031 A 
ATOM     37  C   UNL A   1      42.869  25.388  27.757  1.00  0.00     0.074 A 
ATOM     38  C   UNL A   1      45.167  24.682  27.186  1.00  0.00     0.049 A 
ATOM     39  N   UNL A   1      43.038  26.676  27.924  1.00  0.00    -0.248 NA
ATOM     40  C   UNL A   1      41.483  24.936  27.956  1.00  0.00     0.031 C 
ATOM     41  C   UNL A   1      46.234  23.775  26.756  1.00  0.00     0.029 A 
ATOM     42  N   UNL A   1      45.801  25.892  27.328  1.00  0.00    -0.354 N 
ATOM     43  C   UNL A   1      41.781  27.188  28.220  1.00  0.00     0.074 A 
ATOM     44  C   UNL A   1      40.849  26.083  28.156  1.00  0.00     0.031 C 
ATOM     45  C   UNL A   1      47.391  24.453  26.690  1.00  0.00     0.029 A 
ATOM     46  C   UNL A   1      47.141  25.851  27.020  1.00  0.00     0.049 A 
ATOM     47  H   UNL A   1      45.341  26.711  27.621  1.00  0.00     0.167 HD
ATOM     48  C   UNL A   1      41.436  28.458  28.539  1.00  0.00     0.037 A 
ATOM     49  C   UNL A   1      48.063  26.833  26.986  1.00  0.00     0.037 A 
ATOM     50  C   UNL A   1      42.371  29.549  28.636  1.00  0.00     0.049 A 
ATOM     51  C   UNL A   1      47.652  28.239  27.326  1.00  0.00     0.074 A 
ATOM     52  C   UNL A   1      42.133  30.854  29.031  1.00  0.00     0.029 A 
ATOM     53  N   UNL A   1      43.721  29.462  28.331  1.00  0.00    -0.354 N 
ATOM     54  N   UNL A   1      46.473  28.692  27.675  1.00  0.00    -0.248 NA
ATOM     55  C   UNL A   1      48.698  29.269  27.263  1.00  0.00     0.031 C 
ATOM     56  C   UNL A   1      43.328  31.570  28.913  1.00  0.00     0.029 A 
ATOM     57  C   UNL A   1      44.322  30.699  28.495  1.00  0.00     0.049 A 
ATOM     58  H   UNL A   1      44.183  28.642  28.041  1.00  0.00     0.167 HD
ATOM     59  C   UNL A   1      46.638  30.054  27.892  1.00  0.00     0.074 A 
ATOM     60  C   UNL A   1      48.037  30.348  27.655  1.00  0.00     0.031 C 
ATOM     61  C   UNL A   1      45.715  30.977  28.254  1.00  0.00     0.037 A 
BRANCH  48  62
ATOM     62  C   UNL A   1      39.986  28.738  28.815  1.00  0.00     0.057 A 
ATOM     63  C   UNL A   1      39.438  28.613  30.097  1.00  0.00     0.134 A 
ATOM     64  C   UNL A   1      39.136  29.177  27.791  1.00  0.00     0.134 A 
ATOM     65  F   UNL A   1      40.194  28.187  31.121  1.00  0.00    -0.206 F 
ATOM     66  C   UNL A   1      38.093  28.885  30.348  1.00  0.00     0.040 A 
ATOM     67  C   UNL A   1      37.795  29.482  28.035  1.00  0.00     0.040 A 
ATOM     68  F   UNL A   1      39.597  29.328  26.540  1.00  0.00    -0.206 F 
ATOM     69  C   UNL A   1      37.268  29.329  29.316  1.00  0.00     0.006 A 
ENDBRANCH  48  62
BRANCH  49  70
ATOM     70  C   UNL A   1      49.468  26.522  26.616  1.00  0.00     0.057 A 
ATOM     71  C   UNL A   1      50.397  26.128  27.586  1.00  0.00     0.134 A 
ATOM     72  C   UNL A   1      49.918  26.616  25.294  1.00  0.00     0.134 A 
ATOM     73  F   UNL A   1      50.032  26.039  28.873  1.00  0.00    -0.206 F 
ATOM     74  C   UNL A   1      51.727  25.857  27.259  1.00  0.00     0.040 A 
ATOM     75  C   UNL A   1      51.238  26.322  24.947  1.00  0.00     0.040 A 
ATOM     76  F   UNL A   1      49.077  26.980  24.314  1.00  0.00    -0.206 F 
ATOM     77  C   UNL A   1      52.149  25.948  25.934  1.00  0.00     0.006 A 
ENDBRANCH  49  70
BRANCH  61  78
ATOM     78  C   UNL A   1      46.186  32.390  28.431  1.00  0.00     0.057 A 
ATOM     79  C   UNL A   1      46.694  32.849  29.652  1.00  0.00     0.134 A 
ATOM     80  C   UNL A   1      46.183  33.285  27.354  1.00  0.00     0.134 A 
ATOM     81  F   UNL A   1      46.713  32.046  30.727  1.00  0.00    -0.206 F 
ATOM     82  C   UNL A   1      47.167  34.154  29.800  1.00  0.00     0.040 A 
ATOM     83  C   UNL A   1      46.678  34.583  27.481  1.00  0.00     0.040 A 
ATOM     84  F   UNL A   1      45.717  32.905  26.154  1.00  0.00    -0.206 F 
ATOM     85  C   UNL A   1      47.168  35.022  28.710  1.00  0.00     0.006 A 
ENDBRANCH  61  78
ENDBRANCH  35  36
ENDBRANCH  27  30
ENDBRANCH  25  26
ENDBRANCH  24  25
ENDBRANCH   1  24
TORSDOF 14
ENDMDL
MODEL 2
REMARK VINA RESULT:     -11.7      6.745     11.480
REMARK SMILES C[NH2+]C[C@@H](C)C(=O)Nc1ccc(Cl)cc1C(=O)NCCCNC(=O)c1ccc(-c2c3nc(c(-c4c(F)cccc4F)c4ccc([nH]4)c(-c4c(F)cccc4F)c4nc(c(-c5c(F)cccc5F)c5ccc2[nH]5)C=C4)C=C3)cc1
REMARK SMILES IDX 19 1 18 2 16 3 17 4 15 6 9 7 10 8 11 9 14 10 12 11 13 12
REMARK SMILES IDX 8 13 6 14 7 15 4 17 5 18 3 19 2 20 1 21 20 24 21 25 22 26
REMARK SMILES IDX 23 27 24 29 25 30 26 31 78 32 27 33 77 34 28 35 29 36 30 37
REMARK SMILES IDX 71 38 31 39 76 40 70 41 72 42 32 43 75 44 69 45 68 46 33 48
REMARK SMILES IDX 59 49 42 50 58 51 43 52 46 53 57 54 73 55 44 56 45 57 56 59
REMARK SMILES IDX 74 60 47 61 34 62 35 63 40 64 36 65 37 66 39 67 41 68 38 69
REMARK SMILES IDX 60 70 61 71 66 72 62 73 63 74 65 75 67 76 64 77 48 78 49 79
REMARK SMILES IDX 54 80 50 81 51 82 53 83 55 84 52 85
REMARK H PARENT 18 5 8 16 2 22 2 23 22 28 72 47 46 58
REMARK Flexibility Score: inf
ROOT
ATOM      1  C   UNL A   1      31.678  30.471  26.286  1.00  0.00     0.118 C 
ENDROOT
BRANCH   1   2
ATOM      2  N   UNL A   1      32.708  30.042  25.374  1.00  0.00    -0.352 N 
ATOM      3  C   UNL A   1      32.785  28.991  24.499  1.00  0.00     0.253 C 
ATOM      4  O   UNL A   1      33.830  28.939  23.840  1.00  0.00    -0.269 OA
ATOM      5  H   UNL A   1      33.509  30.615  25.381  1.00  0.00     0.163 HD
BRANCH   3   6
ATOM      6  C   UNL A   1      31.773  27.902  24.281  1.00  0.00     0.064 A 
ATOM      7  C   UNL A   1      30.815  27.740  23.260  1.00  0.00     0.054 A 
ATOM      8  C   UNL A   1      30.126  26.520  23.137  1.00  0.00     0.028 A 
ATOM      9  C   UNL A   1      30.240  25.517  24.093  1.00  0.00     0.023 A 
ATOM     10  C   UNL A   1      31.856  26.874  25.252  1.00  0.00     0.036 A 
ATOM     11  C   UNL A   1      31.083  25.715  25.171  1.00  0.00     0.041 A 
ATOM     12  Cl  UNL A   1      31.197  24.511  26.392  1.00  0.00    -0.084 Cl
BRANCH   7  13
ATOM     13  N   UNL A   1      30.538  28.675  22.261  1.00  0.00    -0.325 N 
ATOM     14  C   UNL A   1      29.472  29.540  22.171  1.00  0.00     0.232 C 
ATOM     15  O   UNL A   1      29.431  30.260  21.164  1.00  0.00    -0.274 OA
ATOM     16  H   UNL A   1      31.191  28.722  21.526  1.00  0.00     0.169 HD
BRANCH  14  17
ATOM     17  C   UNL A   1      28.415  29.747  23.283  1.00  0.00     0.130 C 
ATOM     18  C   UNL A   1      27.162  28.872  23.180  1.00  0.00     0.024 C 
BRANCH  17  19
ATOM     19  C   UNL A   1      28.110  31.230  23.521  1.00  0.00     0.273 C 
BRANCH  19  20
ATOM     20  N   UNL A   1      29.252  32.149  23.559  1.00  0.00    -0.348 N 
ATOM     21  C   UNL A   1      28.948  33.473  23.043  1.00  0.00     0.330 C 
ATOM     22  H   UNL A   1      29.559  32.243  24.527  1.00  0.00     0.346 HD
ATOM     23  H   UNL A   1      29.975  31.753  22.959  1.00  0.00     0.346 HD
ENDBRANCH  19  20
ENDBRANCH  17  19
ENDBRANCH  14  17
ENDBRANCH   7  13
ENDBRANCH   3   6
ENDBRANCH   1   2
BRANCH   1  24
ATOM     24  C   UNL A   1      31.527  31.969  26.473  1.00  0.00     0.042 C 
BRANCH  24  25
ATOM     25  C   UNL A   1      32.599  32.616  27.329  1.00  0.00     0.118 C 
BRANCH  25  26
ATOM     26  N   UNL A   1      32.340  34.015  27.646  1.00  0.00    -0.352 N 
ATOM     27  C   UNL A   1      32.967  34.912  28.483  1.00  0.00     0.251 C 
ATOM     28  H   UNL A   1      31.567  34.393  27.169  1.00  0.00     0.163 HD
ATOM     29  O   UNL A   1      32.475  36.022  28.644  1.00  0.00    -0.269 OA
BRANCH  27  30
ATOM     30  C   UNL A   1      34.192  34.545  29.235  1.00  0.00     0.039 A 
ATOM     31  C   UNL A   1      34.056  33.962  30.500  1.00  0.00     0.014 A 
ATOM     32  C   UNL A   1      35.467  34.773  28.725  1.00  0.00     0.014 A 
ATOM     33  C   UNL A   1      35.186  33.503  31.187  1.00  0.00     0.010 A 
ATOM     34  C   UNL A   1      36.577  34.207  29.346  1.00  0.00     0.010 A 
ATOM     35  C   UNL A   1      36.450  33.553  30.579  1.00  0.00    -0.014 A 
BRANCH  35  36
ATOM     36  C   UNL A   1      37.646  32.909  31.186  1.00  0.00     0.031 A 
ATOM     37  C   UNL A   1      38.267  31.698  30.542  1.00  0.00     0.074 A 
ATOM     38  C   UNL A   1      38.103  33.344  32.378  1.00  0.00     0.049 A 
ATOM     39  N   UNL A   1      39.211  30.911  30.997  1.00  0.00    -0.248 NA
ATOM     40  C   UNL A   1      37.733  31.295  29.231  1.00  0.00     0.031 C 
ATOM     41  C   UNL A   1      37.558  34.474  33.134  1.00  0.00     0.029 A 
ATOM     42  N   UNL A   1      39.120  32.875  33.173  1.00  0.00    -0.354 N 
ATOM     43  C   UNL A   1      39.363  29.912  30.042  1.00  0.00     0.074 A 
ATOM     44  C   UNL A   1      38.379  30.159  29.012  1.00  0.00     0.031 C 
ATOM     45  C   UNL A   1      38.258  34.624  34.270  1.00  0.00     0.029 A 
ATOM     46  C   UNL A   1      39.265  33.572  34.350  1.00  0.00     0.049 A 
ATOM     47  H   UNL A   1      39.690  32.112  32.925  1.00  0.00     0.167 HD
ATOM     48  C   UNL A   1      40.257  28.895  30.015  1.00  0.00     0.037 A 
ATOM     49  C   UNL A   1      40.099  33.375  35.389  1.00  0.00     0.037 A 
ATOM     50  C   UNL A   1      41.258  28.672  31.025  1.00  0.00     0.049 A 
ATOM     51  C   UNL A   1      41.070  32.227  35.343  1.00  0.00     0.074 A 
ATOM     52  C   UNL A   1      42.261  27.718  31.047  1.00  0.00     0.029 A 
ATOM     53  N   UNL A   1      41.381  29.410  32.193  1.00  0.00    -0.354 N 
ATOM     54  N   UNL A   1      41.250  31.336  34.400  1.00  0.00    -0.248 NA
ATOM     55  C   UNL A   1      41.949  32.057  36.508  1.00  0.00     0.031 C 
ATOM     56  C   UNL A   1      42.956  27.845  32.254  1.00  0.00     0.029 A 
ATOM     57  C   UNL A   1      42.420  28.910  32.959  1.00  0.00     0.049 A 
ATOM     58  H   UNL A   1      40.812  30.175  32.440  1.00  0.00     0.167 HD
ATOM     59  C   UNL A   1      42.274  30.511  34.847  1.00  0.00     0.074 A 
ATOM     60  C   UNL A   1      42.689  31.022  36.137  1.00  0.00     0.031 C 
ATOM     61  C   UNL A   1      42.821  29.428  34.243  1.00  0.00     0.037 A 
BRANCH  48  62
ATOM     62  C   UNL A   1      40.198  27.948  28.851  1.00  0.00     0.057 A 
ATOM     63  C   UNL A   1      40.888  28.196  27.658  1.00  0.00     0.134 A 
ATOM     64  C   UNL A   1      39.474  26.752  28.939  1.00  0.00     0.134 A 
ATOM     65  F   UNL A   1      41.592  29.328  27.503  1.00  0.00    -0.206 F 
ATOM     66  C   UNL A   1      40.837  27.306  26.584  1.00  0.00     0.040 A 
ATOM     67  C   UNL A   1      39.440  25.838  27.883  1.00  0.00     0.040 A 
ATOM     68  F   UNL A   1      38.797  26.445  30.056  1.00  0.00    -0.206 F 
ATOM     69  C   UNL A   1      40.118  26.118  26.698  1.00  0.00     0.006 A 
ENDBRANCH  48  62
BRANCH  49  70
ATOM     70  C   UNL A   1      40.056  34.285  36.562  1.00  0.00     0.057 A 
ATOM     71  C   UNL A   1      39.223  34.013  37.653  1.00  0.00     0.134 A 
ATOM     72  C   UNL A   1      40.835  35.446  36.622  1.00  0.00     0.134 A 
ATOM     73  F   UNL A   1      38.437  32.926  37.648  1.00  0.00    -0.206 F 
ATOM     74  C   UNL A   1      39.152  34.870  38.753  1.00  0.00     0.040 A 
ATOM     75  C   UNL A   1      40.795  36.299  37.726  1.00  0.00     0.040 A 
ATOM     76  F   UNL A   1      41.662  35.761  35.613  1.00  0.00    -0.206 F 
ATOM     77  C   UNL A   1      39.945  36.015  38.793  1.00  0.00     0.006 A 
ENDBRANCH  49  70
BRANCH  61  78
ATOM     78  C   UNL A   1      43.936  28.729  34.961  1.00  0.00     0.057 A 
ATOM     79  C   UNL A   1      45.271  29.126  34.812  1.00  0.00     0.134 A 
ATOM     80  C   UNL A   1      43.668  27.683  35.853  1.00  0.00     0.134 A 
ATOM     81  F   UNL A   1      45.597  30.112  33.963  1.00  0.00    -0.206 F 
ATOM     82  C   UNL A   1      46.301  28.496  35.513  1.00  0.00     0.040 A 
ATOM     83  C   UNL A   1      44.685  27.064  36.580  1.00  0.00     0.040 A 
ATOM     84  F   UNL A   1      42.410  27.260  36.048  1.00  0.00    -0.206 F 
ATOM     85  C   UNL A   1      46.008  27.468  36.407  1.00  0.00     0.006 A 
ENDBRANCH  61  78
ENDBRANCH  35  36
ENDBRANCH  27  30
ENDBRANCH  25  26
ENDBRANCH  24  25
ENDBRANCH   1  24
TORSDOF 14
ENDMDL
MODEL 3
REMARK VINA RESULT:     -11.7      6.508     10.683
REMARK SMILES C[NH2+]C[C@@H](C)C(=O)Nc1ccc(Cl)cc1C(=O)NCCCNC(=O)c1ccc(-c2c3nc(c(-c4c(F)cccc4F)c4ccc([nH]4)c(-c4c(F)cccc4F)c4nc(c(-c5c(F)cccc5F)c5ccc2[nH]5)C=C4)C=C3)cc1
REMARK SMILES IDX 19 1 18 2 16 3 17 4 15 6 9 7 10 8 11 9 14 10 12 11 13 12
REMARK SMILES IDX 8 13 6 14 7 15 4 17 5 18 3 19 2 20 1 21 20 24 21 25 22 26
REMARK SMILES IDX 23 27 24 29 25 30 26 31 78 32 27 33 77 34 28 35 29 36 30 37
REMARK SMILES IDX 71 38 31 39 76 40 70 41 72 42 32 43 75 44 69 45 68 46 33 48
REMARK SMILES IDX 59 49 42 50 58 51 43 52 46 53 57 54 73 55 44 56 45 57 56 59
REMARK SMILES IDX 74 60 47 61 34 62 35 63 40 64 36 65 37 66 39 67 41 68 38 69
REMARK SMILES IDX 60 70 61 71 66 72 62 73 63 74 65 75 67 76 64 77 48 78 49 79
REMARK SMILES IDX 54 80 50 81 51 82 53 83 55 84 52 85
REMARK H PARENT 18 5 8 16 2 22 2 23 22 28 72 47 46 58
REMARK Flexibility Score: inf
ROOT
ATOM      1  C   UNL A   1      31.532  30.535  26.288  1.00  0.00     0.118 C 
ENDROOT
BRANCH   1   2
ATOM      2  N   UNL A   1      32.600  30.124  25.413  1.00  0.00    -0.352 N 
ATOM      3  C   UNL A   1      32.733  29.064  24.554  1.00  0.00     0.253 C 
ATOM      4  O   UNL A   1      33.799  29.034  23.927  1.00  0.00    -0.269 OA
ATOM      5  H   UNL A   1      33.383  30.720  25.435  1.00  0.00     0.163 HD
BRANCH   3   6
ATOM      6  C   UNL A   1      31.760  27.944  24.321  1.00  0.00     0.064 A 
ATOM      7  C   UNL A   1      30.839  27.739  23.274  1.00  0.00     0.054 A 
ATOM      8  C   UNL A   1      30.190  26.498  23.148  1.00  0.00     0.028 A 
ATOM      9  C   UNL A   1      30.302  25.513  24.123  1.00  0.00     0.023 A 
ATOM     10  C   UNL A   1      31.841  26.932  25.311  1.00  0.00     0.036 A 
ATOM     11  C   UNL A   1      31.104  25.750  25.224  1.00  0.00     0.041 A 
ATOM     12  Cl  UNL A   1      31.213  24.569  26.466  1.00  0.00    -0.084 Cl
BRANCH   7  13
ATOM     13  N   UNL A   1      30.568  28.651  22.253  1.00  0.00    -0.325 N 
ATOM     14  C   UNL A   1      29.498  29.508  22.132  1.00  0.00     0.232 C 
ATOM     15  O   UNL A   1      29.463  30.206  21.111  1.00  0.00    -0.274 OA
ATOM     16  H   UNL A   1      31.228  28.687  21.524  1.00  0.00     0.169 HD
BRANCH  14  17
ATOM     17  C   UNL A   1      28.428  29.732  23.229  1.00  0.00     0.130 C 
ATOM     18  C   UNL A   1      27.198  28.823  23.152  1.00  0.00     0.024 C 
BRANCH  17  19
ATOM     19  C   UNL A   1      28.085  31.215  23.407  1.00  0.00     0.273 C 
BRANCH  19  20
ATOM     20  N   UNL A   1      29.204  32.139  23.615  1.00  0.00    -0.348 N 
ATOM     21  C   UNL A   1      28.967  33.468  23.076  1.00  0.00     0.330 C 
ATOM     22  H   UNL A   1      29.372  32.222  24.617  1.00  0.00     0.346 HD
ATOM     23  H   UNL A   1      30.007  31.754  23.117  1.00  0.00     0.346 HD
ENDBRANCH  19  20
ENDBRANCH  17  19
ENDBRANCH  14  17
ENDBRANCH   7  13
ENDBRANCH   3   6
ENDBRANCH   1   2
BRANCH   1  24
ATOM     24  C   UNL A   1      31.394  32.026  26.528  1.00  0.00     0.042 C 
BRANCH  24  25
ATOM     25  C   UNL A   1      32.606  32.685  27.157  1.00  0.00     0.118 C 
BRANCH  25  26
ATOM     26  N   UNL A   1      32.373  34.054  27.600  1.00  0.00    -0.352 N 
ATOM     27  C   UNL A   1      33.007  34.854  28.527  1.00  0.00     0.251 C 
ATOM     28  H   UNL A   1      31.615  34.493  27.151  1.00  0.00     0.163 HD
ATOM     29  O   UNL A   1      32.536  35.954  28.784  1.00  0.00    -0.269 OA
BRANCH  27  30
ATOM     30  C   UNL A   1      34.211  34.389  29.256  1.00  0.00     0.039 A 
ATOM     31  C   UNL A   1      34.051  33.808  30.520  1.00  0.00     0.014 A 
ATOM     32  C   UNL A   1      35.492  34.526  28.729  1.00  0.00     0.014 A 
ATOM     33  C   UNL A   1      35.153  33.260  31.185  1.00  0.00     0.010 A 
ATOM     34  C   UNL A   1      36.565  33.873  29.328  1.00  0.00     0.010 A 
ATOM     35  C   UNL A   1      36.408  33.220  30.558  1.00  0.00    -0.014 A 
BRANCH  35  36
ATOM     36  C   UNL A   1      37.561  32.483  31.142  1.00  0.00     0.031 A 
ATOM     37  C   UNL A   1      38.251  33.001  32.375  1.00  0.00     0.074 A 
ATOM     38  C   UNL A   1      38.059  31.409  30.495  1.00  0.00     0.049 A 
ATOM     39  N   UNL A   1      39.358  32.587  32.940  1.00  0.00    -0.248 NA
ATOM     40  C   UNL A   1      37.638  34.161  33.041  1.00  0.00     0.031 C 
ATOM     41  C   UNL A   1      37.518  30.834  29.261  1.00  0.00     0.029 A 
ATOM     42  N   UNL A   1      39.146  30.618  30.776  1.00  0.00    -0.354 N 
ATOM     43  C   UNL A   1      39.583  33.448  34.007  1.00  0.00     0.074 A 
ATOM     44  C   UNL A   1      38.531  34.440  33.979  1.00  0.00     0.031 C 
ATOM     45  C   UNL A   1      38.259  29.774  28.905  1.00  0.00     0.029 A 
ATOM     46  C   UNL A   1      39.359  29.624  29.850  1.00  0.00     0.049 A 
ATOM     47  H   UNL A   1      39.721  30.752  31.564  1.00  0.00     0.167 HD
ATOM     48  C   UNL A   1      40.564  33.403  34.941  1.00  0.00     0.037 A 
ATOM     49  C   UNL A   1      40.340  28.706  29.758  1.00  0.00     0.037 A 
ATOM     50  C   UNL A   1      41.589  32.393  34.987  1.00  0.00     0.049 A 
ATOM     51  C   UNL A   1      41.428  28.688  30.796  1.00  0.00     0.074 A 
ATOM     52  C   UNL A   1      42.579  32.215  35.938  1.00  0.00     0.029 A 
ATOM     53  N   UNL A   1      41.759  31.395  34.039  1.00  0.00    -0.354 N 
ATOM     54  N   UNL A   1      41.586  29.464  31.840  1.00  0.00    -0.248 NA
ATOM     55  C   UNL A   1      42.476  27.670  30.640  1.00  0.00     0.031 C 
ATOM     56  C   UNL A   1      43.380  31.141  35.538  1.00  0.00     0.029 A 
ATOM     57  C   UNL A   1      42.859  30.619  34.365  1.00  0.00     0.049 A 
ATOM     58  H   UNL A   1      41.183  31.260  33.252  1.00  0.00     0.167 HD
ATOM     59  C   UNL A   1      42.736  29.018  32.476  1.00  0.00     0.074 A 
ATOM     60  C   UNL A   1      43.226  27.889  31.711  1.00  0.00     0.031 C 
ATOM     61  C   UNL A   1      43.335  29.499  33.592  1.00  0.00     0.037 A 
BRANCH  48  62
ATOM     62  C   UNL A   1      40.572  34.473  35.994  1.00  0.00     0.057 A 
ATOM     63  C   UNL A   1      39.854  34.341  37.190  1.00  0.00     0.134 A 
ATOM     64  C   UNL A   1      41.339  35.634  35.829  1.00  0.00     0.134 A 
ATOM     65  F   UNL A   1      39.091  33.260  37.409  1.00  0.00    -0.206 F 
ATOM     66  C   UNL A   1      39.875  35.335  38.169  1.00  0.00     0.040 A 
ATOM     67  C   UNL A   1      41.392  36.622  36.814  1.00  0.00     0.040 A 
ATOM     68  F   UNL A   1      42.058  35.822  34.712  1.00  0.00    -0.206 F 
ATOM     69  C   UNL A   1      40.652  36.477  37.986  1.00  0.00     0.006 A 
ENDBRANCH  48  62
BRANCH  49  70
ATOM     70  C   UNL A   1      40.341  27.725  28.642  1.00  0.00     0.057 A 
ATOM     71  C   UNL A   1      41.043  27.982  27.459  1.00  0.00     0.134 A 
ATOM     72  C   UNL A   1      39.640  26.516  28.725  1.00  0.00     0.134 A 
ATOM     73  F   UNL A   1      41.718  29.131  27.311  1.00  0.00    -0.206 F 
ATOM     74  C   UNL A   1      41.034  27.082  26.392  1.00  0.00     0.040 A 
ATOM     75  C   UNL A   1      39.643  25.594  27.677  1.00  0.00     0.040 A 
ATOM     76  F   UNL A   1      38.953  26.205  29.835  1.00  0.00    -0.206 F 
ATOM     77  C   UNL A   1      40.336  25.881  26.502  1.00  0.00     0.006 A 
ENDBRANCH  49  70
BRANCH  61  78
ATOM     78  C   UNL A   1      44.576  28.802  34.064  1.00  0.00     0.057 A 
ATOM     79  C   UNL A   1      45.852  29.231  33.679  1.00  0.00     0.134 A 
ATOM     80  C   UNL A   1      44.497  27.725  34.954  1.00  0.00     0.134 A 
ATOM     81  F   UNL A   1      45.997  30.249  32.818  1.00  0.00    -0.206 F 
ATOM     82  C   UNL A   1      47.006  28.602  34.152  1.00  0.00     0.040 A 
ATOM     83  C   UNL A   1      45.642  27.105  35.455  1.00  0.00     0.040 A 
ATOM     84  F   UNL A   1      43.304  27.269  35.368  1.00  0.00    -0.206 F 
ATOM     85  C   UNL A   1      46.902  27.542  35.050  1.00  0.00     0.006 A 
ENDBRANCH  61  78
ENDBRANCH  35  36
ENDBRANCH  27  30
ENDBRANCH  25  26
ENDBRANCH  24  25
ENDBRANCH   1  24
TORSDOF 14
ENDMDL
