MODEL 1
REMARK VINA RESULT:     -11.9      0.000      0.000
REMARK SMILES Cc1nonc1C[C@@]1(C(=O)NCCCNC(=O)c2ccc(-c3c4nc(c(-c5c(F)cccc5F)c5ccc([nH]5)c(-c5c(F)cccc5F)c5nc(c(-c6c(F)cccc6F)c6ccc3[nH]6)C=C5)C=C4)cc2)CCC[NH2+]C1
REMARK SMILES IDX 13 1 12 2 11 3 9 4 10 5 8 7 72 8 76 9 73 10 75 11 74 12 7 15
REMARK SMILES IDX 6 16 1 17 2 18 3 19 4 20 5 21 14 22 15 23 16 24 17 26 18 27
REMARK SMILES IDX 19 28 71 29 20 30 70 31 21 32 22 33 23 34 64 35 24 36 69 37
REMARK SMILES IDX 63 38 65 39 25 40 68 41 62 42 61 43 26 45 52 46 35 47 51 48
REMARK SMILES IDX 36 49 39 50 50 51 66 52 37 53 38 54 49 56 67 57 40 58 27 59
REMARK SMILES IDX 28 60 33 61 29 62 30 63 32 64 34 65 31 66 53 67 54 68 59 69
REMARK SMILES IDX 55 70 56 71 58 72 60 73 57 74 41 75 42 76 47 77 43 78 44 79
REMARK SMILES IDX 46 80 48 81 45 82
REMARK H PARENT 11 6 75 13 75 14 15 25 65 44 39 55
REMARK Flexibility Score: inf
ROOT
ATOM      1  C   UNL A   1      31.477  32.167  26.516  1.00  0.00     0.042 C 
ENDROOT
BRANCH   1   2
ATOM      2  C   UNL A   1      31.689  30.700  26.165  1.00  0.00     0.117 C 
BRANCH   2   3
ATOM      3  N   UNL A   1      31.046  30.360  24.913  1.00  0.00    -0.355 N 
ATOM      4  C   UNL A   1      31.061  29.269  24.106  1.00  0.00     0.232 C 
ATOM      5  O   UNL A   1      30.451  29.416  23.041  1.00  0.00    -0.274 OA
ATOM      6  H   UNL A   1      30.469  31.080  24.571  1.00  0.00     0.163 HD
BRANCH   4   7
ATOM      7  C   UNL A   1      31.772  27.947  24.466  1.00  0.00     0.104 C 
ATOM      8  C   UNL A   1      33.316  28.126  24.322  1.00  0.00     0.029 C 
ATOM      9  C   UNL A   1      31.355  26.814  23.485  1.00  0.00     0.277 C 
ATOM     10  C   UNL A   1      33.781  28.238  22.866  1.00  0.00     0.063 C 
ATOM     11  N   UNL A   1      31.780  27.022  22.102  1.00  0.00    -0.345 N 
ATOM     12  C   UNL A   1      33.235  27.107  22.004  1.00  0.00     0.260 C 
ATOM     13  H   UNL A   1      31.454  26.241  21.532  1.00  0.00     0.346 HD
ATOM     14  H   UNL A   1      31.383  27.900  21.769  1.00  0.00     0.346 HD
BRANCH   7  15
ATOM     15  C   UNL A   1      31.445  27.480  25.913  1.00  0.00     0.085 C 
BRANCH  15  16
ATOM     16  C   UNL A   1      31.174  26.034  26.168  1.00  0.00     0.109 A 
ATOM     17  C   UNL A   1      33.553  24.936  26.004  1.00  0.00     0.073 C 
ATOM     18  C   UNL A   1      32.090  24.958  26.211  1.00  0.00     0.105 A 
ATOM     19  N   UNL A   1      31.442  23.830  26.502  1.00  0.00    -0.055 NA
ATOM     20  O   UNL A   1      30.114  24.208  26.660  1.00  0.00    -0.244 OA
ATOM     21  N   UNL A   1      29.959  25.575  26.472  1.00  0.00    -0.055 NA
ENDBRANCH  15  16
ENDBRANCH   7  15
ENDBRANCH   4   7
ENDBRANCH   2   3
ENDBRANCH   1   2
BRANCH   1  22
ATOM     22  C   UNL A   1      32.641  32.797  27.273  1.00  0.00     0.118 C 
BRANCH  22  23
ATOM     23  N   UNL A   1      32.392  34.188  27.622  1.00  0.00    -0.352 N 
ATOM     24  C   UNL A   1      32.975  34.972  28.586  1.00  0.00     0.251 C 
ATOM     25  H   UNL A   1      31.698  34.636  27.085  1.00  0.00     0.163 HD
ATOM     26  O   UNL A   1      32.492  36.071  28.854  1.00  0.00    -0.269 OA
BRANCH  24  27
ATOM     27  C   UNL A   1      34.164  34.493  29.322  1.00  0.00     0.039 A 
ATOM     28  C   UNL A   1      33.992  33.948  30.598  1.00  0.00     0.014 A 
ATOM     29  C   UNL A   1      35.444  34.587  28.770  1.00  0.00     0.014 A 
ATOM     30  C   UNL A   1      35.093  33.434  31.286  1.00  0.00     0.010 A 
ATOM     31  C   UNL A   1      36.525  33.996  29.417  1.00  0.00     0.010 A 
ATOM     32  C   UNL A   1      36.362  33.415  30.684  1.00  0.00    -0.014 A 
BRANCH  32  33
ATOM     33  C   UNL A   1      37.526  32.787  31.360  1.00  0.00     0.031 A 
ATOM     34  C   UNL A   1      38.196  31.584  30.757  1.00  0.00     0.074 A 
ATOM     35  C   UNL A   1      37.940  33.264  32.550  1.00  0.00     0.049 A 
ATOM     36  N   UNL A   1      39.182  30.862  31.230  1.00  0.00    -0.248 NA
ATOM     37  C   UNL A   1      37.674  31.111  29.465  1.00  0.00     0.031 C 
ATOM     38  C   UNL A   1      37.345  34.396  33.263  1.00  0.00     0.029 A 
ATOM     39  N   UNL A   1      38.954  32.850  33.377  1.00  0.00    -0.354 N 
ATOM     40  C   UNL A   1      39.386  29.848  30.304  1.00  0.00     0.074 A 
ATOM     41  C   UNL A   1      38.389  30.013  29.270  1.00  0.00     0.031 C 
ATOM     42  C   UNL A   1      38.018  34.600  34.406  1.00  0.00     0.029 A 
ATOM     43  C   UNL A   1      39.064  33.589  34.530  1.00  0.00     0.049 A 
ATOM     44  H   UNL A   1      39.548  32.094  33.164  1.00  0.00     0.167 HD
ATOM     45  C   UNL A   1      40.334  28.881  30.302  1.00  0.00     0.037 A 
ATOM     46  C   UNL A   1      39.904  33.462  35.574  1.00  0.00     0.037 A 
ATOM     47  C   UNL A   1      41.337  28.730  31.324  1.00  0.00     0.049 A 
ATOM     48  C   UNL A   1      40.937  32.369  35.556  1.00  0.00     0.074 A 
ATOM     49  C   UNL A   1      42.376  27.817  31.383  1.00  0.00     0.029 A 
ATOM     50  N   UNL A   1      41.421  29.506  32.470  1.00  0.00    -0.354 N 
ATOM     51  N   UNL A   1      41.166  31.462  34.638  1.00  0.00    -0.248 NA
ATOM     52  C   UNL A   1      41.833  32.287  36.718  1.00  0.00     0.031 C 
ATOM     53  C   UNL A   1      43.058  28.009  32.589  1.00  0.00     0.029 A 
ATOM     54  C   UNL A   1      42.480  29.078  33.255  1.00  0.00     0.049 A 
ATOM     55  H   UNL A   1      40.818  30.251  32.693  1.00  0.00     0.167 HD
ATOM     56  C   UNL A   1      42.248  30.722  35.095  1.00  0.00     0.074 A 
ATOM     57  C   UNL A   1      42.640  31.295  36.366  1.00  0.00     0.031 C 
ATOM     58  C   UNL A   1      42.863  29.662  34.515  1.00  0.00     0.037 A 
BRANCH  45  59
ATOM     59  C   UNL A   1      40.331  27.909  29.156  1.00  0.00     0.057 A 
ATOM     60  C   UNL A   1      39.538  26.754  29.168  1.00  0.00     0.134 A 
ATOM     61  C   UNL A   1      41.103  28.149  28.012  1.00  0.00     0.134 A 
ATOM     62  F   UNL A   1      38.782  26.459  30.237  1.00  0.00    -0.206 F 
ATOM     63  C   UNL A   1      39.533  25.859  28.097  1.00  0.00     0.040 A 
ATOM     64  C   UNL A   1      41.084  27.276  26.923  1.00  0.00     0.040 A 
ATOM     65  F   UNL A   1      41.880  29.239  27.930  1.00  0.00    -0.206 F 
ATOM     66  C   UNL A   1      40.303  26.124  26.965  1.00  0.00     0.006 A 
ENDBRANCH  45  59
BRANCH  46  67
ATOM     67  C   UNL A   1      39.817  34.404  36.718  1.00  0.00     0.057 A 
ATOM     68  C   UNL A   1      40.456  35.649  36.678  1.00  0.00     0.134 A 
ATOM     69  C   UNL A   1      39.106  34.082  37.881  1.00  0.00     0.134 A 
ATOM     70  F   UNL A   1      41.167  36.009  35.600  1.00  0.00    -0.206 F 
ATOM     71  C   UNL A   1      40.409  36.531  37.760  1.00  0.00     0.040 A 
ATOM     72  C   UNL A   1      39.029  34.965  38.959  1.00  0.00     0.040 A 
ATOM     73  F   UNL A   1      38.464  32.909  37.979  1.00  0.00    -0.206 F 
ATOM     74  C   UNL A   1      39.690  36.190  38.904  1.00  0.00     0.006 A 
ENDBRANCH  46  67
BRANCH  58  75
ATOM     75  C   UNL A   1      44.048  29.078  35.228  1.00  0.00     0.057 A 
ATOM     76  C   UNL A   1      45.354  29.519  34.982  1.00  0.00     0.134 A 
ATOM     77  C   UNL A   1      43.873  28.088  36.204  1.00  0.00     0.134 A 
ATOM     78  F   UNL A   1      45.593  30.455  34.051  1.00  0.00    -0.206 F 
ATOM     79  C   UNL A   1      46.447  28.977  35.662  1.00  0.00     0.040 A 
ATOM     80  C   UNL A   1      44.954  27.560  36.911  1.00  0.00     0.040 A 
ATOM     81  F   UNL A   1      42.647  27.628  36.496  1.00  0.00    -0.206 F 
ATOM     82  C   UNL A   1      46.247  28.000  36.635  1.00  0.00     0.006 A 
ENDBRANCH  58  75
ENDBRANCH  32  33
ENDBRANCH  24  27
ENDBRANCH  22  23
ENDBRANCH   1  22
TORSDOF 12
ENDMDL
MODEL 2
REMARK VINA RESULT:     -11.9      5.635     10.031
REMARK SMILES Cc1nonc1C[C@@]1(C(=O)NCCCNC(=O)c2ccc(-c3c4nc(c(-c5c(F)cccc5F)c5ccc([nH]5)c(-c5c(F)cccc5F)c5nc(c(-c6c(F)cccc6F)c6ccc3[nH]6)C=C5)C=C4)cc2)CCC[NH2+]C1
REMARK SMILES IDX 13 1 12 2 11 3 9 4 10 5 8 7 72 8 76 9 73 10 75 11 74 12 7 15
REMARK SMILES IDX 6 16 1 17 2 18 3 19 4 20 5 21 14 22 15 23 16 24 17 26 18 27
REMARK SMILES IDX 19 28 71 29 20 30 70 31 21 32 22 33 23 34 64 35 24 36 69 37
REMARK SMILES IDX 63 38 65 39 25 40 68 41 62 42 61 43 26 45 52 46 35 47 51 48
REMARK SMILES IDX 36 49 39 50 50 51 66 52 37 53 38 54 49 56 67 57 40 58 27 59
REMARK SMILES IDX 28 60 33 61 29 62 30 63 32 64 34 65 31 66 53 67 54 68 59 69
REMARK SMILES IDX 55 70 56 71 58 72 60 73 57 74 41 75 42 76 47 77 43 78 44 79
REMARK SMILES IDX 46 80 48 81 45 82
REMARK H PARENT 11 6 75 13 75 14 15 25 65 44 39 55
REMARK Flexibility Score: inf
ROOT
ATOM      1  C   UNL A   1      38.044  19.584  25.000  1.00  0.00     0.042 C 
ENDROOT
BRANCH   1   2
ATOM      2  C   UNL A   1      36.940  20.630  24.912  1.00  0.00     0.117 C 
BRANCH   2   3
ATOM      3  N   UNL A   1      35.630  20.022  25.002  1.00  0.00    -0.355 N 
ATOM      4  C   UNL A   1      34.362  20.505  25.057  1.00  0.00     0.232 C 
ATOM      5  O   UNL A   1      33.497  19.643  25.248  1.00  0.00    -0.274 OA
ATOM      6  H   UNL A   1      35.665  19.039  25.028  1.00  0.00     0.163 HD
BRANCH   4   7
ATOM      7  C   UNL A   1      34.007  21.999  24.898  1.00  0.00     0.104 C 
ATOM      8  C   UNL A   1      34.361  22.765  26.212  1.00  0.00     0.029 C 
ATOM      9  C   UNL A   1      32.479  22.180  24.667  1.00  0.00     0.277 C 
ATOM     10  C   UNL A   1      33.420  22.437  27.377  1.00  0.00     0.063 C 
ATOM     11  N   UNL A   1      31.644  21.787  25.801  1.00  0.00    -0.345 N 
ATOM     12  C   UNL A   1      31.956  22.580  26.986  1.00  0.00     0.260 C 
ATOM     13  H   UNL A   1      30.664  21.926  25.556  1.00  0.00     0.346 HD
ATOM     14  H   UNL A   1      31.825  20.806  26.012  1.00  0.00     0.346 HD
BRANCH   7  15
ATOM     15  C   UNL A   1      34.759  22.657  23.706  1.00  0.00     0.085 C 
BRANCH  15  16
ATOM     16  C   UNL A   1      34.051  23.671  22.868  1.00  0.00     0.109 A 
ATOM     17  C   UNL A   1      34.028  25.805  24.397  1.00  0.00     0.073 C 
ATOM     18  C   UNL A   1      33.753  25.017  23.178  1.00  0.00     0.105 A 
ATOM     19  N   UNL A   1      33.138  25.588  22.141  1.00  0.00    -0.055 NA
ATOM     20  O   UNL A   1      33.069  24.595  21.171  1.00  0.00    -0.244 OA
ATOM     21  N   UNL A   1      33.652  23.418  21.621  1.00  0.00    -0.055 NA
ENDBRANCH  15  16
ENDBRANCH   7  15
ENDBRANCH   4   7
ENDBRANCH   2   3
ENDBRANCH   1   2
BRANCH   1  22
ATOM     22  C   UNL A   1      39.132  19.917  26.015  1.00  0.00     0.118 C 
BRANCH  22  23
ATOM     23  N   UNL A   1      40.236  18.969  25.980  1.00  0.00    -0.352 N 
ATOM     24  C   UNL A   1      41.589  19.189  26.051  1.00  0.00     0.251 C 
ATOM     25  H   UNL A   1      39.973  18.024  25.892  1.00  0.00     0.163 HD
ATOM     26  O   UNL A   1      42.370  18.271  25.811  1.00  0.00    -0.269 OA
BRANCH  24  27
ATOM     27  C   UNL A   1      42.112  20.530  26.387  1.00  0.00     0.039 A 
ATOM     28  C   UNL A   1      42.446  21.403  25.348  1.00  0.00     0.014 A 
ATOM     29  C   UNL A   1      42.286  20.928  27.715  1.00  0.00     0.014 A 
ATOM     30  C   UNL A   1      42.884  22.696  25.642  1.00  0.00     0.010 A 
ATOM     31  C   UNL A   1      42.637  22.242  28.006  1.00  0.00     0.010 A 
ATOM     32  C   UNL A   1      42.944  23.140  26.973  1.00  0.00    -0.014 A 
BRANCH  32  33
ATOM     33  C   UNL A   1      43.316  24.540  27.303  1.00  0.00     0.031 A 
ATOM     34  C   UNL A   1      44.754  24.976  27.254  1.00  0.00     0.074 A 
ATOM     35  C   UNL A   1      42.363  25.403  27.709  1.00  0.00     0.049 A 
ATOM     36  N   UNL A   1      45.278  26.134  27.568  1.00  0.00    -0.248 NA
ATOM     37  C   UNL A   1      45.737  23.970  26.820  1.00  0.00     0.031 C 
ATOM     38  C   UNL A   1      40.939  25.090  27.845  1.00  0.00     0.029 A 
ATOM     39  N   UNL A   1      42.451  26.717  28.093  1.00  0.00    -0.354 N 
ATOM     40  C   UNL A   1      46.647  25.992  27.382  1.00  0.00     0.074 A 
ATOM     41  C   UNL A   1      46.879  24.621  26.982  1.00  0.00     0.031 C 
ATOM     42  C   UNL A   1      40.285  26.187  28.258  1.00  0.00     0.029 A 
ATOM     43  C   UNL A   1      41.246  27.268  28.457  1.00  0.00     0.049 A 
ATOM     44  H   UNL A   1      43.297  27.219  28.106  1.00  0.00     0.167 HD
ATOM     45  C   UNL A   1      47.621  26.924  27.510  1.00  0.00     0.037 A 
ATOM     46  C   UNL A   1      40.949  28.500  28.911  1.00  0.00     0.037 A 
ATOM     47  C   UNL A   1      47.385  28.293  27.892  1.00  0.00     0.049 A 
ATOM     48  C   UNL A   1      42.050  29.512  29.061  1.00  0.00     0.074 A 
ATOM     49  C   UNL A   1      48.298  29.328  27.993  1.00  0.00     0.029 A 
ATOM     50  N   UNL A   1      46.148  28.814  28.242  1.00  0.00    -0.354 N 
ATOM     51  N   UNL A   1      43.330  29.385  28.811  1.00  0.00    -0.248 NA
ATOM     52  C   UNL A   1      41.663  30.843  29.549  1.00  0.00     0.031 C 
ATOM     53  C   UNL A   1      47.622  30.463  28.454  1.00  0.00     0.029 A 
ATOM     54  C   UNL A   1      46.278  30.150  28.584  1.00  0.00     0.049 A 
ATOM     55  H   UNL A   1      45.303  28.309  28.246  1.00  0.00     0.167 HD
ATOM     56  C   UNL A   1      43.896  30.624  29.083  1.00  0.00     0.074 A 
ATOM     57  C   UNL A   1      42.818  31.493  29.502  1.00  0.00     0.031 C 
ATOM     58  C   UNL A   1      45.194  31.007  28.993  1.00  0.00     0.037 A 
BRANCH  45  59
ATOM     59  C   UNL A   1      49.034  26.494  27.234  1.00  0.00     0.057 A 
ATOM     60  C   UNL A   1      49.879  26.034  28.253  1.00  0.00     0.134 A 
ATOM     61  C   UNL A   1      49.543  26.506  25.930  1.00  0.00     0.134 A 
ATOM     62  F   UNL A   1      49.457  26.005  29.526  1.00  0.00    -0.206 F 
ATOM     63  C   UNL A   1      51.189  25.628  27.989  1.00  0.00     0.040 A 
ATOM     64  C   UNL A   1      50.841  26.076  25.649  1.00  0.00     0.040 A 
ATOM     65  F   UNL A   1      48.787  26.928  24.905  1.00  0.00    -0.206 F 
ATOM     66  C   UNL A   1      51.671  25.641  26.681  1.00  0.00     0.006 A 
ENDBRANCH  45  59
BRANCH  46  67
ATOM     67  C   UNL A   1      39.544  28.852  29.241  1.00  0.00     0.057 A 
ATOM     68  C   UNL A   1      39.039  28.672  30.534  1.00  0.00     0.134 A 
ATOM     69  C   UNL A   1      38.671  29.366  28.274  1.00  0.00     0.134 A 
ATOM     70  F   UNL A   1      39.821  28.167  31.500  1.00  0.00    -0.206 F 
ATOM     71  C   UNL A   1      37.711  28.968  30.849  1.00  0.00     0.040 A 
ATOM     72  C   UNL A   1      37.349  29.691  28.582  1.00  0.00     0.040 A 
ATOM     73  F   UNL A   1      39.096  29.571  27.018  1.00  0.00    -0.206 F 
ATOM     74  C   UNL A   1      36.863  29.483  29.870  1.00  0.00     0.006 A 
ENDBRANCH  46  67
BRANCH  58  75
ATOM     75  C   UNL A   1      45.513  32.438  29.316  1.00  0.00     0.057 A 
ATOM     76  C   UNL A   1      45.921  32.837  30.595  1.00  0.00     0.134 A 
ATOM     77  C   UNL A   1      45.448  33.423  28.321  1.00  0.00     0.134 A 
ATOM     78  F   UNL A   1      45.991  31.947  31.596  1.00  0.00    -0.206 F 
ATOM     79  C   UNL A   1      46.228  34.169  30.880  1.00  0.00     0.040 A 
ATOM     80  C   UNL A   1      45.781  34.752  28.586  1.00  0.00     0.040 A 
ATOM     81  F   UNL A   1      45.074  33.106  27.073  1.00  0.00    -0.206 F 
ATOM     82  C   UNL A   1      46.165  35.129  29.871  1.00  0.00     0.006 A 
ENDBRANCH  58  75
ENDBRANCH  32  33
ENDBRANCH  24  27
ENDBRANCH  22  23
ENDBRANCH   1  22
TORSDOF 12
ENDMDL
MODEL 3
REMARK VINA RESULT:     -11.9      5.829     10.929
REMARK SMILES Cc1nonc1C[C@@]1(C(=O)NCCCNC(=O)c2ccc(-c3c4nc(c(-c5c(F)cccc5F)c5ccc([nH]5)c(-c5c(F)cccc5F)c5nc(c(-c6c(F)cccc6F)c6ccc3[nH]6)C=C5)C=C4)cc2)CCC[NH2+]C1
REMARK SMILES IDX 13 1 12 2 11 3 9 4 10 5 8 7 72 8 76 9 73 10 75 11 74 12 7 15
REMARK SMILES IDX 6 16 1 17 2 18 3 19 4 20 5 21 14 22 15 23 16 24 17 26 18 27
REMARK SMILES IDX 19 28 71 29 20 30 70 31 21 32 22 33 23 34 64 35 24 36 69 37
REMARK SMILES IDX 63 38 65 39 25 40 68 41 62 42 61 43 26 45 52 46 35 47 51 48
REMARK SMILES IDX 36 49 39 50 50 51 66 52 37 53 38 54 49 56 67 57 40 58 27 59
REMARK SMILES IDX 28 60 33 61 29 62 30 63 32 64 34 65 31 66 53 67 54 68 59 69
REMARK SMILES IDX 55 70 56 71 58 72 60 73 57 74 41 75 42 76 47 77 43 78 44 79
REMARK SMILES IDX 46 80 48 81 45 82
REMARK H PARENT 11 6 75 13 75 14 15 25 65 44 39 55
REMARK Flexibility Score: inf
ROOT
ATOM      1  C   UNL A   1      37.960  19.692  25.003  1.00  0.00     0.042 C 
ENDROOT
BRANCH   1   2
ATOM      2  C   UNL A   1      36.852  20.734  24.924  1.00  0.00     0.117 C 
BRANCH   2   3
ATOM      3  N   UNL A   1      35.544  20.118  25.005  1.00  0.00    -0.355 N 
ATOM      4  C   UNL A   1      34.273  20.594  25.048  1.00  0.00     0.232 C 
ATOM      5  O   UNL A   1      33.412  19.727  25.234  1.00  0.00    -0.274 OA
ATOM      6  H   UNL A   1      35.585  19.135  25.034  1.00  0.00     0.163 HD
BRANCH   4   7
ATOM      7  C   UNL A   1      33.911  22.085  24.883  1.00  0.00     0.104 C 
ATOM      8  C   UNL A   1      34.206  22.847  26.214  1.00  0.00     0.029 C 
ATOM      9  C   UNL A   1      32.392  22.253  24.592  1.00  0.00     0.277 C 
ATOM     10  C   UNL A   1      33.223  22.505  27.339  1.00  0.00     0.063 C 
ATOM     11  N   UNL A   1      31.516  21.846  25.691  1.00  0.00    -0.345 N 
ATOM     12  C   UNL A   1      31.774  22.637  26.891  1.00  0.00     0.260 C 
ATOM     13  H   UNL A   1      30.545  21.978  25.408  1.00  0.00     0.346 HD
ATOM     14  H   UNL A   1      31.698  20.866  25.904  1.00  0.00     0.346 HD
BRANCH   7  15
ATOM     15  C   UNL A   1      34.703  22.756  23.724  1.00  0.00     0.085 C 
BRANCH  15  16
ATOM     16  C   UNL A   1      34.025  23.783  22.877  1.00  0.00     0.109 A 
ATOM     17  C   UNL A   1      34.029  25.920  24.402  1.00  0.00     0.073 C 
ATOM     18  C   UNL A   1      33.751  25.136  23.181  1.00  0.00     0.105 A 
ATOM     19  N   UNL A   1      33.159  25.717  22.136  1.00  0.00    -0.055 NA
ATOM     20  O   UNL A   1      33.081  24.723  21.168  1.00  0.00    -0.244 OA
ATOM     21  N   UNL A   1      33.635  23.536  21.626  1.00  0.00    -0.055 NA
ENDBRANCH  15  16
ENDBRANCH   7  15
ENDBRANCH   4   7
ENDBRANCH   2   3
ENDBRANCH   1   2
BRANCH   1  22
ATOM     22  C   UNL A   1      39.203  20.167  25.747  1.00  0.00     0.118 C 
BRANCH  22  23
ATOM     23  N   UNL A   1      40.196  19.113  25.904  1.00  0.00    -0.352 N 
ATOM     24  C   UNL A   1      41.548  19.202  26.121  1.00  0.00     0.251 C 
ATOM     25  H   UNL A   1      39.844  18.195  25.846  1.00  0.00     0.163 HD
ATOM     26  O   UNL A   1      42.248  18.195  26.034  1.00  0.00    -0.269 OA
BRANCH  24  27
ATOM     27  C   UNL A   1      42.172  20.506  26.431  1.00  0.00     0.039 A 
ATOM     28  C   UNL A   1      42.671  21.281  25.381  1.00  0.00     0.014 A 
ATOM     29  C   UNL A   1      42.278  20.963  27.748  1.00  0.00     0.014 A 
ATOM     30  C   UNL A   1      43.209  22.543  25.645  1.00  0.00     0.010 A 
ATOM     31  C   UNL A   1      42.733  22.253  28.000  1.00  0.00     0.010 A 
ATOM     32  C   UNL A   1      43.207  23.057  26.952  1.00  0.00    -0.014 A 
BRANCH  32  33
ATOM     33  C   UNL A   1      43.687  24.432  27.240  1.00  0.00     0.031 A 
ATOM     34  C   UNL A   1      42.716  25.507  27.643  1.00  0.00     0.074 A 
ATOM     35  C   UNL A   1      44.992  24.729  27.076  1.00  0.00     0.049 A 
ATOM     36  N   UNL A   1      42.937  26.778  27.872  1.00  0.00    -0.248 NA
ATOM     37  C   UNL A   1      41.306  25.110  27.782  1.00  0.00     0.031 C 
ATOM     38  C   UNL A   1      46.026  23.787  26.643  1.00  0.00     0.029 A 
ATOM     39  N   UNL A   1      45.669  25.910  27.245  1.00  0.00    -0.354 N 
ATOM     40  C   UNL A   1      41.697  27.330  28.167  1.00  0.00     0.074 A 
ATOM     41  C   UNL A   1      40.721  26.271  28.035  1.00  0.00     0.031 C 
ATOM     42  C   UNL A   1      47.209  24.421  26.603  1.00  0.00     0.029 A 
ATOM     43  C   UNL A   1      47.011  25.821  26.965  1.00  0.00     0.049 A 
ATOM     44  H   UNL A   1      45.235  26.743  27.538  1.00  0.00     0.167 HD
ATOM     45  C   UNL A   1      41.402  28.598  28.539  1.00  0.00     0.037 A 
ATOM     46  C   UNL A   1      47.973  26.763  26.986  1.00  0.00     0.037 A 
ATOM     47  C   UNL A   1      42.378  29.646  28.687  1.00  0.00     0.049 A 
ATOM     48  C   UNL A   1      47.616  28.168  27.385  1.00  0.00     0.074 A 
ATOM     49  C   UNL A   1      42.186  30.948  29.114  1.00  0.00     0.029 A 
ATOM     50  N   UNL A   1      43.729  29.513  28.405  1.00  0.00    -0.354 N 
ATOM     51  N   UNL A   1      46.452  28.659  27.733  1.00  0.00    -0.248 NA
ATOM     52  C   UNL A   1      48.710  29.149  27.401  1.00  0.00     0.031 C 
ATOM     53  C   UNL A   1      43.412  31.617  29.042  1.00  0.00     0.029 A 
ATOM     54  C   UNL A   1      44.379  30.716  28.625  1.00  0.00     0.049 A 
ATOM     55  H   UNL A   1      44.163  28.685  28.095  1.00  0.00     0.167 HD
ATOM     56  C   UNL A   1      46.677  29.995  28.037  1.00  0.00     0.074 A 
ATOM     57  C   UNL A   1      48.092  30.234  27.848  1.00  0.00     0.031 C 
ATOM     58  C   UNL A   1      45.791  30.939  28.439  1.00  0.00     0.037 A 
BRANCH  45  59
ATOM     59  C   UNL A   1      39.960  28.923  28.812  1.00  0.00     0.057 A 
ATOM     60  C   UNL A   1      39.431  28.905  30.110  1.00  0.00     0.134 A 
ATOM     61  C   UNL A   1      39.101  29.293  27.770  1.00  0.00     0.134 A 
ATOM     62  F   UNL A   1      40.197  28.550  31.152  1.00  0.00    -0.206 F 
ATOM     63  C   UNL A   1      38.093  29.215  30.358  1.00  0.00     0.040 A 
ATOM     64  C   UNL A   1      37.768  29.633  28.009  1.00  0.00     0.040 A 
ATOM     65  F   UNL A   1      39.542  29.338  26.504  1.00  0.00    -0.206 F 
ATOM     66  C   UNL A   1      37.258  29.589  29.305  1.00  0.00     0.006 A 
ENDBRANCH  45  59
BRANCH  46  67
ATOM     67  C   UNL A   1      49.371  26.407  26.635  1.00  0.00     0.057 A 
ATOM     68  C   UNL A   1      50.255  25.913  27.603  1.00  0.00     0.134 A 
ATOM     69  C   UNL A   1      49.862  26.560  25.333  1.00  0.00     0.134 A 
ATOM     70  F   UNL A   1      49.850  25.760  28.872  1.00  0.00    -0.206 F 
ATOM     71  C   UNL A   1      51.581  25.605  27.293  1.00  0.00     0.040 A 
ATOM     72  C   UNL A   1      51.178  26.231  25.004  1.00  0.00     0.040 A 
ATOM     73  F   UNL A   1      49.064  27.020  24.358  1.00  0.00    -0.206 F 
ATOM     74  C   UNL A   1      52.045  25.761  25.988  1.00  0.00     0.006 A 
ENDBRANCH  46  67
BRANCH  58  75
ATOM     75  C   UNL A   1      46.331  32.308  28.738  1.00  0.00     0.057 A 
ATOM     76  C   UNL A   1      46.387  33.313  27.764  1.00  0.00     0.134 A 
ATOM     77  C   UNL A   1      46.766  32.634  30.030  1.00  0.00     0.134 A 
ATOM     78  F   UNL A   1      46.000  33.063  26.505  1.00  0.00    -0.206 F 
ATOM     79  C   UNL A   1      46.880  34.586  28.058  1.00  0.00     0.040 A 
ATOM     80  C   UNL A   1      47.232  33.911  30.343  1.00  0.00     0.040 A 
ATOM     81  F   UNL A   1      46.730  31.720  31.011  1.00  0.00    -0.206 F 
ATOM     82  C   UNL A   1      47.297  34.889  29.353  1.00  0.00     0.006 A 
ENDBRANCH  58  75
ENDBRANCH  32  33
ENDBRANCH  24  27
ENDBRANCH  22  23
ENDBRANCH   1  22
TORSDOF 12
ENDMDL
