MODEL 1
REMARK VINA RESULT:     -11.4      0.000      0.000
REMARK SMILES O=C(NCCCNC(=O)C1CN(S(=O)(=O)c2ccc(F)cc2)C1)c1ccc(-c2c3nc(c(-c4c(F)cccc4F)c4ccc([nH]4)c(-c4c(F)cccc4F)c4nc(c(-c5c(F)cccc5F)c5ccc2[nH]5)C=C4)C=C3)cc1
REMARK SMILES IDX 5 1 4 2 3 3 1 4 2 5 24 7 25 8 77 9 26 10 76 11 27 12 28 13
REMARK SMILES IDX 29 14 70 15 30 16 75 17 69 18 71 19 31 20 74 21 68 22 67 23
REMARK SMILES IDX 32 25 58 26 41 27 57 28 42 29 45 30 56 31 72 32 43 33 44 34
REMARK SMILES IDX 55 36 73 37 46 38 33 39 34 40 39 41 35 42 36 43 38 44 40 45
REMARK SMILES IDX 37 46 59 47 60 48 65 49 61 50 62 51 64 52 66 53 63 54 47 55
REMARK SMILES IDX 48 56 53 57 49 58 50 59 52 60 54 61 51 62 6 63 7 64 8 65
REMARK SMILES IDX 9 67 10 68 11 69 23 70 12 71 13 72 14 73 15 74 16 75 17 76
REMARK SMILES IDX 22 77 18 78 21 79 19 80 20 81
REMARK H PARENT 3 6 71 24 45 35 7 66
REMARK Flexibility Score: inf
ROOT
ATOM      1  C   UNL A   1      37.699  19.485  25.002  1.00  0.00     0.042 C 
ENDROOT
BRANCH   1   2
ATOM      2  C   UNL A   1      38.915  20.183  25.589  1.00  0.00     0.118 C 
BRANCH   2   3
ATOM      3  N   UNL A   1      40.039  19.275  25.783  1.00  0.00    -0.352 N 
ATOM      4  O   UNL A   1      42.186  18.643  26.001  1.00  0.00    -0.269 OA
ATOM      5  C   UNL A   1      41.343  19.525  26.130  1.00  0.00     0.251 C 
ATOM      6  H   UNL A   1      39.827  18.323  25.641  1.00  0.00     0.163 HD
BRANCH   5   7
ATOM      7  C   UNL A   1      41.739  20.856  26.636  1.00  0.00     0.039 A 
ATOM      8  C   UNL A   1      41.699  21.137  28.001  1.00  0.00     0.014 A 
ATOM      9  C   UNL A   1      42.194  21.826  25.738  1.00  0.00     0.014 A 
ATOM     10  C   UNL A   1      41.931  22.428  28.450  1.00  0.00     0.010 A 
ATOM     11  C   UNL A   1      42.544  23.094  26.206  1.00  0.00     0.010 A 
ATOM     12  C   UNL A   1      42.384  23.415  27.562  1.00  0.00    -0.014 A 
BRANCH  12  13
ATOM     13  C   UNL A   1      42.751  24.752  28.087  1.00  0.00     0.031 A 
ATOM     14  C   UNL A   1      41.707  25.802  28.326  1.00  0.00     0.074 A 
ATOM     15  C   UNL A   1      44.046  25.003  28.363  1.00  0.00     0.049 A 
ATOM     16  N   UNL A   1      41.862  27.036  28.734  1.00  0.00    -0.248 NA
ATOM     17  C   UNL A   1      40.309  25.427  28.066  1.00  0.00     0.031 C 
ATOM     18  C   UNL A   1      45.146  24.050  28.182  1.00  0.00     0.029 A 
ATOM     19  N   UNL A   1      44.658  26.122  28.866  1.00  0.00    -0.354 N 
ATOM     20  C   UNL A   1      40.589  27.591  28.757  1.00  0.00     0.074 A 
ATOM     21  C   UNL A   1      39.674  26.568  28.300  1.00  0.00     0.031 C 
ATOM     22  C   UNL A   1      46.286  24.608  28.608  1.00  0.00     0.029 A 
ATOM     23  C   UNL A   1      46.016  25.981  29.016  1.00  0.00     0.049 A 
ATOM     24  H   UNL A   1      44.172  26.946  29.096  1.00  0.00     0.167 HD
ATOM     25  C   UNL A   1      40.223  28.839  29.133  1.00  0.00     0.037 A 
ATOM     26  C   UNL A   1      46.950  26.867  29.406  1.00  0.00     0.037 A 
ATOM     27  C   UNL A   1      41.145  29.843  29.602  1.00  0.00     0.049 A 
ATOM     28  C   UNL A   1      46.527  28.257  29.770  1.00  0.00     0.074 A 
ATOM     29  C   UNL A   1      40.870  31.128  30.032  1.00  0.00     0.029 A 
ATOM     30  N   UNL A   1      42.519  29.673  29.701  1.00  0.00    -0.354 N 
ATOM     31  N   UNL A   1      45.320  28.767  29.792  1.00  0.00    -0.248 NA
ATOM     32  C   UNL A   1      47.587  29.196  30.154  1.00  0.00     0.031 C 
ATOM     33  C   UNL A   1      42.081  31.756  30.338  1.00  0.00     0.029 A 
ATOM     34  C   UNL A   1      43.107  30.841  30.159  1.00  0.00     0.049 A 
ATOM     35  H   UNL A   1      43.004  28.846  29.477  1.00  0.00     0.167 HD
ATOM     36  C   UNL A   1      45.470  30.082  30.209  1.00  0.00     0.074 A 
ATOM     37  C   UNL A   1      46.887  30.287  30.437  1.00  0.00     0.031 C 
ATOM     38  C   UNL A   1      44.518  31.028  30.388  1.00  0.00     0.037 A 
BRANCH  25  39
ATOM     39  C   UNL A   1      38.770  29.205  29.035  1.00  0.00     0.057 A 
ATOM     40  C   UNL A   1      37.935  29.107  30.156  1.00  0.00     0.134 A 
ATOM     41  C   UNL A   1      38.182  29.595  27.826  1.00  0.00     0.134 A 
ATOM     42  F   UNL A   1      38.431  28.732  31.345  1.00  0.00    -0.206 F 
ATOM     43  C   UNL A   1      36.567  29.372  30.075  1.00  0.00     0.040 A 
ATOM     44  C   UNL A   1      36.818  29.889  27.738  1.00  0.00     0.040 A 
ATOM     45  F   UNL A   1      38.925  29.719  26.716  1.00  0.00    -0.206 F 
ATOM     46  C   UNL A   1      36.006  29.769  28.864  1.00  0.00     0.006 A 
ENDBRANCH  25  39
BRANCH  26  47
ATOM     47  C   UNL A   1      48.370  26.439  29.465  1.00  0.00     0.057 A 
ATOM     48  C   UNL A   1      48.901  25.831  30.611  1.00  0.00     0.134 A 
ATOM     49  C   UNL A   1      49.246  26.702  28.408  1.00  0.00     0.134 A 
ATOM     50  F   UNL A   1      48.114  25.567  31.664  1.00  0.00    -0.206 F 
ATOM     51  C   UNL A   1      50.259  25.529  30.715  1.00  0.00     0.040 A 
ATOM     52  C   UNL A   1      50.602  26.381  28.488  1.00  0.00     0.040 A 
ATOM     53  F   UNL A   1      48.793  27.273  27.282  1.00  0.00    -0.206 F 
ATOM     54  C   UNL A   1      51.114  25.804  29.650  1.00  0.00     0.006 A 
ENDBRANCH  26  47
BRANCH  38  55
ATOM     55  C   UNL A   1      44.960  32.373  30.884  1.00  0.00     0.057 A 
ATOM     56  C   UNL A   1      45.006  32.641  32.259  1.00  0.00     0.134 A 
ATOM     57  C   UNL A   1      45.246  33.425  30.008  1.00  0.00     0.134 A 
ATOM     58  F   UNL A   1      44.734  31.675  33.151  1.00  0.00    -0.206 F 
ATOM     59  C   UNL A   1      45.297  33.915  32.744  1.00  0.00     0.040 A 
ATOM     60  C   UNL A   1      45.564  34.699  30.482  1.00  0.00     0.040 A 
ATOM     61  F   UNL A   1      45.231  33.229  28.681  1.00  0.00    -0.206 F 
ATOM     62  C   UNL A   1      45.578  34.949  31.853  1.00  0.00     0.006 A 
ENDBRANCH  38  55
ENDBRANCH  12  13
ENDBRANCH   5   7
ENDBRANCH   2   3
ENDBRANCH   1   2
BRANCH   1  63
ATOM     63  C   UNL A   1      36.529  20.423  24.761  1.00  0.00     0.117 C 
BRANCH  63  64
ATOM     64  N   UNL A   1      35.254  19.823  25.102  1.00  0.00    -0.356 N 
ATOM     65  C   UNL A   1      33.971  20.268  24.929  1.00  0.00     0.225 C 
ATOM     66  H   UNL A   1      35.323  18.941  25.533  1.00  0.00     0.163 HD
ATOM     67  O   UNL A   1      33.075  19.510  25.325  1.00  0.00    -0.275 OA
BRANCH  65  68
ATOM     68  C   UNL A   1      33.658  21.619  24.300  1.00  0.00     0.109 C 
ATOM     69  C   UNL A   1      32.300  22.332  24.423  1.00  0.00     0.117 C 
ATOM     70  C   UNL A   1      34.179  22.846  25.091  1.00  0.00     0.117 C 
ATOM     71  N   UNL A   1      33.001  23.645  24.603  1.00  0.00    -0.196 NA
BRANCH  71  72
ATOM     72  S   UNL A   1      33.116  24.766  23.315  1.00  0.00     0.243 S 
ATOM     73  O   UNL A   1      34.333  24.488  22.579  1.00  0.00    -0.207 OA
ATOM     74  O   UNL A   1      31.827  24.802  22.662  1.00  0.00    -0.207 OA
BRANCH  72  75
ATOM     75  C   UNL A   1      33.344  26.294  24.183  1.00  0.00     0.082 A 
ATOM     76  C   UNL A   1      33.365  27.499  23.471  1.00  0.00     0.025 A 
ATOM     77  C   UNL A   1      33.501  26.279  25.573  1.00  0.00     0.025 A 
ATOM     78  C   UNL A   1      33.552  28.697  24.159  1.00  0.00     0.040 A 
ATOM     79  C   UNL A   1      33.678  27.483  26.255  1.00  0.00     0.040 A 
ATOM     80  C   UNL A   1      33.703  28.679  25.542  1.00  0.00     0.123 A 
ATOM     81  F   UNL A   1      33.873  29.832  26.200  1.00  0.00    -0.207 F 
ENDBRANCH  72  75
ENDBRANCH  71  72
ENDBRANCH  65  68
ENDBRANCH  63  64
ENDBRANCH   1  63
TORSDOF 12
ENDMDL
MODEL 2
REMARK VINA RESULT:     -11.4      1.347      2.025
REMARK SMILES O=C(NCCCNC(=O)C1CN(S(=O)(=O)c2ccc(F)cc2)C1)c1ccc(-c2c3nc(c(-c4c(F)cccc4F)c4ccc([nH]4)c(-c4c(F)cccc4F)c4nc(c(-c5c(F)cccc5F)c5ccc2[nH]5)C=C4)C=C3)cc1
REMARK SMILES IDX 5 1 4 2 3 3 1 4 2 5 24 7 25 8 77 9 26 10 76 11 27 12 28 13
REMARK SMILES IDX 29 14 70 15 30 16 75 17 69 18 71 19 31 20 74 21 68 22 67 23
REMARK SMILES IDX 32 25 58 26 41 27 57 28 42 29 45 30 56 31 72 32 43 33 44 34
REMARK SMILES IDX 55 36 73 37 46 38 33 39 34 40 39 41 35 42 36 43 38 44 40 45
REMARK SMILES IDX 37 46 59 47 60 48 65 49 61 50 62 51 64 52 66 53 63 54 47 55
REMARK SMILES IDX 48 56 53 57 49 58 50 59 52 60 54 61 51 62 6 63 7 64 8 65
REMARK SMILES IDX 9 67 10 68 11 69 23 70 12 71 13 72 14 73 15 74 16 75 17 76
REMARK SMILES IDX 22 77 18 78 21 79 19 80 20 81
REMARK H PARENT 3 6 71 24 45 35 7 66
REMARK Flexibility Score: inf
ROOT
ATOM      1  C   UNL A   1      37.629  19.464  24.986  1.00  0.00     0.042 C 
ENDROOT
BRANCH   1   2
ATOM      2  C   UNL A   1      38.868  20.171  25.513  1.00  0.00     0.118 C 
BRANCH   2   3
ATOM      3  N   UNL A   1      39.982  19.256  25.728  1.00  0.00    -0.352 N 
ATOM      4  O   UNL A   1      42.122  18.611  25.985  1.00  0.00    -0.269 OA
ATOM      5  C   UNL A   1      41.282  19.498  26.098  1.00  0.00     0.251 C 
ATOM      6  H   UNL A   1      39.767  18.305  25.584  1.00  0.00     0.163 HD
BRANCH   5   7
ATOM      7  C   UNL A   1      41.678  20.827  26.610  1.00  0.00     0.039 A 
ATOM      8  C   UNL A   1      41.772  21.060  27.982  1.00  0.00     0.014 A 
ATOM      9  C   UNL A   1      41.995  21.845  25.706  1.00  0.00     0.014 A 
ATOM     10  C   UNL A   1      42.000  22.344  28.452  1.00  0.00     0.010 A 
ATOM     11  C   UNL A   1      42.344  23.110  26.182  1.00  0.00     0.010 A 
ATOM     12  C   UNL A   1      42.317  23.379  27.559  1.00  0.00    -0.014 A 
BRANCH  12  13
ATOM     13  C   UNL A   1      42.686  24.711  28.093  1.00  0.00     0.031 A 
ATOM     14  C   UNL A   1      41.642  25.758  28.348  1.00  0.00     0.074 A 
ATOM     15  C   UNL A   1      43.982  24.962  28.363  1.00  0.00     0.049 A 
ATOM     16  N   UNL A   1      41.797  26.989  28.765  1.00  0.00    -0.248 NA
ATOM     17  C   UNL A   1      40.242  25.383  28.094  1.00  0.00     0.031 C 
ATOM     18  C   UNL A   1      45.082  24.013  28.166  1.00  0.00     0.029 A 
ATOM     19  N   UNL A   1      44.595  26.079  28.870  1.00  0.00    -0.354 N 
ATOM     20  C   UNL A   1      40.523  27.542  28.801  1.00  0.00     0.074 A 
ATOM     21  C   UNL A   1      39.607  26.521  28.342  1.00  0.00     0.031 C 
ATOM     22  C   UNL A   1      46.224  24.570  28.589  1.00  0.00     0.029 A 
ATOM     23  C   UNL A   1      45.955  25.939  29.010  1.00  0.00     0.049 A 
ATOM     24  H   UNL A   1      44.109  26.899  29.111  1.00  0.00     0.167 HD
ATOM     25  C   UNL A   1      40.158  28.786  29.190  1.00  0.00     0.037 A 
ATOM     26  C   UNL A   1      46.890  26.822  29.402  1.00  0.00     0.037 A 
ATOM     27  C   UNL A   1      41.082  29.787  29.662  1.00  0.00     0.049 A 
ATOM     28  C   UNL A   1      46.467  28.209  29.780  1.00  0.00     0.074 A 
ATOM     29  C   UNL A   1      40.807  31.069  30.104  1.00  0.00     0.029 A 
ATOM     30  N   UNL A   1      42.456  29.619  29.749  1.00  0.00    -0.354 N 
ATOM     31  N   UNL A   1      45.259  28.717  29.814  1.00  0.00    -0.248 NA
ATOM     32  C   UNL A   1      47.528  29.147  30.165  1.00  0.00     0.031 C 
ATOM     33  C   UNL A   1      42.019  31.695  30.408  1.00  0.00     0.029 A 
ATOM     34  C   UNL A   1      43.046  30.784  30.214  1.00  0.00     0.049 A 
ATOM     35  H   UNL A   1      42.941  28.794  29.515  1.00  0.00     0.167 HD
ATOM     36  C   UNL A   1      45.411  30.028  30.242  1.00  0.00     0.074 A 
ATOM     37  C   UNL A   1      46.828  30.233  30.462  1.00  0.00     0.031 C 
ATOM     38  C   UNL A   1      44.458  30.971  30.435  1.00  0.00     0.037 A 
BRANCH  25  39
ATOM     39  C   UNL A   1      38.704  29.150  29.105  1.00  0.00     0.057 A 
ATOM     40  C   UNL A   1      38.159  29.629  27.907  1.00  0.00     0.134 A 
ATOM     41  C   UNL A   1      37.857  29.088  30.219  1.00  0.00     0.134 A 
ATOM     42  F   UNL A   1      38.916  29.722  26.803  1.00  0.00    -0.206 F 
ATOM     43  C   UNL A   1      36.828  30.042  27.820  1.00  0.00     0.040 A 
ATOM     44  C   UNL A   1      36.516  29.473  30.138  1.00  0.00     0.040 A 
ATOM     45  F   UNL A   1      38.311  28.630  31.395  1.00  0.00    -0.206 F 
ATOM     46  C   UNL A   1      36.001  29.960  28.938  1.00  0.00     0.006 A 
ENDBRANCH  25  39
BRANCH  26  47
ATOM     47  C   UNL A   1      48.311  26.397  29.447  1.00  0.00     0.057 A 
ATOM     48  C   UNL A   1      48.855  25.796  30.590  1.00  0.00     0.134 A 
ATOM     49  C   UNL A   1      49.175  26.654  28.379  1.00  0.00     0.134 A 
ATOM     50  F   UNL A   1      48.080  25.537  31.654  1.00  0.00    -0.206 F 
ATOM     51  C   UNL A   1      50.214  25.495  30.681  1.00  0.00     0.040 A 
ATOM     52  C   UNL A   1      50.532  26.335  28.446  1.00  0.00     0.040 A 
ATOM     53  F   UNL A   1      48.709  27.218  27.255  1.00  0.00    -0.206 F 
ATOM     54  C   UNL A   1      51.058  25.765  29.606  1.00  0.00     0.006 A 
ENDBRANCH  26  47
BRANCH  38  55
ATOM     55  C   UNL A   1      44.901  32.312  30.939  1.00  0.00     0.057 A 
ATOM     56  C   UNL A   1      45.273  33.320  30.040  1.00  0.00     0.134 A 
ATOM     57  C   UNL A   1      45.049  32.574  32.306  1.00  0.00     0.134 A 
ATOM     58  F   UNL A   1      45.162  33.128  28.717  1.00  0.00    -0.206 F 
ATOM     59  C   UNL A   1      45.800  34.533  30.482  1.00  0.00     0.040 A 
ATOM     60  C   UNL A   1      45.552  33.794  32.762  1.00  0.00     0.040 A 
ATOM     61  F   UNL A   1      44.698  31.654  33.217  1.00  0.00    -0.206 F 
ATOM     62  C   UNL A   1      45.941  34.772  31.848  1.00  0.00     0.006 A 
ENDBRANCH  38  55
ENDBRANCH  12  13
ENDBRANCH   5   7
ENDBRANCH   2   3
ENDBRANCH   1   2
BRANCH   1  63
ATOM     63  C   UNL A   1      36.390  20.342  24.998  1.00  0.00     0.117 C 
BRANCH  63  64
ATOM     64  N   UNL A   1      35.166  19.579  24.856  1.00  0.00    -0.356 N 
ATOM     65  C   UNL A   1      33.854  19.940  25.006  1.00  0.00     0.225 C 
ATOM     66  H   UNL A   1      35.301  18.636  24.606  1.00  0.00     0.163 HD
ATOM     67  O   UNL A   1      33.018  19.047  24.805  1.00  0.00    -0.275 OA
BRANCH  65  68
ATOM     68  C   UNL A   1      33.440  21.348  25.410  1.00  0.00     0.109 C 
ATOM     69  C   UNL A   1      33.377  22.539  24.437  1.00  0.00     0.117 C 
ATOM     70  C   UNL A   1      31.912  21.577  25.517  1.00  0.00     0.117 C 
ATOM     71  N   UNL A   1      32.107  23.005  25.082  1.00  0.00    -0.196 NA
BRANCH  71  72
ATOM     72  S   UNL A   1      32.107  24.313  26.185  1.00  0.00     0.243 S 
ATOM     73  O   UNL A   1      31.261  23.961  27.308  1.00  0.00    -0.207 OA
ATOM     74  O   UNL A   1      33.483  24.715  26.372  1.00  0.00    -0.207 OA
BRANCH  72  75
ATOM     75  C   UNL A   1      31.280  25.573  25.255  1.00  0.00     0.082 A 
ATOM     76  C   UNL A   1      31.700  26.904  25.364  1.00  0.00     0.025 A 
ATOM     77  C   UNL A   1      30.213  25.223  24.420  1.00  0.00     0.025 A 
ATOM     78  C   UNL A   1      31.040  27.892  24.634  1.00  0.00     0.040 A 
ATOM     79  C   UNL A   1      29.564  26.216  23.686  1.00  0.00     0.040 A 
ATOM     80  C   UNL A   1      29.982  27.539  23.801  1.00  0.00     0.123 A 
ATOM     81  F   UNL A   1      29.357  28.490  23.095  1.00  0.00    -0.207 F 
ENDBRANCH  72  75
ENDBRANCH  71  72
ENDBRANCH  65  68
ENDBRANCH  63  64
ENDBRANCH   1  63
TORSDOF 12
ENDMDL
MODEL 3
REMARK VINA RESULT:     -11.3      1.390      2.077
REMARK SMILES O=C(NCCCNC(=O)C1CN(S(=O)(=O)c2ccc(F)cc2)C1)c1ccc(-c2c3nc(c(-c4c(F)cccc4F)c4ccc([nH]4)c(-c4c(F)cccc4F)c4nc(c(-c5c(F)cccc5F)c5ccc2[nH]5)C=C4)C=C3)cc1
REMARK SMILES IDX 5 1 4 2 3 3 1 4 2 5 24 7 25 8 77 9 26 10 76 11 27 12 28 13
REMARK SMILES IDX 29 14 70 15 30 16 75 17 69 18 71 19 31 20 74 21 68 22 67 23
REMARK SMILES IDX 32 25 58 26 41 27 57 28 42 29 45 30 56 31 72 32 43 33 44 34
REMARK SMILES IDX 55 36 73 37 46 38 33 39 34 40 39 41 35 42 36 43 38 44 40 45
REMARK SMILES IDX 37 46 59 47 60 48 65 49 61 50 62 51 64 52 66 53 63 54 47 55
REMARK SMILES IDX 48 56 53 57 49 58 50 59 52 60 54 61 51 62 6 63 7 64 8 65
REMARK SMILES IDX 9 67 10 68 11 69 23 70 12 71 13 72 14 73 15 74 16 75 17 76
REMARK SMILES IDX 22 77 18 78 21 79 19 80 20 81
REMARK H PARENT 3 6 71 24 45 35 7 66
REMARK Flexibility Score: inf
ROOT
ATOM      1  C   UNL A   1      37.810  19.506  25.000  1.00  0.00     0.042 C 
ENDROOT
BRANCH   1   2
ATOM      2  C   UNL A   1      38.981  20.124  25.749  1.00  0.00     0.118 C 
BRANCH   2   3
ATOM      3  N   UNL A   1      40.085  19.189  25.925  1.00  0.00    -0.352 N 
ATOM      4  O   UNL A   1      42.219  18.485  26.002  1.00  0.00    -0.269 OA
ATOM      5  C   UNL A   1      41.425  19.412  26.122  1.00  0.00     0.251 C 
ATOM      6  H   UNL A   1      39.827  18.239  25.899  1.00  0.00     0.163 HD
BRANCH   5   7
ATOM      7  C   UNL A   1      41.916  20.766  26.455  1.00  0.00     0.039 A 
ATOM      8  C   UNL A   1      42.119  21.141  27.782  1.00  0.00     0.014 A 
ATOM      9  C   UNL A   1      42.214  21.661  25.423  1.00  0.00     0.014 A 
ATOM     10  C   UNL A   1      42.437  22.455  28.089  1.00  0.00     0.010 A 
ATOM     11  C   UNL A   1      42.653  22.951  25.731  1.00  0.00     0.010 A 
ATOM     12  C   UNL A   1      42.736  23.368  27.067  1.00  0.00    -0.014 A 
BRANCH  12  13
ATOM     13  C   UNL A   1      43.202  24.730  27.423  1.00  0.00     0.031 A 
ATOM     14  C   UNL A   1      42.238  25.778  27.894  1.00  0.00     0.074 A 
ATOM     15  C   UNL A   1      44.518  25.006  27.330  1.00  0.00     0.049 A 
ATOM     16  N   UNL A   1      42.470  27.030  28.199  1.00  0.00    -0.248 NA
ATOM     17  C   UNL A   1      40.830  25.378  28.036  1.00  0.00     0.031 C 
ATOM     18  C   UNL A   1      45.549  24.059  26.895  1.00  0.00     0.029 A 
ATOM     19  N   UNL A   1      45.218  26.153  27.606  1.00  0.00    -0.354 N 
ATOM     20  C   UNL A   1      41.238  27.572  28.543  1.00  0.00     0.074 A 
ATOM     21  C   UNL A   1      40.257  26.520  28.389  1.00  0.00     0.031 C 
ATOM     22  C   UNL A   1      46.749  24.647  26.977  1.00  0.00     0.029 A 
ATOM     23  C   UNL A   1      46.569  26.033  27.389  1.00  0.00     0.049 A 
ATOM     24  H   UNL A   1      44.793  26.980  27.928  1.00  0.00     0.167 HD
ATOM     25  C   UNL A   1      40.960  28.830  28.956  1.00  0.00     0.037 A 
ATOM     26  C   UNL A   1      47.554  26.944  27.480  1.00  0.00     0.037 A 
ATOM     27  C   UNL A   1      41.952  29.863  29.121  1.00  0.00     0.049 A 
ATOM     28  C   UNL A   1      47.214  28.344  27.892  1.00  0.00     0.074 A 
ATOM     29  C   UNL A   1      41.775  31.163  29.561  1.00  0.00     0.029 A 
ATOM     30  N   UNL A   1      43.305  29.713  28.852  1.00  0.00    -0.354 N 
ATOM     31  N   UNL A   1      46.046  28.842  28.219  1.00  0.00    -0.248 NA
ATOM     32  C   UNL A   1      48.318  29.310  27.940  1.00  0.00     0.031 C 
ATOM     33  C   UNL A   1      43.010  31.815  29.505  1.00  0.00     0.029 A 
ATOM     34  C   UNL A   1      43.969  30.905  29.090  1.00  0.00     0.049 A 
ATOM     35  H   UNL A   1      43.730  28.882  28.537  1.00  0.00     0.167 HD
ATOM     36  C   UNL A   1      46.275  30.174  28.530  1.00  0.00     0.074 A 
ATOM     37  C   UNL A   1      47.696  30.404  28.360  1.00  0.00     0.031 C 
ATOM     38  C   UNL A   1      45.386  31.117  28.923  1.00  0.00     0.037 A 
BRANCH  25  39
ATOM     39  C   UNL A   1      39.527  29.176  29.240  1.00  0.00     0.057 A 
ATOM     40  C   UNL A   1      39.012  29.064  30.538  1.00  0.00     0.134 A 
ATOM     41  C   UNL A   1      38.640  29.560  28.226  1.00  0.00     0.134 A 
ATOM     42  F   UNL A   1      39.804  28.694  31.557  1.00  0.00    -0.206 F 
ATOM     43  C   UNL A   1      37.667  29.311  30.817  1.00  0.00     0.040 A 
ATOM     44  C   UNL A   1      37.297  29.835  28.497  1.00  0.00     0.040 A 
ATOM     45  F   UNL A   1      39.069  29.696  26.963  1.00  0.00    -0.206 F 
ATOM     46  C   UNL A   1      36.806  29.702  29.794  1.00  0.00     0.006 A 
ENDBRANCH  25  39
BRANCH  26  47
ATOM     47  C   UNL A   1      48.946  26.535  27.170  1.00  0.00     0.057 A 
ATOM     48  C   UNL A   1      49.434  26.548  25.856  1.00  0.00     0.134 A 
ATOM     49  C   UNL A   1      49.794  26.047  28.169  1.00  0.00     0.134 A 
ATOM     50  F   UNL A   1      48.663  26.991  24.852  1.00  0.00    -0.206 F 
ATOM     51  C   UNL A   1      50.703  26.060  25.542  1.00  0.00     0.040 A 
ATOM     52  C   UNL A   1      51.075  25.580  27.874  1.00  0.00     0.040 A 
ATOM     53  F   UNL A   1      49.386  26.020  29.446  1.00  0.00    -0.206 F 
ATOM     54  C   UNL A   1      51.528  25.574  26.554  1.00  0.00     0.006 A 
ENDBRANCH  26  47
BRANCH  38  55
ATOM     55  C   UNL A   1      45.915  32.486  29.231  1.00  0.00     0.057 A 
ATOM     56  C   UNL A   1      46.004  33.454  28.222  1.00  0.00     0.134 A 
ATOM     57  C   UNL A   1      46.422  32.814  30.493  1.00  0.00     0.134 A 
ATOM     58  F   UNL A   1      45.543  33.197  26.988  1.00  0.00    -0.206 F 
ATOM     59  C   UNL A   1      46.601  34.693  28.452  1.00  0.00     0.040 A 
ATOM     60  C   UNL A   1      46.999  34.061  30.742  1.00  0.00     0.040 A 
ATOM     61  F   UNL A   1      46.354  31.935  31.504  1.00  0.00    -0.206 F 
ATOM     62  C   UNL A   1      47.101  34.999  29.717  1.00  0.00     0.006 A 
ENDBRANCH  38  55
ENDBRANCH  12  13
ENDBRANCH   5   7
ENDBRANCH   2   3
ENDBRANCH   1   2
BRANCH   1  63
ATOM     63  C   UNL A   1      36.577  20.392  24.982  1.00  0.00     0.117 C 
BRANCH  63  64
ATOM     64  N   UNL A   1      35.344  19.631  25.003  1.00  0.00    -0.356 N 
ATOM     65  C   UNL A   1      34.058  19.986  24.696  1.00  0.00     0.225 C 
ATOM     66  H   UNL A   1      35.450  18.695  25.288  1.00  0.00     0.163 HD
ATOM     67  O   UNL A   1      33.206  19.092  24.806  1.00  0.00    -0.275 OA
BRANCH  65  68
ATOM     68  C   UNL A   1      33.688  21.396  24.255  1.00  0.00     0.109 C 
ATOM     69  C   UNL A   1      32.276  21.817  23.813  1.00  0.00     0.117 C 
ATOM     70  C   UNL A   1      33.438  22.398  25.410  1.00  0.00     0.117 C 
ATOM     71  N   UNL A   1      32.423  23.110  24.556  1.00  0.00    -0.196 NA
BRANCH  71  72
ATOM     72  S   UNL A   1      32.773  24.566  23.729  1.00  0.00     0.243 S 
ATOM     73  O   UNL A   1      34.182  24.568  23.388  1.00  0.00    -0.207 OA
ATOM     74  O   UNL A   1      31.752  24.743  22.722  1.00  0.00    -0.207 OA
BRANCH  72  75
ATOM     75  C   UNL A   1      32.520  25.776  24.999  1.00  0.00     0.082 A 
ATOM     76  C   UNL A   1      33.610  26.506  25.488  1.00  0.00     0.025 A 
ATOM     77  C   UNL A   1      31.231  25.987  25.500  1.00  0.00     0.025 A 
ATOM     78  C   UNL A   1      33.405  27.451  26.492  1.00  0.00     0.040 A 
ATOM     79  C   UNL A   1      31.033  26.941  26.498  1.00  0.00     0.040 A 
ATOM     80  C   UNL A   1      32.120  27.662  26.985  1.00  0.00     0.123 A 
ATOM     81  F   UNL A   1      31.927  28.577  27.942  1.00  0.00    -0.207 F 
ENDBRANCH  72  75
ENDBRANCH  71  72
ENDBRANCH  65  68
ENDBRANCH  63  64
ENDBRANCH   1  63
TORSDOF 12
ENDMDL
