MODEL 1
REMARK VINA RESULT:     -11.9      0.000      0.000
REMARK SMILES C[C@@H]1C(=O)NC(=O)CN1C(=O)NC1(CC(=O)NCCCNC(=O)c2ccc(-c3c4nc(c(-c5c(F)cccc5F)c5ccc([nH]5)c(-c5c(F)cccc5F)c5nc(c(-c6c(F)cccc6F)c6ccc3[nH]6)C=C5)C=C4)cc2)CCC1
REMARK SMILES IDX 18 1 17 2 15 3 16 4 14 6 13 7 78 8 80 9 79 10 12 11 10 12
REMARK SMILES IDX 11 13 9 15 1 16 2 17 3 18 4 19 5 20 8 21 6 22 7 24 19 25
REMARK SMILES IDX 20 26 21 27 22 28 23 30 24 31 25 32 77 33 26 34 76 35 27 36
REMARK SMILES IDX 28 37 29 38 70 39 30 40 75 41 69 42 71 43 31 44 74 45 68 46
REMARK SMILES IDX 67 47 32 49 58 50 41 51 57 52 42 53 45 54 56 55 72 56 43 57
REMARK SMILES IDX 44 58 55 60 73 61 46 62 33 63 34 64 39 65 35 66 36 67 38 68
REMARK SMILES IDX 40 69 37 70 59 71 60 72 65 73 61 74 62 75 64 76 66 77 63 78
REMARK SMILES IDX 47 79 48 80 53 81 49 82 50 83 52 84 54 85 51 86
REMARK H PARENT 17 5 12 14 5 23 21 29 71 48 45 59
REMARK Flexibility Score: inf
ROOT
ATOM      1  C   UNL A   1      36.417  20.514  25.001  1.00  0.00     0.117 C 
ENDROOT
BRANCH   1   2
ATOM      2  N   UNL A   1      36.704  21.635  24.125  1.00  0.00    -0.356 N 
ATOM      3  C   UNL A   1      35.895  22.648  23.720  1.00  0.00     0.222 C 
ATOM      4  O   UNL A   1      36.252  23.326  22.757  1.00  0.00    -0.275 OA
ATOM      5  H   UNL A   1      37.622  21.664  23.770  1.00  0.00     0.163 HD
BRANCH   3   6
ATOM      6  C   UNL A   1      34.655  22.975  24.510  1.00  0.00     0.128 C 
BRANCH   6   7
ATOM      7  C   UNL A   1      33.306  22.692  23.838  1.00  0.00     0.051 C 
ATOM      8  C   UNL A   1      31.996  22.905  24.686  1.00  0.00     0.029 C 
ATOM      9  C   UNL A   1      32.897  21.172  23.876  1.00  0.00     0.029 C 
ATOM     10  C   UNL A   1      32.139  21.458  25.181  1.00  0.00     0.005 C 
BRANCH   7  11
ATOM     11  N   UNL A   1      33.204  23.222  22.463  1.00  0.00    -0.332 N 
ATOM     12  C   UNL A   1      33.094  24.431  21.873  1.00  0.00     0.318 C 
ATOM     13  O   UNL A   1      33.265  24.428  20.650  1.00  0.00    -0.249 OA
ATOM     14  H   UNL A   1      33.220  22.498  21.797  1.00  0.00     0.165 HD
BRANCH  12  15
ATOM     15  N   UNL A   1      32.824  25.585  22.543  1.00  0.00    -0.304 N 
ATOM     16  C   UNL A   1      33.667  26.270  24.781  1.00  0.00     0.042 C 
ATOM     17  C   UNL A   1      33.748  26.454  23.272  1.00  0.00     0.174 C 
ATOM     18  C   UNL A   1      33.538  27.925  22.888  1.00  0.00     0.249 C 
ATOM     19  O   UNL A   1      34.379  28.791  23.127  1.00  0.00    -0.272 OA
ATOM     20  N   UNL A   1      32.312  28.265  22.377  1.00  0.00    -0.293 N 
ATOM     21  C   UNL A   1      31.416  25.979  22.632  1.00  0.00     0.222 C 
ATOM     22  C   UNL A   1      31.218  27.442  22.250  1.00  0.00     0.246 C 
ATOM     23  H   UNL A   1      32.204  29.195  22.071  1.00  0.00     0.173 HD
ATOM     24  O   UNL A   1      30.114  27.923  22.001  1.00  0.00    -0.273 OA
ENDBRANCH  12  15
ENDBRANCH   7  11
ENDBRANCH   6   7
ENDBRANCH   3   6
ENDBRANCH   1   2
BRANCH   1  25
ATOM     25  C   UNL A   1      37.581  19.533  25.001  1.00  0.00     0.042 C 
BRANCH  25  26
ATOM     26  C   UNL A   1      38.879  20.174  25.464  1.00  0.00     0.118 C 
BRANCH  26  27
ATOM     27  N   UNL A   1      39.893  19.172  25.751  1.00  0.00    -0.352 N 
ATOM     28  C   UNL A   1      41.231  19.339  26.001  1.00  0.00     0.251 C 
ATOM     29  H   UNL A   1      39.572  18.240  25.769  1.00  0.00     0.163 HD
ATOM     30  O   UNL A   1      41.996  18.384  25.911  1.00  0.00    -0.269 OA
BRANCH  28  31
ATOM     31  C   UNL A   1      41.750  20.674  26.366  1.00  0.00     0.039 A 
ATOM     32  C   UNL A   1      41.940  20.991  27.712  1.00  0.00     0.014 A 
ATOM     33  C   UNL A   1      42.020  21.624  25.378  1.00  0.00     0.014 A 
ATOM     34  C   UNL A   1      42.440  22.248  28.061  1.00  0.00     0.010 A 
ATOM     35  C   UNL A   1      42.630  22.823  25.717  1.00  0.00     0.010 A 
ATOM     36  C   UNL A   1      42.813  23.163  27.063  1.00  0.00    -0.014 A 
BRANCH  36  37
ATOM     37  C   UNL A   1      43.330  24.512  27.398  1.00  0.00     0.031 A 
ATOM     38  C   UNL A   1      42.374  25.581  27.857  1.00  0.00     0.074 A 
ATOM     39  C   UNL A   1      44.637  24.791  27.234  1.00  0.00     0.049 A 
ATOM     40  N   UNL A   1      42.605  26.842  28.119  1.00  0.00    -0.248 NA
ATOM     41  C   UNL A   1      40.962  25.190  28.001  1.00  0.00     0.031 C 
ATOM     42  C   UNL A   1      45.651  23.853  26.749  1.00  0.00     0.029 A 
ATOM     43  N   UNL A   1      45.334  25.951  27.454  1.00  0.00    -0.354 N 
ATOM     44  C   UNL A   1      41.368  27.394  28.432  1.00  0.00     0.074 A 
ATOM     45  C   UNL A   1      40.382  26.351  28.260  1.00  0.00     0.031 C 
ATOM     46  C   UNL A   1      46.848  24.463  26.747  1.00  0.00     0.029 A 
ATOM     47  C   UNL A   1      46.678  25.843  27.192  1.00  0.00     0.049 A 
ATOM     48  H   UNL A   1      44.912  26.781  27.771  1.00  0.00     0.167 HD
ATOM     49  C   UNL A   1      41.081  28.646  28.859  1.00  0.00     0.037 A 
ATOM     50  C   UNL A   1      47.660  26.756  27.302  1.00  0.00     0.037 A 
ATOM     51  C   UNL A   1      42.072  29.665  29.072  1.00  0.00     0.049 A 
ATOM     52  C   UNL A   1      47.319  28.138  27.784  1.00  0.00     0.074 A 
ATOM     53  C   UNL A   1      41.901  30.948  29.561  1.00  0.00     0.029 A 
ATOM     54  N   UNL A   1      43.425  29.511  28.811  1.00  0.00    -0.354 N 
ATOM     55  N   UNL A   1      46.155  28.630  28.135  1.00  0.00    -0.248 NA
ATOM     56  C   UNL A   1      48.431  29.092  27.891  1.00  0.00     0.031 C 
ATOM     57  C   UNL A   1      43.148  31.582  29.563  1.00  0.00     0.029 A 
ATOM     58  C   UNL A   1      44.101  30.680  29.115  1.00  0.00     0.049 A 
ATOM     59  H   UNL A   1      43.843  28.692  28.462  1.00  0.00     0.167 HD
ATOM     60  C   UNL A   1      46.397  29.938  28.531  1.00  0.00     0.074 A 
ATOM     61  C   UNL A   1      47.822  30.160  28.388  1.00  0.00     0.031 C 
ATOM     62  C   UNL A   1      45.522  30.873  28.973  1.00  0.00     0.037 A 
BRANCH  49  63
ATOM     63  C   UNL A   1      39.639  28.966  29.132  1.00  0.00     0.057 A 
ATOM     64  C   UNL A   1      39.076  28.810  30.407  1.00  0.00     0.134 A 
ATOM     65  C   UNL A   1      38.804  29.438  28.112  1.00  0.00     0.134 A 
ATOM     66  F   UNL A   1      39.817  28.346  31.426  1.00  0.00    -0.206 F 
ATOM     67  C   UNL A   1      37.727  29.076  30.648  1.00  0.00     0.040 A 
ATOM     68  C   UNL A   1      37.461  29.736  28.349  1.00  0.00     0.040 A 
ATOM     69  F   UNL A   1      39.278  29.615  26.870  1.00  0.00    -0.206 F 
ATOM     70  C   UNL A   1      36.917  29.545  29.617  1.00  0.00     0.006 A 
ENDBRANCH  49  63
BRANCH  50  71
ATOM     71  C   UNL A   1      49.062  26.381  26.994  1.00  0.00     0.057 A 
ATOM     72  C   UNL A   1      49.559  26.479  25.688  1.00  0.00     0.134 A 
ATOM     73  C   UNL A   1      49.937  25.922  27.984  1.00  0.00     0.134 A 
ATOM     74  F   UNL A   1      48.764  26.899  24.694  1.00  0.00    -0.206 F 
ATOM     75  C   UNL A   1      50.870  26.117  25.375  1.00  0.00     0.040 A 
ATOM     76  C   UNL A   1      51.258  25.578  27.690  1.00  0.00     0.040 A 
ATOM     77  F   UNL A   1      49.525  25.816  29.255  1.00  0.00    -0.206 F 
ATOM     78  C   UNL A   1      51.726  25.669  26.380  1.00  0.00     0.006 A 
ENDBRANCH  50  71
BRANCH  62  79
ATOM     79  C   UNL A   1      46.086  32.205  29.368  1.00  0.00     0.057 A 
ATOM     80  C   UNL A   1      46.173  33.267  28.462  1.00  0.00     0.134 A 
ATOM     81  C   UNL A   1      46.510  32.435  30.683  1.00  0.00     0.134 A 
ATOM     82  F   UNL A   1      45.794  33.105  27.185  1.00  0.00    -0.206 F 
ATOM     83  C   UNL A   1      46.684  34.509  28.843  1.00  0.00     0.040 A 
ATOM     84  C   UNL A   1      46.999  33.679  31.083  1.00  0.00     0.040 A 
ATOM     85  F   UNL A   1      46.445  31.460  31.602  1.00  0.00    -0.206 F 
ATOM     86  C   UNL A   1      47.091  34.719  30.159  1.00  0.00     0.006 A 
ENDBRANCH  62  79
ENDBRANCH  36  37
ENDBRANCH  28  31
ENDBRANCH  26  27
ENDBRANCH  25  26
ENDBRANCH   1  25
TORSDOF 13
ENDMDL
MODEL 2
REMARK VINA RESULT:     -11.9      1.445      6.322
REMARK SMILES C[C@@H]1C(=O)NC(=O)CN1C(=O)NC1(CC(=O)NCCCNC(=O)c2ccc(-c3c4nc(c(-c5c(F)cccc5F)c5ccc([nH]5)c(-c5c(F)cccc5F)c5nc(c(-c6c(F)cccc6F)c6ccc3[nH]6)C=C5)C=C4)cc2)CCC1
REMARK SMILES IDX 18 1 17 2 15 3 16 4 14 6 13 7 78 8 80 9 79 10 12 11 10 12
REMARK SMILES IDX 11 13 9 15 1 16 2 17 3 18 4 19 5 20 8 21 6 22 7 24 19 25
REMARK SMILES IDX 20 26 21 27 22 28 23 30 24 31 25 32 77 33 26 34 76 35 27 36
REMARK SMILES IDX 28 37 29 38 70 39 30 40 75 41 69 42 71 43 31 44 74 45 68 46
REMARK SMILES IDX 67 47 32 49 58 50 41 51 57 52 42 53 45 54 56 55 72 56 43 57
REMARK SMILES IDX 44 58 55 60 73 61 46 62 33 63 34 64 39 65 35 66 36 67 38 68
REMARK SMILES IDX 40 69 37 70 59 71 60 72 65 73 61 74 62 75 64 76 66 77 63 78
REMARK SMILES IDX 47 79 48 80 53 81 49 82 50 83 52 84 54 85 51 86
REMARK H PARENT 17 5 12 14 5 23 21 29 71 48 45 59
REMARK Flexibility Score: inf
ROOT
ATOM      1  C   UNL A   1      36.254  20.347  24.960  1.00  0.00     0.117 C 
ENDROOT
BRANCH   1   2
ATOM      2  N   UNL A   1      36.542  21.550  24.200  1.00  0.00    -0.356 N 
ATOM      3  C   UNL A   1      35.726  22.587  23.876  1.00  0.00     0.222 C 
ATOM      4  O   UNL A   1      36.092  23.359  22.990  1.00  0.00    -0.275 OA
ATOM      5  H   UNL A   1      37.467  21.625  23.869  1.00  0.00     0.163 HD
BRANCH   3   6
ATOM      6  C   UNL A   1      34.466  22.820  24.668  1.00  0.00     0.128 C 
BRANCH   6   7
ATOM      7  C   UNL A   1      33.135  22.588  23.943  1.00  0.00     0.051 C 
ATOM      8  C   UNL A   1      31.802  22.857  24.738  1.00  0.00     0.029 C 
ATOM      9  C   UNL A   1      32.665  21.086  23.970  1.00  0.00     0.029 C 
ATOM     10  C   UNL A   1      31.867  21.407  25.243  1.00  0.00     0.005 C 
BRANCH   7  11
ATOM     11  N   UNL A   1      33.109  23.115  22.564  1.00  0.00    -0.332 N 
ATOM     12  C   UNL A   1      33.071  24.324  21.966  1.00  0.00     0.318 C 
ATOM     13  O   UNL A   1      33.290  24.308  20.750  1.00  0.00    -0.249 OA
ATOM     14  H   UNL A   1      33.122  22.387  21.901  1.00  0.00     0.165 HD
BRANCH  12  15
ATOM     15  N   UNL A   1      32.820  25.492  22.621  1.00  0.00    -0.304 N 
ATOM     16  C   UNL A   1      33.662  26.184  24.857  1.00  0.00     0.042 C 
ATOM     17  C   UNL A   1      33.757  26.350  23.346  1.00  0.00     0.174 C 
ATOM     18  C   UNL A   1      33.581  27.819  22.945  1.00  0.00     0.249 C 
ATOM     19  O   UNL A   1      34.438  28.671  23.180  1.00  0.00    -0.272 OA
ATOM     20  N   UNL A   1      32.365  28.180  22.421  1.00  0.00    -0.293 N 
ATOM     21  C   UNL A   1      31.420  25.916  22.696  1.00  0.00     0.222 C 
ATOM     22  C   UNL A   1      31.256  27.378  22.296  1.00  0.00     0.246 C 
ATOM     23  H   UNL A   1      32.279  29.107  22.104  1.00  0.00     0.173 HD
ATOM     24  O   UNL A   1      30.163  27.878  22.033  1.00  0.00    -0.273 OA
ENDBRANCH  12  15
ENDBRANCH   7  11
ENDBRANCH   6   7
ENDBRANCH   3   6
ENDBRANCH   1   2
BRANCH   1  25
ATOM     25  C   UNL A   1      37.476  19.439  24.991  1.00  0.00     0.042 C 
BRANCH  25  26
ATOM     26  C   UNL A   1      38.749  20.193  25.340  1.00  0.00     0.118 C 
BRANCH  26  27
ATOM     27  N   UNL A   1      39.835  19.280  25.661  1.00  0.00    -0.352 N 
ATOM     28  C   UNL A   1      41.111  19.563  26.079  1.00  0.00     0.251 C 
ATOM     29  H   UNL A   1      39.623  18.323  25.567  1.00  0.00     0.163 HD
ATOM     30  O   UNL A   1      41.985  18.707  26.002  1.00  0.00    -0.269 OA
BRANCH  28  31
ATOM     31  C   UNL A   1      41.430  20.905  26.608  1.00  0.00     0.039 A 
ATOM     32  C   UNL A   1      41.309  21.149  27.978  1.00  0.00     0.014 A 
ATOM     33  C   UNL A   1      41.821  21.933  25.746  1.00  0.00     0.014 A 
ATOM     34  C   UNL A   1      41.620  22.413  28.483  1.00  0.00     0.010 A 
ATOM     35  C   UNL A   1      42.246  23.148  26.264  1.00  0.00     0.010 A 
ATOM     36  C   UNL A   1      42.116  23.414  27.633  1.00  0.00    -0.014 A 
BRANCH  36  37
ATOM     37  C   UNL A   1      42.440  24.772  28.133  1.00  0.00     0.031 A 
ATOM     38  C   UNL A   1      43.864  25.114  28.483  1.00  0.00     0.074 A 
ATOM     39  C   UNL A   1      41.456  25.669  28.328  1.00  0.00     0.049 A 
ATOM     40  N   UNL A   1      44.348  26.210  29.010  1.00  0.00    -0.248 NA
ATOM     41  C   UNL A   1      44.875  24.070  28.245  1.00  0.00     0.031 C 
ATOM     42  C   UNL A   1      40.033  25.438  28.072  1.00  0.00     0.029 A 
ATOM     43  N   UNL A   1      41.506  26.959  28.791  1.00  0.00    -0.354 N 
ATOM     44  C   UNL A   1      45.706  25.974  29.188  1.00  0.00     0.074 A 
ATOM     45  C   UNL A   1      45.958  24.612  28.780  1.00  0.00     0.031 C 
ATOM     46  C   UNL A   1      39.350  26.562  28.345  1.00  0.00     0.029 A 
ATOM     47  C   UNL A   1      40.280  27.577  28.830  1.00  0.00     0.049 A 
ATOM     48  H   UNL A   1      42.340  27.400  29.069  1.00  0.00     0.167 HD
ATOM     49  C   UNL A   1      46.665  26.827  29.620  1.00  0.00     0.037 A 
ATOM     50  C   UNL A   1      39.948  28.824  29.211  1.00  0.00     0.037 A 
ATOM     51  C   UNL A   1      46.416  28.195  29.982  1.00  0.00     0.049 A 
ATOM     52  C   UNL A   1      41.030  29.755  29.680  1.00  0.00     0.074 A 
ATOM     53  C   UNL A   1      47.322  29.164  30.374  1.00  0.00     0.029 A 
ATOM     54  N   UNL A   1      45.162  28.789  29.991  1.00  0.00    -0.354 N 
ATOM     55  N   UNL A   1      42.320  29.539  29.787  1.00  0.00    -0.248 NA
ATOM     56  C   UNL A   1      40.612  31.106  30.079  1.00  0.00     0.031 C 
ATOM     57  C   UNL A   1      46.611  30.336  30.653  1.00  0.00     0.029 A 
ATOM     58  C   UNL A   1      45.268  30.108  30.395  1.00  0.00     0.049 A 
ATOM     59  H   UNL A   1      44.322  28.339  29.746  1.00  0.00     0.167 HD
ATOM     60  C   UNL A   1      42.870  30.732  30.235  1.00  0.00     0.074 A 
ATOM     61  C   UNL A   1      41.775  31.672  30.370  1.00  0.00     0.031 C 
ATOM     62  C   UNL A   1      44.163  31.026  30.511  1.00  0.00     0.037 A 
BRANCH  49  63
ATOM     63  C   UNL A   1      48.067  26.296  29.708  1.00  0.00     0.057 A 
ATOM     64  C   UNL A   1      48.944  26.341  28.615  1.00  0.00     0.134 A 
ATOM     65  C   UNL A   1      48.549  25.736  30.898  1.00  0.00     0.134 A 
ATOM     66  F   UNL A   1      48.542  26.850  27.440  1.00  0.00    -0.206 F 
ATOM     67  C   UNL A   1      50.235  25.815  28.691  1.00  0.00     0.040 A 
ATOM     68  C   UNL A   1      49.848  25.235  30.994  1.00  0.00     0.040 A 
ATOM     69  F   UNL A   1      47.765  25.665  31.984  1.00  0.00    -0.206 F 
ATOM     70  C   UNL A   1      50.691  25.264  29.886  1.00  0.00     0.006 A 
ENDBRANCH  49  63
BRANCH  50  71
ATOM     71  C   UNL A   1      38.538  29.279  29.121  1.00  0.00     0.057 A 
ATOM     72  C   UNL A   1      38.011  29.743  27.909  1.00  0.00     0.134 A 
ATOM     73  C   UNL A   1      37.686  29.260  30.230  1.00  0.00     0.134 A 
ATOM     74  F   UNL A   1      38.784  29.799  26.815  1.00  0.00    -0.206 F 
ATOM     75  C   UNL A   1      36.693  30.190  27.808  1.00  0.00     0.040 A 
ATOM     76  C   UNL A   1      36.358  29.682  30.139  1.00  0.00     0.040 A 
ATOM     77  F   UNL A   1      38.127  28.817  31.416  1.00  0.00    -0.206 F 
ATOM     78  C   UNL A   1      35.861  30.156  28.926  1.00  0.00     0.006 A 
ENDBRANCH  50  71
BRANCH  62  79
ATOM     79  C   UNL A   1      44.468  32.428  30.949  1.00  0.00     0.057 A 
ATOM     80  C   UNL A   1      44.737  33.446  30.029  1.00  0.00     0.134 A 
ATOM     81  C   UNL A   1      44.452  32.766  32.309  1.00  0.00     0.134 A 
ATOM     82  F   UNL A   1      44.779  33.181  28.714  1.00  0.00    -0.206 F 
ATOM     83  C   UNL A   1      45.003  34.752  30.445  1.00  0.00     0.040 A 
ATOM     84  C   UNL A   1      44.690  34.073  32.736  1.00  0.00     0.040 A 
ATOM     85  F   UNL A   1      44.192  31.837  33.241  1.00  0.00    -0.206 F 
ATOM     86  C   UNL A   1      44.971  35.069  31.802  1.00  0.00     0.006 A 
ENDBRANCH  62  79
ENDBRANCH  36  37
ENDBRANCH  28  31
ENDBRANCH  26  27
ENDBRANCH  25  26
ENDBRANCH   1  25
TORSDOF 13
ENDMDL
MODEL 3
REMARK VINA RESULT:     -11.9      1.308      2.247
REMARK SMILES C[C@@H]1C(=O)NC(=O)CN1C(=O)NC1(CC(=O)NCCCNC(=O)c2ccc(-c3c4nc(c(-c5c(F)cccc5F)c5ccc([nH]5)c(-c5c(F)cccc5F)c5nc(c(-c6c(F)cccc6F)c6ccc3[nH]6)C=C5)C=C4)cc2)CCC1
REMARK SMILES IDX 18 1 17 2 15 3 16 4 14 6 13 7 78 8 80 9 79 10 12 11 10 12
REMARK SMILES IDX 11 13 9 15 1 16 2 17 3 18 4 19 5 20 8 21 6 22 7 24 19 25
REMARK SMILES IDX 20 26 21 27 22 28 23 30 24 31 25 32 77 33 26 34 76 35 27 36
REMARK SMILES IDX 28 37 29 38 70 39 30 40 75 41 69 42 71 43 31 44 74 45 68 46
REMARK SMILES IDX 67 47 32 49 58 50 41 51 57 52 42 53 45 54 56 55 72 56 43 57
REMARK SMILES IDX 44 58 55 60 73 61 46 62 33 63 34 64 39 65 35 66 36 67 38 68
REMARK SMILES IDX 40 69 37 70 59 71 60 72 65 73 61 74 62 75 64 76 66 77 63 78
REMARK SMILES IDX 47 79 48 80 53 81 49 82 50 83 52 84 54 85 51 86
REMARK H PARENT 17 5 12 14 5 23 21 29 71 48 45 59
REMARK Flexibility Score: inf
ROOT
ATOM      1  C   UNL A   1      36.519  20.489  24.954  1.00  0.00     0.117 C 
ENDROOT
BRANCH   1   2
ATOM      2  N   UNL A   1      36.739  21.642  24.099  1.00  0.00    -0.356 N 
ATOM      3  C   UNL A   1      35.881  22.633  23.743  1.00  0.00     0.222 C 
ATOM      4  O   UNL A   1      36.184  23.348  22.789  1.00  0.00    -0.275 OA
ATOM      5  H   UNL A   1      37.645  21.715  23.720  1.00  0.00     0.163 HD
BRANCH   3   6
ATOM      6  C   UNL A   1      34.653  22.893  24.576  1.00  0.00     0.128 C 
BRANCH   6   7
ATOM      7  C   UNL A   1      33.295  22.608  23.922  1.00  0.00     0.051 C 
ATOM      8  C   UNL A   1      31.997  22.824  24.787  1.00  0.00     0.029 C 
ATOM      9  C   UNL A   1      32.887  21.089  23.969  1.00  0.00     0.029 C 
ATOM     10  C   UNL A   1      32.146  21.377  25.284  1.00  0.00     0.005 C 
BRANCH   7  11
ATOM     11  N   UNL A   1      33.175  23.136  22.547  1.00  0.00    -0.332 N 
ATOM     12  C   UNL A   1      33.054  24.343  21.957  1.00  0.00     0.318 C 
ATOM     13  O   UNL A   1      33.210  24.338  20.731  1.00  0.00    -0.249 OA
ATOM     14  H   UNL A   1      33.186  22.410  21.883  1.00  0.00     0.165 HD
BRANCH  12  15
ATOM     15  N   UNL A   1      32.787  25.497  22.628  1.00  0.00    -0.304 N 
ATOM     16  C   UNL A   1      33.651  26.188  24.856  1.00  0.00     0.042 C 
ATOM     17  C   UNL A   1      33.716  26.371  23.346  1.00  0.00     0.174 C 
ATOM     18  C   UNL A   1      33.497  27.840  22.962  1.00  0.00     0.249 C 
ATOM     19  O   UNL A   1      34.338  28.709  23.191  1.00  0.00    -0.272 OA
ATOM     20  N   UNL A   1      32.265  28.176  22.463  1.00  0.00    -0.293 N 
ATOM     21  C   UNL A   1      31.378  25.887  22.731  1.00  0.00     0.222 C 
ATOM     22  C   UNL A   1      31.172  27.349  22.349  1.00  0.00     0.246 C 
ATOM     23  H   UNL A   1      32.150  29.104  22.157  1.00  0.00     0.173 HD
ATOM     24  O   UNL A   1      30.064  27.825  22.110  1.00  0.00    -0.273 OA
ENDBRANCH  12  15
ENDBRANCH   7  11
ENDBRANCH   6   7
ENDBRANCH   3   6
ENDBRANCH   1   2
BRANCH   1  25
ATOM     25  C   UNL A   1      37.756  19.603  24.971  1.00  0.00     0.042 C 
BRANCH  25  26
ATOM     26  C   UNL A   1      38.916  20.240  25.720  1.00  0.00     0.118 C 
BRANCH  26  27
ATOM     27  N   UNL A   1      40.029  19.315  25.859  1.00  0.00    -0.352 N 
ATOM     28  C   UNL A   1      41.354  19.582  26.099  1.00  0.00     0.251 C 
ATOM     29  H   UNL A   1      39.800  18.361  25.769  1.00  0.00     0.163 HD
ATOM     30  O   UNL A   1      42.202  18.726  25.875  1.00  0.00    -0.269 OA
BRANCH  28  31
ATOM     31  C   UNL A   1      41.755  20.908  26.614  1.00  0.00     0.039 A 
ATOM     32  C   UNL A   1      42.162  21.898  25.716  1.00  0.00     0.014 A 
ATOM     33  C   UNL A   1      41.758  21.164  27.987  1.00  0.00     0.014 A 
ATOM     34  C   UNL A   1      42.531  23.155  26.198  1.00  0.00     0.010 A 
ATOM     35  C   UNL A   1      42.007  22.447  28.453  1.00  0.00     0.010 A 
ATOM     36  C   UNL A   1      42.431  23.446  27.568  1.00  0.00    -0.014 A 
BRANCH  36  37
ATOM     37  C   UNL A   1      42.832  24.765  28.116  1.00  0.00     0.031 A 
ATOM     38  C   UNL A   1      41.783  25.820  28.354  1.00  0.00     0.074 A 
ATOM     39  C   UNL A   1      44.131  25.033  28.341  1.00  0.00     0.049 A 
ATOM     40  N   UNL A   1      41.929  27.059  28.748  1.00  0.00    -0.248 NA
ATOM     41  C   UNL A   1      40.388  25.442  28.073  1.00  0.00     0.031 C 
ATOM     42  C   UNL A   1      45.243  24.110  28.103  1.00  0.00     0.029 A 
ATOM     43  N   UNL A   1      44.737  26.167  28.819  1.00  0.00    -0.354 N 
ATOM     44  C   UNL A   1      40.653  27.610  28.735  1.00  0.00     0.074 A 
ATOM     45  C   UNL A   1      39.757  26.596  28.230  1.00  0.00     0.031 C 
ATOM     46  C   UNL A   1      46.391  24.701  28.473  1.00  0.00     0.029 A 
ATOM     47  C   UNL A   1      46.101  26.054  28.936  1.00  0.00     0.049 A 
ATOM     48  H   UNL A   1      44.241  26.983  29.056  1.00  0.00     0.167 HD
ATOM     49  C   UNL A   1      40.256  28.839  29.141  1.00  0.00     0.037 A 
ATOM     50  C   UNL A   1      47.011  26.943  29.373  1.00  0.00     0.037 A 
ATOM     51  C   UNL A   1      41.145  29.829  29.684  1.00  0.00     0.049 A 
ATOM     52  C   UNL A   1      46.546  28.300  29.825  1.00  0.00     0.074 A 
ATOM     53  C   UNL A   1      40.842  31.083  30.184  1.00  0.00     0.029 A 
ATOM     54  N   UNL A   1      42.518  29.670  29.804  1.00  0.00    -0.354 N 
ATOM     55  N   UNL A   1      45.329  28.787  29.865  1.00  0.00    -0.248 NA
ATOM     56  C   UNL A   1      47.582  29.229  30.296  1.00  0.00     0.031 C 
ATOM     57  C   UNL A   1      42.037  31.696  30.574  1.00  0.00     0.029 A 
ATOM     58  C   UNL A   1      43.079  30.808  30.355  1.00  0.00     0.049 A 
ATOM     59  H   UNL A   1      43.019  28.866  29.536  1.00  0.00     0.167 HD
ATOM     60  C   UNL A   1      45.449  30.066  30.392  1.00  0.00     0.074 A 
ATOM     61  C   UNL A   1      46.856  30.274  30.667  1.00  0.00     0.031 C 
ATOM     62  C   UNL A   1      44.483  30.986  30.629  1.00  0.00     0.037 A 
BRANCH  49  63
ATOM     63  C   UNL A   1      38.795  29.165  29.019  1.00  0.00     0.057 A 
ATOM     64  C   UNL A   1      38.230  29.584  27.805  1.00  0.00     0.134 A 
ATOM     65  C   UNL A   1      37.941  29.056  30.124  1.00  0.00     0.134 A 
ATOM     66  F   UNL A   1      38.995  29.725  26.712  1.00  0.00    -0.206 F 
ATOM     67  C   UNL A   1      36.878  29.918  27.705  1.00  0.00     0.040 A 
ATOM     68  C   UNL A   1      36.582  29.359  30.027  1.00  0.00     0.040 A 
ATOM     69  F   UNL A   1      38.413  28.656  31.314  1.00  0.00    -0.206 F 
ATOM     70  C   UNL A   1      36.049  29.802  28.818  1.00  0.00     0.006 A 
ENDBRANCH  49  63
BRANCH  50  71
ATOM     71  C   UNL A   1      48.444  26.566  29.447  1.00  0.00     0.057 A 
ATOM     72  C   UNL A   1      48.958  25.923  30.580  1.00  0.00     0.134 A 
ATOM     73  C   UNL A   1      49.331  26.831  28.398  1.00  0.00     0.134 A 
ATOM     74  F   UNL A   1      48.159  25.656  31.623  1.00  0.00    -0.206 F 
ATOM     75  C   UNL A   1      50.305  25.574  30.675  1.00  0.00     0.040 A 
ATOM     76  C   UNL A   1      50.677  26.467  28.470  1.00  0.00     0.040 A 
ATOM     77  F   UNL A   1      48.899  27.434  27.281  1.00  0.00    -0.206 F 
ATOM     78  C   UNL A   1      51.169  25.842  29.615  1.00  0.00     0.006 A 
ENDBRANCH  50  71
BRANCH  62  79
ATOM     79  C   UNL A   1      44.911  32.284  31.247  1.00  0.00     0.057 A 
ATOM     80  C   UNL A   1      44.994  32.449  32.634  1.00  0.00     0.134 A 
ATOM     81  C   UNL A   1      45.281  33.367  30.439  1.00  0.00     0.134 A 
ATOM     82  F   UNL A   1      44.640  31.452  33.459  1.00  0.00    -0.206 F 
ATOM     83  C   UNL A   1      45.410  33.655  33.199  1.00  0.00     0.040 A 
ATOM     84  C   UNL A   1      45.723  34.569  30.993  1.00  0.00     0.040 A 
ATOM     85  F   UNL A   1      45.232  33.270  29.102  1.00  0.00    -0.206 F 
ATOM     86  C   UNL A   1      45.783  34.717  32.377  1.00  0.00     0.006 A 
ENDBRANCH  62  79
ENDBRANCH  36  37
ENDBRANCH  28  31
ENDBRANCH  26  27
ENDBRANCH  25  26
ENDBRANCH   1  25
TORSDOF 13
ENDMDL
