MODEL 1
REMARK VINA RESULT:     -13.9      0.000      0.000
REMARK SMILES Cc1ccc([C@H]2NC(=O)N(C)C3=C2C(=O)N(c2cccc(C(=O)NCCCNC(=O)c4ccc(-c5c6nc(c(-c7c(F)cccc7F)c7ccc([nH]7)c(-c7c(F)cccc7F)c7nc(c(-c8c(F)cccc8F)c8ccc5[nH]8)C=C7)C=C6)cc4)c2)C3)cc1
REMARK SMILES IDX 26 1 25 2 24 3 22 4 23 5 21 7 17 8 18 9 85 10 19 11 20 12
REMARK SMILES IDX 16 13 6 14 7 15 13 16 8 17 12 19 14 20 9 21 10 22 86 23
REMARK SMILES IDX 15 24 11 25 5 26 1 27 2 28 3 29 88 30 4 31 87 32 27 33 28 34
REMARK SMILES IDX 29 35 30 37 31 38 32 39 84 40 33 41 83 42 34 43 35 44 36 45
REMARK SMILES IDX 77 46 37 47 82 48 76 49 78 50 38 51 81 52 75 53 74 54 39 56
REMARK SMILES IDX 65 57 48 58 64 59 49 60 52 61 63 62 79 63 50 64 51 65 62 67
REMARK SMILES IDX 80 68 53 69 40 70 41 71 46 72 42 73 43 74 45 75 47 76 44 77
REMARK SMILES IDX 66 78 67 79 72 80 68 81 69 82 71 83 73 84 70 85 54 86 55 87
REMARK SMILES IDX 60 88 56 89 57 90 59 91 61 92 58 93
REMARK H PARENT 24 6 7 18 28 36 78 55 52 66
REMARK Flexibility Score: inf
ROOT
ATOM      1  C   UNL A   1      33.398  35.907  29.188  1.00  0.00     0.042 C 
ENDROOT
BRANCH   1   2
ATOM      2  C   UNL A   1      33.725  34.703  28.308  1.00  0.00     0.118 C 
BRANCH   2   3
ATOM      3  N   UNL A   1      32.514  34.142  27.741  1.00  0.00    -0.352 N 
ATOM      4  C   UNL A   1      32.215  32.896  27.246  1.00  0.00     0.251 C 
ATOM      5  O   UNL A   1      31.077  32.744  26.796  1.00  0.00    -0.269 OA
ATOM      6  H   UNL A   1      31.762  34.775  27.704  1.00  0.00     0.163 HD
BRANCH   4   7
ATOM      7  C   UNL A   1      33.152  31.726  27.254  1.00  0.00     0.041 A 
ATOM      8  C   UNL A   1      33.474  29.406  26.569  1.00  0.00     0.045 A 
ATOM      9  C   UNL A   1      34.627  29.329  27.350  1.00  0.00     0.026 A 
ATOM     10  C   UNL A   1      32.748  30.600  26.516  1.00  0.00     0.040 A 
ATOM     11  C   UNL A   1      35.094  30.459  28.001  1.00  0.00     0.003 A 
ATOM     12  C   UNL A   1      34.365  31.647  27.943  1.00  0.00     0.014 A 
BRANCH   8  13
ATOM     13  N   UNL A   1      33.040  28.277  25.864  1.00  0.00    -0.303 N 
ATOM     14  C   UNL A   1      33.368  25.502  23.459  1.00  0.00     0.152 C 
ATOM     15  N   UNL A   1      32.214  24.652  23.190  1.00  0.00    -0.327 N 
ATOM     16  C   UNL A   1      32.932  26.565  24.373  1.00  0.00     0.066 C 
ATOM     17  C   UNL A   1      31.063  24.576  23.926  1.00  0.00     0.322 C 
ATOM     18  H   UNL A   1      32.269  24.073  22.395  1.00  0.00     0.166 HD
ATOM     19  C   UNL A   1      31.841  26.512  25.133  1.00  0.00     0.053 C 
ATOM     20  C   UNL A   1      33.680  27.766  24.737  1.00  0.00     0.258 C 
ATOM     21  O   UNL A   1      30.226  23.723  23.640  1.00  0.00    -0.248 OA
ATOM     22  N   UNL A   1      30.910  25.516  24.945  1.00  0.00    -0.299 N 
ATOM     23  C   UNL A   1      31.831  27.560  26.192  1.00  0.00     0.180 C 
ATOM     24  O   UNL A   1      34.674  28.149  24.165  1.00  0.00    -0.269 OA
ATOM     25  C   UNL A   1      29.699  25.492  25.751  1.00  0.00     0.155 C 
BRANCH  14  26
ATOM     26  C   UNL A   1      34.530  24.659  23.992  1.00  0.00    -0.021 A 
ATOM     27  C   UNL A   1      37.890  22.291  25.376  1.00  0.00     0.044 C 
ATOM     28  C   UNL A   1      36.724  23.105  24.903  1.00  0.00    -0.051 A 
ATOM     29  C   UNL A   1      36.232  22.955  23.601  1.00  0.00     0.004 A 
ATOM     30  C   UNL A   1      36.106  24.020  25.753  1.00  0.00     0.004 A 
ATOM     31  C   UNL A   1      35.153  23.726  23.150  1.00  0.00     0.006 A 
ATOM     32  C   UNL A   1      35.020  24.777  25.308  1.00  0.00     0.006 A 
ENDBRANCH  14  26
ENDBRANCH   8  13
ENDBRANCH   4   7
ENDBRANCH   2   3
ENDBRANCH   1   2
BRANCH   1  33
ATOM     33  C   UNL A   1      32.947  35.500  30.575  1.00  0.00     0.118 C 
BRANCH  33  34
ATOM     34  N   UNL A   1      33.913  35.863  31.608  1.00  0.00    -0.352 N 
ATOM     35  C   UNL A   1      34.872  35.110  32.258  1.00  0.00     0.251 C 
ATOM     36  H   UNL A   1      33.874  36.805  31.891  1.00  0.00     0.163 HD
ATOM     37  O   UNL A   1      35.528  35.628  33.157  1.00  0.00    -0.269 OA
BRANCH  35  38
ATOM     38  C   UNL A   1      35.260  33.776  31.735  1.00  0.00     0.039 A 
ATOM     39  C   UNL A   1      35.364  32.764  32.701  1.00  0.00     0.014 A 
ATOM     40  C   UNL A   1      35.954  33.678  30.539  1.00  0.00     0.014 A 
ATOM     41  C   UNL A   1      36.439  31.895  32.642  1.00  0.00     0.010 A 
ATOM     42  C   UNL A   1      37.114  32.955  30.559  1.00  0.00     0.010 A 
ATOM     43  C   UNL A   1      37.379  32.121  31.646  1.00  0.00    -0.014 A 
BRANCH  43  44
ATOM     44  C   UNL A   1      38.662  31.468  31.578  1.00  0.00     0.031 A 
ATOM     45  C   UNL A   1      38.714  30.240  30.776  1.00  0.00     0.074 A 
ATOM     46  C   UNL A   1      39.734  32.113  32.084  1.00  0.00     0.049 A 
ATOM     47  N   UNL A   1      39.586  29.312  30.920  1.00  0.00    -0.248 NA
ATOM     48  C   UNL A   1      37.702  29.924  29.768  1.00  0.00     0.031 C 
ATOM     49  C   UNL A   1      41.147  31.846  31.854  1.00  0.00     0.029 A 
ATOM     50  N   UNL A   1      39.729  33.088  33.089  1.00  0.00    -0.354 N 
ATOM     51  C   UNL A   1      39.465  28.473  29.831  1.00  0.00     0.074 A 
ATOM     52  C   UNL A   1      38.202  28.811  29.230  1.00  0.00     0.031 C 
ATOM     53  C   UNL A   1      41.860  32.389  32.859  1.00  0.00     0.029 A 
ATOM     54  C   UNL A   1      40.909  32.892  33.837  1.00  0.00     0.049 A 
ATOM     55  H   UNL A   1      39.039  33.774  33.244  1.00  0.00     0.167 HD
ATOM     56  C   UNL A   1      40.549  27.728  29.478  1.00  0.00     0.037 A 
ATOM     57  C   UNL A   1      40.832  32.471  35.137  1.00  0.00     0.037 A 
ATOM     58  C   UNL A   1      41.626  27.967  30.438  1.00  0.00     0.049 A 
ATOM     59  C   UNL A   1      41.411  31.086  35.310  1.00  0.00     0.074 A 
ATOM     60  C   UNL A   1      42.684  28.862  30.420  1.00  0.00     0.029 A 
ATOM     61  N   UNL A   1      41.470  27.560  31.757  1.00  0.00    -0.354 N 
ATOM     62  N   UNL A   1      41.450  30.192  34.358  1.00  0.00    -0.248 NA
ATOM     63  C   UNL A   1      42.045  30.626  36.541  1.00  0.00     0.031 C 
ATOM     64  C   UNL A   1      43.116  29.047  31.757  1.00  0.00     0.029 A 
ATOM     65  C   UNL A   1      42.337  28.252  32.581  1.00  0.00     0.049 A 
ATOM     66  H   UNL A   1      40.831  26.875  32.063  1.00  0.00     0.167 HD
ATOM     67  C   UNL A   1      42.121  29.084  34.806  1.00  0.00     0.074 A 
ATOM     68  C   UNL A   1      42.466  29.401  36.179  1.00  0.00     0.031 C 
ATOM     69  C   UNL A   1      42.367  27.999  34.012  1.00  0.00     0.037 A 
BRANCH  56  70
ATOM     70  C   UNL A   1      40.772  27.062  28.138  1.00  0.00     0.057 A 
ATOM     71  C   UNL A   1      40.155  25.824  27.860  1.00  0.00     0.134 A 
ATOM     72  C   UNL A   1      41.594  27.534  27.100  1.00  0.00     0.134 A 
ATOM     73  F   UNL A   1      39.278  25.267  28.707  1.00  0.00    -0.206 F 
ATOM     74  C   UNL A   1      40.399  25.086  26.695  1.00  0.00     0.040 A 
ATOM     75  C   UNL A   1      41.871  26.792  25.940  1.00  0.00     0.040 A 
ATOM     76  F   UNL A   1      42.134  28.756  27.115  1.00  0.00    -0.206 F 
ATOM     77  C   UNL A   1      41.278  25.559  25.737  1.00  0.00     0.006 A 
ENDBRANCH  56  70
BRANCH  57  78
ATOM     78  C   UNL A   1      39.625  33.016  35.826  1.00  0.00     0.057 A 
ATOM     79  C   UNL A   1      38.580  32.111  36.103  1.00  0.00     0.134 A 
ATOM     80  C   UNL A   1      39.695  34.164  36.622  1.00  0.00     0.134 A 
ATOM     81  F   UNL A   1      38.435  31.006  35.355  1.00  0.00    -0.206 F 
ATOM     82  C   UNL A   1      37.775  32.236  37.239  1.00  0.00     0.040 A 
ATOM     83  C   UNL A   1      38.873  34.311  37.748  1.00  0.00     0.040 A 
ATOM     84  F   UNL A   1      40.647  35.084  36.415  1.00  0.00    -0.206 F 
ATOM     85  C   UNL A   1      37.958  33.316  38.095  1.00  0.00     0.006 A 
ENDBRANCH  57  78
BRANCH  69  86
ATOM     86  C   UNL A   1      42.774  26.629  34.498  1.00  0.00     0.057 A 
ATOM     87  C   UNL A   1      41.900  25.731  35.127  1.00  0.00     0.134 A 
ATOM     88  C   UNL A   1      44.051  26.101  34.194  1.00  0.00     0.134 A 
ATOM     89  F   UNL A   1      40.615  26.038  35.351  1.00  0.00    -0.206 F 
ATOM     90  C   UNL A   1      42.289  24.440  35.502  1.00  0.00     0.040 A 
ATOM     91  C   UNL A   1      44.427  24.791  34.500  1.00  0.00     0.040 A 
ATOM     92  F   UNL A   1      44.988  26.820  33.558  1.00  0.00    -0.206 F 
ATOM     93  C   UNL A   1      43.553  23.962  35.180  1.00  0.00     0.006 A 
ENDBRANCH  69  86
ENDBRANCH  43  44
ENDBRANCH  35  38
ENDBRANCH  33  34
ENDBRANCH   1  33
TORSDOF 12
ENDMDL
MODEL 2
REMARK VINA RESULT:     -13.9      4.580     10.221
REMARK SMILES Cc1ccc([C@H]2NC(=O)N(C)C3=C2C(=O)N(c2cccc(C(=O)NCCCNC(=O)c4ccc(-c5c6nc(c(-c7c(F)cccc7F)c7ccc([nH]7)c(-c7c(F)cccc7F)c7nc(c(-c8c(F)cccc8F)c8ccc5[nH]8)C=C7)C=C6)cc4)c2)C3)cc1
REMARK SMILES IDX 26 1 25 2 24 3 22 4 23 5 21 7 17 8 18 9 85 10 19 11 20 12
REMARK SMILES IDX 16 13 6 14 7 15 13 16 8 17 12 19 14 20 9 21 10 22 86 23
REMARK SMILES IDX 15 24 11 25 5 26 1 27 2 28 3 29 88 30 4 31 87 32 27 33 28 34
REMARK SMILES IDX 29 35 30 37 31 38 32 39 84 40 33 41 83 42 34 43 35 44 36 45
REMARK SMILES IDX 77 46 37 47 82 48 76 49 78 50 38 51 81 52 75 53 74 54 39 56
REMARK SMILES IDX 65 57 48 58 64 59 49 60 52 61 63 62 79 63 50 64 51 65 62 67
REMARK SMILES IDX 80 68 53 69 40 70 41 71 46 72 42 73 43 74 45 75 47 76 44 77
REMARK SMILES IDX 66 78 67 79 72 80 68 81 69 82 71 83 73 84 70 85 54 86 55 87
REMARK SMILES IDX 60 88 56 89 57 90 59 91 61 92 58 93
REMARK H PARENT 24 6 7 18 28 36 78 55 52 66
REMARK Flexibility Score: inf
ROOT
ATOM      1  C   UNL A   1      41.913  21.562  27.114  1.00  0.00     0.042 C 
ENDROOT
BRANCH   1   2
ATOM      2  C   UNL A   1      40.392  21.592  27.244  1.00  0.00     0.118 C 
BRANCH   2   3
ATOM      3  N   UNL A   1      39.919  22.955  27.388  1.00  0.00    -0.352 N 
ATOM      4  C   UNL A   1      38.865  23.633  26.826  1.00  0.00     0.251 C 
ATOM      5  O   UNL A   1      38.750  24.821  27.136  1.00  0.00    -0.269 OA
ATOM      6  H   UNL A   1      40.456  23.499  28.008  1.00  0.00     0.163 HD
BRANCH   4   7
ATOM      7  C   UNL A   1      37.847  23.023  25.911  1.00  0.00     0.041 A 
ATOM      8  C   UNL A   1      35.688  23.332  24.814  1.00  0.00     0.045 A 
ATOM      9  C   UNL A   1      35.689  21.995  24.422  1.00  0.00     0.026 A 
ATOM     10  C   UNL A   1      36.766  23.844  25.546  1.00  0.00     0.040 A 
ATOM     11  C   UNL A   1      36.793  21.200  24.684  1.00  0.00     0.003 A 
ATOM     12  C   UNL A   1      37.864  21.717  25.414  1.00  0.00     0.014 A 
BRANCH   8  13
ATOM     13  N   UNL A   1      34.597  24.147  24.493  1.00  0.00    -0.303 N 
ATOM     14  C   UNL A   1      31.764  26.390  25.222  1.00  0.00     0.152 C 
ATOM     15  N   UNL A   1      30.907  26.836  24.130  1.00  0.00    -0.327 N 
ATOM     16  C   UNL A   1      32.740  25.448  24.664  1.00  0.00     0.066 C 
ATOM     17  C   UNL A   1      31.175  26.746  22.790  1.00  0.00     0.322 C 
ATOM     18  H   UNL A   1      30.048  27.244  24.382  1.00  0.00     0.166 HD
ATOM     19  C   UNL A   1      33.055  25.356  23.374  1.00  0.00     0.053 C 
ATOM     20  C   UNL A   1      33.646  24.581  25.414  1.00  0.00     0.258 C 
ATOM     21  O   UNL A   1      30.406  27.276  21.991  1.00  0.00    -0.248 OA
ATOM     22  N   UNL A   1      32.305  26.015  22.426  1.00  0.00    -0.299 N 
ATOM     23  C   UNL A   1      34.299  24.568  23.144  1.00  0.00     0.180 C 
ATOM     24  O   UNL A   1      33.562  24.371  26.602  1.00  0.00    -0.269 OA
ATOM     25  C   UNL A   1      32.630  25.873  21.016  1.00  0.00     0.155 C 
BRANCH  14  26
ATOM     26  C   UNL A   1      32.393  27.597  25.925  1.00  0.00    -0.021 A 
ATOM     27  C   UNL A   1      34.261  31.034  27.799  1.00  0.00     0.044 C 
ATOM     28  C   UNL A   1      33.613  29.843  27.159  1.00  0.00    -0.051 A 
ATOM     29  C   UNL A   1      34.386  28.889  26.486  1.00  0.00     0.004 A 
ATOM     30  C   UNL A   1      32.234  29.663  27.228  1.00  0.00     0.004 A 
ATOM     31  C   UNL A   1      33.783  27.784  25.872  1.00  0.00     0.006 A 
ATOM     32  C   UNL A   1      31.634  28.553  26.630  1.00  0.00     0.006 A 
ENDBRANCH  14  26
ENDBRANCH   8  13
ENDBRANCH   4   7
ENDBRANCH   2   3
ENDBRANCH   1   2
BRANCH   1  33
ATOM     33  C   UNL A   1      42.419  22.516  26.052  1.00  0.00     0.118 C 
BRANCH  33  34
ATOM     34  N   UNL A   1      43.233  21.848  25.041  1.00  0.00    -0.352 N 
ATOM     35  C   UNL A   1      44.486  22.147  24.542  1.00  0.00     0.251 C 
ATOM     36  H   UNL A   1      42.818  21.047  24.646  1.00  0.00     0.163 HD
ATOM     37  O   UNL A   1      44.942  21.468  23.627  1.00  0.00    -0.269 OA
BRANCH  35  38
ATOM     38  C   UNL A   1      45.358  23.123  25.242  1.00  0.00     0.039 A 
ATOM     39  C   UNL A   1      45.505  22.911  26.621  1.00  0.00     0.014 A 
ATOM     40  C   UNL A   1      45.554  24.386  24.703  1.00  0.00     0.014 A 
ATOM     41  C   UNL A   1      45.446  24.000  27.472  1.00  0.00     0.010 A 
ATOM     42  C   UNL A   1      45.312  25.450  25.525  1.00  0.00     0.010 A 
ATOM     43  C   UNL A   1      45.190  25.237  26.899  1.00  0.00    -0.014 A 
BRANCH  43  44
ATOM     44  C   UNL A   1      44.869  26.428  27.644  1.00  0.00     0.031 A 
ATOM     45  C   UNL A   1      43.462  26.845  27.608  1.00  0.00     0.074 A 
ATOM     46  C   UNL A   1      45.816  26.952  28.450  1.00  0.00     0.049 A 
ATOM     47  N   UNL A   1      43.051  28.039  27.823  1.00  0.00    -0.248 NA
ATOM     48  C   UNL A   1      42.386  25.926  27.241  1.00  0.00     0.031 C 
ATOM     49  C   UNL A   1      45.658  27.915  29.531  1.00  0.00     0.029 A 
ATOM     50  N   UNL A   1      47.203  26.813  28.314  1.00  0.00    -0.354 N 
ATOM     51  C   UNL A   1      41.680  27.975  27.961  1.00  0.00     0.074 A 
ATOM     52  C   UNL A   1      41.308  26.681  27.453  1.00  0.00     0.031 C 
ATOM     53  C   UNL A   1      46.847  28.502  29.766  1.00  0.00     0.029 A 
ATOM     54  C   UNL A   1      47.767  28.035  28.740  1.00  0.00     0.049 A 
ATOM     55  H   UNL A   1      47.689  26.022  27.986  1.00  0.00     0.167 HD
ATOM     56  C   UNL A   1      41.063  28.964  28.666  1.00  0.00     0.037 A 
ATOM     57  C   UNL A   1      48.405  28.844  27.840  1.00  0.00     0.037 A 
ATOM     58  C   UNL A   1      42.062  29.950  29.078  1.00  0.00     0.049 A 
ATOM     59  C   UNL A   1      47.664  30.145  27.636  1.00  0.00     0.074 A 
ATOM     60  C   UNL A   1      42.799  30.070  30.245  1.00  0.00     0.029 A 
ATOM     61  N   UNL A   1      42.713  30.708  28.114  1.00  0.00    -0.354 N 
ATOM     62  N   UNL A   1      46.375  30.280  27.802  1.00  0.00    -0.248 NA
ATOM     63  C   UNL A   1      48.323  31.402  27.293  1.00  0.00     0.031 C 
ATOM     64  C   UNL A   1      43.947  30.849  29.953  1.00  0.00     0.029 A 
ATOM     65  C   UNL A   1      43.894  31.219  28.619  1.00  0.00     0.049 A 
ATOM     66  H   UNL A   1      42.381  30.861  27.199  1.00  0.00     0.167 HD
ATOM     67  C   UNL A   1      46.033  31.596  27.634  1.00  0.00     0.074 A 
ATOM     68  C   UNL A   1      47.284  32.256  27.310  1.00  0.00     0.031 C 
ATOM     69  C   UNL A   1      44.756  32.054  27.799  1.00  0.00     0.037 A 
BRANCH  56  70
ATOM     70  C   UNL A   1      39.675  28.897  29.264  1.00  0.00     0.057 A 
ATOM     71  C   UNL A   1      38.563  29.307  28.498  1.00  0.00     0.134 A 
ATOM     72  C   UNL A   1      39.349  28.493  30.570  1.00  0.00     0.134 A 
ATOM     73  F   UNL A   1      38.682  29.650  27.208  1.00  0.00    -0.206 F 
ATOM     74  C   UNL A   1      37.262  29.387  29.011  1.00  0.00     0.040 A 
ATOM     75  C   UNL A   1      38.056  28.595  31.107  1.00  0.00     0.040 A 
ATOM     76  F   UNL A   1      40.242  27.926  31.387  1.00  0.00    -0.206 F 
ATOM     77  C   UNL A   1      37.006  29.051  30.329  1.00  0.00     0.006 A 
ENDBRANCH  56  70
BRANCH  57  78
ATOM     78  C   UNL A   1      49.111  28.054  26.788  1.00  0.00     0.057 A 
ATOM     79  C   UNL A   1      50.303  27.403  27.167  1.00  0.00     0.134 A 
ATOM     80  C   UNL A   1      48.428  27.532  25.685  1.00  0.00     0.134 A 
ATOM     81  F   UNL A   1      51.026  27.873  28.196  1.00  0.00    -0.206 F 
ATOM     82  C   UNL A   1      50.686  26.180  26.610  1.00  0.00     0.040 A 
ATOM     83  C   UNL A   1      48.822  26.319  25.102  1.00  0.00     0.040 A 
ATOM     84  F   UNL A   1      47.296  28.101  25.249  1.00  0.00    -0.206 F 
ATOM     85  C   UNL A   1      49.911  25.608  25.607  1.00  0.00     0.006 A 
ENDBRANCH  57  78
BRANCH  69  86
ATOM     86  C   UNL A   1      44.227  33.380  27.308  1.00  0.00     0.057 A 
ATOM     87  C   UNL A   1      43.926  33.652  25.966  1.00  0.00     0.134 A 
ATOM     88  C   UNL A   1      43.847  34.392  28.220  1.00  0.00     0.134 A 
ATOM     89  F   UNL A   1      44.097  32.735  25.004  1.00  0.00    -0.206 F 
ATOM     90  C   UNL A   1      43.370  34.869  25.552  1.00  0.00     0.040 A 
ATOM     91  C   UNL A   1      43.227  35.579  27.826  1.00  0.00     0.040 A 
ATOM     92  F   UNL A   1      44.031  34.267  29.543  1.00  0.00    -0.206 F 
ATOM     93  C   UNL A   1      43.009  35.833  26.483  1.00  0.00     0.006 A 
ENDBRANCH  69  86
ENDBRANCH  43  44
ENDBRANCH  35  38
ENDBRANCH  33  34
ENDBRANCH   1  33
TORSDOF 12
ENDMDL
MODEL 3
REMARK VINA RESULT:     -13.6      1.537      2.292
REMARK SMILES Cc1ccc([C@H]2NC(=O)N(C)C3=C2C(=O)N(c2cccc(C(=O)NCCCNC(=O)c4ccc(-c5c6nc(c(-c7c(F)cccc7F)c7ccc([nH]7)c(-c7c(F)cccc7F)c7nc(c(-c8c(F)cccc8F)c8ccc5[nH]8)C=C7)C=C6)cc4)c2)C3)cc1
REMARK SMILES IDX 26 1 25 2 24 3 22 4 23 5 21 7 17 8 18 9 85 10 19 11 20 12
REMARK SMILES IDX 16 13 6 14 7 15 13 16 8 17 12 19 14 20 9 21 10 22 86 23
REMARK SMILES IDX 15 24 11 25 5 26 1 27 2 28 3 29 88 30 4 31 87 32 27 33 28 34
REMARK SMILES IDX 29 35 30 37 31 38 32 39 84 40 33 41 83 42 34 43 35 44 36 45
REMARK SMILES IDX 77 46 37 47 82 48 76 49 78 50 38 51 81 52 75 53 74 54 39 56
REMARK SMILES IDX 65 57 48 58 64 59 49 60 52 61 63 62 79 63 50 64 51 65 62 67
REMARK SMILES IDX 80 68 53 69 40 70 41 71 46 72 42 73 43 74 45 75 47 76 44 77
REMARK SMILES IDX 66 78 67 79 72 80 68 81 69 82 71 83 73 84 70 85 54 86 55 87
REMARK SMILES IDX 60 88 56 89 57 90 59 91 61 92 58 93
REMARK H PARENT 24 6 7 18 28 36 78 55 52 66
REMARK Flexibility Score: inf
ROOT
ATOM      1  C   UNL A   1      34.973  33.445  28.524  1.00  0.00     0.042 C 
ENDROOT
BRANCH   1   2
ATOM      2  C   UNL A   1      34.413  32.314  27.665  1.00  0.00     0.118 C 
BRANCH   2   3
ATOM      3  N   UNL A   1      35.261  31.141  27.752  1.00  0.00    -0.352 N 
ATOM      4  C   UNL A   1      35.070  29.831  27.382  1.00  0.00     0.251 C 
ATOM      5  O   UNL A   1      35.995  29.053  27.626  1.00  0.00    -0.269 OA
ATOM      6  H   UNL A   1      36.143  31.316  28.152  1.00  0.00     0.163 HD
BRANCH   4   7
ATOM      7  C   UNL A   1      33.852  29.310  26.682  1.00  0.00     0.041 A 
ATOM      8  C   UNL A   1      32.797  27.356  25.670  1.00  0.00     0.045 A 
ATOM      9  C   UNL A   1      31.788  28.162  25.148  1.00  0.00     0.026 A 
ATOM     10  C   UNL A   1      33.817  27.926  26.440  1.00  0.00     0.040 A 
ATOM     11  C   UNL A   1      31.751  29.511  25.462  1.00  0.00     0.003 A 
ATOM     12  C   UNL A   1      32.771  30.074  26.232  1.00  0.00     0.014 A 
BRANCH   8  13
ATOM     13  N   UNL A   1      32.795  25.982  25.399  1.00  0.00    -0.303 N 
ATOM     14  C   UNL A   1      34.107  22.851  23.961  1.00  0.00     0.152 C 
ATOM     15  N   UNL A   1      33.325  21.627  24.087  1.00  0.00    -0.327 N 
ATOM     16  C   UNL A   1      33.313  23.944  24.536  1.00  0.00     0.066 C 
ATOM     17  C   UNL A   1      32.261  21.416  24.922  1.00  0.00     0.322 C 
ATOM     18  H   UNL A   1      33.591  20.873  23.512  1.00  0.00     0.166 HD
ATOM     19  C   UNL A   1      32.296  23.782  25.379  1.00  0.00     0.053 C 
ATOM     20  C   UNL A   1      33.591  25.375  24.430  1.00  0.00     0.258 C 
ATOM     21  O   UNL A   1      31.778  20.289  25.001  1.00  0.00    -0.248 OA
ATOM     22  N   UNL A   1      31.773  22.529  25.606  1.00  0.00    -0.299 N 
ATOM     23  C   UNL A   1      31.905  25.052  26.054  1.00  0.00     0.180 C 
ATOM     24  O   UNL A   1      34.398  25.859  23.671  1.00  0.00    -0.269 OA
ATOM     25  C   UNL A   1      30.634  22.368  26.496  1.00  0.00     0.155 C 
BRANCH  14  26
ATOM     26  C   UNL A   1      35.481  22.669  24.612  1.00  0.00    -0.021 A 
ATOM     27  C   UNL A   1      39.414  22.074  26.340  1.00  0.00     0.044 C 
ATOM     28  C   UNL A   1      38.052  22.281  25.750  1.00  0.00    -0.051 A 
ATOM     29  C   UNL A   1      37.386  21.228  25.112  1.00  0.00     0.004 A 
ATOM     30  C   UNL A   1      37.423  23.521  25.834  1.00  0.00     0.004 A 
ATOM     31  C   UNL A   1      36.119  21.421  24.545  1.00  0.00     0.006 A 
ATOM     32  C   UNL A   1      36.154  23.709  25.284  1.00  0.00     0.006 A 
ENDBRANCH  14  26
ENDBRANCH   8  13
ENDBRANCH   4   7
ENDBRANCH   2   3
ENDBRANCH   1   2
BRANCH   1  33
ATOM     33  C   UNL A   1      35.265  33.002  29.942  1.00  0.00     0.118 C 
BRANCH  33  34
ATOM     34  N   UNL A   1      34.296  33.522  30.902  1.00  0.00    -0.352 N 
ATOM     35  C   UNL A   1      34.400  33.755  32.260  1.00  0.00     0.251 C 
ATOM     36  H   UNL A   1      33.417  33.744  30.517  1.00  0.00     0.163 HD
ATOM     37  O   UNL A   1      33.409  34.134  32.878  1.00  0.00    -0.269 OA
BRANCH  35  38
ATOM     38  C   UNL A   1      35.729  33.765  32.920  1.00  0.00     0.039 A 
ATOM     39  C   UNL A   1      36.720  34.502  32.254  1.00  0.00     0.014 A 
ATOM     40  C   UNL A   1      36.081  32.738  33.781  1.00  0.00     0.014 A 
ATOM     41  C   UNL A   1      37.989  33.963  32.141  1.00  0.00     0.010 A 
ATOM     42  C   UNL A   1      37.265  32.103  33.531  1.00  0.00     0.010 A 
ATOM     43  C   UNL A   1      38.182  32.689  32.657  1.00  0.00    -0.014 A 
BRANCH  43  44
ATOM     44  C   UNL A   1      39.357  31.888  32.427  1.00  0.00     0.031 A 
ATOM     45  C   UNL A   1      39.186  30.743  31.525  1.00  0.00     0.074 A 
ATOM     46  C   UNL A   1      40.540  32.342  32.892  1.00  0.00     0.049 A 
ATOM     47  N   UNL A   1      39.933  29.703  31.518  1.00  0.00    -0.248 NA
ATOM     48  C   UNL A   1      38.070  30.653  30.583  1.00  0.00     0.031 C 
ATOM     49  C   UNL A   1      41.884  31.920  32.523  1.00  0.00     0.029 A 
ATOM     50  N   UNL A   1      40.739  33.213  33.971  1.00  0.00    -0.354 N 
ATOM     51  C   UNL A   1      39.622  28.990  30.378  1.00  0.00     0.074 A 
ATOM     52  C   UNL A   1      38.376  29.540  29.915  1.00  0.00     0.031 C 
ATOM     53  C   UNL A   1      42.735  32.273  33.504  1.00  0.00     0.029 A 
ATOM     54  C   UNL A   1      41.934  32.800  34.598  1.00  0.00     0.049 A 
ATOM     55  H   UNL A   1      40.160  33.963  34.239  1.00  0.00     0.167 HD
ATOM     56  C   UNL A   1      40.568  28.149  29.875  1.00  0.00     0.037 A 
ATOM     57  C   UNL A   1      41.896  32.273  35.860  1.00  0.00     0.037 A 
ATOM     58  C   UNL A   1      41.735  28.159  30.757  1.00  0.00     0.049 A 
ATOM     59  C   UNL A   1      42.295  30.816  35.869  1.00  0.00     0.074 A 
ATOM     60  C   UNL A   1      42.899  28.910  30.723  1.00  0.00     0.029 A 
ATOM     61  N   UNL A   1      41.622  27.655  32.047  1.00  0.00    -0.354 N 
ATOM     62  N   UNL A   1      42.145  30.017  34.847  1.00  0.00    -0.248 NA
ATOM     63  C   UNL A   1      42.950  30.168  37.001  1.00  0.00     0.031 C 
ATOM     64  C   UNL A   1      43.448  28.915  32.030  1.00  0.00     0.029 A 
ATOM     65  C   UNL A   1      42.632  28.152  32.849  1.00  0.00     0.049 A 
ATOM     66  H   UNL A   1      40.921  27.032  32.348  1.00  0.00     0.167 HD
ATOM     67  C   UNL A   1      42.692  28.795  35.144  1.00  0.00     0.074 A 
ATOM     68  C   UNL A   1      43.176  28.938  36.505  1.00  0.00     0.031 C 
ATOM     69  C   UNL A   1      42.732  27.766  34.246  1.00  0.00     0.037 A 
BRANCH  56  70
ATOM     70  C   UNL A   1      40.602  27.588  28.470  1.00  0.00     0.057 A 
ATOM     71  C   UNL A   1      39.991  26.345  28.199  1.00  0.00     0.134 A 
ATOM     72  C   UNL A   1      41.236  28.166  27.357  1.00  0.00     0.134 A 
ATOM     73  F   UNL A   1      39.276  25.692  29.126  1.00  0.00    -0.206 F 
ATOM     74  C   UNL A   1      40.075  25.700  26.959  1.00  0.00     0.040 A 
ATOM     75  C   UNL A   1      41.354  27.518  26.117  1.00  0.00     0.040 A 
ATOM     76  F   UNL A   1      41.730  29.407  27.381  1.00  0.00    -0.206 F 
ATOM     77  C   UNL A   1      40.778  26.276  25.915  1.00  0.00     0.006 A 
ENDBRANCH  56  70
BRANCH  57  78
ATOM     78  C   UNL A   1      40.826  32.902  36.692  1.00  0.00     0.057 A 
ATOM     79  C   UNL A   1      41.066  34.208  37.164  1.00  0.00     0.134 A 
ATOM     80  C   UNL A   1      39.490  32.502  36.587  1.00  0.00     0.134 A 
ATOM     81  F   UNL A   1      42.326  34.645  37.320  1.00  0.00    -0.206 F 
ATOM     82  C   UNL A   1      40.033  35.136  37.327  1.00  0.00     0.040 A 
ATOM     83  C   UNL A   1      38.447  33.419  36.776  1.00  0.00     0.040 A 
ATOM     84  F   UNL A   1      39.175  31.271  36.163  1.00  0.00    -0.206 F 
ATOM     85  C   UNL A   1      38.720  34.753  37.080  1.00  0.00     0.006 A 
ENDBRANCH  57  78
BRANCH  69  86
ATOM     86  C   UNL A   1      42.986  26.316  34.581  1.00  0.00     0.057 A 
ATOM     87  C   UNL A   1      42.045  25.481  35.200  1.00  0.00     0.134 A 
ATOM     88  C   UNL A   1      44.159  25.663  34.134  1.00  0.00     0.134 A 
ATOM     89  F   UNL A   1      40.831  25.924  35.550  1.00  0.00    -0.206 F 
ATOM     90  C   UNL A   1      42.285  24.122  35.434  1.00  0.00     0.040 A 
ATOM     91  C   UNL A   1      44.378  24.294  34.299  1.00  0.00     0.040 A 
ATOM     92  F   UNL A   1      45.137  26.315  33.489  1.00  0.00    -0.206 F 
ATOM     93  C   UNL A   1      43.450  23.521  34.974  1.00  0.00     0.006 A 
ENDBRANCH  69  86
ENDBRANCH  43  44
ENDBRANCH  35  38
ENDBRANCH  33  34
ENDBRANCH   1  33
TORSDOF 12
ENDMDL
