MODEL 1
REMARK VINA RESULT:     -12.3      0.000      0.000
REMARK SMILES NC(=O)c1ccc(NC(=O)Cc2ccccc2C(=O)NCCCNC(=O)c2ccc(-c3c4nc(c(-c5c(F)cccc5F)c5ccc([nH]5)c(-c5c(F)cccc5F)c5nc(c(-c6c(F)cccc6F)c6ccc3[nH]6)C=C5)C=C4)cc2)cc1
REMARK SMILES IDX 21 1 20 2 18 3 19 4 17 6 12 7 13 8 14 9 16 10 15 11 11 12
REMARK SMILES IDX 9 13 8 14 10 16 7 17 4 18 5 19 82 20 6 21 81 22 2 23 1 24
REMARK SMILES IDX 3 27 22 28 23 29 24 30 25 31 26 33 27 34 28 35 80 36 29 37
REMARK SMILES IDX 79 38 30 39 31 40 32 41 73 42 33 43 78 44 72 45 74 46 34 47
REMARK SMILES IDX 77 48 71 49 70 50 35 52 61 53 44 54 60 55 45 56 48 57 59 58
REMARK SMILES IDX 75 59 46 60 47 61 58 63 76 64 49 65 36 66 37 67 42 68 38 69
REMARK SMILES IDX 39 70 41 71 43 72 40 73 62 74 63 75 68 76 64 77 65 78 67 79
REMARK SMILES IDX 69 80 66 81 50 82 51 83 56 84 52 85 53 86 55 87 57 88 54 89
REMARK H PARENT 20 5 8 15 1 25 1 26 24 32 74 51 48 62
REMARK Flexibility Score: inf
ROOT
ATOM      1  C   UNL A   1      34.015  28.026  25.114  1.00  0.00     0.118 C 
ENDROOT
BRANCH   1   2
ATOM      2  N   UNL A   1      33.409  26.734  24.725  1.00  0.00    -0.352 N 
ATOM      3  C   UNL A   1      33.684  25.506  25.322  1.00  0.00     0.251 C 
ATOM      4  O   UNL A   1      32.864  25.162  26.180  1.00  0.00    -0.269 OA
ATOM      5  H   UNL A   1      32.759  26.742  23.985  1.00  0.00     0.163 HD
BRANCH   3   6
ATOM      6  C   UNL A   1      34.675  24.461  24.798  1.00  0.00     0.043 A 
ATOM      7  C   UNL A   1      34.652  23.595  23.678  1.00  0.00    -0.026 A 
ATOM      8  C   UNL A   1      35.823  22.842  23.357  1.00  0.00     0.005 A 
ATOM      9  C   UNL A   1      36.952  22.829  24.163  1.00  0.00     0.000 A 
ATOM     10  C   UNL A   1      35.839  24.389  25.614  1.00  0.00     0.014 A 
ATOM     11  C   UNL A   1      36.945  23.580  25.320  1.00  0.00     0.001 A 
BRANCH   7  12
ATOM     12  C   UNL A   1      33.533  23.350  22.698  1.00  0.00     0.136 C 
BRANCH  12  13
ATOM     13  C   UNL A   1      32.177  22.978  23.226  1.00  0.00     0.228 C 
ATOM     14  N   UNL A   1      32.106  22.044  24.210  1.00  0.00    -0.326 N 
ATOM     15  H   UNL A   1      31.833  22.403  25.085  1.00  0.00     0.169 HD
ATOM     16  O   UNL A   1      31.198  23.671  22.933  1.00  0.00    -0.274 OA
BRANCH  14  17
ATOM     17  C   UNL A   1      32.347  20.678  24.210  1.00  0.00     0.041 A 
ATOM     18  C   UNL A   1      32.953  17.994  23.929  1.00  0.00     0.039 A 
ATOM     19  C   UNL A   1      33.090  18.620  25.177  1.00  0.00     0.016 A 
ATOM     20  C   UNL A   1      32.456  18.694  22.832  1.00  0.00     0.016 A 
ATOM     21  C   UNL A   1      32.796  19.978  25.318  1.00  0.00     0.027 A 
ATOM     22  C   UNL A   1      32.154  20.037  22.977  1.00  0.00     0.027 A 
BRANCH  18  23
ATOM     23  C   UNL A   1      33.369  16.580  23.784  1.00  0.00     0.248 C 
ATOM     24  N   UNL A   1      32.821  15.708  24.690  1.00  0.00    -0.366 N 
ATOM     25  H   UNL A   1      33.052  14.752  24.654  1.00  0.00     0.159 HD
ATOM     26  H   UNL A   1      32.197  16.039  25.375  1.00  0.00     0.159 HD
ATOM     27  O   UNL A   1      34.109  16.219  22.898  1.00  0.00    -0.270 OA
ENDBRANCH  18  23
ENDBRANCH  14  17
ENDBRANCH  12  13
ENDBRANCH   7  12
ENDBRANCH   3   6
ENDBRANCH   1   2
BRANCH   1  28
ATOM     28  C   UNL A   1      33.029  28.954  25.863  1.00  0.00     0.042 C 
BRANCH  28  29
ATOM     29  C   UNL A   1      33.195  29.053  27.377  1.00  0.00     0.118 C 
BRANCH  29  30
ATOM     30  N   UNL A   1      33.535  30.404  27.775  1.00  0.00    -0.352 N 
ATOM     31  C   UNL A   1      34.631  30.883  28.457  1.00  0.00     0.251 C 
ATOM     32  H   UNL A   1      32.877  31.089  27.516  1.00  0.00     0.163 HD
ATOM     33  O   UNL A   1      34.512  31.956  29.049  1.00  0.00    -0.269 OA
BRANCH  31  34
ATOM     34  C   UNL A   1      35.948  30.185  28.491  1.00  0.00     0.039 A 
ATOM     35  C   UNL A   1      36.357  29.598  29.699  1.00  0.00     0.014 A 
ATOM     36  C   UNL A   1      36.860  30.238  27.435  1.00  0.00     0.014 A 
ATOM     37  C   UNL A   1      37.661  29.106  29.855  1.00  0.00     0.010 A 
ATOM     38  C   UNL A   1      38.129  29.659  27.558  1.00  0.00     0.010 A 
ATOM     39  C   UNL A   1      38.567  29.138  28.785  1.00  0.00    -0.014 A 
BRANCH  39  40
ATOM     40  C   UNL A   1      39.996  28.746  28.957  1.00  0.00     0.031 A 
ATOM     41  C   UNL A   1      40.975  29.726  29.564  1.00  0.00     0.074 A 
ATOM     42  C   UNL A   1      40.433  27.541  28.544  1.00  0.00     0.049 A 
ATOM     43  N   UNL A   1      42.273  29.628  29.713  1.00  0.00    -0.248 NA
ATOM     44  C   UNL A   1      40.423  31.009  30.029  1.00  0.00     0.031 C 
ATOM     45  C   UNL A   1      39.606  26.514  27.908  1.00  0.00     0.029 A 
ATOM     46  N   UNL A   1      41.685  26.976  28.589  1.00  0.00    -0.354 N 
ATOM     47  C   UNL A   1      42.689  30.844  30.247  1.00  0.00     0.074 A 
ATOM     48  C   UNL A   1      41.518  31.685  30.341  1.00  0.00     0.031 C 
ATOM     49  C   UNL A   1      40.365  25.437  27.647  1.00  0.00     0.029 A 
ATOM     50  C   UNL A   1      41.738  25.707  28.063  1.00  0.00     0.049 A 
ATOM     51  H   UNL A   1      42.470  27.437  28.963  1.00  0.00     0.167 HD
ATOM     52  C   UNL A   1      43.928  31.221  30.652  1.00  0.00     0.037 A 
ATOM     53  C   UNL A   1      42.777  24.859  27.932  1.00  0.00     0.037 A 
ATOM     54  C   UNL A   1      45.080  30.359  30.616  1.00  0.00     0.049 A 
ATOM     55  C   UNL A   1      44.133  25.280  28.427  1.00  0.00     0.074 A 
ATOM     56  C   UNL A   1      46.366  30.614  31.060  1.00  0.00     0.029 A 
ATOM     57  N   UNL A   1      45.078  29.064  30.117  1.00  0.00    -0.354 N 
ATOM     58  N   UNL A   1      44.501  26.416  28.968  1.00  0.00    -0.248 NA
ATOM     59  C   UNL A   1      45.218  24.296  28.304  1.00  0.00     0.031 C 
ATOM     60  C   UNL A   1      47.150  29.484  30.800  1.00  0.00     0.029 A 
ATOM     61  C   UNL A   1      46.342  28.511  30.236  1.00  0.00     0.049 A 
ATOM     62  H   UNL A   1      44.295  28.607  29.735  1.00  0.00     0.167 HD
ATOM     63  C   UNL A   1      45.847  26.275  29.277  1.00  0.00     0.074 A 
ATOM     64  C   UNL A   1      46.227  24.935  28.878  1.00  0.00     0.031 C 
ATOM     65  C   UNL A   1      46.695  27.171  29.840  1.00  0.00     0.037 A 
BRANCH  52  66
ATOM     66  C   UNL A   1      44.094  32.619  31.178  1.00  0.00     0.057 A 
ATOM     67  C   UNL A   1      43.966  32.922  32.541  1.00  0.00     0.134 A 
ATOM     68  C   UNL A   1      44.405  33.679  30.314  1.00  0.00     0.134 A 
ATOM     69  F   UNL A   1      43.660  31.960  33.424  1.00  0.00    -0.206 F 
ATOM     70  C   UNL A   1      44.102  34.227  33.019  1.00  0.00     0.040 A 
ATOM     71  C   UNL A   1      44.575  34.983  30.784  1.00  0.00     0.040 A 
ATOM     72  F   UNL A   1      44.553  33.464  28.998  1.00  0.00    -0.206 F 
ATOM     73  C   UNL A   1      44.413  35.262  32.141  1.00  0.00     0.006 A 
ENDBRANCH  52  66
BRANCH  53  74
ATOM     74  C   UNL A   1      42.565  23.510  27.345  1.00  0.00     0.057 A 
ATOM     75  C   UNL A   1      42.711  23.292  25.969  1.00  0.00     0.134 A 
ATOM     76  C   UNL A   1      42.218  22.409  28.138  1.00  0.00     0.134 A 
ATOM     77  F   UNL A   1      43.022  24.310  25.154  1.00  0.00    -0.206 F 
ATOM     78  C   UNL A   1      42.504  22.034  25.400  1.00  0.00     0.040 A 
ATOM     79  C   UNL A   1      42.033  21.140  27.585  1.00  0.00     0.040 A 
ATOM     80  F   UNL A   1      42.070  22.548  29.462  1.00  0.00    -0.206 F 
ATOM     81  C   UNL A   1      42.169  20.952  26.211  1.00  0.00     0.006 A 
ENDBRANCH  53  74
BRANCH  65  82
ATOM     82  C   UNL A   1      48.102  26.715  30.094  1.00  0.00     0.057 A 
ATOM     83  C   UNL A   1      49.133  26.953  29.177  1.00  0.00     0.134 A 
ATOM     84  C   UNL A   1      48.432  26.056  31.284  1.00  0.00     0.134 A 
ATOM     85  F   UNL A   1      48.879  27.568  28.012  1.00  0.00    -0.206 F 
ATOM     86  C   UNL A   1      50.438  26.525  29.423  1.00  0.00     0.040 A 
ATOM     87  C   UNL A   1      49.739  25.649  31.554  1.00  0.00     0.040 A 
ATOM     88  F   UNL A   1      47.493  25.808  32.210  1.00  0.00    -0.206 F 
ATOM     89  C   UNL A   1      50.745  25.876  30.617  1.00  0.00     0.006 A 
ENDBRANCH  65  82
ENDBRANCH  39  40
ENDBRANCH  31  34
ENDBRANCH  29  30
ENDBRANCH  28  29
ENDBRANCH   1  28
TORSDOF 14
ENDMDL
MODEL 2
REMARK VINA RESULT:     -12.2      4.039      6.035
REMARK SMILES NC(=O)c1ccc(NC(=O)Cc2ccccc2C(=O)NCCCNC(=O)c2ccc(-c3c4nc(c(-c5c(F)cccc5F)c5ccc([nH]5)c(-c5c(F)cccc5F)c5nc(c(-c6c(F)cccc6F)c6ccc3[nH]6)C=C5)C=C4)cc2)cc1
REMARK SMILES IDX 21 1 20 2 18 3 19 4 17 6 12 7 13 8 14 9 16 10 15 11 11 12
REMARK SMILES IDX 9 13 8 14 10 16 7 17 4 18 5 19 82 20 6 21 81 22 2 23 1 24
REMARK SMILES IDX 3 27 22 28 23 29 24 30 25 31 26 33 27 34 28 35 80 36 29 37
REMARK SMILES IDX 79 38 30 39 31 40 32 41 73 42 33 43 78 44 72 45 74 46 34 47
REMARK SMILES IDX 77 48 71 49 70 50 35 52 61 53 44 54 60 55 45 56 48 57 59 58
REMARK SMILES IDX 75 59 46 60 47 61 58 63 76 64 49 65 36 66 37 67 42 68 38 69
REMARK SMILES IDX 39 70 41 71 43 72 40 73 62 74 63 75 68 76 64 77 65 78 67 79
REMARK SMILES IDX 69 80 66 81 50 82 51 83 56 84 52 85 53 86 55 87 57 88 54 89
REMARK H PARENT 20 5 8 15 1 25 1 26 24 32 74 51 48 62
REMARK Flexibility Score: inf
ROOT
ATOM      1  C   UNL A   1      31.412  30.598  25.758  1.00  0.00     0.118 C 
ENDROOT
BRANCH   1   2
ATOM      2  N   UNL A   1      31.984  29.514  26.586  1.00  0.00    -0.352 N 
ATOM      3  C   UNL A   1      32.818  28.502  26.117  1.00  0.00     0.251 C 
ATOM      4  O   UNL A   1      34.023  28.712  26.293  1.00  0.00    -0.269 OA
ATOM      5  H   UNL A   1      31.758  29.506  27.544  1.00  0.00     0.163 HD
BRANCH   3   6
ATOM      6  C   UNL A   1      32.374  27.088  25.725  1.00  0.00     0.043 A 
ATOM      7  C   UNL A   1      32.797  26.198  24.707  1.00  0.00    -0.026 A 
ATOM      8  C   UNL A   1      32.296  24.859  24.702  1.00  0.00     0.005 A 
ATOM      9  C   UNL A   1      31.320  24.419  25.584  1.00  0.00     0.000 A 
ATOM     10  C   UNL A   1      31.347  26.605  26.584  1.00  0.00     0.014 A 
ATOM     11  C   UNL A   1      30.816  25.310  26.507  1.00  0.00     0.001 A 
BRANCH   7  12
ATOM     12  C   UNL A   1      33.769  26.446  23.581  1.00  0.00     0.136 C 
BRANCH  12  13
ATOM     13  C   UNL A   1      33.232  26.657  22.195  1.00  0.00     0.228 C 
ATOM     14  N   UNL A   1      32.488  27.770  21.958  1.00  0.00    -0.326 N 
ATOM     15  H   UNL A   1      32.932  28.435  21.383  1.00  0.00     0.169 HD
ATOM     16  O   UNL A   1      33.653  25.963  21.266  1.00  0.00    -0.274 OA
BRANCH  14  17
ATOM     17  C   UNL A   1      31.220  28.143  22.376  1.00  0.00     0.041 A 
ATOM     18  C   UNL A   1      28.687  29.083  22.971  1.00  0.00     0.039 A 
ATOM     19  C   UNL A   1      28.992  27.725  23.141  1.00  0.00     0.016 A 
ATOM     20  C   UNL A   1      29.665  29.986  22.559  1.00  0.00     0.016 A 
ATOM     21  C   UNL A   1      30.266  27.246  22.830  1.00  0.00     0.027 A 
ATOM     22  C   UNL A   1      30.931  29.512  22.264  1.00  0.00     0.027 A 
BRANCH  18  23
ATOM     23  C   UNL A   1      27.301  29.545  23.209  1.00  0.00     0.248 C 
ATOM     24  N   UNL A   1      26.334  28.576  23.126  1.00  0.00    -0.366 N 
ATOM     25  H   UNL A   1      25.389  28.811  23.273  1.00  0.00     0.159 HD
ATOM     26  H   UNL A   1      26.584  27.648  22.919  1.00  0.00     0.159 HD
ATOM     27  O   UNL A   1      27.050  30.693  23.500  1.00  0.00    -0.270 OA
ENDBRANCH  18  23
ENDBRANCH  14  17
ENDBRANCH  12  13
ENDBRANCH   7  12
ENDBRANCH   3   6
ENDBRANCH   1   2
BRANCH   1  28
ATOM     28  C   UNL A   1      31.349  31.954  26.500  1.00  0.00     0.042 C 
BRANCH  28  29
ATOM     29  C   UNL A   1      32.605  32.385  27.251  1.00  0.00     0.118 C 
BRANCH  29  30
ATOM     30  N   UNL A   1      32.554  33.794  27.584  1.00  0.00    -0.352 N 
ATOM     31  C   UNL A   1      33.157  34.490  28.608  1.00  0.00     0.251 C 
ATOM     32  H   UNL A   1      32.000  34.342  26.982  1.00  0.00     0.163 HD
ATOM     33  O   UNL A   1      32.650  35.558  28.950  1.00  0.00    -0.269 OA
BRANCH  31  34
ATOM     34  C   UNL A   1      34.398  34.031  29.295  1.00  0.00     0.039 A 
ATOM     35  C   UNL A   1      35.635  34.351  28.714  1.00  0.00     0.014 A 
ATOM     36  C   UNL A   1      34.381  33.159  30.385  1.00  0.00     0.014 A 
ATOM     37  C   UNL A   1      36.824  33.783  29.194  1.00  0.00     0.010 A 
ATOM     38  C   UNL A   1      35.575  32.669  30.927  1.00  0.00     0.010 A 
ATOM     39  C   UNL A   1      36.807  32.927  30.304  1.00  0.00    -0.014 A 
BRANCH  39  40
ATOM     40  C   UNL A   1      38.032  32.204  30.756  1.00  0.00     0.031 A 
ATOM     41  C   UNL A   1      38.831  32.740  31.923  1.00  0.00     0.074 A 
ATOM     42  C   UNL A   1      38.454  31.099  30.112  1.00  0.00     0.049 A 
ATOM     43  N   UNL A   1      39.973  32.327  32.414  1.00  0.00    -0.248 NA
ATOM     44  C   UNL A   1      38.290  33.927  32.604  1.00  0.00     0.031 C 
ATOM     45  C   UNL A   1      37.802  30.495  28.950  1.00  0.00     0.029 A 
ATOM     46  N   UNL A   1      39.541  30.289  30.340  1.00  0.00    -0.354 N 
ATOM     47  C   UNL A   1      40.301  33.224  33.426  1.00  0.00     0.074 A 
ATOM     48  C   UNL A   1      39.270  34.236  33.440  1.00  0.00     0.031 C 
ATOM     49  C   UNL A   1      38.484  29.399  28.582  1.00  0.00     0.029 A 
ATOM     50  C   UNL A   1      39.640  29.239  29.458  1.00  0.00     0.049 A 
ATOM     51  H   UNL A   1      40.187  30.447  31.065  1.00  0.00     0.167 HD
ATOM     52  C   UNL A   1      41.348  33.196  34.287  1.00  0.00     0.037 A 
ATOM     53  C   UNL A   1      40.561  28.259  29.368  1.00  0.00     0.037 A 
ATOM     54  C   UNL A   1      42.339  32.153  34.311  1.00  0.00     0.049 A 
ATOM     55  C   UNL A   1      41.691  28.222  30.360  1.00  0.00     0.074 A 
ATOM     56  C   UNL A   1      43.404  31.990  35.180  1.00  0.00     0.029 A 
ATOM     57  N   UNL A   1      42.376  31.082  33.429  1.00  0.00    -0.354 N 
ATOM     58  N   UNL A   1      41.963  29.054  31.337  1.00  0.00    -0.248 NA
ATOM     59  C   UNL A   1      42.637  27.103  30.245  1.00  0.00     0.031 C 
ATOM     60  C   UNL A   1      44.103  30.837  34.804  1.00  0.00     0.029 A 
ATOM     61  C   UNL A   1      43.448  30.260  33.729  1.00  0.00     0.049 A 
ATOM     62  H   UNL A   1      41.734  30.931  32.698  1.00  0.00     0.167 HD
ATOM     63  C   UNL A   1      43.089  28.545  31.971  1.00  0.00     0.074 A 
ATOM     64  C   UNL A   1      43.440  27.322  31.277  1.00  0.00     0.031 C 
ATOM     65  C   UNL A   1      43.773  29.042  33.030  1.00  0.00     0.037 A 
BRANCH  52  66
ATOM     66  C   UNL A   1      41.466  34.321  35.278  1.00  0.00     0.057 A 
ATOM     67  C   UNL A   1      40.884  34.254  36.552  1.00  0.00     0.134 A 
ATOM     68  C   UNL A   1      42.188  35.482  34.965  1.00  0.00     0.134 A 
ATOM     69  F   UNL A   1      40.171  33.178  36.917  1.00  0.00    -0.206 F 
ATOM     70  C   UNL A   1      40.981  35.311  37.460  1.00  0.00     0.040 A 
ATOM     71  C   UNL A   1      42.319  36.532  35.875  1.00  0.00     0.040 A 
ATOM     72  F   UNL A   1      42.781  35.613  33.769  1.00  0.00    -0.206 F 
ATOM     73  C   UNL A   1      41.705  36.452  37.125  1.00  0.00     0.006 A 
ENDBRANCH  52  66
BRANCH  53  74
ATOM     74  C   UNL A   1      40.429  27.208  28.325  1.00  0.00     0.057 A 
ATOM     75  C   UNL A   1      39.600  26.097  28.523  1.00  0.00     0.134 A 
ATOM     76  C   UNL A   1      41.119  27.288  27.109  1.00  0.00     0.134 A 
ATOM     77  F   UNL A   1      38.928  25.953  29.675  1.00  0.00    -0.206 F 
ATOM     78  C   UNL A   1      39.475  25.095  27.559  1.00  0.00     0.040 A 
ATOM     79  C   UNL A   1      40.983  26.306  26.126  1.00  0.00     0.040 A 
ATOM     80  F   UNL A   1      41.924  28.329  26.854  1.00  0.00    -0.206 F 
ATOM     81  C   UNL A   1      40.164  25.202  26.353  1.00  0.00     0.006 A 
ENDBRANCH  53  74
BRANCH  65  82
ATOM     82  C   UNL A   1      44.941  28.242  33.526  1.00  0.00     0.057 A 
ATOM     83  C   UNL A   1      44.790  27.223  34.476  1.00  0.00     0.134 A 
ATOM     84  C   UNL A   1      46.227  28.475  33.024  1.00  0.00     0.134 A 
ATOM     85  F   UNL A   1      43.586  26.959  35.004  1.00  0.00    -0.206 F 
ATOM     86  C   UNL A   1      45.884  26.485  34.930  1.00  0.00     0.040 A 
ATOM     87  C   UNL A   1      47.323  27.724  33.449  1.00  0.00     0.040 A 
ATOM     88  F   UNL A   1      46.437  29.428  32.103  1.00  0.00    -0.206 F 
ATOM     89  C   UNL A   1      47.154  26.731  34.412  1.00  0.00     0.006 A 
ENDBRANCH  65  82
ENDBRANCH  39  40
ENDBRANCH  31  34
ENDBRANCH  29  30
ENDBRANCH  28  29
ENDBRANCH   1  28
TORSDOF 14
ENDMDL
MODEL 3
REMARK VINA RESULT:     -12.2      2.525      7.942
REMARK SMILES NC(=O)c1ccc(NC(=O)Cc2ccccc2C(=O)NCCCNC(=O)c2ccc(-c3c4nc(c(-c5c(F)cccc5F)c5ccc([nH]5)c(-c5c(F)cccc5F)c5nc(c(-c6c(F)cccc6F)c6ccc3[nH]6)C=C5)C=C4)cc2)cc1
REMARK SMILES IDX 21 1 20 2 18 3 19 4 17 6 12 7 13 8 14 9 16 10 15 11 11 12
REMARK SMILES IDX 9 13 8 14 10 16 7 17 4 18 5 19 82 20 6 21 81 22 2 23 1 24
REMARK SMILES IDX 3 27 22 28 23 29 24 30 25 31 26 33 27 34 28 35 80 36 29 37
REMARK SMILES IDX 79 38 30 39 31 40 32 41 73 42 33 43 78 44 72 45 74 46 34 47
REMARK SMILES IDX 77 48 71 49 70 50 35 52 61 53 44 54 60 55 45 56 48 57 59 58
REMARK SMILES IDX 75 59 46 60 47 61 58 63 76 64 49 65 36 66 37 67 42 68 38 69
REMARK SMILES IDX 39 70 41 71 43 72 40 73 62 74 63 75 68 76 64 77 65 78 67 79
REMARK SMILES IDX 69 80 66 81 50 82 51 83 56 84 52 85 53 86 55 87 57 88 54 89
REMARK H PARENT 20 5 8 15 1 25 1 26 24 32 74 51 48 62
REMARK Flexibility Score: inf
ROOT
ATOM      1  C   UNL A   1      36.175  20.014  25.008  1.00  0.00     0.118 C 
ENDROOT
BRANCH   1   2
ATOM      2  N   UNL A   1      35.733  21.365  25.416  1.00  0.00    -0.352 N 
ATOM      3  C   UNL A   1      34.406  21.777  25.522  1.00  0.00     0.251 C 
ATOM      4  O   UNL A   1      33.948  21.729  26.668  1.00  0.00    -0.269 OA
ATOM      5  H   UNL A   1      36.430  22.026  25.630  1.00  0.00     0.163 HD
BRANCH   3   6
ATOM      6  C   UNL A   1      33.622  22.548  24.454  1.00  0.00     0.043 A 
ATOM      7  C   UNL A   1      32.298  23.050  24.412  1.00  0.00    -0.026 A 
ATOM      8  C   UNL A   1      31.907  23.889  23.323  1.00  0.00     0.005 A 
ATOM      9  C   UNL A   1      32.732  24.144  22.238  1.00  0.00     0.000 A 
ATOM     10  C   UNL A   1      34.420  22.807  23.304  1.00  0.00     0.014 A 
ATOM     11  C   UNL A   1      33.984  23.568  22.211  1.00  0.00     0.001 A 
BRANCH   7  12
ATOM     12  C   UNL A   1      31.182  22.849  25.405  1.00  0.00     0.136 C 
BRANCH  12  13
ATOM     13  C   UNL A   1      30.954  23.894  26.459  1.00  0.00     0.228 C 
ATOM     14  N   UNL A   1      30.028  24.859  26.215  1.00  0.00    -0.326 N 
ATOM     15  H   UNL A   1      29.220  24.790  26.774  1.00  0.00     0.169 HD
ATOM     16  O   UNL A   1      31.426  23.735  27.588  1.00  0.00    -0.274 OA
BRANCH  14  17
ATOM     17  C   UNL A   1      30.010  25.923  25.327  1.00  0.00     0.041 A 
ATOM     18  C   UNL A   1      30.283  28.016  23.537  1.00  0.00     0.039 A 
ATOM     19  C   UNL A   1      29.188  27.145  23.442  1.00  0.00     0.016 A 
ATOM     20  C   UNL A   1      31.214  27.878  24.565  1.00  0.00     0.016 A 
ATOM     21  C   UNL A   1      29.054  26.081  24.336  1.00  0.00     0.027 A 
ATOM     22  C   UNL A   1      31.073  26.830  25.459  1.00  0.00     0.027 A 
BRANCH  18  23
ATOM     23  C   UNL A   1      30.455  29.072  22.514  1.00  0.00     0.248 C 
ATOM     24  N   UNL A   1      31.752  29.429  22.248  1.00  0.00    -0.366 N 
ATOM     25  H   UNL A   1      31.943  30.126  21.579  1.00  0.00     0.159 HD
ATOM     26  H   UNL A   1      32.492  28.990  22.725  1.00  0.00     0.159 HD
ATOM     27  O   UNL A   1      29.512  29.552  21.927  1.00  0.00    -0.270 OA
ENDBRANCH  18  23
ENDBRANCH  14  17
ENDBRANCH  12  13
ENDBRANCH   7  12
ENDBRANCH   3   6
ENDBRANCH   1   2
BRANCH   1  28
ATOM     28  C   UNL A   1      37.681  19.954  24.655  1.00  0.00     0.042 C 
BRANCH  28  29
ATOM     29  C   UNL A   1      38.658  20.405  25.736  1.00  0.00     0.118 C 
BRANCH  29  30
ATOM     30  N   UNL A   1      39.739  19.453  25.890  1.00  0.00    -0.352 N 
ATOM     31  C   UNL A   1      41.094  19.658  26.028  1.00  0.00     0.251 C 
ATOM     32  H   UNL A   1      39.461  18.509  25.897  1.00  0.00     0.163 HD
ATOM     33  O   UNL A   1      41.847  18.735  25.717  1.00  0.00    -0.269 OA
BRANCH  31  34
ATOM     34  C   UNL A   1      41.685  20.921  26.556  1.00  0.00     0.039 A 
ATOM     35  C   UNL A   1      41.635  21.147  27.941  1.00  0.00     0.014 A 
ATOM     36  C   UNL A   1      42.126  21.955  25.729  1.00  0.00     0.014 A 
ATOM     37  C   UNL A   1      41.988  22.393  28.480  1.00  0.00     0.010 A 
ATOM     38  C   UNL A   1      42.570  23.166  26.274  1.00  0.00     0.010 A 
ATOM     39  C   UNL A   1      42.453  23.422  27.649  1.00  0.00    -0.014 A 
BRANCH  39  40
ATOM     40  C   UNL A   1      42.708  24.796  28.171  1.00  0.00     0.031 A 
ATOM     41  C   UNL A   1      44.111  25.200  28.568  1.00  0.00     0.074 A 
ATOM     42  C   UNL A   1      41.696  25.671  28.328  1.00  0.00     0.049 A 
ATOM     43  N   UNL A   1      44.536  26.302  29.133  1.00  0.00    -0.248 NA
ATOM     44  C   UNL A   1      45.174  24.209  28.333  1.00  0.00     0.031 C 
ATOM     45  C   UNL A   1      40.290  25.403  28.022  1.00  0.00     0.029 A 
ATOM     46  N   UNL A   1      41.692  26.964  28.794  1.00  0.00    -0.354 N 
ATOM     47  C   UNL A   1      45.897  26.118  29.355  1.00  0.00     0.074 A 
ATOM     48  C   UNL A   1      46.216  24.778  28.919  1.00  0.00     0.031 C 
ATOM     49  C   UNL A   1      39.565  26.502  28.282  1.00  0.00     0.029 A 
ATOM     50  C   UNL A   1      40.445  27.543  28.805  1.00  0.00     0.049 A 
ATOM     51  H   UNL A   1      42.505  27.432  29.091  1.00  0.00     0.167 HD
ATOM     52  C   UNL A   1      46.809  26.992  29.849  1.00  0.00     0.037 A 
ATOM     53  C   UNL A   1      40.057  28.773  29.195  1.00  0.00     0.037 A 
ATOM     54  C   UNL A   1      46.500  28.347  30.223  1.00  0.00     0.049 A 
ATOM     55  C   UNL A   1      41.091  29.741  29.700  1.00  0.00     0.074 A 
ATOM     56  C   UNL A   1      47.356  29.337  30.673  1.00  0.00     0.029 A 
ATOM     57  N   UNL A   1      45.231  28.906  30.176  1.00  0.00    -0.354 N 
ATOM     58  N   UNL A   1      42.380  29.566  29.863  1.00  0.00    -0.248 NA
ATOM     59  C   UNL A   1      40.618  31.085  30.063  1.00  0.00     0.031 C 
ATOM     60  C   UNL A   1      46.599  30.487  30.928  1.00  0.00     0.029 A 
ATOM     61  C   UNL A   1      45.280  30.225  30.594  1.00  0.00     0.049 A 
ATOM     62  H   UNL A   1      44.417  28.435  29.887  1.00  0.00     0.167 HD
ATOM     63  C   UNL A   1      42.877  30.780  30.318  1.00  0.00     0.074 A 
ATOM     64  C   UNL A   1      41.752  31.690  30.389  1.00  0.00     0.031 C 
ATOM     65  C   UNL A   1      44.148  31.115  30.648  1.00  0.00     0.037 A 
BRANCH  52  66
ATOM     66  C   UNL A   1      48.226  26.511  30.000  1.00  0.00     0.057 A 
ATOM     67  C   UNL A   1      49.190  26.709  29.002  1.00  0.00     0.134 A 
ATOM     68  C   UNL A   1      48.640  25.855  31.168  1.00  0.00     0.134 A 
ATOM     69  F   UNL A   1      48.862  27.320  27.854  1.00  0.00    -0.206 F 
ATOM     70  C   UNL A   1      50.498  26.242  29.141  1.00  0.00     0.040 A 
ATOM     71  C   UNL A   1      49.954  25.410  31.333  1.00  0.00     0.040 A 
ATOM     72  F   UNL A   1      47.776  25.638  32.171  1.00  0.00    -0.206 F 
ATOM     73  C   UNL A   1      50.885  25.595  30.312  1.00  0.00     0.006 A 
ENDBRANCH  52  66
BRANCH  53  74
ATOM     74  C   UNL A   1      38.630  29.172  29.083  1.00  0.00     0.057 A 
ATOM     75  C   UNL A   1      37.776  29.117  30.192  1.00  0.00     0.134 A 
ATOM     76  C   UNL A   1      38.085  29.621  27.873  1.00  0.00     0.134 A 
ATOM     77  F   UNL A   1      38.233  28.677  31.373  1.00  0.00    -0.206 F 
ATOM     78  C   UNL A   1      36.430  29.477  30.100  1.00  0.00     0.040 A 
ATOM     79  C   UNL A   1      36.747  30.008  27.773  1.00  0.00     0.040 A 
ATOM     80  F   UNL A   1      38.849  29.704  26.775  1.00  0.00    -0.206 F 
ATOM     81  C   UNL A   1      35.914  29.930  28.888  1.00  0.00     0.006 A 
ENDBRANCH  53  74
BRANCH  65  82
ATOM     82  C   UNL A   1      44.393  32.532  31.075  1.00  0.00     0.057 A 
ATOM     83  C   UNL A   1      44.733  33.533  30.156  1.00  0.00     0.134 A 
ATOM     84  C   UNL A   1      44.258  32.904  32.418  1.00  0.00     0.134 A 
ATOM     85  F   UNL A   1      44.889  33.239  28.856  1.00  0.00    -0.206 F 
ATOM     86  C   UNL A   1      44.958  34.849  30.563  1.00  0.00     0.040 A 
ATOM     87  C   UNL A   1      44.453  34.222  32.833  1.00  0.00     0.040 A 
ATOM     88  F   UNL A   1      43.923  31.996  33.346  1.00  0.00    -0.206 F 
ATOM     89  C   UNL A   1      44.813  35.197  31.905  1.00  0.00     0.006 A 
ENDBRANCH  65  82
ENDBRANCH  39  40
ENDBRANCH  31  34
ENDBRANCH  29  30
ENDBRANCH  28  29
ENDBRANCH   1  28
TORSDOF 14
ENDMDL
