MODEL 1
REMARK VINA RESULT:     -13.4      0.000      0.000
REMARK SMILES Cc1ccc(S(=O)(=O)n2cc(C(=O)C(=O)N[C@@H](Cc3c[nH]c4ccccc34)C(=O)NCC(=O)NCCCNC(=O)c3ccc(-c4c5nc(c(-c6c(F)cccc6F)c6ccc([nH]6)c(-c6c(F)cccc6F)c6nc(c(-c7c(F)cccc7F)c7ccc4[nH]7)C=C6)C=C5)cc3)c3ccccc32)cc1
REMARK SMILES IDX 32 1 33 2 34 3 31 5 30 6 28 7 29 8 17 10 16 11 14 12 15 13
REMARK SMILES IDX 12 15 13 16 11 17 9 18 10 19 100 20 95 21 99 22 96 23 98 24
REMARK SMILES IDX 97 25 6 26 7 27 8 28 5 29 1 30 2 31 3 32 102 33 4 34 101 35
REMARK SMILES IDX 18 36 19 37 20 38 27 39 21 40 22 41 26 42 23 44 25 45 24 46
REMARK SMILES IDX 35 47 36 48 37 49 38 50 39 51 40 53 41 54 42 55 94 56 43 57
REMARK SMILES IDX 93 58 44 59 45 60 46 61 87 62 47 63 92 64 86 65 88 66 48 67
REMARK SMILES IDX 91 68 85 69 84 70 49 72 75 73 58 74 74 75 59 76 62 77 73 78
REMARK SMILES IDX 89 79 60 80 61 81 72 83 90 84 63 85 50 86 51 87 56 88 52 89
REMARK SMILES IDX 53 90 55 91 57 92 54 93 76 94 77 95 82 96 78 97 79 98 81 99
REMARK SMILES IDX 83 100 80 101 64 102 65 103 70 104 66 105 67 106 69 107
REMARK SMILES IDX 71 108 68 109
REMARK H PARENT 34 4 30 9 16 14 21 43 38 52 88 71 62 82
REMARK Flexibility Score: inf
ROOT
ATOM      1  C   UNL A   1      37.373  22.583  24.966  1.00  0.00     0.239 C 
ATOM      2  O   UNL A   1      37.047  23.160  23.929  1.00  0.00    -0.273 OA
ATOM      3  N   UNL A   1      38.659  22.695  25.423  1.00  0.00    -0.355 N 
ATOM      4  H   UNL A   1      39.258  23.303  24.932  1.00  0.00     0.163 HD
ENDROOT
BRANCH   1   5
ATOM      5  C   UNL A   1      36.375  21.764  25.791  1.00  0.00     0.216 C 
BRANCH   5   6
ATOM      6  N   UNL A   1      35.443  22.489  26.636  1.00  0.00    -0.345 N 
ATOM      7  C   UNL A   1      34.128  22.276  26.923  1.00  0.00     0.243 C 
ATOM      8  O   UNL A   1      33.708  22.845  27.939  1.00  0.00    -0.273 OA
ATOM      9  H   UNL A   1      35.832  23.275  27.083  1.00  0.00     0.164 HD
BRANCH   7  10
ATOM     10  C   UNL A   1      33.174  21.312  26.144  1.00  0.00     0.176 C 
BRANCH  10  11
ATOM     11  N   UNL A   1      31.722  21.415  26.416  1.00  0.00    -0.337 N 
ATOM     12  C   UNL A   1      30.768  22.362  26.045  1.00  0.00     0.293 C 
ATOM     13  O   UNL A   1      29.628  22.283  26.493  1.00  0.00    -0.265 OA
ATOM     14  H   UNL A   1      31.363  20.676  26.958  1.00  0.00     0.164 HD
BRANCH  12  15
ATOM     15  C   UNL A   1      31.079  23.442  25.001  1.00  0.00     0.252 C 
ATOM     16  O   UNL A   1      30.788  23.155  23.840  1.00  0.00    -0.283 OA
BRANCH  15  17
ATOM     17  C   UNL A   1      31.753  24.716  25.318  1.00  0.00     0.054 A 
ATOM     18  N   UNL A   1      32.752  26.532  26.243  1.00  0.00    -0.240 N 
ATOM     19  C   UNL A   1      32.018  25.377  26.528  1.00  0.00     0.117 A 
ATOM     20  C   UNL A   1      33.065  26.503  24.873  1.00  0.00     0.065 A 
ATOM     21  C   UNL A   1      32.164  25.619  24.292  1.00  0.00     0.012 A 
ATOM     22  C   UNL A   1      33.860  27.359  24.084  1.00  0.00     0.028 A 
ATOM     23  C   UNL A   1      31.892  25.741  22.912  1.00  0.00     0.011 A 
ATOM     24  C   UNL A   1      33.539  27.498  22.736  1.00  0.00     0.002 A 
ATOM     25  C   UNL A   1      32.531  26.734  22.166  1.00  0.00     0.001 A 
BRANCH  18  26
ATOM     26  S   UNL A   1      32.446  28.162  26.793  1.00  0.00     0.268 S 
ATOM     27  O   UNL A   1      31.629  27.959  27.977  1.00  0.00    -0.201 OA
ATOM     28  O   UNL A   1      31.890  28.781  25.596  1.00  0.00    -0.201 OA
BRANCH  26  29
ATOM     29  C   UNL A   1      33.627  29.377  27.259  1.00  0.00     0.088 A 
ATOM     30  C   UNL A   1      35.795  33.055  27.967  1.00  0.00     0.044 C 
ATOM     31  C   UNL A   1      35.068  31.753  27.776  1.00  0.00    -0.051 A 
ATOM     32  C   UNL A   1      33.688  31.807  27.651  1.00  0.00     0.005 A 
ATOM     33  C   UNL A   1      35.716  30.501  27.662  1.00  0.00     0.005 A 
ATOM     34  C   UNL A   1      32.988  30.636  27.411  1.00  0.00     0.022 A 
ATOM     35  C   UNL A   1      35.001  29.302  27.397  1.00  0.00     0.022 A 
ENDBRANCH  26  29
ENDBRANCH  18  26
ENDBRANCH  15  17
ENDBRANCH  12  15
ENDBRANCH  10  11
BRANCH  10  36
ATOM     36  C   UNL A   1      33.504  21.239  24.617  1.00  0.00     0.072 C 
BRANCH  36  37
ATOM     37  C   UNL A   1      33.208  19.952  23.882  1.00  0.00    -0.020 A 
ATOM     38  C   UNL A   1      32.178  19.766  22.973  1.00  0.00     0.087 A 
ATOM     39  C   UNL A   1      33.866  18.676  24.002  1.00  0.00     0.003 A 
ATOM     40  N   UNL A   1      32.107  18.434  22.656  1.00  0.00    -0.361 N 
ATOM     41  C   UNL A   1      33.048  17.733  23.371  1.00  0.00     0.046 A 
ATOM     42  C   UNL A   1      34.996  18.203  24.702  1.00  0.00     0.010 A 
ATOM     43  H   UNL A   1      31.475  18.039  22.012  1.00  0.00     0.166 HD
ATOM     44  C   UNL A   1      33.216  16.352  23.530  1.00  0.00     0.026 A 
ATOM     45  C   UNL A   1      35.164  16.826  24.895  1.00  0.00     0.001 A 
ATOM     46  C   UNL A   1      34.268  15.918  24.341  1.00  0.00     0.002 A 
ENDBRANCH  36  37
ENDBRANCH  10  36
ENDBRANCH   7  10
ENDBRANCH   5   6
ENDBRANCH   1   5
BRANCH   3  47
ATOM     47  C   UNL A   1      39.221  21.999  26.565  1.00  0.00     0.117 C 
BRANCH  47  48
ATOM     48  C   UNL A   1      40.322  22.832  27.216  1.00  0.00     0.042 C 
BRANCH  48  49
ATOM     49  C   UNL A   1      41.340  23.321  26.216  1.00  0.00     0.118 C 
BRANCH  49  50
ATOM     50  N   UNL A   1      42.027  22.276  25.470  1.00  0.00    -0.352 N 
ATOM     51  C   UNL A   1      43.388  22.168  25.199  1.00  0.00     0.251 C 
ATOM     52  H   UNL A   1      41.458  21.555  25.114  1.00  0.00     0.163 HD
ATOM     53  O   UNL A   1      43.829  21.246  24.552  1.00  0.00    -0.269 OA
BRANCH  51  54
ATOM     54  C   UNL A   1      44.297  23.143  25.861  1.00  0.00     0.039 A 
ATOM     55  C   UNL A   1      44.609  22.900  27.199  1.00  0.00     0.014 A 
ATOM     56  C   UNL A   1      44.491  24.403  25.302  1.00  0.00     0.014 A 
ATOM     57  C   UNL A   1      44.810  23.983  28.047  1.00  0.00     0.010 A 
ATOM     58  C   UNL A   1      44.561  25.483  26.159  1.00  0.00     0.010 A 
ATOM     59  C   UNL A   1      44.640  25.272  27.540  1.00  0.00    -0.014 A 
BRANCH  59  60
ATOM     60  C   UNL A   1      44.407  26.426  28.402  1.00  0.00     0.031 A 
ATOM     61  C   UNL A   1      43.037  26.945  28.582  1.00  0.00     0.074 A 
ATOM     62  C   UNL A   1      45.438  27.008  29.059  1.00  0.00     0.049 A 
ATOM     63  N   UNL A   1      42.752  28.170  28.867  1.00  0.00    -0.248 NA
ATOM     64  C   UNL A   1      41.859  26.106  28.404  1.00  0.00     0.031 C 
ATOM     65  C   UNL A   1      45.362  28.029  30.102  1.00  0.00     0.029 A 
ATOM     66  N   UNL A   1      46.802  26.937  28.742  1.00  0.00    -0.354 N 
ATOM     67  C   UNL A   1      41.412  28.227  29.176  1.00  0.00     0.074 A 
ATOM     68  C   UNL A   1      40.892  26.928  28.815  1.00  0.00     0.031 C 
ATOM     69  C   UNL A   1      46.526  28.695  30.140  1.00  0.00     0.029 A 
ATOM     70  C   UNL A   1      47.344  28.205  29.044  1.00  0.00     0.049 A 
ATOM     71  H   UNL A   1      47.286  26.159  28.380  1.00  0.00     0.167 HD
ATOM     72  C   UNL A   1      40.919  29.320  29.829  1.00  0.00     0.037 A 
ATOM     73  C   UNL A   1      47.909  28.984  28.078  1.00  0.00     0.037 A 
ATOM     74  C   UNL A   1      41.952  30.339  30.006  1.00  0.00     0.049 A 
ATOM     75  C   UNL A   1      47.214  30.312  27.881  1.00  0.00     0.074 A 
ATOM     76  C   UNL A   1      42.780  30.656  31.071  1.00  0.00     0.029 A 
ATOM     77  N   UNL A   1      42.480  30.989  28.893  1.00  0.00    -0.354 N 
ATOM     78  N   UNL A   1      46.019  30.580  28.330  1.00  0.00    -0.248 NA
ATOM     79  C   UNL A   1      47.793  31.428  27.138  1.00  0.00     0.031 C 
ATOM     80  C   UNL A   1      43.848  31.447  30.580  1.00  0.00     0.029 A 
ATOM     81  C   UNL A   1      43.659  31.630  29.222  1.00  0.00     0.049 A 
ATOM     82  H   UNL A   1      42.070  30.990  27.998  1.00  0.00     0.167 HD
ATOM     83  C   UNL A   1      45.651  31.839  27.931  1.00  0.00     0.074 A 
ATOM     84  C   UNL A   1      46.805  32.339  27.208  1.00  0.00     0.031 C 
ATOM     85  C   UNL A   1      44.422  32.359  28.220  1.00  0.00     0.037 A 
BRANCH  72  86
ATOM     86  C   UNL A   1      39.606  29.303  30.583  1.00  0.00     0.057 A 
ATOM     87  C   UNL A   1      38.518  30.095  30.167  1.00  0.00     0.134 A 
ATOM     88  C   UNL A   1      39.372  28.587  31.770  1.00  0.00     0.134 A 
ATOM     89  F   UNL A   1      38.519  30.734  28.991  1.00  0.00    -0.206 F 
ATOM     90  C   UNL A   1      37.363  30.276  30.942  1.00  0.00     0.040 A 
ATOM     91  C   UNL A   1      38.251  28.803  32.585  1.00  0.00     0.040 A 
ATOM     92  F   UNL A   1      40.190  27.604  32.166  1.00  0.00    -0.206 F 
ATOM     93  C   UNL A   1      37.246  29.668  32.181  1.00  0.00     0.006 A 
ENDBRANCH  72  86
BRANCH  73  94
ATOM     94  C   UNL A   1      48.583  28.196  27.013  1.00  0.00     0.057 A 
ATOM     95  C   UNL A   1      49.867  27.682  27.274  1.00  0.00     0.134 A 
ATOM     96  C   UNL A   1      47.874  27.628  25.952  1.00  0.00     0.134 A 
ATOM     97  F   UNL A   1      50.604  28.186  28.277  1.00  0.00    -0.206 F 
ATOM     98  C   UNL A   1      50.371  26.570  26.595  1.00  0.00     0.040 A 
ATOM     99  C   UNL A   1      48.377  26.522  25.254  1.00  0.00     0.040 A 
ATOM    100  F   UNL A   1      46.637  28.048  25.654  1.00  0.00    -0.206 F 
ATOM    101  C   UNL A   1      49.607  25.965  25.603  1.00  0.00     0.006 A 
ENDBRANCH  73  94
BRANCH  85 102
ATOM    102  C   UNL A   1      43.857  33.645  27.668  1.00  0.00     0.057 A 
ATOM    103  C   UNL A   1      43.637  34.801  28.430  1.00  0.00     0.134 A 
ATOM    104  C   UNL A   1      43.647  33.794  26.279  1.00  0.00     0.134 A 
ATOM    105  F   UNL A   1      43.904  34.836  29.743  1.00  0.00    -0.206 F 
ATOM    106  C   UNL A   1      43.179  35.999  27.863  1.00  0.00     0.040 A 
ATOM    107  C   UNL A   1      43.241  34.998  25.695  1.00  0.00     0.040 A 
ATOM    108  F   UNL A   1      43.846  32.779  25.424  1.00  0.00    -0.206 F 
ATOM    109  C   UNL A   1      42.990  36.104  26.491  1.00  0.00     0.006 A 
ENDBRANCH  85 102
ENDBRANCH  59  60
ENDBRANCH  51  54
ENDBRANCH  49  50
ENDBRANCH  48  49
ENDBRANCH  47  48
ENDBRANCH   3  47
TORSDOF 19
ENDMDL
MODEL 2
REMARK VINA RESULT:     -12.5      2.320      3.510
REMARK SMILES Cc1ccc(S(=O)(=O)n2cc(C(=O)C(=O)N[C@@H](Cc3c[nH]c4ccccc34)C(=O)NCC(=O)NCCCNC(=O)c3ccc(-c4c5nc(c(-c6c(F)cccc6F)c6ccc([nH]6)c(-c6c(F)cccc6F)c6nc(c(-c7c(F)cccc7F)c7ccc4[nH]7)C=C6)C=C5)cc3)c3ccccc32)cc1
REMARK SMILES IDX 32 1 33 2 34 3 31 5 30 6 28 7 29 8 17 10 16 11 14 12 15 13
REMARK SMILES IDX 12 15 13 16 11 17 9 18 10 19 100 20 95 21 99 22 96 23 98 24
REMARK SMILES IDX 97 25 6 26 7 27 8 28 5 29 1 30 2 31 3 32 102 33 4 34 101 35
REMARK SMILES IDX 18 36 19 37 20 38 27 39 21 40 22 41 26 42 23 44 25 45 24 46
REMARK SMILES IDX 35 47 36 48 37 49 38 50 39 51 40 53 41 54 42 55 94 56 43 57
REMARK SMILES IDX 93 58 44 59 45 60 46 61 87 62 47 63 92 64 86 65 88 66 48 67
REMARK SMILES IDX 91 68 85 69 84 70 49 72 75 73 58 74 74 75 59 76 62 77 73 78
REMARK SMILES IDX 89 79 60 80 61 81 72 83 90 84 63 85 50 86 51 87 56 88 52 89
REMARK SMILES IDX 53 90 55 91 57 92 54 93 76 94 77 95 82 96 78 97 79 98 81 99
REMARK SMILES IDX 83 100 80 101 64 102 65 103 70 104 66 105 67 106 69 107
REMARK SMILES IDX 71 108 68 109
REMARK H PARENT 34 4 30 9 16 14 21 43 38 52 88 71 62 82
REMARK Flexibility Score: inf
ROOT
ATOM      1  C   UNL A   1      39.094  22.010  26.256  1.00  0.00     0.239 C 
ATOM      2  O   UNL A   1      39.409  20.844  26.022  1.00  0.00    -0.273 OA
ATOM      3  N   UNL A   1      39.955  22.813  26.956  1.00  0.00    -0.355 N 
ATOM      4  H   UNL A   1      40.837  22.436  27.181  1.00  0.00     0.163 HD
ENDROOT
BRANCH   1   5
ATOM      5  C   UNL A   1      37.776  22.614  25.760  1.00  0.00     0.216 C 
BRANCH   5   6
ATOM      6  N   UNL A   1      37.455  22.468  24.351  1.00  0.00    -0.345 N 
ATOM      7  C   UNL A   1      36.468  23.015  23.588  1.00  0.00     0.243 C 
ATOM      8  O   UNL A   1      36.665  22.984  22.366  1.00  0.00    -0.273 OA
ATOM      9  H   UNL A   1      38.061  21.868  23.860  1.00  0.00     0.164 HD
BRANCH   7  10
ATOM     10  C   UNL A   1      35.198  23.746  24.133  1.00  0.00     0.176 C 
BRANCH  10  11
ATOM     11  N   UNL A   1      33.883  23.341  23.586  1.00  0.00    -0.337 N 
ATOM     12  C   UNL A   1      32.898  24.052  22.902  1.00  0.00     0.293 C 
ATOM     13  O   UNL A   1      31.827  23.511  22.644  1.00  0.00    -0.265 OA
ATOM     14  H   UNL A   1      33.663  22.393  23.734  1.00  0.00     0.164 HD
BRANCH  12  15
ATOM     15  C   UNL A   1      33.162  25.465  22.363  1.00  0.00     0.252 C 
ATOM     16  O   UNL A   1      33.613  25.518  21.219  1.00  0.00    -0.283 OA
BRANCH  15  17
ATOM     17  C   UNL A   1      32.974  26.691  23.161  1.00  0.00     0.054 A 
ATOM     18  N   UNL A   1      33.140  28.548  24.456  1.00  0.00    -0.240 N 
ATOM     19  C   UNL A   1      33.830  27.419  24.003  1.00  0.00     0.117 A 
ATOM     20  C   UNL A   1      31.912  28.591  23.774  1.00  0.00     0.065 A 
ATOM     21  C   UNL A   1      31.692  27.305  23.297  1.00  0.00     0.012 A 
ATOM     22  C   UNL A   1      30.884  29.555  23.773  1.00  0.00     0.028 A 
ATOM     23  C   UNL A   1      30.368  26.905  23.015  1.00  0.00     0.011 A 
ATOM     24  C   UNL A   1      29.579  29.126  23.541  1.00  0.00     0.002 A 
ATOM     25  C   UNL A   1      29.317  27.803  23.214  1.00  0.00     0.001 A 
BRANCH  18  26
ATOM     26  S   UNL A   1      32.978  29.121  26.099  1.00  0.00     0.268 S 
ATOM     27  O   UNL A   1      34.180  28.617  26.740  1.00  0.00    -0.201 OA
ATOM     28  O   UNL A   1      31.663  28.609  26.464  1.00  0.00    -0.201 OA
BRANCH  26  29
ATOM     29  C   UNL A   1      32.834  30.785  26.646  1.00  0.00     0.088 A 
ATOM     30  C   UNL A   1      33.216  34.551  28.742  1.00  0.00     0.044 C 
ATOM     31  C   UNL A   1      33.073  33.277  27.959  1.00  0.00    -0.051 A 
ATOM     32  C   UNL A   1      34.123  32.373  28.014  1.00  0.00     0.005 A 
ATOM     33  C   UNL A   1      31.915  32.932  27.224  1.00  0.00     0.005 A 
ATOM     34  C   UNL A   1      34.004  31.160  27.358  1.00  0.00     0.022 A 
ATOM     35  C   UNL A   1      31.782  31.680  26.564  1.00  0.00     0.022 A 
ENDBRANCH  26  29
ENDBRANCH  18  26
ENDBRANCH  15  17
ENDBRANCH  12  15
ENDBRANCH  10  11
BRANCH  10  36
ATOM     36  C   UNL A   1      35.196  23.871  25.692  1.00  0.00     0.072 C 
BRANCH  36  37
ATOM     37  C   UNL A   1      34.009  23.325  26.452  1.00  0.00    -0.020 A 
ATOM     38  C   UNL A   1      33.975  22.112  27.122  1.00  0.00     0.087 A 
ATOM     39  C   UNL A   1      32.692  23.892  26.592  1.00  0.00     0.003 A 
ATOM     40  N   UNL A   1      32.688  21.871  27.530  1.00  0.00    -0.361 N 
ATOM     41  C   UNL A   1      31.866  22.887  27.106  1.00  0.00     0.046 A 
ATOM     42  C   UNL A   1      32.088  25.107  26.204  1.00  0.00     0.010 A 
ATOM     43  H   UNL A   1      32.397  21.087  28.049  1.00  0.00     0.166 HD
ATOM     44  C   UNL A   1      30.469  22.978  27.108  1.00  0.00     0.026 A 
ATOM     45  C   UNL A   1      30.691  25.205  26.174  1.00  0.00     0.001 A 
ATOM     46  C   UNL A   1      29.895  24.143  26.591  1.00  0.00     0.002 A 
ENDBRANCH  36  37
ENDBRANCH  10  36
ENDBRANCH   7  10
ENDBRANCH   5   6
ENDBRANCH   1   5
BRANCH   3  47
ATOM     47  C   UNL A   1      39.689  24.168  27.397  1.00  0.00     0.117 C 
BRANCH  47  48
ATOM     48  C   UNL A   1      40.015  25.169  26.293  1.00  0.00     0.042 C 
BRANCH  48  49
ATOM     49  C   UNL A   1      41.500  25.343  26.095  1.00  0.00     0.118 C 
BRANCH  49  50
ATOM     50  N   UNL A   1      42.210  24.149  25.654  1.00  0.00    -0.352 N 
ATOM     51  C   UNL A   1      43.499  23.746  25.988  1.00  0.00     0.251 C 
ATOM     52  H   UNL A   1      41.715  23.554  25.045  1.00  0.00     0.163 HD
ATOM     53  O   UNL A   1      43.976  22.728  25.539  1.00  0.00    -0.269 OA
BRANCH  51  54
ATOM     54  C   UNL A   1      44.212  24.528  27.033  1.00  0.00     0.039 A 
ATOM     55  C   UNL A   1      43.870  24.259  28.360  1.00  0.00     0.014 A 
ATOM     56  C   UNL A   1      44.869  25.707  26.692  1.00  0.00     0.014 A 
ATOM     57  C   UNL A   1      43.901  25.298  29.282  1.00  0.00     0.010 A 
ATOM     58  C   UNL A   1      44.779  26.770  27.569  1.00  0.00     0.010 A 
ATOM     59  C   UNL A   1      44.220  26.582  28.837  1.00  0.00    -0.014 A 
BRANCH  59  60
ATOM     60  C   UNL A   1      43.875  27.780  29.595  1.00  0.00     0.031 A 
ATOM     61  C   UNL A   1      42.511  28.336  29.509  1.00  0.00     0.074 A 
ATOM     62  C   UNL A   1      44.792  28.369  30.397  1.00  0.00     0.049 A 
ATOM     63  N   UNL A   1      42.217  29.580  29.687  1.00  0.00    -0.248 NA
ATOM     64  C   UNL A   1      41.357  27.516  29.163  1.00  0.00     0.031 C 
ATOM     65  C   UNL A   1      44.566  29.440  31.366  1.00  0.00     0.029 A 
ATOM     66  N   UNL A   1      46.188  28.254  30.328  1.00  0.00    -0.354 N 
ATOM     67  C   UNL A   1      40.846  29.680  29.753  1.00  0.00     0.074 A 
ATOM     68  C   UNL A   1      40.358  28.377  29.363  1.00  0.00     0.031 C 
ATOM     69  C   UNL A   1      45.725  30.081  31.580  1.00  0.00     0.029 A 
ATOM     70  C   UNL A   1      46.706  29.523  30.666  1.00  0.00     0.049 A 
ATOM     71  H   UNL A   1      46.704  27.449  30.090  1.00  0.00     0.167 HD
ATOM     72  C   UNL A   1      40.279  30.813  30.262  1.00  0.00     0.037 A 
ATOM     73  C   UNL A   1      47.454  30.242  29.782  1.00  0.00     0.037 A 
ATOM     74  C   UNL A   1      41.296  31.817  30.574  1.00  0.00     0.049 A 
ATOM     75  C   UNL A   1      46.844  31.574  29.409  1.00  0.00     0.074 A 
ATOM     76  C   UNL A   1      41.934  32.165  31.753  1.00  0.00     0.029 A 
ATOM     77  N   UNL A   1      42.028  32.402  29.545  1.00  0.00    -0.354 N 
ATOM     78  N   UNL A   1      45.598  31.890  29.630  1.00  0.00    -0.248 NA
ATOM     79  C   UNL A   1      47.577  32.641  28.732  1.00  0.00     0.031 C 
ATOM     80  C   UNL A   1      43.094  32.910  31.424  1.00  0.00     0.029 A 
ATOM     81  C   UNL A   1      43.150  33.032  30.048  1.00  0.00     0.049 A 
ATOM     82  H   UNL A   1      41.781  32.370  28.592  1.00  0.00     0.167 HD
ATOM     83  C   UNL A   1      45.343  33.137  29.119  1.00  0.00     0.074 A 
ATOM     84  C   UNL A   1      46.620  33.576  28.589  1.00  0.00     0.031 C 
ATOM     85  C   UNL A   1      44.098  33.696  29.165  1.00  0.00     0.037 A 
BRANCH  72  86
ATOM     86  C   UNL A   1      38.855  30.861  30.774  1.00  0.00     0.057 A 
ATOM     87  C   UNL A   1      38.563  30.626  32.132  1.00  0.00     0.134 A 
ATOM     88  C   UNL A   1      37.719  31.057  29.970  1.00  0.00     0.134 A 
ATOM     89  F   UNL A   1      39.525  30.554  33.060  1.00  0.00    -0.206 F 
ATOM     90  C   UNL A   1      37.258  30.452  32.615  1.00  0.00     0.040 A 
ATOM     91  C   UNL A   1      36.411  30.826  30.423  1.00  0.00     0.040 A 
ATOM     92  F   UNL A   1      37.819  31.537  28.724  1.00  0.00    -0.206 F 
ATOM     93  C   UNL A   1      36.177  30.502  31.750  1.00  0.00     0.006 A 
ENDBRANCH  72  86
BRANCH  73  94
ATOM     94  C   UNL A   1      48.280  29.390  28.886  1.00  0.00     0.057 A 
ATOM     95  C   UNL A   1      47.828  29.169  27.572  1.00  0.00     0.134 A 
ATOM     96  C   UNL A   1      49.626  29.128  29.149  1.00  0.00     0.134 A 
ATOM     97  F   UNL A   1      46.544  29.396  27.253  1.00  0.00    -0.206 F 
ATOM     98  C   UNL A   1      48.701  28.828  26.537  1.00  0.00     0.040 A 
ATOM     99  C   UNL A   1      50.509  28.771  28.121  1.00  0.00     0.040 A 
ATOM    100  F   UNL A   1      50.137  29.335  30.371  1.00  0.00    -0.206 F 
ATOM    101  C   UNL A   1      50.056  28.662  26.806  1.00  0.00     0.006 A 
ENDBRANCH  73  94
BRANCH  85 102
ATOM    102  C   UNL A   1      43.677  34.967  28.469  1.00  0.00     0.057 A 
ATOM    103  C   UNL A   1      43.359  35.052  27.106  1.00  0.00     0.134 A 
ATOM    104  C   UNL A   1      43.442  36.145  29.213  1.00  0.00     0.134 A 
ATOM    105  F   UNL A   1      43.427  33.980  26.304  1.00  0.00    -0.206 F 
ATOM    106  C   UNL A   1      42.901  36.236  26.513  1.00  0.00     0.040 A 
ATOM    107  C   UNL A   1      42.936  37.317  28.643  1.00  0.00     0.040 A 
ATOM    108  F   UNL A   1      43.674  36.201  30.533  1.00  0.00    -0.206 F 
ATOM    109  C   UNL A   1      42.678  37.371  27.283  1.00  0.00     0.006 A 
ENDBRANCH  85 102
ENDBRANCH  59  60
ENDBRANCH  51  54
ENDBRANCH  49  50
ENDBRANCH  48  49
ENDBRANCH  47  48
ENDBRANCH   3  47
TORSDOF 19
ENDMDL
MODEL 3
REMARK VINA RESULT:     -12.1      3.970     10.210
REMARK SMILES Cc1ccc(S(=O)(=O)n2cc(C(=O)C(=O)N[C@@H](Cc3c[nH]c4ccccc34)C(=O)NCC(=O)NCCCNC(=O)c3ccc(-c4c5nc(c(-c6c(F)cccc6F)c6ccc([nH]6)c(-c6c(F)cccc6F)c6nc(c(-c7c(F)cccc7F)c7ccc4[nH]7)C=C6)C=C5)cc3)c3ccccc32)cc1
REMARK SMILES IDX 32 1 33 2 34 3 31 5 30 6 28 7 29 8 17 10 16 11 14 12 15 13
REMARK SMILES IDX 12 15 13 16 11 17 9 18 10 19 100 20 95 21 99 22 96 23 98 24
REMARK SMILES IDX 97 25 6 26 7 27 8 28 5 29 1 30 2 31 3 32 102 33 4 34 101 35
REMARK SMILES IDX 18 36 19 37 20 38 27 39 21 40 22 41 26 42 23 44 25 45 24 46
REMARK SMILES IDX 35 47 36 48 37 49 38 50 39 51 40 53 41 54 42 55 94 56 43 57
REMARK SMILES IDX 93 58 44 59 45 60 46 61 87 62 47 63 92 64 86 65 88 66 48 67
REMARK SMILES IDX 91 68 85 69 84 70 49 72 75 73 58 74 74 75 59 76 62 77 73 78
REMARK SMILES IDX 89 79 60 80 61 81 72 83 90 84 63 85 50 86 51 87 56 88 52 89
REMARK SMILES IDX 53 90 55 91 57 92 54 93 76 94 77 95 82 96 78 97 79 98 81 99
REMARK SMILES IDX 83 100 80 101 64 102 65 103 70 104 66 105 67 106 69 107
REMARK SMILES IDX 71 108 68 109
REMARK H PARENT 34 4 30 9 16 14 21 43 38 52 88 71 62 82
REMARK Flexibility Score: inf
ROOT
ATOM      1  C   UNL A   1      34.500  33.285  32.901  1.00  0.00     0.239 C 
ATOM      2  O   UNL A   1      33.284  33.131  33.003  1.00  0.00    -0.273 OA
ATOM      3  N   UNL A   1      35.168  34.018  33.846  1.00  0.00    -0.355 N 
ATOM      4  H   UNL A   1      34.646  34.333  34.619  1.00  0.00     0.163 HD
ENDROOT
BRANCH   1   5
ATOM      5  C   UNL A   1      35.309  32.654  31.762  1.00  0.00     0.216 C 
BRANCH   5   6
ATOM      6  N   UNL A   1      35.618  31.238  31.859  1.00  0.00    -0.345 N 
ATOM      7  C   UNL A   1      36.052  30.342  30.929  1.00  0.00     0.243 C 
ATOM      8  O   UNL A   1      36.560  29.310  31.385  1.00  0.00    -0.273 OA
ATOM      9  H   UNL A   1      35.491  30.859  32.759  1.00  0.00     0.164 HD
BRANCH   7  10
ATOM     10  C   UNL A   1      36.050  30.566  29.382  1.00  0.00     0.176 C 
BRANCH  10  11
ATOM     11  N   UNL A   1      34.837  31.163  28.775  1.00  0.00    -0.337 N 
ATOM     12  C   UNL A   1      33.992  30.726  27.757  1.00  0.00     0.293 C 
ATOM     13  O   UNL A   1      33.099  31.464  27.350  1.00  0.00    -0.265 OA
ATOM     14  H   UNL A   1      34.580  32.030  29.165  1.00  0.00     0.164 HD
BRANCH  12  15
ATOM     15  C   UNL A   1      34.081  29.297  27.203  1.00  0.00     0.252 C 
ATOM     16  O   UNL A   1      35.167  28.738  27.353  1.00  0.00    -0.283 OA
BRANCH  15  17
ATOM     17  C   UNL A   1      32.986  28.638  26.466  1.00  0.00     0.054 A 
ATOM     18  N   UNL A   1      31.094  27.612  25.743  1.00  0.00    -0.240 N 
ATOM     19  C   UNL A   1      31.801  28.010  26.882  1.00  0.00     0.117 A 
ATOM     20  C   UNL A   1      31.774  28.128  24.626  1.00  0.00     0.065 A 
ATOM     21  C   UNL A   1      33.064  28.411  25.058  1.00  0.00     0.012 A 
ATOM     22  C   UNL A   1      31.451  28.112  23.254  1.00  0.00     0.028 A 
ATOM     23  C   UNL A   1      34.101  28.466  24.102  1.00  0.00     0.011 A 
ATOM     24  C   UNL A   1      32.496  28.117  22.333  1.00  0.00     0.002 A 
ATOM     25  C   UNL A   1      33.812  28.242  22.754  1.00  0.00     0.001 A 
BRANCH  18  26
ATOM     26  S   UNL A   1      30.401  26.045  25.401  1.00  0.00     0.268 S 
ATOM     27  O   UNL A   1      29.351  26.356  24.446  1.00  0.00    -0.201 OA
ATOM     28  O   UNL A   1      30.079  25.564  26.738  1.00  0.00    -0.201 OA
BRANCH  26  29
ATOM     29  C   UNL A   1      31.213  24.633  24.742  1.00  0.00     0.088 A 
ATOM     30  C   UNL A   1      33.026  20.752  24.127  1.00  0.00     0.044 C 
ATOM     31  C   UNL A   1      32.379  22.100  24.277  1.00  0.00    -0.051 A 
ATOM     32  C   UNL A   1      31.406  22.234  25.256  1.00  0.00     0.005 A 
ATOM     33  C   UNL A   1      32.746  23.237  23.521  1.00  0.00     0.005 A 
ATOM     34  C   UNL A   1      30.830  23.475  25.468  1.00  0.00     0.022 A 
ATOM     35  C   UNL A   1      32.170  24.516  23.750  1.00  0.00     0.022 A 
ENDBRANCH  26  29
ENDBRANCH  18  26
ENDBRANCH  15  17
ENDBRANCH  12  15
ENDBRANCH  10  11
BRANCH  10  36
ATOM     36  C   UNL A   1      37.373  31.220  28.864  1.00  0.00     0.072 C 
BRANCH  36  37
ATOM     37  C   UNL A   1      38.604  30.349  28.753  1.00  0.00    -0.020 A 
ATOM     38  C   UNL A   1      38.916  29.537  27.674  1.00  0.00     0.087 A 
ATOM     39  C   UNL A   1      39.648  30.139  29.723  1.00  0.00     0.003 A 
ATOM     40  N   UNL A   1      40.001  28.765  28.005  1.00  0.00    -0.361 N 
ATOM     41  C   UNL A   1      40.384  29.028  29.298  1.00  0.00     0.046 A 
ATOM     42  C   UNL A   1      39.955  30.687  30.986  1.00  0.00     0.010 A 
ATOM     43  H   UNL A   1      40.438  28.119  27.405  1.00  0.00     0.166 HD
ATOM     44  C   UNL A   1      41.292  28.356  30.124  1.00  0.00     0.026 A 
ATOM     45  C   UNL A   1      40.839  30.013  31.836  1.00  0.00     0.001 A 
ATOM     46  C   UNL A   1      41.474  28.847  31.420  1.00  0.00     0.002 A 
ENDBRANCH  36  37
ENDBRANCH  10  36
ENDBRANCH   7  10
ENDBRANCH   5   6
ENDBRANCH   1   5
BRANCH   3  47
ATOM     47  C   UNL A   1      36.573  34.374  33.812  1.00  0.00     0.117 C 
BRANCH  47  48
ATOM     48  C   UNL A   1      37.291  33.857  35.056  1.00  0.00     0.042 C 
BRANCH  48  49
ATOM     49  C   UNL A   1      38.608  34.553  35.291  1.00  0.00     0.118 C 
BRANCH  49  50
ATOM     50  N   UNL A   1      39.748  33.669  35.490  1.00  0.00    -0.352 N 
ATOM     51  C   UNL A   1      40.821  33.448  34.632  1.00  0.00     0.251 C 
ATOM     52  H   UNL A   1      39.762  33.167  36.337  1.00  0.00     0.163 HD
ATOM     53  O   UNL A   1      41.705  32.672  34.917  1.00  0.00    -0.269 OA
BRANCH  51  54
ATOM     54  C   UNL A   1      40.922  34.311  33.425  1.00  0.00     0.039 A 
ATOM     55  C   UNL A   1      40.037  34.034  32.381  1.00  0.00     0.014 A 
ATOM     56  C   UNL A   1      42.070  35.067  33.204  1.00  0.00     0.014 A 
ATOM     57  C   UNL A   1      40.460  34.240  31.073  1.00  0.00     0.010 A 
ATOM     58  C   UNL A   1      42.544  35.152  31.910  1.00  0.00     0.010 A 
ATOM     59  C   UNL A   1      41.771  34.664  30.851  1.00  0.00    -0.014 A 
BRANCH  59  60
ATOM     60  C   UNL A   1      42.437  34.503  29.562  1.00  0.00     0.031 A 
ATOM     61  C   UNL A   1      43.329  33.350  29.336  1.00  0.00     0.074 A 
ATOM     62  C   UNL A   1      42.220  35.391  28.564  1.00  0.00     0.049 A 
ATOM     63  N   UNL A   1      44.318  33.344  28.507  1.00  0.00    -0.248 NA
ATOM     64  C   UNL A   1      43.194  32.103  30.078  1.00  0.00     0.031 C 
ATOM     65  C   UNL A   1      42.638  35.278  27.169  1.00  0.00     0.029 A 
ATOM     66  N   UNL A   1      41.752  36.708  28.679  1.00  0.00    -0.354 N 
ATOM     67  C   UNL A   1      44.769  32.047  28.403  1.00  0.00     0.074 A 
ATOM     68  C   UNL A   1      44.074  31.327  29.444  1.00  0.00     0.031 C 
ATOM     69  C   UNL A   1      42.698  36.507  26.634  1.00  0.00     0.029 A 
ATOM     70  C   UNL A   1      42.438  37.458  27.700  1.00  0.00     0.049 A 
ATOM     71  H   UNL A   1      41.079  37.043  29.317  1.00  0.00     0.167 HD
ATOM     72  C   UNL A   1      45.578  31.699  27.359  1.00  0.00     0.037 A 
ATOM     73  C   UNL A   1      43.254  38.494  28.044  1.00  0.00     0.037 A 
ATOM     74  C   UNL A   1      45.918  32.865  26.545  1.00  0.00     0.049 A 
ATOM     75  C   UNL A   1      44.695  38.299  27.629  1.00  0.00     0.074 A 
ATOM     76  C   UNL A   1      45.394  33.366  25.364  1.00  0.00     0.029 A 
ATOM     77  N   UNL A   1      46.707  33.877  27.083  1.00  0.00    -0.354 N 
ATOM     78  N   UNL A   1      45.200  37.149  27.277  1.00  0.00    -0.248 NA
ATOM     79  C   UNL A   1      45.686  39.372  27.609  1.00  0.00     0.031 C 
ATOM     80  C   UNL A   1      45.819  34.711  25.228  1.00  0.00     0.029 A 
ATOM     81  C   UNL A   1      46.618  35.021  26.313  1.00  0.00     0.049 A 
ATOM     82  H   UNL A   1      47.252  33.791  27.899  1.00  0.00     0.167 HD
ATOM     83  C   UNL A   1      46.540  37.295  27.024  1.00  0.00     0.074 A 
ATOM     84  C   UNL A   1      46.792  38.710  27.221  1.00  0.00     0.031 C 
ATOM     85  C   UNL A   1      47.331  36.234  26.684  1.00  0.00     0.037 A 
BRANCH  72  86
ATOM     86  C   UNL A   1      45.768  30.266  26.910  1.00  0.00     0.057 A 
ATOM     87  C   UNL A   1      44.663  29.440  26.627  1.00  0.00     0.134 A 
ATOM     88  C   UNL A   1      47.010  29.615  26.810  1.00  0.00     0.134 A 
ATOM     89  F   UNL A   1      43.420  29.928  26.542  1.00  0.00    -0.206 F 
ATOM     90  C   UNL A   1      44.776  28.058  26.413  1.00  0.00     0.040 A 
ATOM     91  C   UNL A   1      47.136  28.226  26.659  1.00  0.00     0.040 A 
ATOM     92  F   UNL A   1      48.160  30.301  26.797  1.00  0.00    -0.206 F 
ATOM     93  C   UNL A   1      46.012  27.436  26.478  1.00  0.00     0.006 A 
ENDBRANCH  72  86
BRANCH  73  94
ATOM     94  C   UNL A   1      42.796  39.222  29.256  1.00  0.00     0.057 A 
ATOM     95  C   UNL A   1      43.481  39.003  30.466  1.00  0.00     0.134 A 
ATOM     96  C   UNL A   1      41.999  40.366  29.175  1.00  0.00     0.134 A 
ATOM     97  F   UNL A   1      44.261  37.919  30.612  1.00  0.00    -0.206 F 
ATOM     98  C   UNL A   1      43.477  39.942  31.499  1.00  0.00     0.040 A 
ATOM     99  C   UNL A   1      41.975  41.308  30.212  1.00  0.00     0.040 A 
ATOM    100  F   UNL A   1      41.332  40.655  28.049  1.00  0.00    -0.206 F 
ATOM    101  C   UNL A   1      42.747  41.118  31.357  1.00  0.00     0.006 A 
ENDBRANCH  73  94
BRANCH  85 102
ATOM    102  C   UNL A   1      48.836  36.258  26.574  1.00  0.00     0.057 A 
ATOM    103  C   UNL A   1      49.540  36.833  25.507  1.00  0.00     0.134 A 
ATOM    104  C   UNL A   1      49.637  35.807  27.647  1.00  0.00     0.134 A 
ATOM    105  F   UNL A   1      48.903  37.403  24.474  1.00  0.00    -0.206 F 
ATOM    106  C   UNL A   1      50.940  36.899  25.479  1.00  0.00     0.040 A 
ATOM    107  C   UNL A   1      51.031  35.914  27.653  1.00  0.00     0.040 A 
ATOM    108  F   UNL A   1      49.098  35.260  28.747  1.00  0.00    -0.206 F 
ATOM    109  C   UNL A   1      51.690  36.449  26.558  1.00  0.00     0.006 A 
ENDBRANCH  85 102
ENDBRANCH  59  60
ENDBRANCH  51  54
ENDBRANCH  49  50
ENDBRANCH  48  49
ENDBRANCH  47  48
ENDBRANCH   3  47
TORSDOF 19
ENDMDL
