MODEL 1
REMARK VINA RESULT:     -11.9      0.000      0.000
REMARK SMILES C=CCc1cccc(-c2ccc([C@@H](C)C(=O)NCCCNC(=O)c3ccc(-c4c5nc(c(-c6c(F)cccc6F)c6ccc([nH]6)c(-c6c(F)cccc6F)c6nc(c(-c7c(F)cccc7F)c7ccc4[nH]7)C=C6)C=C5)cc3)cc2)c1
REMARK SMILES IDX 18 1 17 2 15 3 16 4 13 6 14 7 12 8 9 9 10 10 79 11 11 12
REMARK SMILES IDX 78 13 8 14 4 15 5 16 80 17 6 18 7 19 3 20 2 21 1 22 19 23
REMARK SMILES IDX 20 24 21 25 22 26 23 28 24 29 25 30 77 31 26 32 76 33 27 34
REMARK SMILES IDX 28 35 29 36 70 37 30 38 75 39 69 40 71 41 31 42 74 43 68 44
REMARK SMILES IDX 67 45 32 47 58 48 41 49 57 50 42 51 45 52 56 53 72 54 43 55
REMARK SMILES IDX 44 56 55 58 73 59 46 60 33 61 34 62 39 63 35 64 36 65 38 66
REMARK SMILES IDX 40 67 37 68 59 69 60 70 65 71 61 72 62 73 64 74 66 75 63 76
REMARK SMILES IDX 47 77 48 78 53 79 49 80 50 81 52 82 54 83 51 84
REMARK H PARENT 17 5 21 27 71 46 45 57
REMARK Flexibility Score: inf
ROOT
ATOM      1  C   UNL A   1      31.729  29.414  25.809  1.00  0.00     0.117 C 
ENDROOT
BRANCH   1   2
ATOM      2  N   UNL A   1      31.150  28.746  24.660  1.00  0.00    -0.356 N 
ATOM      3  C   UNL A   1      31.711  28.079  23.615  1.00  0.00     0.227 C 
ATOM      4  O   UNL A   1      30.928  27.671  22.748  1.00  0.00    -0.274 OA
ATOM      5  H   UNL A   1      30.166  28.781  24.630  1.00  0.00     0.163 HD
BRANCH   3   6
ATOM      6  C   UNL A   1      33.218  27.815  23.468  1.00  0.00     0.105 C 
ATOM      7  C   UNL A   1      33.847  28.411  22.209  1.00  0.00     0.023 C 
BRANCH   6   8
ATOM      8  C   UNL A   1      33.612  26.384  23.797  1.00  0.00    -0.036 A 
ATOM      9  C   UNL A   1      34.516  23.711  24.274  1.00  0.00    -0.018 A 
ATOM     10  C   UNL A   1      34.510  24.682  25.287  1.00  0.00     0.009 A 
ATOM     11  C   UNL A   1      34.010  24.102  23.024  1.00  0.00     0.009 A 
ATOM     12  C   UNL A   1      34.040  25.982  25.063  1.00  0.00     0.005 A 
ATOM     13  C   UNL A   1      33.587  25.416  22.783  1.00  0.00     0.005 A 
BRANCH   9  14
ATOM     14  C   UNL A   1      35.054  22.348  24.512  1.00  0.00    -0.018 A 
ATOM     15  C   UNL A   1      34.721  19.903  24.627  1.00  0.00    -0.044 A 
ATOM     16  C   UNL A   1      36.084  19.746  24.910  1.00  0.00     0.004 A 
ATOM     17  C   UNL A   1      34.226  21.208  24.435  1.00  0.00     0.012 A 
ATOM     18  C   UNL A   1      36.925  20.853  24.995  1.00  0.00     0.001 A 
ATOM     19  C   UNL A   1      36.412  22.137  24.805  1.00  0.00     0.009 A 
BRANCH  15  20
ATOM     20  C   UNL A   1      33.834  18.675  24.626  1.00  0.00     0.062 C 
BRANCH  20  21
ATOM     21  C   UNL A   1      34.501  17.374  24.276  1.00  0.00    -0.030 C 
ATOM     22  C   UNL A   1      34.106  16.560  23.289  1.00  0.00     0.004 C 
ENDBRANCH  20  21
ENDBRANCH  15  20
ENDBRANCH   9  14
ENDBRANCH   6   8
ENDBRANCH   3   6
ENDBRANCH   1   2
BRANCH   1  23
ATOM     23  C   UNL A   1      32.345  28.434  26.806  1.00  0.00     0.042 C 
BRANCH  23  24
ATOM     24  C   UNL A   1      33.746  28.817  27.271  1.00  0.00     0.118 C 
BRANCH  24  25
ATOM     25  N   UNL A   1      33.800  30.170  27.811  1.00  0.00    -0.352 N 
ATOM     26  C   UNL A   1      34.784  30.819  28.518  1.00  0.00     0.251 C 
ATOM     27  H   UNL A   1      32.995  30.711  27.642  1.00  0.00     0.163 HD
ATOM     28  O   UNL A   1      34.523  31.892  29.057  1.00  0.00    -0.269 OA
BRANCH  26  29
ATOM     29  C   UNL A   1      36.144  30.249  28.655  1.00  0.00     0.039 A 
ATOM     30  C   UNL A   1      36.986  30.246  27.537  1.00  0.00     0.014 A 
ATOM     31  C   UNL A   1      36.581  29.670  29.849  1.00  0.00     0.014 A 
ATOM     32  C   UNL A   1      38.283  29.732  27.635  1.00  0.00     0.010 A 
ATOM     33  C   UNL A   1      37.896  29.220  29.967  1.00  0.00     0.010 A 
ATOM     34  C   UNL A   1      38.762  29.253  28.864  1.00  0.00    -0.014 A 
BRANCH  34  35
ATOM     35  C   UNL A   1      40.172  28.812  29.026  1.00  0.00     0.031 A 
ATOM     36  C   UNL A   1      41.221  29.771  29.514  1.00  0.00     0.074 A 
ATOM     37  C   UNL A   1      40.521  27.567  28.650  1.00  0.00     0.049 A 
ATOM     38  N   UNL A   1      42.516  29.602  29.607  1.00  0.00    -0.248 NA
ATOM     39  C   UNL A   1      40.756  31.103  29.931  1.00  0.00     0.031 C 
ATOM     40  C   UNL A   1      39.605  26.552  28.124  1.00  0.00     0.029 A 
ATOM     41  N   UNL A   1      41.747  26.947  28.633  1.00  0.00    -0.354 N 
ATOM     42  C   UNL A   1      43.023  30.808  30.076  1.00  0.00     0.074 A 
ATOM     43  C   UNL A   1      41.900  31.712  30.212  1.00  0.00     0.031 C 
ATOM     44  C   UNL A   1      40.297  25.437  27.844  1.00  0.00     0.029 A 
ATOM     45  C   UNL A   1      41.709  25.669  28.130  1.00  0.00     0.049 A 
ATOM     46  H   UNL A   1      42.573  27.377  28.952  1.00  0.00     0.167 HD
ATOM     47  C   UNL A   1      44.305  31.126  30.378  1.00  0.00     0.037 A 
ATOM     48  C   UNL A   1      42.703  24.790  27.902  1.00  0.00     0.037 A 
ATOM     49  C   UNL A   1      45.417  30.218  30.264  1.00  0.00     0.049 A 
ATOM     50  C   UNL A   1      44.118  25.176  28.225  1.00  0.00     0.074 A 
ATOM     51  C   UNL A   1      46.739  30.427  30.616  1.00  0.00     0.029 A 
ATOM     52  N   UNL A   1      45.337  28.932  29.754  1.00  0.00    -0.354 N 
ATOM     53  N   UNL A   1      44.574  26.299  28.724  1.00  0.00    -0.248 NA
ATOM     54  C   UNL A   1      45.157  24.174  27.948  1.00  0.00     0.031 C 
ATOM     55  C   UNL A   1      47.468  29.281  30.278  1.00  0.00     0.029 A 
ATOM     56  C   UNL A   1      46.591  28.345  29.752  1.00  0.00     0.049 A 
ATOM     57  H   UNL A   1      44.510  28.500  29.437  1.00  0.00     0.167 HD
ATOM     58  C   UNL A   1      45.948  26.135  28.833  1.00  0.00     0.074 A 
ATOM     59  C   UNL A   1      46.250  24.797  28.368  1.00  0.00     0.031 C 
ATOM     60  C   UNL A   1      46.877  27.015  29.276  1.00  0.00     0.037 A 
BRANCH  47  61
ATOM     61  C   UNL A   1      44.575  32.520  30.865  1.00  0.00     0.057 A 
ATOM     62  C   UNL A   1      44.905  33.558  29.984  1.00  0.00     0.134 A 
ATOM     63  C   UNL A   1      44.461  32.838  32.224  1.00  0.00     0.134 A 
ATOM     64  F   UNL A   1      45.038  33.318  28.670  1.00  0.00    -0.206 F 
ATOM     65  C   UNL A   1      45.135  34.858  30.440  1.00  0.00     0.040 A 
ATOM     66  C   UNL A   1      44.665  34.138  32.689  1.00  0.00     0.040 A 
ATOM     67  F   UNL A   1      44.139  31.893  33.120  1.00  0.00    -0.206 F 
ATOM     68  C   UNL A   1      45.008  35.151  31.796  1.00  0.00     0.006 A 
ENDBRANCH  47  61
BRANCH  48  69
ATOM     69  C   UNL A   1      42.392  23.454  27.336  1.00  0.00     0.057 A 
ATOM     70  C   UNL A   1      42.472  23.218  25.959  1.00  0.00     0.134 A 
ATOM     71  C   UNL A   1      42.011  22.383  28.155  1.00  0.00     0.134 A 
ATOM     72  F   UNL A   1      42.811  24.211  25.124  1.00  0.00    -0.206 F 
ATOM     73  C   UNL A   1      42.172  21.969  25.414  1.00  0.00     0.040 A 
ATOM     74  C   UNL A   1      41.732  21.123  27.625  1.00  0.00     0.040 A 
ATOM     75  F   UNL A   1      41.918  22.546  29.482  1.00  0.00    -0.206 F 
ATOM     76  C   UNL A   1      41.807  20.915  26.249  1.00  0.00     0.006 A 
ENDBRANCH  48  69
BRANCH  60  77
ATOM     77  C   UNL A   1      48.304  26.556  29.285  1.00  0.00     0.057 A 
ATOM     78  C   UNL A   1      48.845  25.863  30.375  1.00  0.00     0.134 A 
ATOM     79  C   UNL A   1      49.137  26.781  28.181  1.00  0.00     0.134 A 
ATOM     80  F   UNL A   1      48.104  25.632  31.469  1.00  0.00    -0.206 F 
ATOM     81  C   UNL A   1      50.171  25.426  30.374  1.00  0.00     0.040 A 
ATOM     82  C   UNL A   1      50.456  26.327  28.159  1.00  0.00     0.040 A 
ATOM     83  F   UNL A   1      48.676  27.433  27.103  1.00  0.00    -0.206 F 
ATOM     84  C   UNL A   1      50.978  25.651  29.260  1.00  0.00     0.006 A 
ENDBRANCH  60  77
ENDBRANCH  34  35
ENDBRANCH  26  29
ENDBRANCH  24  25
ENDBRANCH  23  24
ENDBRANCH   1  23
TORSDOF 14
ENDMDL
MODEL 2
REMARK VINA RESULT:     -11.6      4.079     10.059
REMARK SMILES C=CCc1cccc(-c2ccc([C@@H](C)C(=O)NCCCNC(=O)c3ccc(-c4c5nc(c(-c6c(F)cccc6F)c6ccc([nH]6)c(-c6c(F)cccc6F)c6nc(c(-c7c(F)cccc7F)c7ccc4[nH]7)C=C6)C=C5)cc3)cc2)c1
REMARK SMILES IDX 18 1 17 2 15 3 16 4 13 6 14 7 12 8 9 9 10 10 79 11 11 12
REMARK SMILES IDX 78 13 8 14 4 15 5 16 80 17 6 18 7 19 3 20 2 21 1 22 19 23
REMARK SMILES IDX 20 24 21 25 22 26 23 28 24 29 25 30 77 31 26 32 76 33 27 34
REMARK SMILES IDX 28 35 29 36 70 37 30 38 75 39 69 40 71 41 31 42 74 43 68 44
REMARK SMILES IDX 67 45 32 47 58 48 41 49 57 50 42 51 45 52 56 53 72 54 43 55
REMARK SMILES IDX 44 56 55 58 73 59 46 60 33 61 34 62 39 63 35 64 36 65 38 66
REMARK SMILES IDX 40 67 37 68 59 69 60 70 65 71 61 72 62 73 64 74 66 75 63 76
REMARK SMILES IDX 47 77 48 78 53 79 49 80 50 81 52 82 54 83 51 84
REMARK H PARENT 17 5 21 27 71 46 45 57
REMARK Flexibility Score: inf
ROOT
ATOM      1  C   UNL A   1      42.458  19.585  26.841  1.00  0.00     0.117 C 
ENDROOT
BRANCH   1   2
ATOM      2  N   UNL A   1      43.652  19.852  26.062  1.00  0.00    -0.356 N 
ATOM      3  C   UNL A   1      44.145  20.995  25.513  1.00  0.00     0.227 C 
ATOM      4  O   UNL A   1      45.176  20.872  24.840  1.00  0.00    -0.274 OA
ATOM      5  H   UNL A   1      44.210  19.057  25.902  1.00  0.00     0.163 HD
BRANCH   3   6
ATOM      6  C   UNL A   1      43.506  22.382  25.686  1.00  0.00     0.105 C 
ATOM      7  C   UNL A   1      43.765  23.348  24.531  1.00  0.00     0.023 C 
BRANCH   6   8
ATOM      8  C   UNL A   1      43.680  22.953  27.084  1.00  0.00    -0.036 A 
ATOM      9  C   UNL A   1      44.077  24.212  29.623  1.00  0.00    -0.018 A 
ATOM     10  C   UNL A   1      42.806  23.801  29.193  1.00  0.00     0.009 A 
ATOM     11  C   UNL A   1      45.154  23.931  28.768  1.00  0.00     0.009 A 
ATOM     12  C   UNL A   1      42.615  23.157  27.962  1.00  0.00     0.005 A 
ATOM     13  C   UNL A   1      44.959  23.334  27.515  1.00  0.00     0.005 A 
BRANCH   9  14
ATOM     14  C   UNL A   1      44.262  24.927  30.910  1.00  0.00    -0.018 A 
ATOM     15  C   UNL A   1      44.182  27.011  32.234  1.00  0.00    -0.044 A 
ATOM     16  C   UNL A   1      44.559  26.286  33.372  1.00  0.00     0.004 A 
ATOM     17  C   UNL A   1      44.043  26.317  31.017  1.00  0.00     0.012 A 
ATOM     18  C   UNL A   1      44.784  24.914  33.298  1.00  0.00     0.001 A 
ATOM     19  C   UNL A   1      44.644  24.247  32.080  1.00  0.00     0.009 A 
BRANCH  15  20
ATOM     20  C   UNL A   1      44.028  28.514  32.350  1.00  0.00     0.062 C 
BRANCH  20  21
ATOM     21  C   UNL A   1      45.247  29.274  32.796  1.00  0.00    -0.030 C 
ATOM     22  C   UNL A   1      45.275  30.592  33.031  1.00  0.00     0.004 C 
ENDBRANCH  20  21
ENDBRANCH  15  20
ENDBRANCH   9  14
ENDBRANCH   6   8
ENDBRANCH   3   6
ENDBRANCH   1   2
BRANCH   1  23
ATOM     23  C   UNL A   1      41.182  20.023  26.124  1.00  0.00     0.042 C 
BRANCH  23  24
ATOM     24  C   UNL A   1      40.396  21.106  26.856  1.00  0.00     0.118 C 
BRANCH  24  25
ATOM     25  N   UNL A   1      39.196  21.505  26.133  1.00  0.00    -0.352 N 
ATOM     26  C   UNL A   1      38.548  22.714  26.061  1.00  0.00     0.251 C 
ATOM     27  H   UNL A   1      38.777  20.786  25.607  1.00  0.00     0.163 HD
ATOM     28  O   UNL A   1      37.428  22.763  25.558  1.00  0.00    -0.269 OA
BRANCH  26  29
ATOM     29  C   UNL A   1      39.161  23.955  26.588  1.00  0.00     0.039 A 
ATOM     30  C   UNL A   1      39.950  24.731  25.730  1.00  0.00     0.014 A 
ATOM     31  C   UNL A   1      39.018  24.335  27.925  1.00  0.00     0.014 A 
ATOM     32  C   UNL A   1      40.530  25.917  26.189  1.00  0.00     0.010 A 
ATOM     33  C   UNL A   1      39.539  25.552  28.364  1.00  0.00     0.010 A 
ATOM     34  C   UNL A   1      40.294  26.359  27.500  1.00  0.00    -0.014 A 
BRANCH  34  35
ATOM     35  C   UNL A   1      40.799  27.672  27.977  1.00  0.00     0.031 A 
ATOM     36  C   UNL A   1      42.274  27.960  28.007  1.00  0.00     0.074 A 
ATOM     37  C   UNL A   1      39.928  28.575  28.467  1.00  0.00     0.049 A 
ATOM     38  N   UNL A   1      42.904  28.998  28.496  1.00  0.00    -0.248 NA
ATOM     39  C   UNL A   1      43.158  26.935  27.430  1.00  0.00     0.031 C 
ATOM     40  C   UNL A   1      38.475  28.402  28.530  1.00  0.00     0.029 A 
ATOM     41  N   UNL A   1      40.138  29.813  29.023  1.00  0.00    -0.354 N 
ATOM     42  C   UNL A   1      44.257  28.746  28.303  1.00  0.00     0.074 A 
ATOM     43  C   UNL A   1      44.358  27.440  27.686  1.00  0.00     0.031 C 
ATOM     44  C   UNL A   1      37.925  29.493  29.085  1.00  0.00     0.029 A 
ATOM     45  C   UNL A   1      38.987  30.425  29.455  1.00  0.00     0.049 A 
ATOM     46  H   UNL A   1      41.030  30.223  29.104  1.00  0.00     0.167 HD
ATOM     47  C   UNL A   1      45.315  29.537  28.600  1.00  0.00     0.037 A 
ATOM     48  C   UNL A   1      38.806  31.593  30.098  1.00  0.00     0.037 A 
ATOM     49  C   UNL A   1      45.211  30.845  29.193  1.00  0.00     0.049 A 
ATOM     50  C   UNL A   1      39.998  32.442  30.436  1.00  0.00     0.074 A 
ATOM     51  C   UNL A   1      46.222  31.751  29.464  1.00  0.00     0.029 A 
ATOM     52  N   UNL A   1      44.027  31.430  29.613  1.00  0.00    -0.354 N 
ATOM     53  N   UNL A   1      41.267  32.218  30.193  1.00  0.00    -0.248 NA
ATOM     54  C   UNL A   1      39.734  33.703  31.143  1.00  0.00     0.031 C 
ATOM     55  C   UNL A   1      45.654  32.868  30.087  1.00  0.00     0.029 A 
ATOM     56  C   UNL A   1      44.284  32.673  30.169  1.00  0.00     0.049 A 
ATOM     57  H   UNL A   1      43.135  31.022  29.530  1.00  0.00     0.167 HD
ATOM     58  C   UNL A   1      41.950  33.312  30.704  1.00  0.00     0.074 A 
ATOM     59  C   UNL A   1      40.955  34.210  31.252  1.00  0.00     0.031 C 
ATOM     60  C   UNL A   1      43.283  33.551  30.719  1.00  0.00     0.037 A 
BRANCH  47  61
ATOM     61  C   UNL A   1      46.684  29.008  28.286  1.00  0.00     0.057 A 
ATOM     62  C   UNL A   1      47.376  28.177  29.177  1.00  0.00     0.134 A 
ATOM     63  C   UNL A   1      47.300  29.297  27.062  1.00  0.00     0.134 A 
ATOM     64  F   UNL A   1      46.846  27.869  30.371  1.00  0.00    -0.206 F 
ATOM     65  C   UNL A   1      48.641  27.671  28.871  1.00  0.00     0.040 A 
ATOM     66  C   UNL A   1      48.553  28.777  26.734  1.00  0.00     0.040 A 
ATOM     67  F   UNL A   1      46.688  30.079  26.160  1.00  0.00    -0.206 F 
ATOM     68  C   UNL A   1      49.229  27.966  27.643  1.00  0.00     0.006 A 
ENDBRANCH  47  61
BRANCH  48  69
ATOM     69  C   UNL A   1      37.436  32.031  30.465  1.00  0.00     0.057 A 
ATOM     70  C   UNL A   1      36.869  31.669  31.692  1.00  0.00     0.134 A 
ATOM     71  C   UNL A   1      36.664  32.819  29.603  1.00  0.00     0.134 A 
ATOM     72  F   UNL A   1      37.553  30.898  32.550  1.00  0.00    -0.206 F 
ATOM     73  C   UNL A   1      35.578  32.066  32.045  1.00  0.00     0.040 A 
ATOM     74  C   UNL A   1      35.381  33.242  29.953  1.00  0.00     0.040 A 
ATOM     75  F   UNL A   1      37.153  33.199  28.413  1.00  0.00    -0.206 F 
ATOM     76  C   UNL A   1      34.833  32.860  31.176  1.00  0.00     0.006 A 
ENDBRANCH  48  69
BRANCH  60  77
ATOM     77  C   UNL A   1      43.740  34.836  31.343  1.00  0.00     0.057 A 
ATOM     78  C   UNL A   1      44.099  34.908  32.695  1.00  0.00     0.134 A 
ATOM     79  C   UNL A   1      43.852  36.004  30.579  1.00  0.00     0.134 A 
ATOM     80  F   UNL A   1      43.997  33.827  33.484  1.00  0.00    -0.206 F 
ATOM     81  C   UNL A   1      44.535  36.103  33.269  1.00  0.00     0.040 A 
ATOM     82  C   UNL A   1      44.311  37.199  31.136  1.00  0.00     0.040 A 
ATOM     83  F   UNL A   1      43.530  36.000  29.276  1.00  0.00    -0.206 F 
ATOM     84  C   UNL A   1      44.650  37.251  32.487  1.00  0.00     0.006 A 
ENDBRANCH  60  77
ENDBRANCH  34  35
ENDBRANCH  26  29
ENDBRANCH  24  25
ENDBRANCH  23  24
ENDBRANCH   1  23
TORSDOF 14
ENDMDL
MODEL 3
REMARK VINA RESULT:     -11.5      4.118      7.582
REMARK SMILES C=CCc1cccc(-c2ccc([C@@H](C)C(=O)NCCCNC(=O)c3ccc(-c4c5nc(c(-c6c(F)cccc6F)c6ccc([nH]6)c(-c6c(F)cccc6F)c6nc(c(-c7c(F)cccc7F)c7ccc4[nH]7)C=C6)C=C5)cc3)cc2)c1
REMARK SMILES IDX 18 1 17 2 15 3 16 4 13 6 14 7 12 8 9 9 10 10 79 11 11 12
REMARK SMILES IDX 78 13 8 14 4 15 5 16 80 17 6 18 7 19 3 20 2 21 1 22 19 23
REMARK SMILES IDX 20 24 21 25 22 26 23 28 24 29 25 30 77 31 26 32 76 33 27 34
REMARK SMILES IDX 28 35 29 36 70 37 30 38 75 39 69 40 71 41 31 42 74 43 68 44
REMARK SMILES IDX 67 45 32 47 58 48 41 49 57 50 42 51 45 52 56 53 72 54 43 55
REMARK SMILES IDX 44 56 55 58 73 59 46 60 33 61 34 62 39 63 35 64 36 65 38 66
REMARK SMILES IDX 40 67 37 68 59 69 60 70 65 71 61 72 62 73 64 74 66 75 63 76
REMARK SMILES IDX 47 77 48 78 53 79 49 80 50 81 52 82 54 83 51 84
REMARK H PARENT 17 5 21 27 71 46 45 57
REMARK Flexibility Score: inf
ROOT
ATOM      1  C   UNL A   1      33.592  34.487  29.910  1.00  0.00     0.117 C 
ENDROOT
BRANCH   1   2
ATOM      2  N   UNL A   1      34.083  35.307  31.001  1.00  0.00    -0.356 N 
ATOM      3  C   UNL A   1      34.975  35.058  31.997  1.00  0.00     0.227 C 
ATOM      4  O   UNL A   1      35.131  35.965  32.824  1.00  0.00    -0.274 OA
ATOM      5  H   UNL A   1      33.698  36.213  31.024  1.00  0.00     0.163 HD
BRANCH   3   6
ATOM      6  C   UNL A   1      35.772  33.752  32.137  1.00  0.00     0.105 C 
ATOM      7  C   UNL A   1      35.668  33.088  33.510  1.00  0.00     0.023 C 
BRANCH   6   8
ATOM      8  C   UNL A   1      37.168  33.833  31.540  1.00  0.00    -0.036 A 
ATOM      9  C   UNL A   1      39.859  33.843  30.568  1.00  0.00    -0.018 A 
ATOM     10  C   UNL A   1      38.789  33.398  29.776  1.00  0.00     0.009 A 
ATOM     11  C   UNL A   1      39.539  34.329  31.845  1.00  0.00     0.009 A 
ATOM     12  C   UNL A   1      37.467  33.421  30.241  1.00  0.00     0.005 A 
ATOM     13  C   UNL A   1      38.225  34.305  32.331  1.00  0.00     0.005 A 
BRANCH   9  14
ATOM     14  C   UNL A   1      41.259  33.777  30.080  1.00  0.00    -0.018 A 
ATOM     15  C   UNL A   1      43.278  32.464  29.532  1.00  0.00    -0.044 A 
ATOM     16  C   UNL A   1      43.907  33.638  29.098  1.00  0.00     0.004 A 
ATOM     17  C   UNL A   1      41.961  32.554  30.020  1.00  0.00     0.012 A 
ATOM     18  C   UNL A   1      43.241  34.860  29.147  1.00  0.00     0.001 A 
ATOM     19  C   UNL A   1      41.937  34.927  29.639  1.00  0.00     0.009 A 
BRANCH  15  20
ATOM     20  C   UNL A   1      44.073  31.173  29.535  1.00  0.00     0.062 C 
BRANCH  20  21
ATOM     21  C   UNL A   1      43.353  29.950  29.038  1.00  0.00    -0.030 C 
ATOM     22  C   UNL A   1      42.981  29.754  27.766  1.00  0.00     0.004 C 
ENDBRANCH  20  21
ENDBRANCH  15  20
ENDBRANCH   9  14
ENDBRANCH   6   8
ENDBRANCH   3   6
ENDBRANCH   1   2
BRANCH   1  23
ATOM     23  C   UNL A   1      34.331  34.753  28.600  1.00  0.00     0.042 C 
BRANCH  23  24
ATOM     24  C   UNL A   1      35.139  33.564  28.089  1.00  0.00     0.118 C 
BRANCH  24  25
ATOM     25  N   UNL A   1      34.308  32.390  27.853  1.00  0.00    -0.352 N 
ATOM     26  C   UNL A   1      34.608  31.051  27.903  1.00  0.00     0.251 C 
ATOM     27  H   UNL A   1      33.374  32.591  27.616  1.00  0.00     0.163 HD
ATOM     28  O   UNL A   1      33.799  30.240  27.456  1.00  0.00    -0.269 OA
BRANCH  26  29
ATOM     29  C   UNL A   1      35.886  30.563  28.471  1.00  0.00     0.039 A 
ATOM     30  C   UNL A   1      35.893  30.066  29.780  1.00  0.00     0.014 A 
ATOM     31  C   UNL A   1      37.083  30.639  27.756  1.00  0.00     0.014 A 
ATOM     32  C   UNL A   1      37.078  29.581  30.341  1.00  0.00     0.010 A 
ATOM     33  C   UNL A   1      38.251  30.093  28.289  1.00  0.00     0.010 A 
ATOM     34  C   UNL A   1      38.259  29.553  29.584  1.00  0.00    -0.014 A 
BRANCH  34  35
ATOM     35  C   UNL A   1      39.503  28.935  30.112  1.00  0.00     0.031 A 
ATOM     36  C   UNL A   1      40.193  29.514  31.315  1.00  0.00     0.074 A 
ATOM     37  C   UNL A   1      40.058  27.901  29.451  1.00  0.00     0.049 A 
ATOM     38  N   UNL A   1      41.343  29.184  31.847  1.00  0.00    -0.248 NA
ATOM     39  C   UNL A   1      39.510  30.624  31.998  1.00  0.00     0.031 C 
ATOM     40  C   UNL A   1      39.509  27.272  28.248  1.00  0.00     0.029 A 
ATOM     41  N   UNL A   1      41.221  27.208  29.686  1.00  0.00    -0.354 N 
ATOM     42  C   UNL A   1      41.531  30.055  32.914  1.00  0.00     0.074 A 
ATOM     43  C   UNL A   1      40.394  30.952  32.930  1.00  0.00     0.031 C 
ATOM     44  C   UNL A   1      40.328  26.284  27.855  1.00  0.00     0.029 A 
ATOM     45  C   UNL A   1      41.479  26.235  28.751  1.00  0.00     0.049 A 
ATOM     46  H   UNL A   1      41.812  27.391  30.451  1.00  0.00     0.167 HD
ATOM     47  C   UNL A   1      42.551  30.093  33.805  1.00  0.00     0.037 A 
ATOM     48  C   UNL A   1      42.534  25.411  28.615  1.00  0.00     0.037 A 
ATOM     49  C   UNL A   1      43.669  29.186  33.800  1.00  0.00     0.049 A 
ATOM     50  C   UNL A   1      43.663  25.488  29.604  1.00  0.00     0.074 A 
ATOM     51  C   UNL A   1      44.713  29.100  34.704  1.00  0.00     0.029 A 
ATOM     52  N   UNL A   1      43.892  28.212  32.839  1.00  0.00    -0.354 N 
ATOM     53  N   UNL A   1      43.797  26.276  30.643  1.00  0.00    -0.248 NA
ATOM     54  C   UNL A   1      44.788  24.566  29.398  1.00  0.00     0.031 C 
ATOM     55  C   UNL A   1      45.591  28.101  34.267  1.00  0.00     0.029 A 
ATOM     56  C   UNL A   1      45.072  27.540  33.111  1.00  0.00     0.049 A 
ATOM     57  H   UNL A   1      43.300  28.026  32.074  1.00  0.00     0.167 HD
ATOM     58  C   UNL A   1      45.013  25.938  31.221  1.00  0.00     0.074 A 
ATOM     59  C   UNL A   1      45.567  24.858  30.431  1.00  0.00     0.031 C 
ATOM     60  C   UNL A   1      45.616  26.474  32.309  1.00  0.00     0.037 A 
BRANCH  47  61
ATOM     61  C   UNL A   1      42.504  31.154  34.865  1.00  0.00     0.057 A 
ATOM     62  C   UNL A   1      42.032  30.886  36.156  1.00  0.00     0.134 A 
ATOM     63  C   UNL A   1      42.975  32.447  34.604  1.00  0.00     0.134 A 
ATOM     64  F   UNL A   1      41.558  29.670  36.469  1.00  0.00    -0.206 F 
ATOM     65  C   UNL A   1      42.009  31.873  37.145  1.00  0.00     0.040 A 
ATOM     66  C   UNL A   1      42.981  33.434  35.591  1.00  0.00     0.040 A 
ATOM     67  F   UNL A   1      43.449  32.768  33.390  1.00  0.00    -0.206 F 
ATOM     68  C   UNL A   1      42.491  33.150  36.864  1.00  0.00     0.006 A 
ENDBRANCH  47  61
BRANCH  48  69
ATOM     69  C   UNL A   1      42.573  24.437  27.496  1.00  0.00     0.057 A 
ATOM     70  C   UNL A   1      43.105  24.792  26.252  1.00  0.00     0.134 A 
ATOM     71  C   UNL A   1      42.084  23.133  27.643  1.00  0.00     0.134 A 
ATOM     72  F   UNL A   1      43.569  26.034  26.046  1.00  0.00    -0.206 F 
ATOM     73  C   UNL A   1      43.138  23.889  25.188  1.00  0.00     0.040 A 
ATOM     74  C   UNL A   1      42.133  22.213  26.595  1.00  0.00     0.040 A 
ATOM     75  F   UNL A   1      41.564  22.733  28.812  1.00  0.00    -0.206 F 
ATOM     76  C   UNL A   1      42.656  22.593  25.360  1.00  0.00     0.006 A 
ENDBRANCH  48  69
BRANCH  60  77
ATOM     77  C   UNL A   1      46.941  25.897  32.709  1.00  0.00     0.057 A 
ATOM     78  C   UNL A   1      47.035  24.849  33.632  1.00  0.00     0.134 A 
ATOM     79  C   UNL A   1      48.131  26.372  32.143  1.00  0.00     0.134 A 
ATOM     80  F   UNL A   1      45.933  24.361  34.222  1.00  0.00    -0.206 F 
ATOM     81  C   UNL A   1      48.269  24.305  33.993  1.00  0.00     0.040 A 
ATOM     82  C   UNL A   1      49.368  25.821  32.477  1.00  0.00     0.040 A 
ATOM     83  F   UNL A   1      48.108  27.371  31.247  1.00  0.00    -0.206 F 
ATOM     84  C   UNL A   1      49.440  24.786  33.409  1.00  0.00     0.006 A 
ENDBRANCH  60  77
ENDBRANCH  34  35
ENDBRANCH  26  29
ENDBRANCH  24  25
ENDBRANCH  23  24
ENDBRANCH   1  23
TORSDOF 14
ENDMDL
