MODEL 1
REMARK VINA RESULT:     -11.7      0.000      0.000
REMARK SMILES Cc1ccccc1O[C@H](C)C(=O)Oc1cccc(C(=O)NCCCNC(=O)c2ccc(-c3c4nc(c(-c5c(F)cccc5F)c5ccc([nH]5)c(-c5c(F)cccc5F)c5nc(c(-c6c(F)cccc6F)c6ccc3[nH]6)C=C5)C=C4)cc2)c1
REMARK SMILES IDX 19 1 20 2 21 3 18 5 14 6 15 7 82 8 16 9 17 10 13 11 11 12
REMARK SMILES IDX 12 13 9 14 10 15 8 16 7 17 1 18 2 19 3 20 4 21 6 22 5 23
REMARK SMILES IDX 22 24 23 25 24 26 25 27 26 28 27 30 28 31 29 32 81 33 30 34
REMARK SMILES IDX 80 35 31 36 32 37 33 38 74 39 34 40 79 41 73 42 75 43 35 44
REMARK SMILES IDX 78 45 72 46 71 47 36 49 62 50 45 51 61 52 46 53 49 54 60 55
REMARK SMILES IDX 76 56 47 57 48 58 59 60 77 61 50 62 37 63 38 64 43 65 39 66
REMARK SMILES IDX 40 67 42 68 44 69 41 70 63 71 64 72 69 73 65 74 66 75 68 76
REMARK SMILES IDX 70 77 67 78 51 79 52 80 57 81 53 82 54 83 56 84 58 85 55 86
REMARK H PARENT 21 4 25 29 75 48 49 59
REMARK Flexibility Score: inf
ROOT
ATOM      1  C   UNL A   1      33.513  28.777  25.332  1.00  0.00     0.251 C 
ATOM      2  O   UNL A   1      33.055  29.340  24.338  1.00  0.00    -0.269 OA
ATOM      3  N   UNL A   1      34.390  29.479  26.125  1.00  0.00    -0.352 N 
ATOM      4  H   UNL A   1      34.646  30.359  25.769  1.00  0.00     0.163 HD
ENDROOT
BRANCH   1   5
ATOM      5  C   UNL A   1      33.071  27.387  25.635  1.00  0.00     0.043 A 
ATOM      6  C   UNL A   1      33.699  25.056  25.878  1.00  0.00     0.131 A 
ATOM      7  C   UNL A   1      32.419  24.735  26.319  1.00  0.00     0.047 A 
ATOM      8  C   UNL A   1      34.031  26.371  25.542  1.00  0.00     0.061 A 
ATOM      9  C   UNL A   1      31.463  25.740  26.423  1.00  0.00     0.005 A 
ATOM     10  C   UNL A   1      31.794  27.058  26.103  1.00  0.00     0.014 A 
BRANCH   6  11
ATOM     11  O   UNL A   1      34.772  24.137  25.859  1.00  0.00    -0.424 OA
BRANCH  11  12
ATOM     12  C   UNL A   1      34.847  23.036  25.008  1.00  0.00     0.352 C 
ATOM     13  O   UNL A   1      34.614  21.872  25.321  1.00  0.00    -0.247 OA
BRANCH  12  14
ATOM     14  C   UNL A   1      35.252  23.476  23.590  1.00  0.00     0.280 C 
ATOM     15  C   UNL A   1      36.579  22.888  23.119  1.00  0.00     0.066 C 
BRANCH  14  16
ATOM     16  O   UNL A   1      34.283  23.517  22.550  1.00  0.00    -0.479 OA
BRANCH  16  17
ATOM     17  C   UNL A   1      33.363  24.516  22.435  1.00  0.00     0.123 A 
ATOM     18  C   UNL A   1      31.661  22.805  23.260  1.00  0.00     0.048 C 
ATOM     19  C   UNL A   1      32.041  24.182  22.784  1.00  0.00    -0.009 A 
ATOM     20  C   UNL A   1      31.040  25.168  22.751  1.00  0.00     0.007 A 
ATOM     21  C   UNL A   1      31.339  26.472  22.366  1.00  0.00     0.001 A 
ATOM     22  C   UNL A   1      33.653  25.836  22.087  1.00  0.00     0.047 A 
ATOM     23  C   UNL A   1      32.646  26.805  22.036  1.00  0.00     0.004 A 
ENDBRANCH  16  17
ENDBRANCH  14  16
ENDBRANCH  12  14
ENDBRANCH  11  12
ENDBRANCH   6  11
ENDBRANCH   1   5
BRANCH   3  24
ATOM     24  C   UNL A   1      35.004  29.144  27.400  1.00  0.00     0.118 C 
BRANCH  24  25
ATOM     25  C   UNL A   1      34.932  30.315  28.379  1.00  0.00     0.042 C 
BRANCH  25  26
ATOM     26  C   UNL A   1      34.977  31.678  27.710  1.00  0.00     0.118 C 
BRANCH  26  27
ATOM     27  N   UNL A   1      34.017  32.639  28.248  1.00  0.00    -0.352 N 
ATOM     28  C   UNL A   1      34.163  33.482  29.340  1.00  0.00     0.251 C 
ATOM     29  H   UNL A   1      33.156  32.695  27.776  1.00  0.00     0.163 HD
ATOM     30  O   UNL A   1      33.278  34.260  29.656  1.00  0.00    -0.269 OA
BRANCH  28  31
ATOM     31  C   UNL A   1      35.475  33.512  30.029  1.00  0.00     0.039 A 
ATOM     32  C   UNL A   1      36.529  34.163  29.383  1.00  0.00     0.014 A 
ATOM     33  C   UNL A   1      35.710  32.675  31.115  1.00  0.00     0.014 A 
ATOM     34  C   UNL A   1      37.832  33.757  29.648  1.00  0.00     0.010 A 
ATOM     35  C   UNL A   1      36.990  32.190  31.296  1.00  0.00     0.010 A 
ATOM     36  C   UNL A   1      38.039  32.677  30.505  1.00  0.00    -0.014 A 
BRANCH  36  37
ATOM     37  C   UNL A   1      39.276  31.905  30.520  1.00  0.00     0.031 A 
ATOM     38  C   UNL A   1      39.380  30.623  29.799  1.00  0.00     0.074 A 
ATOM     39  C   UNL A   1      40.376  32.405  31.129  1.00  0.00     0.049 A 
ATOM     40  N   UNL A   1      40.254  29.713  30.071  1.00  0.00    -0.248 NA
ATOM     41  C   UNL A   1      38.471  30.241  28.729  1.00  0.00     0.031 C 
ATOM     42  C   UNL A   1      41.752  31.931  30.997  1.00  0.00     0.029 A 
ATOM     43  N   UNL A   1      40.426  33.322  32.190  1.00  0.00    -0.354 N 
ATOM     44  C   UNL A   1      40.238  28.795  29.048  1.00  0.00     0.074 A 
ATOM     45  C   UNL A   1      39.057  29.127  28.282  1.00  0.00     0.031 C 
ATOM     46  C   UNL A   1      42.441  32.293  32.089  1.00  0.00     0.029 A 
ATOM     47  C   UNL A   1      41.497  32.896  33.009  1.00  0.00     0.049 A 
ATOM     48  H   UNL A   1      39.839  34.099  32.334  1.00  0.00     0.167 HD
ATOM     49  C   UNL A   1      41.306  27.959  28.894  1.00  0.00     0.037 A 
ATOM     50  C   UNL A   1      41.301  32.501  34.297  1.00  0.00     0.037 A 
ATOM     51  C   UNL A   1      42.275  28.112  29.985  1.00  0.00     0.049 A 
ATOM     52  C   UNL A   1      41.766  31.098  34.615  1.00  0.00     0.074 A 
ATOM     53  C   UNL A   1      43.525  28.704  30.091  1.00  0.00     0.029 A 
ATOM     54  N   UNL A   1      41.880  27.836  31.290  1.00  0.00    -0.354 N 
ATOM     55  N   UNL A   1      42.134  30.211  33.734  1.00  0.00    -0.248 NA
ATOM     56  C   UNL A   1      41.773  30.566  35.969  1.00  0.00     0.031 C 
ATOM     57  C   UNL A   1      43.902  28.724  31.461  1.00  0.00     0.029 A 
ATOM     58  C   UNL A   1      42.875  28.159  32.194  1.00  0.00     0.049 A 
ATOM     59  H   UNL A   1      41.004  27.460  31.536  1.00  0.00     0.167 HD
ATOM     60  C   UNL A   1      42.363  28.998  34.351  1.00  0.00     0.074 A 
ATOM     61  C   UNL A   1      42.126  29.288  35.754  1.00  0.00     0.031 C 
ATOM     62  C   UNL A   1      42.684  27.880  33.618  1.00  0.00     0.037 A 
BRANCH  49  63
ATOM     63  C   UNL A   1      41.600  27.204  27.608  1.00  0.00     0.057 A 
ATOM     64  C   UNL A   1      41.350  25.820  27.501  1.00  0.00     0.134 A 
ATOM     65  C   UNL A   1      42.186  27.763  26.459  1.00  0.00     0.134 A 
ATOM     66  F   UNL A   1      40.671  25.147  28.437  1.00  0.00    -0.206 F 
ATOM     67  C   UNL A   1      41.782  25.044  26.416  1.00  0.00     0.040 A 
ATOM     68  C   UNL A   1      42.673  26.994  25.391  1.00  0.00     0.040 A 
ATOM     69  F   UNL A   1      42.250  29.087  26.278  1.00  0.00    -0.206 F 
ATOM     70  C   UNL A   1      42.490  25.621  25.375  1.00  0.00     0.006 A 
ENDBRANCH  49  63
BRANCH  50  71
ATOM     71  C   UNL A   1      40.166  33.193  34.959  1.00  0.00     0.057 A 
ATOM     72  C   UNL A   1      38.910  32.561  34.983  1.00  0.00     0.134 A 
ATOM     73  C   UNL A   1      40.369  34.244  35.856  1.00  0.00     0.134 A 
ATOM     74  F   UNL A   1      38.651  31.543  34.147  1.00  0.00    -0.206 F 
ATOM     75  C   UNL A   1      37.939  32.887  35.932  1.00  0.00     0.040 A 
ATOM     76  C   UNL A   1      39.399  34.586  36.806  1.00  0.00     0.040 A 
ATOM     77  F   UNL A   1      41.549  34.878  35.908  1.00  0.00    -0.206 F 
ATOM     78  C   UNL A   1      38.197  33.881  36.870  1.00  0.00     0.006 A 
ENDBRANCH  50  71
BRANCH  62  79
ATOM     79  C   UNL A   1      42.847  26.426  34.081  1.00  0.00     0.057 A 
ATOM     80  C   UNL A   1      43.901  25.559  33.761  1.00  0.00     0.134 A 
ATOM     81  C   UNL A   1      41.867  25.824  34.919  1.00  0.00     0.134 A 
ATOM     82  F   UNL A   1      44.856  25.886  32.889  1.00  0.00    -0.206 F 
ATOM     83  C   UNL A   1      44.019  24.258  34.285  1.00  0.00     0.040 A 
ATOM     84  C   UNL A   1      41.965  24.525  35.437  1.00  0.00     0.040 A 
ATOM     85  F   UNL A   1      40.744  26.456  35.285  1.00  0.00    -0.206 F 
ATOM     86  C   UNL A   1      43.057  23.738  35.135  1.00  0.00     0.006 A 
ENDBRANCH  62  79
ENDBRANCH  36  37
ENDBRANCH  28  31
ENDBRANCH  26  27
ENDBRANCH  25  26
ENDBRANCH  24  25
ENDBRANCH   3  24
TORSDOF 15
ENDMDL
MODEL 2
REMARK VINA RESULT:     -11.6      3.173      8.467
REMARK SMILES Cc1ccccc1O[C@H](C)C(=O)Oc1cccc(C(=O)NCCCNC(=O)c2ccc(-c3c4nc(c(-c5c(F)cccc5F)c5ccc([nH]5)c(-c5c(F)cccc5F)c5nc(c(-c6c(F)cccc6F)c6ccc3[nH]6)C=C5)C=C4)cc2)c1
REMARK SMILES IDX 19 1 20 2 21 3 18 5 14 6 15 7 82 8 16 9 17 10 13 11 11 12
REMARK SMILES IDX 12 13 9 14 10 15 8 16 7 17 1 18 2 19 3 20 4 21 6 22 5 23
REMARK SMILES IDX 22 24 23 25 24 26 25 27 26 28 27 30 28 31 29 32 81 33 30 34
REMARK SMILES IDX 80 35 31 36 32 37 33 38 74 39 34 40 79 41 73 42 75 43 35 44
REMARK SMILES IDX 78 45 72 46 71 47 36 49 62 50 45 51 61 52 46 53 49 54 60 55
REMARK SMILES IDX 76 56 47 57 48 58 59 60 77 61 50 62 37 63 38 64 43 65 39 66
REMARK SMILES IDX 40 67 42 68 44 69 41 70 63 71 64 72 69 73 65 74 66 75 68 76
REMARK SMILES IDX 70 77 67 78 51 79 52 80 57 81 53 82 54 83 56 84 58 85 55 86
REMARK H PARENT 21 4 25 29 75 48 49 59
REMARK Flexibility Score: inf
ROOT
ATOM      1  C   UNL A   1      34.907  22.346  26.249  1.00  0.00     0.251 C 
ATOM      2  O   UNL A   1      34.490  22.755  27.333  1.00  0.00    -0.269 OA
ATOM      3  N   UNL A   1      36.124  21.707  26.225  1.00  0.00    -0.352 N 
ATOM      4  H   UNL A   1      36.604  21.713  27.084  1.00  0.00     0.163 HD
ENDROOT
BRANCH   1   5
ATOM      5  C   UNL A   1      34.061  22.538  25.038  1.00  0.00     0.043 A 
ATOM      6  C   UNL A   1      33.625  23.848  23.043  1.00  0.00     0.131 A 
ATOM      7  C   UNL A   1      32.643  22.948  22.641  1.00  0.00     0.047 A 
ATOM      8  C   UNL A   1      34.337  23.647  24.229  1.00  0.00     0.061 A 
ATOM      9  C   UNL A   1      32.371  21.839  23.434  1.00  0.00     0.005 A 
ATOM     10  C   UNL A   1      33.089  21.626  24.612  1.00  0.00     0.014 A 
BRANCH   6  11
ATOM     11  O   UNL A   1      34.064  24.931  22.249  1.00  0.00    -0.424 OA
BRANCH  11  12
ATOM     12  C   UNL A   1      33.216  25.867  21.660  1.00  0.00     0.352 C 
ATOM     13  O   UNL A   1      33.036  26.011  20.455  1.00  0.00    -0.247 OA
BRANCH  12  14
ATOM     14  C   UNL A   1      32.504  26.705  22.737  1.00  0.00     0.280 C 
ATOM     15  C   UNL A   1      30.994  26.490  22.787  1.00  0.00     0.066 C 
BRANCH  14  16
ATOM     16  O   UNL A   1      33.072  26.832  24.035  1.00  0.00    -0.479 OA
BRANCH  16  17
ATOM     17  C   UNL A   1      32.629  27.740  24.951  1.00  0.00     0.123 A 
ATOM     18  C   UNL A   1      32.117  25.729  26.434  1.00  0.00     0.048 C 
ATOM     19  C   UNL A   1      32.143  27.209  26.161  1.00  0.00    -0.009 A 
ATOM     20  C   UNL A   1      31.722  28.077  27.184  1.00  0.00     0.007 A 
ATOM     21  C   UNL A   1      31.768  29.457  27.009  1.00  0.00     0.001 A 
ATOM     22  C   UNL A   1      32.703  29.125  24.806  1.00  0.00     0.047 A 
ATOM     23  C   UNL A   1      32.260  29.980  25.821  1.00  0.00     0.004 A 
ENDBRANCH  16  17
ENDBRANCH  14  16
ENDBRANCH  12  14
ENDBRANCH  11  12
ENDBRANCH   6  11
ENDBRANCH   1   5
BRANCH   3  24
ATOM     24  C   UNL A   1      36.824  21.024  25.148  1.00  0.00     0.118 C 
BRANCH  24  25
ATOM     25  C   UNL A   1      38.340  21.125  25.316  1.00  0.00     0.042 C 
BRANCH  25  26
ATOM     26  C   UNL A   1      38.799  22.404  25.994  1.00  0.00     0.118 C 
BRANCH  26  27
ATOM     27  N   UNL A   1      40.240  22.476  26.221  1.00  0.00    -0.352 N 
ATOM     28  C   UNL A   1      40.996  23.567  26.623  1.00  0.00     0.251 C 
ATOM     29  H   UNL A   1      40.739  21.642  26.067  1.00  0.00     0.163 HD
ATOM     30  O   UNL A   1      42.198  23.467  26.801  1.00  0.00    -0.269 OA
BRANCH  28  31
ATOM     31  C   UNL A   1      40.285  24.821  26.964  1.00  0.00     0.039 A 
ATOM     32  C   UNL A   1      40.621  25.971  26.244  1.00  0.00     0.014 A 
ATOM     33  C   UNL A   1      39.547  24.905  28.140  1.00  0.00     0.014 A 
ATOM     34  C   UNL A   1      40.457  27.213  26.849  1.00  0.00     0.010 A 
ATOM     35  C   UNL A   1      39.491  26.123  28.788  1.00  0.00     0.010 A 
ATOM     36  C   UNL A   1      40.018  27.265  28.171  1.00  0.00    -0.014 A 
BRANCH  36  37
ATOM     37  C   UNL A   1      40.220  28.430  29.025  1.00  0.00     0.031 A 
ATOM     38  C   UNL A   1      39.184  29.472  29.147  1.00  0.00     0.074 A 
ATOM     39  C   UNL A   1      41.335  28.522  29.787  1.00  0.00     0.049 A 
ATOM     40  N   UNL A   1      39.420  30.679  29.538  1.00  0.00    -0.248 NA
ATOM     41  C   UNL A   1      37.790  29.247  28.795  1.00  0.00     0.031 C 
ATOM     42  C   UNL A   1      41.572  29.439  30.900  1.00  0.00     0.029 A 
ATOM     43  N   UNL A   1      42.589  27.940  29.546  1.00  0.00    -0.354 N 
ATOM     44  C   UNL A   1      38.211  31.283  29.791  1.00  0.00     0.074 A 
ATOM     45  C   UNL A   1      37.230  30.377  29.235  1.00  0.00     0.031 C 
ATOM     46  C   UNL A   1      42.894  29.604  31.051  1.00  0.00     0.029 A 
ATOM     47  C   UNL A   1      43.539  28.901  29.960  1.00  0.00     0.049 A 
ATOM     48  H   UNL A   1      42.769  27.049  29.167  1.00  0.00     0.167 HD
ATOM     49  C   UNL A   1      38.182  32.406  30.566  1.00  0.00     0.037 A 
ATOM     50  C   UNL A   1      44.423  29.458  29.087  1.00  0.00     0.037 A 
ATOM     51  C   UNL A   1      39.535  32.865  30.904  1.00  0.00     0.049 A 
ATOM     52  C   UNL A   1      44.367  30.965  28.992  1.00  0.00     0.074 A 
ATOM     53  C   UNL A   1      40.310  32.824  32.054  1.00  0.00     0.029 A 
ATOM     54  N   UNL A   1      40.400  33.242  29.883  1.00  0.00    -0.354 N 
ATOM     55  N   UNL A   1      43.436  31.716  29.509  1.00  0.00    -0.248 NA
ATOM     56  C   UNL A   1      45.335  31.736  28.225  1.00  0.00     0.031 C 
ATOM     57  C   UNL A   1      41.629  33.238  31.727  1.00  0.00     0.029 A 
ATOM     58  C   UNL A   1      41.664  33.518  30.373  1.00  0.00     0.049 A 
ATOM     59  H   UNL A   1      40.146  33.305  28.934  1.00  0.00     0.167 HD
ATOM     60  C   UNL A   1      43.613  33.028  29.117  1.00  0.00     0.074 A 
ATOM     61  C   UNL A   1      44.826  32.976  28.320  1.00  0.00     0.031 C 
ATOM     62  C   UNL A   1      42.708  34.000  29.468  1.00  0.00     0.037 A 
BRANCH  49  63
ATOM     63  C   UNL A   1      36.925  32.924  31.244  1.00  0.00     0.057 A 
ATOM     64  C   UNL A   1      36.619  32.577  32.576  1.00  0.00     0.134 A 
ATOM     65  C   UNL A   1      35.942  33.717  30.626  1.00  0.00     0.134 A 
ATOM     66  F   UNL A   1      37.497  31.948  33.366  1.00  0.00    -0.206 F 
ATOM     67  C   UNL A   1      35.386  32.864  33.181  1.00  0.00     0.040 A 
ATOM     68  C   UNL A   1      34.684  33.965  31.195  1.00  0.00     0.040 A 
ATOM     69  F   UNL A   1      36.177  34.353  29.473  1.00  0.00    -0.206 F 
ATOM     70  C   UNL A   1      34.392  33.519  32.474  1.00  0.00     0.006 A 
ENDBRANCH  49  63
BRANCH  50  71
ATOM     71  C   UNL A   1      44.808  28.548  27.978  1.00  0.00     0.057 A 
ATOM     72  C   UNL A   1      45.745  27.532  28.232  1.00  0.00     0.134 A 
ATOM     73  C   UNL A   1      44.031  28.426  26.824  1.00  0.00     0.134 A 
ATOM     74  F   UNL A   1      46.523  27.589  29.325  1.00  0.00    -0.206 F 
ATOM     75  C   UNL A   1      45.828  26.388  27.435  1.00  0.00     0.040 A 
ATOM     76  C   UNL A   1      44.110  27.288  26.011  1.00  0.00     0.040 A 
ATOM     77  F   UNL A   1      43.098  29.343  26.529  1.00  0.00    -0.206 F 
ATOM     78  C   UNL A   1      44.983  26.250  26.338  1.00  0.00     0.006 A 
ENDBRANCH  50  71
BRANCH  62  79
ATOM     79  C   UNL A   1      42.642  35.472  29.036  1.00  0.00     0.057 A 
ATOM     80  C   UNL A   1      41.762  36.031  28.100  1.00  0.00     0.134 A 
ATOM     81  C   UNL A   1      43.537  36.426  29.596  1.00  0.00     0.134 A 
ATOM     82  F   UNL A   1      40.929  35.288  27.370  1.00  0.00    -0.206 F 
ATOM     83  C   UNL A   1      41.713  37.408  27.809  1.00  0.00     0.040 A 
ATOM     84  C   UNL A   1      43.508  37.797  29.307  1.00  0.00     0.040 A 
ATOM     85  F   UNL A   1      44.505  36.088  30.459  1.00  0.00    -0.206 F 
ATOM     86  C   UNL A   1      42.579  38.300  28.420  1.00  0.00     0.006 A 
ENDBRANCH  62  79
ENDBRANCH  36  37
ENDBRANCH  28  31
ENDBRANCH  26  27
ENDBRANCH  25  26
ENDBRANCH  24  25
ENDBRANCH   3  24
TORSDOF 15
ENDMDL
MODEL 3
REMARK VINA RESULT:     -11.5      2.498      4.394
REMARK SMILES Cc1ccccc1O[C@H](C)C(=O)Oc1cccc(C(=O)NCCCNC(=O)c2ccc(-c3c4nc(c(-c5c(F)cccc5F)c5ccc([nH]5)c(-c5c(F)cccc5F)c5nc(c(-c6c(F)cccc6F)c6ccc3[nH]6)C=C5)C=C4)cc2)c1
REMARK SMILES IDX 19 1 20 2 21 3 18 5 14 6 15 7 82 8 16 9 17 10 13 11 11 12
REMARK SMILES IDX 12 13 9 14 10 15 8 16 7 17 1 18 2 19 3 20 4 21 6 22 5 23
REMARK SMILES IDX 22 24 23 25 24 26 25 27 26 28 27 30 28 31 29 32 81 33 30 34
REMARK SMILES IDX 80 35 31 36 32 37 33 38 74 39 34 40 79 41 73 42 75 43 35 44
REMARK SMILES IDX 78 45 72 46 71 47 36 49 62 50 45 51 61 52 46 53 49 54 60 55
REMARK SMILES IDX 76 56 47 57 48 58 59 60 77 61 50 62 37 63 38 64 43 65 39 66
REMARK SMILES IDX 40 67 42 68 44 69 41 70 63 71 64 72 69 73 65 74 66 75 68 76
REMARK SMILES IDX 70 77 67 78 51 79 52 80 57 81 53 82 54 83 56 84 58 85 55 86
REMARK H PARENT 21 4 25 29 75 48 49 59
REMARK Flexibility Score: inf
ROOT
ATOM      1  C   UNL A   1      31.872  27.975  26.905  1.00  0.00     0.251 C 
ATOM      2  O   UNL A   1      31.025  27.464  27.637  1.00  0.00    -0.269 OA
ATOM      3  N   UNL A   1      33.029  28.442  27.484  1.00  0.00    -0.352 N 
ATOM      4  H   UNL A   1      33.037  28.403  28.467  1.00  0.00     0.163 HD
ENDROOT
BRANCH   1   5
ATOM      5  C   UNL A   1      31.612  28.032  25.440  1.00  0.00     0.043 A 
ATOM      6  C   UNL A   1      31.555  26.833  23.331  1.00  0.00     0.131 A 
ATOM      7  C   UNL A   1      31.026  27.948  22.687  1.00  0.00     0.047 A 
ATOM      8  C   UNL A   1      31.842  26.866  24.698  1.00  0.00     0.061 A 
ATOM      9  C   UNL A   1      30.786  29.106  23.419  1.00  0.00     0.005 A 
ATOM     10  C   UNL A   1      31.058  29.139  24.788  1.00  0.00     0.014 A 
BRANCH   6  11
ATOM     11  O   UNL A   1      31.715  25.575  22.709  1.00  0.00    -0.424 OA
BRANCH  11  12
ATOM     12  C   UNL A   1      32.856  25.183  22.012  1.00  0.00     0.352 C 
ATOM     13  O   UNL A   1      33.228  25.638  20.935  1.00  0.00    -0.247 OA
BRANCH  12  14
ATOM     14  C   UNL A   1      33.618  24.096  22.790  1.00  0.00     0.280 C 
ATOM     15  C   UNL A   1      32.945  22.727  22.755  1.00  0.00     0.066 C 
BRANCH  14  16
ATOM     16  O   UNL A   1      35.033  24.002  22.687  1.00  0.00    -0.479 OA
BRANCH  16  17
ATOM     17  C   UNL A   1      35.814  23.476  23.674  1.00  0.00     0.123 A 
ATOM     18  C   UNL A   1      34.721  25.194  25.211  1.00  0.00     0.048 C 
ATOM     19  C   UNL A   1      35.676  24.061  24.948  1.00  0.00    -0.009 A 
ATOM     20  C   UNL A   1      36.399  23.541  26.036  1.00  0.00     0.007 A 
ATOM     21  C   UNL A   1      37.261  22.461  25.866  1.00  0.00     0.001 A 
ATOM     22  C   UNL A   1      36.654  22.372  23.529  1.00  0.00     0.047 A 
ATOM     23  C   UNL A   1      37.386  21.877  24.612  1.00  0.00     0.004 A 
ENDBRANCH  16  17
ENDBRANCH  14  16
ENDBRANCH  12  14
ENDBRANCH  11  12
ENDBRANCH   6  11
ENDBRANCH   1   5
BRANCH   3  24
ATOM     24  C   UNL A   1      34.243  28.983  26.893  1.00  0.00     0.118 C 
BRANCH  24  25
ATOM     25  C   UNL A   1      34.280  30.507  26.991  1.00  0.00     0.042 C 
BRANCH  25  26
ATOM     26  C   UNL A   1      34.398  31.029  28.414  1.00  0.00     0.118 C 
BRANCH  26  27
ATOM     27  N   UNL A   1      35.458  32.015  28.602  1.00  0.00    -0.352 N 
ATOM     28  C   UNL A   1      36.823  31.800  28.722  1.00  0.00     0.251 C 
ATOM     29  H   UNL A   1      35.166  32.953  28.650  1.00  0.00     0.163 HD
ATOM     30  O   UNL A   1      37.597  32.735  28.846  1.00  0.00    -0.269 OA
BRANCH  28  31
ATOM     31  C   UNL A   1      37.329  30.418  28.557  1.00  0.00     0.039 A 
ATOM     32  C   UNL A   1      37.460  29.636  29.708  1.00  0.00     0.014 A 
ATOM     33  C   UNL A   1      37.926  30.033  27.360  1.00  0.00     0.014 A 
ATOM     34  C   UNL A   1      38.413  28.623  29.726  1.00  0.00     0.010 A 
ATOM     35  C   UNL A   1      38.950  29.109  27.412  1.00  0.00     0.010 A 
ATOM     36  C   UNL A   1      39.243  28.460  28.619  1.00  0.00    -0.014 A 
BRANCH  36  37
ATOM     37  C   UNL A   1      40.519  27.756  28.684  1.00  0.00     0.031 A 
ATOM     38  C   UNL A   1      40.595  26.299  28.469  1.00  0.00     0.074 A 
ATOM     39  C   UNL A   1      41.666  28.453  28.859  1.00  0.00     0.049 A 
ATOM     40  N   UNL A   1      41.567  25.560  28.887  1.00  0.00    -0.248 NA
ATOM     41  C   UNL A   1      39.551  25.543  27.796  1.00  0.00     0.031 C 
ATOM     42  C   UNL A   1      43.032  27.974  28.656  1.00  0.00     0.029 A 
ATOM     43  N   UNL A   1      41.825  29.698  29.488  1.00  0.00    -0.354 N 
ATOM     44  C   UNL A   1      41.448  24.330  28.286  1.00  0.00     0.074 A 
ATOM     45  C   UNL A   1      40.134  24.347  27.682  1.00  0.00     0.031 C 
ATOM     46  C   UNL A   1      43.865  28.718  29.398  1.00  0.00     0.029 A 
ATOM     47  C   UNL A   1      43.046  29.611  30.194  1.00  0.00     0.049 A 
ATOM     48  H   UNL A   1      41.215  30.469  29.446  1.00  0.00     0.167 HD
ATOM     49  C   UNL A   1      42.534  23.503  28.251  1.00  0.00     0.037 A 
ATOM     50  C   UNL A   1      43.100  29.717  31.550  1.00  0.00     0.037 A 
ATOM     51  C   UNL A   1      43.659  24.055  29.017  1.00  0.00     0.049 A 
ATOM     52  C   UNL A   1      43.714  28.534  32.263  1.00  0.00     0.074 A 
ATOM     53  C   UNL A   1      44.861  24.653  28.670  1.00  0.00     0.029 A 
ATOM     54  N   UNL A   1      43.509  24.277  30.381  1.00  0.00    -0.354 N 
ATOM     55  N   UNL A   1      43.994  27.388  31.711  1.00  0.00    -0.248 NA
ATOM     56  C   UNL A   1      43.987  28.540  33.692  1.00  0.00     0.031 C 
ATOM     57  C   UNL A   1      45.460  25.180  29.846  1.00  0.00     0.029 A 
ATOM     58  C   UNL A   1      44.615  24.918  30.909  1.00  0.00     0.049 A 
ATOM     59  H   UNL A   1      42.718  24.012  30.903  1.00  0.00     0.167 HD
ATOM     60  C   UNL A   1      44.413  26.490  32.671  1.00  0.00     0.074 A 
ATOM     61  C   UNL A   1      44.394  27.275  33.892  1.00  0.00     0.031 C 
ATOM     62  C   UNL A   1      44.688  25.182  32.346  1.00  0.00     0.037 A 
BRANCH  49  63
ATOM     63  C   UNL A   1      42.663  22.329  27.295  1.00  0.00     0.057 A 
ATOM     64  C   UNL A   1      41.902  21.156  27.473  1.00  0.00     0.134 A 
ATOM     65  C   UNL A   1      43.562  22.262  26.216  1.00  0.00     0.134 A 
ATOM     66  F   UNL A   1      40.900  21.087  28.357  1.00  0.00    -0.206 F 
ATOM     67  C   UNL A   1      42.123  19.979  26.743  1.00  0.00     0.040 A 
ATOM     68  C   UNL A   1      43.834  21.078  25.513  1.00  0.00     0.040 A 
ATOM     69  F   UNL A   1      44.167  23.355  25.738  1.00  0.00    -0.206 F 
ATOM     70  C   UNL A   1      43.125  19.920  25.789  1.00  0.00     0.006 A 
ENDBRANCH  49  63
BRANCH  50  71
ATOM     71  C   UNL A   1      42.044  30.597  32.114  1.00  0.00     0.057 A 
ATOM     72  C   UNL A   1      40.868  30.009  32.610  1.00  0.00     0.134 A 
ATOM     73  C   UNL A   1      42.312  31.912  32.501  1.00  0.00     0.134 A 
ATOM     74  F   UNL A   1      40.552  28.747  32.277  1.00  0.00    -0.206 F 
ATOM     75  C   UNL A   1      40.052  30.659  33.539  1.00  0.00     0.040 A 
ATOM     76  C   UNL A   1      41.497  32.579  33.424  1.00  0.00     0.040 A 
ATOM     77  F   UNL A   1      43.428  32.531  32.087  1.00  0.00    -0.206 F 
ATOM     78  C   UNL A   1      40.386  31.938  33.973  1.00  0.00     0.006 A 
ENDBRANCH  50  71
BRANCH  62  79
ATOM     79  C   UNL A   1      45.034  24.002  33.265  1.00  0.00     0.057 A 
ATOM     80  C   UNL A   1      44.195  22.932  33.603  1.00  0.00     0.134 A 
ATOM     81  C   UNL A   1      46.316  23.919  33.877  1.00  0.00     0.134 A 
ATOM     82  F   UNL A   1      42.914  22.883  33.237  1.00  0.00    -0.206 F 
ATOM     83  C   UNL A   1      44.610  21.844  34.395  1.00  0.00     0.040 A 
ATOM     84  C   UNL A   1      46.738  22.849  34.678  1.00  0.00     0.040 A 
ATOM     85  F   UNL A   1      47.244  24.876  33.741  1.00  0.00    -0.206 F 
ATOM     86  C   UNL A   1      45.887  21.792  34.928  1.00  0.00     0.006 A 
ENDBRANCH  62  79
ENDBRANCH  36  37
ENDBRANCH  28  31
ENDBRANCH  26  27
ENDBRANCH  25  26
ENDBRANCH  24  25
ENDBRANCH   3  24
TORSDOF 15
ENDMDL
