MODEL 1
REMARK VINA RESULT:     -12.4      0.000      0.000
REMARK SMILES Cc1cc(Cl)cc2c1O[C@H](C(F)(F)F)C(C(=O)NCCCNC(=O)c1ccc(-c3c4nc(c(-c5c(F)cccc5F)c5ccc([nH]5)c(-c5c(F)cccc5F)c5nc(c(-c6c(F)cccc6F)c6ccc3[nH]6)C=C5)C=C4)cc1)=C2
REMARK SMILES IDX 20 1 19 2 18 3 16 4 17 5 15 7 1 8 2 9 3 10 8 11 4 12 7 13
REMARK SMILES IDX 9 14 5 15 6 16 79 17 10 18 11 19 12 20 13 21 14 22 21 23
REMARK SMILES IDX 22 24 23 25 24 27 25 28 26 29 78 30 27 31 77 32 28 33 29 34
REMARK SMILES IDX 30 35 71 36 31 37 76 38 70 39 72 40 32 41 75 42 69 43 68 44
REMARK SMILES IDX 33 46 59 47 42 48 58 49 43 50 46 51 57 52 73 53 44 54 45 55
REMARK SMILES IDX 56 57 74 58 47 59 34 60 35 61 40 62 36 63 37 64 39 65 41 66
REMARK SMILES IDX 38 67 60 68 61 69 66 70 62 71 63 72 65 73 67 74 64 75 48 76
REMARK SMILES IDX 49 77 54 78 50 79 51 80 53 81 55 82 52 83
REMARK H PARENT 18 6 22 26 72 45 46 56
REMARK Flexibility Score: inf
ROOT
ATOM      1  C   UNL A   1      31.269  32.401  26.500  1.00  0.00     0.042 C 
ENDROOT
BRANCH   1   2
ATOM      2  C   UNL A   1      31.214  30.887  26.366  1.00  0.00     0.118 C 
BRANCH   2   3
ATOM      3  N   UNL A   1      31.039  30.471  24.983  1.00  0.00    -0.352 N 
ATOM      4  C   UNL A   1      31.200  29.339  24.259  1.00  0.00     0.251 C 
ATOM      5  O   UNL A   1      30.920  29.437  23.060  1.00  0.00    -0.270 OA
ATOM      6  H   UNL A   1      30.718  31.213  24.422  1.00  0.00     0.163 HD
BRANCH   4   7
ATOM      7  C   UNL A   1      31.677  28.036  24.805  1.00  0.00     0.067 C 
ATOM      8  C   UNL A   1      34.383  23.887  26.122  1.00  0.00     0.048 C 
ATOM      9  C   UNL A   1      32.928  24.261  26.152  1.00  0.00    -0.007 A 
ATOM     10  C   UNL A   1      31.976  23.365  26.651  1.00  0.00     0.027 A 
ATOM     11  C   UNL A   1      32.490  25.490  25.643  1.00  0.00     0.131 A 
ATOM     12  C   UNL A   1      30.623  23.710  26.654  1.00  0.00     0.042 A 
ATOM     13  C   UNL A   1      31.135  25.841  25.648  1.00  0.00     0.019 A 
ATOM     14  O   UNL A   1      33.440  26.309  25.097  1.00  0.00    -0.475 OA
ATOM     15  Cl  UNL A   1      29.465  22.595  27.268  1.00  0.00    -0.084 Cl
ATOM     16  C   UNL A   1      30.197  24.942  26.157  1.00  0.00     0.032 A 
ATOM     17  C   UNL A   1      30.727  27.127  25.089  1.00  0.00     0.025 C 
ATOM     18  C   UNL A   1      33.120  27.721  25.066  1.00  0.00     0.314 C 
BRANCH  18  19
ATOM     19  C   UNL A   1      33.660  28.400  26.341  1.00  0.00     0.429 C 
ATOM     20  F   UNL A   1      34.779  27.765  26.772  1.00  0.00    -0.167 F 
ATOM     21  F   UNL A   1      34.008  29.692  26.136  1.00  0.00    -0.167 F 
ATOM     22  F   UNL A   1      32.771  28.391  27.358  1.00  0.00    -0.167 F 
ENDBRANCH  18  19
ENDBRANCH   4   7
ENDBRANCH   2   3
ENDBRANCH   1   2
BRANCH   1  23
ATOM     23  C   UNL A   1      32.619  32.876  27.018  1.00  0.00     0.118 C 
BRANCH  23  24
ATOM     24  N   UNL A   1      32.531  34.207  27.613  1.00  0.00    -0.352 N 
ATOM     25  C   UNL A   1      33.133  34.716  28.735  1.00  0.00     0.251 C 
ATOM     26  H   UNL A   1      31.948  34.838  27.133  1.00  0.00     0.163 HD
ATOM     27  O   UNL A   1      32.716  35.759  29.236  1.00  0.00    -0.269 OA
BRANCH  25  28
ATOM     28  C   UNL A   1      34.278  34.012  29.341  1.00  0.00     0.039 A 
ATOM     29  C   UNL A   1      34.051  33.061  30.338  1.00  0.00     0.014 A 
ATOM     30  C   UNL A   1      35.580  34.312  28.935  1.00  0.00     0.014 A 
ATOM     31  C   UNL A   1      35.133  32.366  30.880  1.00  0.00     0.010 A 
ATOM     32  C   UNL A   1      36.641  33.549  29.397  1.00  0.00     0.010 A 
ATOM     33  C   UNL A   1      36.431  32.581  30.386  1.00  0.00    -0.014 A 
BRANCH  33  34
ATOM     34  C   UNL A   1      37.595  31.837  30.921  1.00  0.00     0.031 A 
ATOM     35  C   UNL A   1      38.093  32.140  32.308  1.00  0.00     0.074 A 
ATOM     36  C   UNL A   1      38.224  30.932  30.147  1.00  0.00     0.049 A 
ATOM     37  N   UNL A   1      39.140  31.662  32.931  1.00  0.00    -0.248 NA
ATOM     38  C   UNL A   1      37.330  33.126  33.094  1.00  0.00     0.031 C 
ATOM     39  C   UNL A   1      37.845  30.578  28.777  1.00  0.00     0.029 A 
ATOM     40  N   UNL A   1      39.315  30.141  30.404  1.00  0.00    -0.354 N 
ATOM     41  C   UNL A   1      39.155  32.284  34.172  1.00  0.00     0.074 A 
ATOM     42  C   UNL A   1      38.062  33.230  34.192  1.00  0.00     0.031 C 
ATOM     43  C   UNL A   1      38.663  29.609  28.331  1.00  0.00     0.029 A 
ATOM     44  C   UNL A   1      39.650  29.308  29.362  1.00  0.00     0.049 A 
ATOM     45  H   UNL A   1      39.811  30.167  31.253  1.00  0.00     0.167 HD
ATOM     46  C   UNL A   1      39.981  32.057  35.219  1.00  0.00     0.037 A 
ATOM     47  C   UNL A   1      40.643  28.406  29.257  1.00  0.00     0.037 A 
ATOM     48  C   UNL A   1      41.047  31.094  35.205  1.00  0.00     0.049 A 
ATOM     49  C   UNL A   1      41.581  28.218  30.420  1.00  0.00     0.074 A 
ATOM     50  C   UNL A   1      41.930  30.776  36.221  1.00  0.00     0.029 A 
ATOM     51  N   UNL A   1      41.364  30.284  34.127  1.00  0.00    -0.354 N 
ATOM     52  N   UNL A   1      41.560  28.789  31.600  1.00  0.00    -0.248 NA
ATOM     53  C   UNL A   1      42.681  27.260  30.237  1.00  0.00     0.031 C 
ATOM     54  C   UNL A   1      42.805  29.799  35.746  1.00  0.00     0.029 A 
ATOM     55  C   UNL A   1      42.438  29.474  34.449  1.00  0.00     0.049 A 
ATOM     56  H   UNL A   1      40.895  30.285  33.261  1.00  0.00     0.167 HD
ATOM     57  C   UNL A   1      42.617  28.234  32.310  1.00  0.00     0.074 A 
ATOM     58  C   UNL A   1      43.250  27.271  31.433  1.00  0.00     0.031 C 
ATOM     59  C   UNL A   1      43.033  28.501  33.571  1.00  0.00     0.037 A 
BRANCH  46  60
ATOM     60  C   UNL A   1      39.741  32.824  36.484  1.00  0.00     0.057 A 
ATOM     61  C   UNL A   1      40.452  33.997  36.768  1.00  0.00     0.134 A 
ATOM     62  C   UNL A   1      38.730  32.447  37.377  1.00  0.00     0.134 A 
ATOM     63  F   UNL A   1      41.443  34.403  35.960  1.00  0.00    -0.206 F 
ATOM     64  C   UNL A   1      40.168  34.769  37.895  1.00  0.00     0.040 A 
ATOM     65  C   UNL A   1      38.420  33.224  38.494  1.00  0.00     0.040 A 
ATOM     66  F   UNL A   1      38.010  31.336  37.162  1.00  0.00    -0.206 F 
ATOM     67  C   UNL A   1      39.139  34.389  38.754  1.00  0.00     0.006 A 
ENDBRANCH  46  60
BRANCH  47  68
ATOM     68  C   UNL A   1      40.794  27.585  28.027  1.00  0.00     0.057 A 
ATOM     69  C   UNL A   1      40.185  26.328  27.926  1.00  0.00     0.134 A 
ATOM     70  C   UNL A   1      41.571  28.012  26.944  1.00  0.00     0.134 A 
ATOM     71  F   UNL A   1      39.442  25.855  28.938  1.00  0.00    -0.206 F 
ATOM     72  C   UNL A   1      40.367  25.513  26.808  1.00  0.00     0.040 A 
ATOM     73  C   UNL A   1      41.737  27.219  25.806  1.00  0.00     0.040 A 
ATOM     74  F   UNL A   1      42.175  29.208  26.972  1.00  0.00    -0.206 F 
ATOM     75  C   UNL A   1      41.143  25.960  25.742  1.00  0.00     0.006 A 
ENDBRANCH  47  68
BRANCH  59  76
ATOM     76  C   UNL A   1      44.199  27.720  34.100  1.00  0.00     0.057 A 
ATOM     77  C   UNL A   1      45.505  28.220  34.043  1.00  0.00     0.134 A 
ATOM     78  C   UNL A   1      44.000  26.493  34.746  1.00  0.00     0.134 A 
ATOM     79  F   UNL A   1      45.762  29.386  33.429  1.00  0.00    -0.206 F 
ATOM     80  C   UNL A   1      46.576  27.520  34.600  1.00  0.00     0.040 A 
ATOM     81  C   UNL A   1      45.058  25.798  35.331  1.00  0.00     0.040 A 
ATOM     82  F   UNL A   1      42.770  25.966  34.845  1.00  0.00    -0.206 F 
ATOM     83  C   UNL A   1      46.351  26.311  35.256  1.00  0.00     0.006 A 
ENDBRANCH  59  76
ENDBRANCH  33  34
ENDBRANCH  25  28
ENDBRANCH  23  24
ENDBRANCH   1  23
TORSDOF 11
ENDMDL
MODEL 2
REMARK VINA RESULT:     -12.4      4.887      9.065
REMARK SMILES Cc1cc(Cl)cc2c1O[C@H](C(F)(F)F)C(C(=O)NCCCNC(=O)c1ccc(-c3c4nc(c(-c5c(F)cccc5F)c5ccc([nH]5)c(-c5c(F)cccc5F)c5nc(c(-c6c(F)cccc6F)c6ccc3[nH]6)C=C5)C=C4)cc1)=C2
REMARK SMILES IDX 20 1 19 2 18 3 16 4 17 5 15 7 1 8 2 9 3 10 8 11 4 12 7 13
REMARK SMILES IDX 9 14 5 15 6 16 79 17 10 18 11 19 12 20 13 21 14 22 21 23
REMARK SMILES IDX 22 24 23 25 24 27 25 28 26 29 78 30 27 31 77 32 28 33 29 34
REMARK SMILES IDX 30 35 71 36 31 37 76 38 70 39 72 40 32 41 75 42 69 43 68 44
REMARK SMILES IDX 33 46 59 47 42 48 58 49 43 50 46 51 57 52 73 53 44 54 45 55
REMARK SMILES IDX 56 57 74 58 47 59 34 60 35 61 40 62 36 63 37 64 39 65 41 66
REMARK SMILES IDX 38 67 60 68 61 69 66 70 62 71 63 72 65 73 67 74 64 75 48 76
REMARK SMILES IDX 49 77 54 78 50 79 51 80 53 81 55 82 52 83
REMARK H PARENT 18 6 22 26 72 45 46 56
REMARK Flexibility Score: inf
ROOT
ATOM      1  C   UNL A   1      37.771  19.649  24.991  1.00  0.00     0.042 C 
ENDROOT
BRANCH   1   2
ATOM      2  C   UNL A   1      36.698  20.681  24.681  1.00  0.00     0.118 C 
BRANCH   2   3
ATOM      3  N   UNL A   1      35.747  20.819  25.773  1.00  0.00    -0.352 N 
ATOM      4  C   UNL A   1      34.741  21.658  26.113  1.00  0.00     0.251 C 
ATOM      5  O   UNL A   1      34.169  21.392  27.175  1.00  0.00    -0.270 OA
ATOM      6  H   UNL A   1      35.866  20.111  26.445  1.00  0.00     0.163 HD
BRANCH   4   7
ATOM      7  C   UNL A   1      34.305  22.838  25.312  1.00  0.00     0.067 C 
ATOM      8  C   UNL A   1      32.956  26.109  21.603  1.00  0.00     0.048 C 
ATOM      9  C   UNL A   1      33.303  26.238  23.059  1.00  0.00    -0.007 A 
ATOM     10  C   UNL A   1      33.273  27.487  23.688  1.00  0.00     0.027 A 
ATOM     11  C   UNL A   1      33.704  25.122  23.805  1.00  0.00     0.131 A 
ATOM     12  C   UNL A   1      33.619  27.603  25.036  1.00  0.00     0.042 A 
ATOM     13  C   UNL A   1      34.048  25.233  25.157  1.00  0.00     0.019 A 
ATOM     14  O   UNL A   1      33.792  23.931  23.139  1.00  0.00    -0.475 OA
ATOM     15  Cl  UNL A   1      33.580  29.149  25.792  1.00  0.00    -0.084 Cl
ATOM     16  C   UNL A   1      34.005  26.484  25.774  1.00  0.00     0.032 A 
ATOM     17  C   UNL A   1      34.478  24.043  25.886  1.00  0.00     0.025 C 
ATOM     18  C   UNL A   1      33.679  22.738  23.953  1.00  0.00     0.314 C 
BRANCH  18  19
ATOM     19  C   UNL A   1      32.205  22.287  24.004  1.00  0.00     0.429 C 
ATOM     20  F   UNL A   1      32.130  20.956  24.249  1.00  0.00    -0.167 F 
ATOM     21  F   UNL A   1      31.508  22.898  24.992  1.00  0.00    -0.167 F 
ATOM     22  F   UNL A   1      31.542  22.528  22.852  1.00  0.00    -0.167 F 
ENDBRANCH  18  19
ENDBRANCH   4   7
ENDBRANCH   2   3
ENDBRANCH   1   2
BRANCH   1  23
ATOM     23  C   UNL A   1      38.945  20.259  25.743  1.00  0.00     0.118 C 
BRANCH  23  24
ATOM     24  N   UNL A   1      40.061  19.321  25.854  1.00  0.00    -0.352 N 
ATOM     25  C   UNL A   1      41.394  19.555  26.073  1.00  0.00     0.251 C 
ATOM     26  H   UNL A   1      39.817  18.373  25.756  1.00  0.00     0.163 HD
ATOM     27  O   UNL A   1      42.217  18.670  25.848  1.00  0.00    -0.269 OA
BRANCH  25  28
ATOM     28  C   UNL A   1      41.839  20.867  26.576  1.00  0.00     0.039 A 
ATOM     29  C   UNL A   1      42.209  21.862  25.669  1.00  0.00     0.014 A 
ATOM     30  C   UNL A   1      41.911  21.103  27.951  1.00  0.00     0.014 A 
ATOM     31  C   UNL A   1      42.589  23.118  26.146  1.00  0.00     0.010 A 
ATOM     32  C   UNL A   1      42.187  22.379  28.418  1.00  0.00     0.010 A 
ATOM     33  C   UNL A   1      42.546  23.394  27.523  1.00  0.00    -0.014 A 
BRANCH  33  34
ATOM     34  C   UNL A   1      42.916  24.725  28.057  1.00  0.00     0.031 A 
ATOM     35  C   UNL A   1      41.849  25.768  28.251  1.00  0.00     0.074 A 
ATOM     36  C   UNL A   1      44.207  25.005  28.321  1.00  0.00     0.049 A 
ATOM     37  N   UNL A   1      41.973  27.014  28.629  1.00  0.00    -0.248 NA
ATOM     38  C   UNL A   1      40.460  25.367  27.962  1.00  0.00     0.031 C 
ATOM     39  C   UNL A   1      45.328  24.079  28.144  1.00  0.00     0.029 A 
ATOM     40  N   UNL A   1      44.793  26.149  28.797  1.00  0.00    -0.354 N 
ATOM     41  C   UNL A   1      40.687  27.537  28.625  1.00  0.00     0.074 A 
ATOM     42  C   UNL A   1      39.803  26.504  28.135  1.00  0.00     0.031 C 
ATOM     43  C   UNL A   1      46.461  24.679  28.549  1.00  0.00     0.029 A 
ATOM     44  C   UNL A   1      46.154  26.042  28.968  1.00  0.00     0.049 A 
ATOM     45  H   UNL A   1      44.288  26.970  28.998  1.00  0.00     0.167 HD
ATOM     46  C   UNL A   1      40.273  28.758  29.034  1.00  0.00     0.037 A 
ATOM     47  C   UNL A   1      47.046  26.946  29.413  1.00  0.00     0.037 A 
ATOM     48  C   UNL A   1      41.150  29.773  29.548  1.00  0.00     0.049 A 
ATOM     49  C   UNL A   1      46.560  28.316  29.806  1.00  0.00     0.074 A 
ATOM     50  C   UNL A   1      40.826  31.037  30.005  1.00  0.00     0.029 A 
ATOM     51  N   UNL A   1      42.521  29.632  29.689  1.00  0.00    -0.354 N 
ATOM     52  N   UNL A   1      45.335  28.784  29.829  1.00  0.00    -0.248 NA
ATOM     53  C   UNL A   1      47.580  29.284  30.234  1.00  0.00     0.031 C 
ATOM     54  C   UNL A   1      42.007  31.676  30.389  1.00  0.00     0.029 A 
ATOM     55  C   UNL A   1      43.060  30.792  30.215  1.00  0.00     0.049 A 
ATOM     56  H   UNL A   1      43.035  28.826  29.450  1.00  0.00     0.167 HD
ATOM     57  C   UNL A   1      45.435  30.084  30.308  1.00  0.00     0.074 A 
ATOM     58  C   UNL A   1      46.837  30.326  30.576  1.00  0.00     0.031 C 
ATOM     59  C   UNL A   1      44.455  31.000  30.501  1.00  0.00     0.037 A 
BRANCH  46  60
ATOM     60  C   UNL A   1      38.803  29.055  28.988  1.00  0.00     0.057 A 
ATOM     61  C   UNL A   1      38.004  28.941  30.132  1.00  0.00     0.134 A 
ATOM     62  C   UNL A   1      38.202  29.547  27.823  1.00  0.00     0.134 A 
ATOM     63  F   UNL A   1      38.518  28.462  31.275  1.00  0.00    -0.206 F 
ATOM     64  C   UNL A   1      36.658  29.307  30.121  1.00  0.00     0.040 A 
ATOM     65  C   UNL A   1      36.863  29.939  27.807  1.00  0.00     0.040 A 
ATOM     66  F   UNL A   1      38.913  29.681  26.693  1.00  0.00    -0.206 F 
ATOM     67  C   UNL A   1      36.088  29.821  28.959  1.00  0.00     0.006 A 
ENDBRANCH  46  60
BRANCH  47  68
ATOM     68  C   UNL A   1      48.483  26.590  29.545  1.00  0.00     0.057 A 
ATOM     69  C   UNL A   1      48.966  25.980  30.709  1.00  0.00     0.134 A 
ATOM     70  C   UNL A   1      49.412  26.877  28.538  1.00  0.00     0.134 A 
ATOM     71  F   UNL A   1      48.128  25.695  31.718  1.00  0.00    -0.206 F 
ATOM     72  C   UNL A   1      50.321  25.696  30.881  1.00  0.00     0.040 A 
ATOM     73  C   UNL A   1      50.767  26.571  28.684  1.00  0.00     0.040 A 
ATOM     74  F   UNL A   1      49.016  27.453  27.394  1.00  0.00    -0.206 F 
ATOM     75  C   UNL A   1      51.226  25.990  29.864  1.00  0.00     0.006 A 
ENDBRANCH  47  68
BRANCH  59  76
ATOM     76  C   UNL A   1      44.850  32.332  31.065  1.00  0.00     0.057 A 
ATOM     77  C   UNL A   1      44.924  32.553  32.446  1.00  0.00     0.134 A 
ATOM     78  C   UNL A   1      45.239  33.377  30.218  1.00  0.00     0.134 A 
ATOM     79  F   UNL A   1      44.555  31.594  33.309  1.00  0.00    -0.206 F 
ATOM     80  C   UNL A   1      45.358  33.773  32.964  1.00  0.00     0.040 A 
ATOM     81  C   UNL A   1      45.704  34.591  30.725  1.00  0.00     0.040 A 
ATOM     82  F   UNL A   1      45.205  33.224  28.886  1.00  0.00    -0.206 F 
ATOM     83  C   UNL A   1      45.761  34.791  32.102  1.00  0.00     0.006 A 
ENDBRANCH  59  76
ENDBRANCH  33  34
ENDBRANCH  25  28
ENDBRANCH  23  24
ENDBRANCH   1  23
TORSDOF 11
ENDMDL
MODEL 3
REMARK VINA RESULT:     -12.3      4.782      9.455
REMARK SMILES Cc1cc(Cl)cc2c1O[C@H](C(F)(F)F)C(C(=O)NCCCNC(=O)c1ccc(-c3c4nc(c(-c5c(F)cccc5F)c5ccc([nH]5)c(-c5c(F)cccc5F)c5nc(c(-c6c(F)cccc6F)c6ccc3[nH]6)C=C5)C=C4)cc1)=C2
REMARK SMILES IDX 20 1 19 2 18 3 16 4 17 5 15 7 1 8 2 9 3 10 8 11 4 12 7 13
REMARK SMILES IDX 9 14 5 15 6 16 79 17 10 18 11 19 12 20 13 21 14 22 21 23
REMARK SMILES IDX 22 24 23 25 24 27 25 28 26 29 78 30 27 31 77 32 28 33 29 34
REMARK SMILES IDX 30 35 71 36 31 37 76 38 70 39 72 40 32 41 75 42 69 43 68 44
REMARK SMILES IDX 33 46 59 47 42 48 58 49 43 50 46 51 57 52 73 53 44 54 45 55
REMARK SMILES IDX 56 57 74 58 47 59 34 60 35 61 40 62 36 63 37 64 39 65 41 66
REMARK SMILES IDX 38 67 60 68 61 69 66 70 62 71 63 72 65 73 67 74 64 75 48 76
REMARK SMILES IDX 49 77 54 78 50 79 51 80 53 81 55 82 52 83
REMARK H PARENT 18 6 22 26 72 45 46 56
REMARK Flexibility Score: inf
ROOT
ATOM      1  C   UNL A   1      37.771  19.445  24.944  1.00  0.00     0.042 C 
ENDROOT
BRANCH   1   2
ATOM      2  C   UNL A   1      36.658  20.428  24.618  1.00  0.00     0.118 C 
BRANCH   2   3
ATOM      3  N   UNL A   1      35.769  20.636  25.750  1.00  0.00    -0.352 N 
ATOM      4  C   UNL A   1      34.804  21.516  26.106  1.00  0.00     0.251 C 
ATOM      5  O   UNL A   1      34.283  21.309  27.207  1.00  0.00    -0.270 OA
ATOM      6  H   UNL A   1      35.906  19.953  26.445  1.00  0.00     0.163 HD
BRANCH   4   7
ATOM      7  C   UNL A   1      34.357  22.674  25.280  1.00  0.00     0.067 C 
ATOM      8  C   UNL A   1      32.975  25.851  21.502  1.00  0.00     0.048 C 
ATOM      9  C   UNL A   1      33.321  26.014  22.955  1.00  0.00    -0.007 A 
ATOM     10  C   UNL A   1      33.279  27.277  23.557  1.00  0.00     0.027 A 
ATOM     11  C   UNL A   1      33.733  24.919  23.724  1.00  0.00     0.131 A 
ATOM     12  C   UNL A   1      33.623  27.425  24.902  1.00  0.00     0.042 A 
ATOM     13  C   UNL A   1      34.076  25.062  25.074  1.00  0.00     0.019 A 
ATOM     14  O   UNL A   1      33.832  23.715  23.084  1.00  0.00    -0.475 OA
ATOM     15  Cl  UNL A   1      33.569  28.986  25.624  1.00  0.00    -0.084 Cl
ATOM     16  C   UNL A   1      34.021  26.326  25.663  1.00  0.00     0.032 A 
ATOM     17  C   UNL A   1      34.518  23.893  25.828  1.00  0.00     0.025 C 
ATOM     18  C   UNL A   1      33.731  22.538  23.924  1.00  0.00     0.314 C 
BRANCH  18  19
ATOM     19  C   UNL A   1      32.262  22.075  23.985  1.00  0.00     0.429 C 
ATOM     20  F   UNL A   1      31.668  22.236  22.777  1.00  0.00    -0.167 F 
ATOM     21  F   UNL A   1      32.142  20.763  24.299  1.00  0.00    -0.167 F 
ATOM     22  F   UNL A   1      31.532  22.761  24.892  1.00  0.00    -0.167 F 
ENDBRANCH  18  19
ENDBRANCH   4   7
ENDBRANCH   2   3
ENDBRANCH   1   2
BRANCH   1  23
ATOM     23  C   UNL A   1      38.908  20.109  25.707  1.00  0.00     0.118 C 
BRANCH  23  24
ATOM     24  N   UNL A   1      40.074  19.234  25.807  1.00  0.00    -0.352 N 
ATOM     25  C   UNL A   1      41.392  19.539  26.031  1.00  0.00     0.251 C 
ATOM     26  H   UNL A   1      39.884  18.274  25.695  1.00  0.00     0.163 HD
ATOM     27  O   UNL A   1      42.264  18.704  25.796  1.00  0.00    -0.269 OA
BRANCH  25  28
ATOM     28  C   UNL A   1      41.762  20.866  26.553  1.00  0.00     0.039 A 
ATOM     29  C   UNL A   1      42.176  21.863  25.667  1.00  0.00     0.014 A 
ATOM     30  C   UNL A   1      41.721  21.116  27.926  1.00  0.00     0.014 A 
ATOM     31  C   UNL A   1      42.486  23.132  26.158  1.00  0.00     0.010 A 
ATOM     32  C   UNL A   1      41.927  22.403  28.400  1.00  0.00     0.010 A 
ATOM     33  C   UNL A   1      42.328  23.419  27.524  1.00  0.00    -0.014 A 
BRANCH  33  34
ATOM     34  C   UNL A   1      42.621  24.764  28.071  1.00  0.00     0.031 A 
ATOM     35  C   UNL A   1      44.034  25.119  28.448  1.00  0.00     0.074 A 
ATOM     36  C   UNL A   1      41.617  25.640  28.269  1.00  0.00     0.049 A 
ATOM     37  N   UNL A   1      44.488  26.207  29.014  1.00  0.00    -0.248 NA
ATOM     38  C   UNL A   1      45.073  24.110  28.173  1.00  0.00     0.031 C 
ATOM     39  C   UNL A   1      40.205  25.393  27.966  1.00  0.00     0.029 A 
ATOM     40  N   UNL A   1      41.630  26.916  28.770  1.00  0.00    -0.354 N 
ATOM     41  C   UNL A   1      45.855  26.013  29.158  1.00  0.00     0.074 A 
ATOM     42  C   UNL A   1      46.151  24.677  28.692  1.00  0.00     0.031 C 
ATOM     43  C   UNL A   1      39.495  26.499  28.247  1.00  0.00     0.029 A 
ATOM     44  C   UNL A   1      40.391  27.513  28.792  1.00  0.00     0.049 A 
ATOM     45  H   UNL A   1      42.449  27.363  29.084  1.00  0.00     0.167 HD
ATOM     46  C   UNL A   1      46.789  26.887  29.599  1.00  0.00     0.037 A 
ATOM     47  C   UNL A   1      40.027  28.741  29.206  1.00  0.00     0.037 A 
ATOM     48  C   UNL A   1      46.494  28.225  30.032  1.00  0.00     0.049 A 
ATOM     49  C   UNL A   1      41.083  29.669  29.745  1.00  0.00     0.074 A 
ATOM     50  C   UNL A   1      47.372  29.194  30.481  1.00  0.00     0.029 A 
ATOM     51  N   UNL A   1      45.227  28.785  30.055  1.00  0.00    -0.354 N 
ATOM     52  N   UNL A   1      42.377  29.484  29.842  1.00  0.00    -0.248 NA
ATOM     53  C   UNL A   1      40.626  30.979  30.234  1.00  0.00     0.031 C 
ATOM     54  C   UNL A   1      46.631  30.331  30.811  1.00  0.00     0.029 A 
ATOM     55  C   UNL A   1      45.298  30.085  30.522  1.00  0.00     0.049 A 
ATOM     56  H   UNL A   1      44.400  28.326  29.780  1.00  0.00     0.167 HD
ATOM     57  C   UNL A   1      42.892  30.663  30.366  1.00  0.00     0.074 A 
ATOM     58  C   UNL A   1      41.773  31.562  30.553  1.00  0.00     0.031 C 
ATOM     59  C   UNL A   1      44.174  30.972  30.673  1.00  0.00     0.037 A 
BRANCH  46  60
ATOM     60  C   UNL A   1      48.222  26.448  29.594  1.00  0.00     0.057 A 
ATOM     61  C   UNL A   1      49.067  26.739  28.515  1.00  0.00     0.134 A 
ATOM     62  C   UNL A   1      48.788  25.816  30.707  1.00  0.00     0.134 A 
ATOM     63  F   UNL A   1      48.582  27.329  27.412  1.00  0.00    -0.206 F 
ATOM     64  C   UNL A   1      50.424  26.419  28.543  1.00  0.00     0.040 A 
ATOM     65  C   UNL A   1      50.150  25.514  30.758  1.00  0.00     0.040 A 
ATOM     66  F   UNL A   1      48.034  25.511  31.775  1.00  0.00    -0.206 F 
ATOM     67  C   UNL A   1      50.971  25.817  29.675  1.00  0.00     0.006 A 
ENDBRANCH  46  60
BRANCH  47  68
ATOM     68  C   UNL A   1      38.613  29.186  29.103  1.00  0.00     0.057 A 
ATOM     69  C   UNL A   1      38.099  29.666  27.892  1.00  0.00     0.134 A 
ATOM     70  C   UNL A   1      37.753  29.178  30.207  1.00  0.00     0.134 A 
ATOM     71  F   UNL A   1      38.879  29.716  26.802  1.00  0.00    -0.206 F 
ATOM     72  C   UNL A   1      36.794  30.150  27.789  1.00  0.00     0.040 A 
ATOM     73  C   UNL A   1      36.435  29.631  30.111  1.00  0.00     0.040 A 
ATOM     74  F   UNL A   1      38.178  28.724  31.395  1.00  0.00    -0.206 F 
ATOM     75  C   UNL A   1      35.957  30.130  28.902  1.00  0.00     0.006 A 
ENDBRANCH  47  68
BRANCH  59  76
ATOM     76  C   UNL A   1      44.451  32.347  31.203  1.00  0.00     0.057 A 
ATOM     77  C   UNL A   1      44.490  32.611  32.577  1.00  0.00     0.134 A 
ATOM     78  C   UNL A   1      44.763  33.398  30.330  1.00  0.00     0.134 A 
ATOM     79  F   UNL A   1      44.191  31.649  33.464  1.00  0.00    -0.206 F 
ATOM     80  C   UNL A   1      44.816  33.877  33.065  1.00  0.00     0.040 A 
ATOM     81  C   UNL A   1      45.120  34.659  30.807  1.00  0.00     0.040 A 
ATOM     82  F   UNL A   1      44.757  33.206  29.002  1.00  0.00    -0.206 F 
ATOM     83  C   UNL A   1      45.143  34.901  32.179  1.00  0.00     0.006 A 
ENDBRANCH  59  76
ENDBRANCH  33  34
ENDBRANCH  25  28
ENDBRANCH  23  24
ENDBRANCH   1  23
TORSDOF 11
ENDMDL
