MODEL 1
REMARK VINA RESULT:     -10.5      0.000      0.000
REMARK SMILES CN(C)C(=O)CC(C)(C)CC(=O)NCCCNC(=O)c1ccc(-c2c3nc(c(-c4c(F)cccc4F)c4ccc([nH]4)c(-c4c(F)cccc4F)c4nc(c(-c5c(F)cccc5F)c5ccc2[nH]5)C=C4)C=C3)cc1
REMARK SMILES IDX 14 1 13 2 11 3 12 4 10 6 7 7 8 8 9 9 6 10 4 11 1 12 2 13
REMARK SMILES IDX 3 14 5 15 15 16 16 17 17 18 18 19 19 21 20 22 21 23 73 24
REMARK SMILES IDX 22 25 72 26 23 27 24 28 25 29 66 30 26 31 71 32 65 33 67 34
REMARK SMILES IDX 27 35 70 36 64 37 63 38 28 40 54 41 37 42 53 43 38 44 41 45
REMARK SMILES IDX 52 46 68 47 39 48 40 49 51 51 69 52 42 53 29 54 30 55 35 56
REMARK SMILES IDX 31 57 32 58 34 59 36 60 33 61 55 62 56 63 61 64 57 65 58 66
REMARK SMILES IDX 60 67 62 68 59 69 43 70 44 71 49 72 45 73 46 74 48 75 50 76
REMARK SMILES IDX 47 77
REMARK H PARENT 13 5 17 20 67 39 41 50
REMARK Flexibility Score: inf
ROOT
ATOM      1  C   UNL A   1      36.551  20.325  25.001  1.00  0.00     0.117 C 
ENDROOT
BRANCH   1   2
ATOM      2  N   UNL A   1      35.334  19.535  25.001  1.00  0.00    -0.356 N 
ATOM      3  C   UNL A   1      34.028  19.895  24.890  1.00  0.00     0.220 C 
ATOM      4  O   UNL A   1      33.191  19.008  25.051  1.00  0.00    -0.275 OA
ATOM      5  H   UNL A   1      35.480  18.566  25.096  1.00  0.00     0.163 HD
BRANCH   3   6
ATOM      6  C   UNL A   1      33.634  21.319  24.541  1.00  0.00     0.107 C 
BRANCH   6   7
ATOM      7  C   UNL A   1      33.177  22.244  25.702  1.00  0.00    -0.018 C 
ATOM      8  C   UNL A   1      33.877  23.603  25.492  1.00  0.00     0.012 C 
ATOM      9  C   UNL A   1      33.647  21.717  27.067  1.00  0.00     0.012 C 
BRANCH   7  10
ATOM     10  C   UNL A   1      31.633  22.381  25.786  1.00  0.00     0.107 C 
BRANCH  10  11
ATOM     11  C   UNL A   1      31.113  23.777  26.084  1.00  0.00     0.222 C 
ATOM     12  C   UNL A   1      30.136  25.886  25.372  1.00  0.00     0.146 C 
ATOM     13  N   UNL A   1      30.652  24.568  25.042  1.00  0.00    -0.349 N 
ATOM     14  C   UNL A   1      30.680  24.244  23.624  1.00  0.00     0.146 C 
ATOM     15  O   UNL A   1      31.095  24.177  27.251  1.00  0.00    -0.275 OA
ENDBRANCH  10  11
ENDBRANCH   7  10
ENDBRANCH   6   7
ENDBRANCH   3   6
ENDBRANCH   1   2
BRANCH   1  16
ATOM     16  C   UNL A   1      37.788  19.430  25.000  1.00  0.00     0.042 C 
BRANCH  16  17
ATOM     17  C   UNL A   1      38.972  20.019  25.755  1.00  0.00     0.118 C 
BRANCH  17  18
ATOM     18  N   UNL A   1      40.064  19.069  25.869  1.00  0.00    -0.352 N 
ATOM     19  C   UNL A   1      41.408  19.304  26.029  1.00  0.00     0.251 C 
ATOM     20  H   UNL A   1      39.803  18.122  25.827  1.00  0.00     0.163 HD
ATOM     21  O   UNL A   1      42.207  18.389  25.852  1.00  0.00    -0.269 OA
BRANCH  19  22
ATOM     22  C   UNL A   1      41.904  20.652  26.396  1.00  0.00     0.039 A 
ATOM     23  C   UNL A   1      42.166  21.572  25.376  1.00  0.00     0.014 A 
ATOM     24  C   UNL A   1      42.165  20.999  27.725  1.00  0.00     0.014 A 
ATOM     25  C   UNL A   1      42.648  22.845  25.692  1.00  0.00     0.010 A 
ATOM     26  C   UNL A   1      42.562  22.295  28.045  1.00  0.00     0.010 A 
ATOM     27  C   UNL A   1      42.830  23.226  27.032  1.00  0.00    -0.014 A 
BRANCH  27  28
ATOM     28  C   UNL A   1      43.348  24.574  27.387  1.00  0.00     0.031 A 
ATOM     29  C   UNL A   1      42.398  25.649  27.846  1.00  0.00     0.074 A 
ATOM     30  C   UNL A   1      44.660  24.849  27.256  1.00  0.00     0.049 A 
ATOM     31  N   UNL A   1      42.642  26.902  28.137  1.00  0.00    -0.248 NA
ATOM     32  C   UNL A   1      40.980  25.272  27.968  1.00  0.00     0.031 C 
ATOM     33  C   UNL A   1      45.680  23.911  26.782  1.00  0.00     0.029 A 
ATOM     34  N   UNL A   1      45.361  26.003  27.503  1.00  0.00    -0.354 N 
ATOM     35  C   UNL A   1      41.412  27.463  28.454  1.00  0.00     0.074 A 
ATOM     36  C   UNL A   1      40.416  26.432  28.271  1.00  0.00     0.031 C 
ATOM     37  C   UNL A   1      46.878  24.519  26.798  1.00  0.00     0.029 A 
ATOM     38  C   UNL A   1      46.706  25.897  27.247  1.00  0.00     0.049 A 
ATOM     39  H   UNL A   1      44.939  26.828  27.834  1.00  0.00     0.167 HD
ATOM     40  C   UNL A   1      41.137  28.718  28.884  1.00  0.00     0.037 A 
ATOM     41  C   UNL A   1      47.690  26.810  27.357  1.00  0.00     0.037 A 
ATOM     42  C   UNL A   1      42.132  29.734  29.106  1.00  0.00     0.049 A 
ATOM     43  C   UNL A   1      47.361  28.194  27.846  1.00  0.00     0.074 A 
ATOM     44  C   UNL A   1      41.959  31.017  29.597  1.00  0.00     0.029 A 
ATOM     45  N   UNL A   1      43.486  29.579  28.856  1.00  0.00    -0.354 N 
ATOM     46  N   UNL A   1      46.199  28.693  28.196  1.00  0.00    -0.248 NA
ATOM     47  C   UNL A   1      48.480  29.140  27.961  1.00  0.00     0.031 C 
ATOM     48  C   UNL A   1      43.207  31.649  29.613  1.00  0.00     0.029 A 
ATOM     49  C   UNL A   1      44.159  30.747  29.170  1.00  0.00     0.049 A 
ATOM     50  H   UNL A   1      43.906  28.760  28.508  1.00  0.00     0.167 HD
ATOM     51  C   UNL A   1      46.452  29.998  28.597  1.00  0.00     0.074 A 
ATOM     52  C   UNL A   1      47.878  30.210  28.460  1.00  0.00     0.031 C 
ATOM     53  C   UNL A   1      45.581  30.938  29.039  1.00  0.00     0.037 A 
BRANCH  40  54
ATOM     54  C   UNL A   1      39.701  29.057  29.156  1.00  0.00     0.057 A 
ATOM     55  C   UNL A   1      38.835  29.471  28.135  1.00  0.00     0.134 A 
ATOM     56  C   UNL A   1      39.167  28.933  30.445  1.00  0.00     0.134 A 
ATOM     57  F   UNL A   1      39.288  29.621  26.880  1.00  0.00    -0.206 F 
ATOM     58  C   UNL A   1      37.496  29.773  28.390  1.00  0.00     0.040 A 
ATOM     59  C   UNL A   1      37.823  29.208  30.707  1.00  0.00     0.040 A 
ATOM     60  F   UNL A   1      39.939  28.536  31.468  1.00  0.00    -0.206 F 
ATOM     61  C   UNL A   1      36.986  29.635  29.679  1.00  0.00     0.006 A 
ENDBRANCH  40  54
BRANCH  41  62
ATOM     62  C   UNL A   1      49.088  26.442  27.023  1.00  0.00     0.057 A 
ATOM     63  C   UNL A   1      49.576  26.571  25.718  1.00  0.00     0.134 A 
ATOM     64  C   UNL A   1      49.963  25.937  27.993  1.00  0.00     0.134 A 
ATOM     65  F   UNL A   1      48.778  27.030  24.742  1.00  0.00    -0.206 F 
ATOM     66  C   UNL A   1      50.878  26.194  25.383  1.00  0.00     0.040 A 
ATOM     67  C   UNL A   1      51.275  25.579  27.676  1.00  0.00     0.040 A 
ATOM     68  F   UNL A   1      49.559  25.795  29.263  1.00  0.00    -0.206 F 
ATOM     69  C   UNL A   1      51.732  25.700  26.366  1.00  0.00     0.006 A 
ENDBRANCH  41  62
BRANCH  53  70
ATOM     70  C   UNL A   1      46.149  32.265  29.440  1.00  0.00     0.057 A 
ATOM     71  C   UNL A   1      46.252  33.328  28.535  1.00  0.00     0.134 A 
ATOM     72  C   UNL A   1      46.559  32.495  30.759  1.00  0.00     0.134 A 
ATOM     73  F   UNL A   1      45.888  33.168  27.253  1.00  0.00    -0.206 F 
ATOM     74  C   UNL A   1      46.763  34.568  28.922  1.00  0.00     0.040 A 
ATOM     75  C   UNL A   1      47.048  33.737  31.165  1.00  0.00     0.040 A 
ATOM     76  F   UNL A   1      46.478  31.521  31.678  1.00  0.00    -0.206 F 
ATOM     77  C   UNL A   1      47.156  34.776  30.243  1.00  0.00     0.006 A 
ENDBRANCH  53  70
ENDBRANCH  27  28
ENDBRANCH  19  22
ENDBRANCH  17  18
ENDBRANCH  16  17
ENDBRANCH   1  16
TORSDOF 13
ENDMDL
MODEL 2
REMARK VINA RESULT:     -10.4      5.254      9.472
REMARK SMILES CN(C)C(=O)CC(C)(C)CC(=O)NCCCNC(=O)c1ccc(-c2c3nc(c(-c4c(F)cccc4F)c4ccc([nH]4)c(-c4c(F)cccc4F)c4nc(c(-c5c(F)cccc5F)c5ccc2[nH]5)C=C4)C=C3)cc1
REMARK SMILES IDX 14 1 13 2 11 3 12 4 10 6 7 7 8 8 9 9 6 10 4 11 1 12 2 13
REMARK SMILES IDX 3 14 5 15 15 16 16 17 17 18 18 19 19 21 20 22 21 23 73 24
REMARK SMILES IDX 22 25 72 26 23 27 24 28 25 29 66 30 26 31 71 32 65 33 67 34
REMARK SMILES IDX 27 35 70 36 64 37 63 38 28 40 54 41 37 42 53 43 38 44 41 45
REMARK SMILES IDX 52 46 68 47 39 48 40 49 51 51 69 52 42 53 29 54 30 55 35 56
REMARK SMILES IDX 31 57 32 58 34 59 36 60 33 61 55 62 56 63 61 64 57 65 58 66
REMARK SMILES IDX 60 67 62 68 59 69 43 70 44 71 49 72 45 73 46 74 48 75 50 76
REMARK SMILES IDX 47 77
REMARK H PARENT 13 5 17 20 67 39 41 50
REMARK Flexibility Score: inf
ROOT
ATOM      1  C   UNL A   1      31.028  30.760  25.497  1.00  0.00     0.117 C 
ENDROOT
BRANCH   1   2
ATOM      2  N   UNL A   1      30.279  30.757  24.254  1.00  0.00    -0.356 N 
ATOM      3  C   UNL A   1      29.978  29.754  23.388  1.00  0.00     0.220 C 
ATOM      4  O   UNL A   1      29.425  30.074  22.336  1.00  0.00    -0.275 OA
ATOM      5  H   UNL A   1      29.924  31.637  23.993  1.00  0.00     0.163 HD
BRANCH   3   6
ATOM      6  C   UNL A   1      30.275  28.305  23.731  1.00  0.00     0.107 C 
BRANCH   6   7
ATOM      7  C   UNL A   1      31.641  27.723  23.274  1.00  0.00    -0.018 C 
ATOM      8  C   UNL A   1      32.316  27.130  24.529  1.00  0.00     0.012 C 
ATOM      9  C   UNL A   1      32.581  28.822  22.752  1.00  0.00     0.012 C 
BRANCH   7  10
ATOM     10  C   UNL A   1      31.496  26.682  22.133  1.00  0.00     0.107 C 
BRANCH  10  11
ATOM     11  C   UNL A   1      32.544  25.582  22.110  1.00  0.00     0.222 C 
ATOM     12  C   UNL A   1      33.247  23.298  22.555  1.00  0.00     0.146 C 
ATOM     13  N   UNL A   1      32.227  24.331  22.620  1.00  0.00    -0.349 N 
ATOM     14  C   UNL A   1      30.987  23.947  23.277  1.00  0.00     0.146 C 
ATOM     15  O   UNL A   1      33.653  25.816  21.625  1.00  0.00    -0.275 OA
ENDBRANCH  10  11
ENDBRANCH   7  10
ENDBRANCH   6   7
ENDBRANCH   3   6
ENDBRANCH   1   2
BRANCH   1  16
ATOM     16  C   UNL A   1      31.046  32.151  26.126  1.00  0.00     0.042 C 
BRANCH  16  17
ATOM     17  C   UNL A   1      32.305  32.445  26.929  1.00  0.00     0.118 C 
BRANCH  17  18
ATOM     18  N   UNL A   1      32.355  33.829  27.365  1.00  0.00    -0.352 N 
ATOM     19  C   UNL A   1      33.139  34.409  28.333  1.00  0.00     0.251 C 
ATOM     20  H   UNL A   1      31.740  34.439  26.898  1.00  0.00     0.163 HD
ATOM     21  O   UNL A   1      32.866  35.535  28.737  1.00  0.00    -0.269 OA
BRANCH  19  22
ATOM     22  C   UNL A   1      34.298  33.683  28.904  1.00  0.00     0.039 A 
ATOM     23  C   UNL A   1      34.060  32.578  29.727  1.00  0.00     0.014 A 
ATOM     24  C   UNL A   1      35.611  34.113  28.684  1.00  0.00     0.014 A 
ATOM     25  C   UNL A   1      35.135  31.885  30.291  1.00  0.00     0.010 A 
ATOM     26  C   UNL A   1      36.682  33.370  29.176  1.00  0.00     0.010 A 
ATOM     27  C   UNL A   1      36.456  32.261  30.003  1.00  0.00    -0.014 A 
BRANCH  27  28
ATOM     28  C   UNL A   1      37.612  31.539  30.599  1.00  0.00     0.031 A 
ATOM     29  C   UNL A   1      38.013  31.807  32.025  1.00  0.00     0.074 A 
ATOM     30  C   UNL A   1      38.328  30.678  29.850  1.00  0.00     0.049 A 
ATOM     31  N   UNL A   1      39.026  31.332  32.705  1.00  0.00    -0.248 NA
ATOM     32  C   UNL A   1      37.180  32.757  32.781  1.00  0.00     0.031 C 
ATOM     33  C   UNL A   1      38.072  30.360  28.445  1.00  0.00     0.029 A 
ATOM     34  N   UNL A   1      39.426  29.917  30.167  1.00  0.00    -0.354 N 
ATOM     35  C   UNL A   1      38.963  31.938  33.953  1.00  0.00     0.074 A 
ATOM     36  C   UNL A   1      37.846  32.854  33.922  1.00  0.00     0.031 C 
ATOM     37  C   UNL A   1      38.970  29.451  28.028  1.00  0.00     0.029 A 
ATOM     38  C   UNL A   1      39.885  29.151  29.124  1.00  0.00     0.049 A 
ATOM     39  H   UNL A   1      39.844  29.920  31.058  1.00  0.00     0.167 HD
ATOM     40  C   UNL A   1      39.749  31.734  35.037  1.00  0.00     0.037 A 
ATOM     41  C   UNL A   1      40.930  28.304  29.058  1.00  0.00     0.037 A 
ATOM     42  C   UNL A   1      40.837  30.793  35.082  1.00  0.00     0.049 A 
ATOM     43  C   UNL A   1      41.782  28.087  30.278  1.00  0.00     0.074 A 
ATOM     44  C   UNL A   1      41.655  30.470  36.152  1.00  0.00     0.029 A 
ATOM     45  N   UNL A   1      41.256  30.019  34.011  1.00  0.00    -0.354 N 
ATOM     46  N   UNL A   1      41.675  28.626  31.468  1.00  0.00    -0.248 NA
ATOM     47  C   UNL A   1      42.897  27.137  30.147  1.00  0.00     0.031 C 
ATOM     48  C   UNL A   1      42.589  29.524  35.718  1.00  0.00     0.029 A 
ATOM     49  C   UNL A   1      42.328  29.230  34.390  1.00  0.00     0.049 A 
ATOM     50  H   UNL A   1      40.850  30.029  33.114  1.00  0.00     0.167 HD
ATOM     51  C   UNL A   1      42.688  28.063  32.233  1.00  0.00     0.074 A 
ATOM     52  C   UNL A   1      43.391  27.131  31.377  1.00  0.00     0.031 C 
ATOM     53  C   UNL A   1      43.008  28.298  33.529  1.00  0.00     0.037 A 
BRANCH  40  54
ATOM     54  C   UNL A   1      39.451  32.535  36.270  1.00  0.00     0.057 A 
ATOM     55  C   UNL A   1      40.118  33.736  36.547  1.00  0.00     0.134 A 
ATOM     56  C   UNL A   1      38.460  32.123  37.170  1.00  0.00     0.134 A 
ATOM     57  F   UNL A   1      41.086  34.180  35.731  1.00  0.00    -0.206 F 
ATOM     58  C   UNL A   1      39.828  34.486  37.689  1.00  0.00     0.040 A 
ATOM     59  C   UNL A   1      38.143  32.878  38.302  1.00  0.00     0.040 A 
ATOM     60  F   UNL A   1      37.779  30.987  36.960  1.00  0.00    -0.206 F 
ATOM     61  C   UNL A   1      38.833  34.060  38.566  1.00  0.00     0.006 A 
ENDBRANCH  40  54
BRANCH  41  62
ATOM     62  C   UNL A   1      41.218  27.574  27.797  1.00  0.00     0.057 A 
ATOM     63  C   UNL A   1      42.026  28.141  26.805  1.00  0.00     0.134 A 
ATOM     64  C   UNL A   1      40.682  26.305  27.548  1.00  0.00     0.134 A 
ATOM     65  F   UNL A   1      42.551  29.363  26.979  1.00  0.00    -0.206 F 
ATOM     66  C   UNL A   1      42.275  27.482  25.600  1.00  0.00     0.040 A 
ATOM     67  C   UNL A   1      40.943  25.625  26.356  1.00  0.00     0.040 A 
ATOM     68  F   UNL A   1      39.905  25.706  28.461  1.00  0.00    -0.206 F 
ATOM     69  C   UNL A   1      41.736  26.217  25.376  1.00  0.00     0.006 A 
ENDBRANCH  41  62
BRANCH  53  70
ATOM     70  C   UNL A   1      44.144  27.509  34.108  1.00  0.00     0.057 A 
ATOM     71  C   UNL A   1      43.951  26.241  34.669  1.00  0.00     0.134 A 
ATOM     72  C   UNL A   1      45.452  28.008  34.066  1.00  0.00     0.134 A 
ATOM     73  F   UNL A   1      42.720  25.714  34.751  1.00  0.00    -0.206 F 
ATOM     74  C   UNL A   1      45.017  25.504  35.188  1.00  0.00     0.040 A 
ATOM     75  C   UNL A   1      46.530  27.271  34.559  1.00  0.00     0.040 A 
ATOM     76  F   UNL A   1      45.705  29.213  33.534  1.00  0.00    -0.206 F 
ATOM     77  C   UNL A   1      46.311  26.017  35.126  1.00  0.00     0.006 A 
ENDBRANCH  53  70
ENDBRANCH  27  28
ENDBRANCH  19  22
ENDBRANCH  17  18
ENDBRANCH  16  17
ENDBRANCH   1  16
TORSDOF 13
ENDMDL
MODEL 3
REMARK VINA RESULT:     -10.3      1.817      2.579
REMARK SMILES CN(C)C(=O)CC(C)(C)CC(=O)NCCCNC(=O)c1ccc(-c2c3nc(c(-c4c(F)cccc4F)c4ccc([nH]4)c(-c4c(F)cccc4F)c4nc(c(-c5c(F)cccc5F)c5ccc2[nH]5)C=C4)C=C3)cc1
REMARK SMILES IDX 14 1 13 2 11 3 12 4 10 6 7 7 8 8 9 9 6 10 4 11 1 12 2 13
REMARK SMILES IDX 3 14 5 15 15 16 16 17 17 18 18 19 19 21 20 22 21 23 73 24
REMARK SMILES IDX 22 25 72 26 23 27 24 28 25 29 66 30 26 31 71 32 65 33 67 34
REMARK SMILES IDX 27 35 70 36 64 37 63 38 28 40 54 41 37 42 53 43 38 44 41 45
REMARK SMILES IDX 52 46 68 47 39 48 40 49 51 51 69 52 42 53 29 54 30 55 35 56
REMARK SMILES IDX 31 57 32 58 34 59 36 60 33 61 55 62 56 63 61 64 57 65 58 66
REMARK SMILES IDX 60 67 62 68 59 69 43 70 44 71 49 72 45 73 46 74 48 75 50 76
REMARK SMILES IDX 47 77
REMARK H PARENT 13 5 17 20 67 39 41 50
REMARK Flexibility Score: inf
ROOT
ATOM      1  C   UNL A   1      36.091  20.487  24.978  1.00  0.00     0.117 C 
ENDROOT
BRANCH   1   2
ATOM      2  N   UNL A   1      34.880  19.687  25.007  1.00  0.00    -0.356 N 
ATOM      3  C   UNL A   1      33.578  20.034  25.188  1.00  0.00     0.220 C 
ATOM      4  O   UNL A   1      32.767  19.114  25.290  1.00  0.00    -0.275 OA
ATOM      5  H   UNL A   1      35.027  18.724  24.871  1.00  0.00     0.163 HD
BRANCH   3   6
ATOM      6  C   UNL A   1      33.151  21.490  25.217  1.00  0.00     0.107 C 
BRANCH   6   7
ATOM      7  C   UNL A   1      32.768  22.155  23.867  1.00  0.00    -0.018 C 
ATOM      8  C   UNL A   1      31.544  23.053  24.142  1.00  0.00     0.012 C 
ATOM      9  C   UNL A   1      32.321  21.114  22.827  1.00  0.00     0.012 C 
BRANCH   7  10
ATOM     10  C   UNL A   1      33.947  22.940  23.231  1.00  0.00     0.107 C 
BRANCH  10  11
ATOM     11  C   UNL A   1      33.655  24.388  22.875  1.00  0.00     0.222 C 
ATOM     12  C   UNL A   1      33.640  26.757  23.422  1.00  0.00     0.146 C 
ATOM     13  N   UNL A   1      33.905  25.381  23.810  1.00  0.00    -0.349 N 
ATOM     14  C   UNL A   1      34.357  25.194  25.181  1.00  0.00     0.146 C 
ATOM     15  O   UNL A   1      33.215  24.656  21.755  1.00  0.00    -0.275 OA
ENDBRANCH  10  11
ENDBRANCH   7  10
ENDBRANCH   6   7
ENDBRANCH   3   6
ENDBRANCH   1   2
BRANCH   1  16
ATOM     16  C   UNL A   1      37.334  19.601  24.941  1.00  0.00     0.042 C 
BRANCH  16  17
ATOM     17  C   UNL A   1      38.590  20.284  25.465  1.00  0.00     0.118 C 
BRANCH  17  18
ATOM     18  N   UNL A   1      39.675  19.340  25.659  1.00  0.00    -0.352 N 
ATOM     19  C   UNL A   1      40.973  19.573  26.047  1.00  0.00     0.251 C 
ATOM     20  H   UNL A   1      39.448  18.398  25.491  1.00  0.00     0.163 HD
ATOM     21  O   UNL A   1      41.812  18.687  25.913  1.00  0.00    -0.269 OA
BRANCH  19  22
ATOM     22  C   UNL A   1      41.372  20.885  26.607  1.00  0.00     0.039 A 
ATOM     23  C   UNL A   1      41.809  21.885  25.733  1.00  0.00     0.014 A 
ATOM     24  C   UNL A   1      41.374  21.122  27.986  1.00  0.00     0.014 A 
ATOM     25  C   UNL A   1      42.206  23.127  26.236  1.00  0.00     0.010 A 
ATOM     26  C   UNL A   1      41.687  22.388  28.478  1.00  0.00     0.010 A 
ATOM     27  C   UNL A   1      42.128  23.397  27.611  1.00  0.00    -0.014 A 
BRANCH  27  28
ATOM     28  C   UNL A   1      42.551  24.710  28.165  1.00  0.00     0.031 A 
ATOM     29  C   UNL A   1      41.534  25.799  28.383  1.00  0.00     0.074 A 
ATOM     30  C   UNL A   1      43.851  24.943  28.430  1.00  0.00     0.049 A 
ATOM     31  N   UNL A   1      41.712  27.031  28.792  1.00  0.00    -0.248 NA
ATOM     32  C   UNL A   1      40.133  25.470  28.073  1.00  0.00     0.031 C 
ATOM     33  C   UNL A   1      44.943  23.990  28.226  1.00  0.00     0.029 A 
ATOM     34  N   UNL A   1      44.477  26.061  28.924  1.00  0.00    -0.354 N 
ATOM     35  C   UNL A   1      40.456  27.623  28.768  1.00  0.00     0.074 A 
ATOM     36  C   UNL A   1      39.532  26.635  28.257  1.00  0.00     0.031 C 
ATOM     37  C   UNL A   1      46.099  24.554  28.614  1.00  0.00     0.029 A 
ATOM     38  C   UNL A   1      45.836  25.918  29.060  1.00  0.00     0.049 A 
ATOM     39  H   UNL A   1      43.996  26.887  29.159  1.00  0.00     0.167 HD
ATOM     40  C   UNL A   1      40.096  28.868  29.161  1.00  0.00     0.037 A 
ATOM     41  C   UNL A   1      46.766  26.790  29.493  1.00  0.00     0.037 A 
ATOM     42  C   UNL A   1      41.008  29.839  29.708  1.00  0.00     0.049 A 
ATOM     43  C   UNL A   1      46.341  28.164  29.932  1.00  0.00     0.074 A 
ATOM     44  C   UNL A   1      40.730  31.107  30.190  1.00  0.00     0.029 A 
ATOM     45  N   UNL A   1      42.373  29.646  29.851  1.00  0.00    -0.354 N 
ATOM     46  N   UNL A   1      45.140  28.690  29.957  1.00  0.00    -0.248 NA
ATOM     47  C   UNL A   1      47.401  29.065  30.410  1.00  0.00     0.031 C 
ATOM     48  C   UNL A   1      41.934  31.693  30.594  1.00  0.00     0.029 A 
ATOM     49  C   UNL A   1      42.953  30.776  30.401  1.00  0.00     0.049 A 
ATOM     50  H   UNL A   1      42.857  28.826  29.599  1.00  0.00     0.167 HD
ATOM     51  C   UNL A   1      45.296  29.968  30.477  1.00  0.00     0.074 A 
ATOM     52  C   UNL A   1      46.705  30.135  30.766  1.00  0.00     0.031 C 
ATOM     53  C   UNL A   1      44.356  30.920  30.694  1.00  0.00     0.037 A 
BRANCH  40  54
ATOM     54  C   UNL A   1      38.652  29.248  29.025  1.00  0.00     0.057 A 
ATOM     55  C   UNL A   1      38.104  29.635  27.794  1.00  0.00     0.134 A 
ATOM     56  C   UNL A   1      37.789  29.189  30.126  1.00  0.00     0.134 A 
ATOM     57  F   UNL A   1      38.881  29.723  26.703  1.00  0.00    -0.206 F 
ATOM     58  C   UNL A   1      36.756  29.975  27.668  1.00  0.00     0.040 A 
ATOM     59  C   UNL A   1      36.432  29.501  30.007  1.00  0.00     0.040 A 
ATOM     60  F   UNL A   1      38.246  28.819  31.332  1.00  0.00    -0.206 F 
ATOM     61  C   UNL A   1      35.914  29.902  28.777  1.00  0.00     0.006 A 
ENDBRANCH  40  54
BRANCH  41  62
ATOM     62  C   UNL A   1      48.193  26.385  29.558  1.00  0.00     0.057 A 
ATOM     63  C   UNL A   1      48.719  25.779  30.705  1.00  0.00     0.134 A 
ATOM     64  C   UNL A   1      49.066  26.609  28.487  1.00  0.00     0.134 A 
ATOM     65  F   UNL A   1      47.934  25.558  31.771  1.00  0.00    -0.206 F 
ATOM     66  C   UNL A   1      50.066  25.426  30.794  1.00  0.00     0.040 A 
ATOM     67  C   UNL A   1      50.411  26.239  28.554  1.00  0.00     0.040 A 
ATOM     68  F   UNL A   1      48.623  27.179  27.359  1.00  0.00    -0.206 F 
ATOM     69  C   UNL A   1      50.915  25.653  29.713  1.00  0.00     0.006 A 
ENDBRANCH  41  62
BRANCH  53  70
ATOM     70  C   UNL A   1      44.814  32.210  31.305  1.00  0.00     0.057 A 
ATOM     71  C   UNL A   1      44.873  32.389  32.693  1.00  0.00     0.134 A 
ATOM     72  C   UNL A   1      45.241  33.270  30.496  1.00  0.00     0.134 A 
ATOM     73  F   UNL A   1      44.466  31.416  33.522  1.00  0.00    -0.206 F 
ATOM     74  C   UNL A   1      45.321  33.586  33.254  1.00  0.00     0.040 A 
ATOM     75  C   UNL A   1      45.714  34.462  31.044  1.00  0.00     0.040 A 
ATOM     76  F   UNL A   1      45.217  33.159  29.159  1.00  0.00    -0.206 F 
ATOM     77  C   UNL A   1      45.750  34.624  32.428  1.00  0.00     0.006 A 
ENDBRANCH  53  70
ENDBRANCH  27  28
ENDBRANCH  19  22
ENDBRANCH  17  18
ENDBRANCH  16  17
ENDBRANCH   1  16
TORSDOF 13
ENDMDL
