MODEL 1
REMARK VINA RESULT:     -13.3      0.000      0.000
REMARK SMILES O=C(NCCCNC(=O)[C@@H](Cc1ccc(O)cc1)Nc1c2ccccc2nc2ccccc12)c1ccc(-c2c3nc(c(-c4c(F)cccc4F)c4ccc([nH]4)c(-c4c(F)cccc4F)c4nc(c(-c5c(F)cccc5F)c5ccc2[nH]5)C=C4)C=C3)cc1
REMARK SMILES IDX 5 1 4 2 3 3 1 4 2 5 34 7 35 8 87 9 36 10 86 11 37 12 38 13
REMARK SMILES IDX 39 14 80 15 40 16 85 17 79 18 81 19 41 20 84 21 78 22 77 23
REMARK SMILES IDX 42 25 68 26 51 27 67 28 52 29 55 30 66 31 82 32 53 33 54 34
REMARK SMILES IDX 65 36 83 37 56 38 43 39 44 40 49 41 45 42 46 43 48 44 50 45
REMARK SMILES IDX 47 46 69 47 70 48 75 49 71 50 72 51 74 52 76 53 73 54 57 55
REMARK SMILES IDX 58 56 63 57 59 58 60 59 62 60 64 61 61 62 6 63 7 64 8 65
REMARK SMILES IDX 9 67 10 68 11 69 12 70 13 71 18 72 14 73 17 74 15 75 16 76
REMARK SMILES IDX 19 78 20 80 21 81 33 82 22 83 26 84 28 85 32 86 23 87 25 88
REMARK SMILES IDX 27 89 29 90 31 91 24 92 30 93
REMARK H PARENT 3 6 81 24 55 35 7 66 16 77 19 79
REMARK Flexibility Score: inf
ROOT
ATOM      1  C   UNL A   1      40.714  22.783  27.431  1.00  0.00     0.042 C 
ENDROOT
BRANCH   1   2
ATOM      2  C   UNL A   1      42.034  23.102  26.748  1.00  0.00     0.118 C 
BRANCH   2   3
ATOM      3  N   UNL A   1      41.910  24.226  25.835  1.00  0.00    -0.352 N 
ATOM      4  O   UNL A   1      41.246  26.191  25.029  1.00  0.00    -0.269 OA
ATOM      5  C   UNL A   1      41.539  25.533  26.031  1.00  0.00     0.251 C 
ATOM      6  H   UNL A   1      42.133  24.009  24.902  1.00  0.00     0.163 HD
BRANCH   5   7
ATOM      7  C   UNL A   1      41.487  26.201  27.364  1.00  0.00     0.039 A 
ATOM      8  C   UNL A   1      42.458  27.096  27.815  1.00  0.00     0.014 A 
ATOM      9  C   UNL A   1      40.313  26.056  28.122  1.00  0.00     0.014 A 
ATOM     10  C   UNL A   1      42.288  27.790  29.018  1.00  0.00     0.010 A 
ATOM     11  C   UNL A   1      40.100  26.818  29.280  1.00  0.00     0.010 A 
ATOM     12  C   UNL A   1      41.082  27.708  29.731  1.00  0.00    -0.014 A 
BRANCH  12  13
ATOM     13  C   UNL A   1      40.799  28.686  30.818  1.00  0.00     0.031 A 
ATOM     14  C   UNL A   1      39.718  29.722  30.697  1.00  0.00     0.074 A 
ATOM     15  C   UNL A   1      41.569  28.654  31.926  1.00  0.00     0.049 A 
ATOM     16  N   UNL A   1      39.373  30.651  31.557  1.00  0.00    -0.248 NA
ATOM     17  C   UNL A   1      38.930  29.731  29.457  1.00  0.00     0.031 C 
ATOM     18  C   UNL A   1      42.689  27.733  32.148  1.00  0.00     0.029 A 
ATOM     19  N   UNL A   1      41.534  29.407  33.074  1.00  0.00    -0.354 N 
ATOM     20  C   UNL A   1      38.345  31.365  30.956  1.00  0.00     0.074 A 
ATOM     21  C   UNL A   1      38.129  30.772  29.652  1.00  0.00     0.031 C 
ATOM     22  C   UNL A   1      43.209  27.952  33.364  1.00  0.00     0.029 A 
ATOM     23  C   UNL A   1      42.502  29.063  33.989  1.00  0.00     0.049 A 
ATOM     24  H   UNL A   1      40.879  30.125  33.228  1.00  0.00     0.167 HD
ATOM     25  C   UNL A   1      37.644  32.413  31.452  1.00  0.00     0.037 A 
ATOM     26  C   UNL A   1      42.810  29.592  35.187  1.00  0.00     0.037 A 
ATOM     27  C   UNL A   1      37.834  32.982  32.763  1.00  0.00     0.049 A 
ATOM     28  C   UNL A   1      42.018  30.756  35.703  1.00  0.00     0.074 A 
ATOM     29  C   UNL A   1      37.095  33.977  33.384  1.00  0.00     0.029 A 
ATOM     30  N   UNL A   1      38.837  32.621  33.647  1.00  0.00    -0.354 N 
ATOM     31  N   UNL A   1      40.997  31.365  35.154  1.00  0.00    -0.248 NA
ATOM     32  C   UNL A   1      42.429  31.316  36.999  1.00  0.00     0.031 C 
ATOM     33  C   UNL A   1      37.679  34.246  34.627  1.00  0.00     0.029 A 
ATOM     34  C   UNL A   1      38.761  33.398  34.792  1.00  0.00     0.049 A 
ATOM     35  H   UNL A   1      39.506  31.916  33.486  1.00  0.00     0.167 HD
ATOM     36  C   UNL A   1      40.645  32.380  36.032  1.00  0.00     0.074 A 
ATOM     37  C   UNL A   1      41.543  32.287  37.165  1.00  0.00     0.031 C 
ATOM     38  C   UNL A   1      39.670  33.311  35.904  1.00  0.00     0.037 A 
BRANCH  25  39
ATOM     39  C   UNL A   1      36.592  33.032  30.580  1.00  0.00     0.057 A 
ATOM     40  C   UNL A   1      36.923  33.865  29.507  1.00  0.00     0.134 A 
ATOM     41  C   UNL A   1      35.241  32.708  30.760  1.00  0.00     0.134 A 
ATOM     42  F   UNL A   1      38.200  34.213  29.283  1.00  0.00    -0.206 F 
ATOM     43  C   UNL A   1      35.945  34.362  28.643  1.00  0.00     0.040 A 
ATOM     44  C   UNL A   1      34.256  33.185  29.894  1.00  0.00     0.040 A 
ATOM     45  F   UNL A   1      34.861  31.903  31.764  1.00  0.00    -0.206 F 
ATOM     46  C   UNL A   1      34.608  34.014  28.830  1.00  0.00     0.006 A 
ENDBRANCH  25  39
BRANCH  26  47
ATOM     47  C   UNL A   1      43.944  29.043  35.969  1.00  0.00     0.057 A 
ATOM     48  C   UNL A   1      45.229  29.586  35.861  1.00  0.00     0.134 A 
ATOM     49  C   UNL A   1      43.770  27.960  36.839  1.00  0.00     0.134 A 
ATOM     50  F   UNL A   1      45.462  30.610  35.027  1.00  0.00    -0.206 F 
ATOM     51  C   UNL A   1      46.304  29.064  36.582  1.00  0.00     0.040 A 
ATOM     52  C   UNL A   1      44.830  27.444  37.585  1.00  0.00     0.040 A 
ATOM     53  F   UNL A   1      42.561  27.400  36.988  1.00  0.00    -0.206 F 
ATOM     54  C   UNL A   1      46.104  27.993  37.452  1.00  0.00     0.006 A 
ENDBRANCH  26  47
BRANCH  38  55
ATOM     55  C   UNL A   1      39.535  34.308  37.013  1.00  0.00     0.057 A 
ATOM     56  C   UNL A   1      38.855  33.992  38.195  1.00  0.00     0.134 A 
ATOM     57  C   UNL A   1      40.103  35.583  36.909  1.00  0.00     0.134 A 
ATOM     58  F   UNL A   1      38.273  32.793  38.346  1.00  0.00    -0.206 F 
ATOM     59  C   UNL A   1      38.731  34.917  39.233  1.00  0.00     0.040 A 
ATOM     60  C   UNL A   1      40.002  36.510  37.947  1.00  0.00     0.040 A 
ATOM     61  F   UNL A   1      40.769  35.945  35.802  1.00  0.00    -0.206 F 
ATOM     62  C   UNL A   1      39.311  36.179  39.112  1.00  0.00     0.006 A 
ENDBRANCH  38  55
ENDBRANCH  12  13
ENDBRANCH   5   7
ENDBRANCH   2   3
ENDBRANCH   1   2
BRANCH   1  63
ATOM     63  C   UNL A   1      39.486  22.963  26.542  1.00  0.00     0.117 C 
BRANCH  63  64
ATOM     64  N   UNL A   1      39.193  21.749  25.800  1.00  0.00    -0.354 N 
ATOM     65  C   UNL A   1      38.034  21.188  25.360  1.00  0.00     0.242 C 
ATOM     66  H   UNL A   1      39.994  21.227  25.569  1.00  0.00     0.163 HD
ATOM     67  O   UNL A   1      38.134  20.015  24.970  1.00  0.00    -0.273 OA
BRANCH  65  68
ATOM     68  C   UNL A   1      36.649  21.882  25.340  1.00  0.00     0.173 C 
BRANCH  68  69
ATOM     69  C   UNL A   1      36.148  22.235  23.916  1.00  0.00     0.070 C 
BRANCH  69  70
ATOM     70  C   UNL A   1      35.095  23.293  23.662  1.00  0.00    -0.045 A 
ATOM     71  C   UNL A   1      33.992  23.078  22.824  1.00  0.00     0.007 A 
ATOM     72  C   UNL A   1      35.166  24.510  24.365  1.00  0.00     0.007 A 
ATOM     73  C   UNL A   1      33.058  24.095  22.593  1.00  0.00     0.046 A 
ATOM     74  C   UNL A   1      34.228  25.522  24.147  1.00  0.00     0.046 A 
ATOM     75  C   UNL A   1      33.197  25.317  23.241  1.00  0.00     0.115 A 
BRANCH  75  76
ATOM     76  O   UNL A   1      32.342  26.352  23.007  1.00  0.00    -0.508 OA
ATOM     77  H   UNL A   1      32.011  26.856  23.723  1.00  0.00     0.293 HD
ENDBRANCH  75  76
ENDBRANCH  69  70
ENDBRANCH  68  69
BRANCH  68  78
ATOM     78  N   UNL A   1      35.643  21.228  26.201  1.00  0.00    -0.372 N 
ATOM     79  H   UNL A   1      35.888  20.993  27.125  1.00  0.00     0.161 HD
BRANCH  78  80
ATOM     80  C   UNL A   1      34.341  20.926  25.744  1.00  0.00     0.054 A 
ATOM     81  C   UNL A   1      34.053  19.741  24.995  1.00  0.00     0.024 A 
ATOM     82  C   UNL A   1      33.273  21.832  26.030  1.00  0.00     0.024 A 
ATOM     83  C   UNL A   1      34.988  18.730  24.659  1.00  0.00     0.012 A 
ATOM     84  C   UNL A   1      32.716  19.531  24.596  1.00  0.00     0.073 A 
ATOM     85  C   UNL A   1      31.979  21.472  25.600  1.00  0.00     0.073 A 
ATOM     86  C   UNL A   1      33.415  23.070  26.712  1.00  0.00     0.012 A 
ATOM     87  C   UNL A   1      34.641  17.607  23.908  1.00  0.00     0.001 A 
ATOM     88  C   UNL A   1      32.383  18.400  23.861  1.00  0.00     0.029 A 
ATOM     89  N   UNL A   1      31.719  20.363  24.904  1.00  0.00    -0.248 NA
ATOM     90  C   UNL A   1      30.899  22.291  25.898  1.00  0.00     0.029 A 
ATOM     91  C   UNL A   1      32.317  23.888  26.989  1.00  0.00     0.001 A 
ATOM     92  C   UNL A   1      33.330  17.444  23.500  1.00  0.00     0.002 A 
ATOM     93  C   UNL A   1      31.052  23.490  26.592  1.00  0.00     0.002 A 
ENDBRANCH  78  80
ENDBRANCH  68  78
ENDBRANCH  65  68
ENDBRANCH  63  64
ENDBRANCH   1  63
TORSDOF 15
ENDMDL
MODEL 2
REMARK VINA RESULT:     -13.2      3.260      7.730
REMARK SMILES O=C(NCCCNC(=O)[C@@H](Cc1ccc(O)cc1)Nc1c2ccccc2nc2ccccc12)c1ccc(-c2c3nc(c(-c4c(F)cccc4F)c4ccc([nH]4)c(-c4c(F)cccc4F)c4nc(c(-c5c(F)cccc5F)c5ccc2[nH]5)C=C4)C=C3)cc1
REMARK SMILES IDX 5 1 4 2 3 3 1 4 2 5 34 7 35 8 87 9 36 10 86 11 37 12 38 13
REMARK SMILES IDX 39 14 80 15 40 16 85 17 79 18 81 19 41 20 84 21 78 22 77 23
REMARK SMILES IDX 42 25 68 26 51 27 67 28 52 29 55 30 66 31 82 32 53 33 54 34
REMARK SMILES IDX 65 36 83 37 56 38 43 39 44 40 49 41 45 42 46 43 48 44 50 45
REMARK SMILES IDX 47 46 69 47 70 48 75 49 71 50 72 51 74 52 76 53 73 54 57 55
REMARK SMILES IDX 58 56 63 57 59 58 60 59 62 60 64 61 61 62 6 63 7 64 8 65
REMARK SMILES IDX 9 67 10 68 11 69 12 70 13 71 18 72 14 73 17 74 15 75 16 76
REMARK SMILES IDX 19 78 20 80 21 81 33 82 22 83 26 84 28 85 32 86 23 87 25 88
REMARK SMILES IDX 27 89 29 90 31 91 24 92 30 93
REMARK H PARENT 3 6 81 24 55 35 7 66 16 77 19 79
REMARK Flexibility Score: inf
ROOT
ATOM      1  C   UNL A   1      33.160  27.656  25.898  1.00  0.00     0.042 C 
ENDROOT
BRANCH   1   2
ATOM      2  C   UNL A   1      34.396  28.503  26.157  1.00  0.00     0.118 C 
BRANCH   2   3
ATOM      3  N   UNL A   1      34.047  29.855  26.556  1.00  0.00    -0.352 N 
ATOM      4  O   UNL A   1      33.812  31.650  27.851  1.00  0.00    -0.269 OA
ATOM      5  C   UNL A   1      34.491  30.656  27.579  1.00  0.00     0.251 C 
ATOM      6  H   UNL A   1      33.364  30.276  25.987  1.00  0.00     0.163 HD
BRANCH   5   7
ATOM      7  C   UNL A   1      35.739  30.408  28.359  1.00  0.00     0.039 A 
ATOM      8  C   UNL A   1      35.815  29.511  29.424  1.00  0.00     0.014 A 
ATOM      9  C   UNL A   1      36.933  30.974  27.879  1.00  0.00     0.014 A 
ATOM     10  C   UNL A   1      37.042  29.223  30.032  1.00  0.00     0.010 A 
ATOM     11  C   UNL A   1      38.174  30.618  28.427  1.00  0.00     0.010 A 
ATOM     12  C   UNL A   1      38.241  29.723  29.502  1.00  0.00    -0.014 A 
BRANCH  12  13
ATOM     13  C   UNL A   1      39.542  29.157  29.956  1.00  0.00     0.031 A 
ATOM     14  C   UNL A   1      40.197  28.000  29.255  1.00  0.00     0.074 A 
ATOM     15  C   UNL A   1      40.122  29.684  31.055  1.00  0.00     0.049 A 
ATOM     16  N   UNL A   1      41.320  27.391  29.553  1.00  0.00    -0.248 NA
ATOM     17  C   UNL A   1      39.506  27.446  28.083  1.00  0.00     0.031 C 
ATOM     18  C   UNL A   1      39.564  30.775  31.861  1.00  0.00     0.029 A 
ATOM     19  N   UNL A   1      41.304  29.383  31.686  1.00  0.00    -0.354 N 
ATOM     20  C   UNL A   1      41.461  26.373  28.619  1.00  0.00     0.074 A 
ATOM     21  C   UNL A   1      40.302  26.435  27.752  1.00  0.00     0.031 C 
ATOM     22  C   UNL A   1      40.415  31.072  32.855  1.00  0.00     0.029 A 
ATOM     23  C   UNL A   1      41.550  30.160  32.794  1.00  0.00     0.049 A 
ATOM     24  H   UNL A   1      41.917  28.678  31.376  1.00  0.00     0.167 HD
ATOM     25  C   UNL A   1      42.469  25.476  28.496  1.00  0.00     0.037 A 
ATOM     26  C   UNL A   1      42.561  30.133  33.682  1.00  0.00     0.037 A 
ATOM     27  C   UNL A   1      43.639  25.435  29.336  1.00  0.00     0.049 A 
ATOM     28  C   UNL A   1      43.657  29.122  33.520  1.00  0.00     0.074 A 
ATOM     29  C   UNL A   1      44.758  24.625  29.214  1.00  0.00     0.029 A 
ATOM     30  N   UNL A   1      43.839  26.221  30.458  1.00  0.00    -0.354 N 
ATOM     31  N   UNL A   1      43.812  28.220  32.584  1.00  0.00    -0.248 NA
ATOM     32  C   UNL A   1      44.711  29.115  34.546  1.00  0.00     0.031 C 
ATOM     33  C   UNL A   1      45.614  24.893  30.287  1.00  0.00     0.029 A 
ATOM     34  C   UNL A   1      45.043  25.891  31.059  1.00  0.00     0.049 A 
ATOM     35  H   UNL A   1      43.217  26.913  30.781  1.00  0.00     0.167 HD
ATOM     36  C   UNL A   1      44.975  27.537  32.906  1.00  0.00     0.074 A 
ATOM     37  C   UNL A   1      45.503  28.147  34.109  1.00  0.00     0.031 C 
ATOM     38  C   UNL A   1      45.549  26.491  32.266  1.00  0.00     0.037 A 
BRANCH  25  39
ATOM     39  C   UNL A   1      42.366  24.448  27.409  1.00  0.00     0.057 A 
ATOM     40  C   UNL A   1      42.959  24.639  26.156  1.00  0.00     0.134 A 
ATOM     41  C   UNL A   1      41.750  23.213  27.656  1.00  0.00     0.134 A 
ATOM     42  F   UNL A   1      43.563  25.799  25.860  1.00  0.00    -0.206 F 
ATOM     43  C   UNL A   1      42.939  23.639  25.182  1.00  0.00     0.040 A 
ATOM     44  C   UNL A   1      41.738  22.201  26.696  1.00  0.00     0.040 A 
ATOM     45  F   UNL A   1      41.174  22.965  28.841  1.00  0.00    -0.206 F 
ATOM     46  C   UNL A   1      42.335  22.413  25.454  1.00  0.00     0.006 A 
ENDBRANCH  25  39
BRANCH  26  47
ATOM     47  C   UNL A   1      42.566  31.077  34.826  1.00  0.00     0.057 A 
ATOM     48  C   UNL A   1      41.993  30.731  36.054  1.00  0.00     0.134 A 
ATOM     49  C   UNL A   1      43.142  32.348  34.716  1.00  0.00     0.134 A 
ATOM     50  F   UNL A   1      41.407  29.535  36.213  1.00  0.00    -0.206 F 
ATOM     51  C   UNL A   1      41.981  31.620  37.130  1.00  0.00     0.040 A 
ATOM     52  C   UNL A   1      43.159  33.238  35.790  1.00  0.00     0.040 A 
ATOM     53  F   UNL A   1      43.710  32.736  33.565  1.00  0.00    -0.206 F 
ATOM     54  C   UNL A   1      42.571  32.877  37.000  1.00  0.00     0.006 A 
ENDBRANCH  26  47
BRANCH  38  55
ATOM     55  C   UNL A   1      46.805  25.936  32.863  1.00  0.00     0.057 A 
ATOM     56  C   UNL A   1      46.765  24.911  33.816  1.00  0.00     0.134 A 
ATOM     57  C   UNL A   1      48.061  26.413  32.472  1.00  0.00     0.134 A 
ATOM     58  F   UNL A   1      45.591  24.425  34.245  1.00  0.00    -0.206 F 
ATOM     59  C   UNL A   1      47.934  24.388  34.371  1.00  0.00     0.040 A 
ATOM     60  C   UNL A   1      49.237  25.885  33.005  1.00  0.00     0.040 A 
ATOM     61  F   UNL A   1      48.165  27.393  31.562  1.00  0.00    -0.206 F 
ATOM     62  C   UNL A   1      49.176  24.872  33.961  1.00  0.00     0.006 A 
ENDBRANCH  38  55
ENDBRANCH  12  13
ENDBRANCH   5   7
ENDBRANCH   2   3
ENDBRANCH   1   2
BRANCH   1  63
ATOM     63  C   UNL A   1      33.457  26.203  25.535  1.00  0.00     0.117 C 
BRANCH  63  64
ATOM     64  N   UNL A   1      32.867  25.290  26.497  1.00  0.00    -0.354 N 
ATOM     65  C   UNL A   1      32.181  24.122  26.367  1.00  0.00     0.242 C 
ATOM     66  H   UNL A   1      32.988  25.572  27.432  1.00  0.00     0.163 HD
ATOM     67  O   UNL A   1      31.609  23.733  27.397  1.00  0.00    -0.273 OA
BRANCH  65  68
ATOM     68  C   UNL A   1      32.051  23.294  25.064  1.00  0.00     0.173 C 
BRANCH  68  69
ATOM     69  C   UNL A   1      30.841  23.699  24.184  1.00  0.00     0.070 C 
BRANCH  69  70
ATOM     70  C   UNL A   1      30.684  25.088  23.603  1.00  0.00    -0.045 A 
ATOM     71  C   UNL A   1      29.820  26.045  24.150  1.00  0.00     0.007 A 
ATOM     72  C   UNL A   1      31.507  25.475  22.528  1.00  0.00     0.007 A 
ATOM     73  C   UNL A   1      29.684  27.308  23.562  1.00  0.00     0.046 A 
ATOM     74  C   UNL A   1      31.383  26.739  21.947  1.00  0.00     0.046 A 
ATOM     75  C   UNL A   1      30.452  27.636  22.451  1.00  0.00     0.115 A 
BRANCH  75  76
ATOM     76  O   UNL A   1      30.315  28.833  21.815  1.00  0.00    -0.508 OA
ATOM     77  H   UNL A   1      31.062  29.245  21.427  1.00  0.00     0.293 HD
ENDBRANCH  75  76
ENDBRANCH  69  70
ENDBRANCH  68  69
BRANCH  68  78
ATOM     78  N   UNL A   1      33.322  23.140  24.328  1.00  0.00    -0.372 N 
ATOM     79  H   UNL A   1      33.547  23.794  23.627  1.00  0.00     0.161 HD
BRANCH  78  80
ATOM     80  C   UNL A   1      34.225  22.088  24.595  1.00  0.00     0.054 A 
ATOM     81  C   UNL A   1      33.870  20.714  24.411  1.00  0.00     0.024 A 
ATOM     82  C   UNL A   1      35.539  22.398  25.068  1.00  0.00     0.024 A 
ATOM     83  C   UNL A   1      32.626  20.244  23.920  1.00  0.00     0.012 A 
ATOM     84  C   UNL A   1      34.851  19.743  24.697  1.00  0.00     0.073 A 
ATOM     85  C   UNL A   1      36.427  21.323  25.276  1.00  0.00     0.073 A 
ATOM     86  C   UNL A   1      36.016  23.706  25.350  1.00  0.00     0.012 A 
ATOM     87  C   UNL A   1      32.339  18.885  23.784  1.00  0.00     0.001 A 
ATOM     88  C   UNL A   1      34.555  18.394  24.544  1.00  0.00     0.029 A 
ATOM     89  N   UNL A   1      36.088  20.044  25.099  1.00  0.00    -0.248 NA
ATOM     90  C   UNL A   1      37.730  21.574  25.685  1.00  0.00     0.029 A 
ATOM     91  C   UNL A   1      37.326  23.936  25.775  1.00  0.00     0.001 A 
ATOM     92  C   UNL A   1      33.309  17.953  24.104  1.00  0.00     0.002 A 
ATOM     93  C   UNL A   1      38.191  22.866  25.931  1.00  0.00     0.002 A 
ENDBRANCH  78  80
ENDBRANCH  68  78
ENDBRANCH  65  68
ENDBRANCH  63  64
ENDBRANCH   1  63
TORSDOF 15
ENDMDL
MODEL 3
REMARK VINA RESULT:     -13.2      4.162      8.710
REMARK SMILES O=C(NCCCNC(=O)[C@@H](Cc1ccc(O)cc1)Nc1c2ccccc2nc2ccccc12)c1ccc(-c2c3nc(c(-c4c(F)cccc4F)c4ccc([nH]4)c(-c4c(F)cccc4F)c4nc(c(-c5c(F)cccc5F)c5ccc2[nH]5)C=C4)C=C3)cc1
REMARK SMILES IDX 5 1 4 2 3 3 1 4 2 5 34 7 35 8 87 9 36 10 86 11 37 12 38 13
REMARK SMILES IDX 39 14 80 15 40 16 85 17 79 18 81 19 41 20 84 21 78 22 77 23
REMARK SMILES IDX 42 25 68 26 51 27 67 28 52 29 55 30 66 31 82 32 53 33 54 34
REMARK SMILES IDX 65 36 83 37 56 38 43 39 44 40 49 41 45 42 46 43 48 44 50 45
REMARK SMILES IDX 47 46 69 47 70 48 75 49 71 50 72 51 74 52 76 53 73 54 57 55
REMARK SMILES IDX 58 56 63 57 59 58 60 59 62 60 64 61 61 62 6 63 7 64 8 65
REMARK SMILES IDX 9 67 10 68 11 69 12 70 13 71 18 72 14 73 17 74 15 75 16 76
REMARK SMILES IDX 19 78 20 80 21 81 33 82 22 83 26 84 28 85 32 86 23 87 25 88
REMARK SMILES IDX 27 89 29 90 31 91 24 92 30 93
REMARK H PARENT 3 6 81 24 55 35 7 66 16 77 19 79
REMARK Flexibility Score: inf
ROOT
ATOM      1  C   UNL A   1      32.750  29.204  25.903  1.00  0.00     0.042 C 
ENDROOT
BRANCH   1   2
ATOM      2  C   UNL A   1      33.253  29.145  27.337  1.00  0.00     0.118 C 
BRANCH   2   3
ATOM      3  N   UNL A   1      33.626  30.460  27.829  1.00  0.00    -0.352 N 
ATOM      4  O   UNL A   1      34.678  32.017  29.022  1.00  0.00    -0.269 OA
ATOM      5  C   UNL A   1      34.754  30.920  28.462  1.00  0.00     0.251 C 
ATOM      6  H   UNL A   1      32.941  31.151  27.682  1.00  0.00     0.163 HD
BRANCH   5   7
ATOM      7  C   UNL A   1      36.054  30.190  28.496  1.00  0.00     0.039 A 
ATOM      8  C   UNL A   1      36.980  30.216  27.454  1.00  0.00     0.014 A 
ATOM      9  C   UNL A   1      36.437  29.595  29.711  1.00  0.00     0.014 A 
ATOM     10  C   UNL A   1      38.238  29.618  27.597  1.00  0.00     0.010 A 
ATOM     11  C   UNL A   1      37.729  29.076  29.888  1.00  0.00     0.010 A 
ATOM     12  C   UNL A   1      38.650  29.099  28.834  1.00  0.00    -0.014 A 
BRANCH  12  13
ATOM     13  C   UNL A   1      40.085  28.766  29.053  1.00  0.00     0.031 A 
ATOM     14  C   UNL A   1      41.048  29.746  29.661  1.00  0.00     0.074 A 
ATOM     15  C   UNL A   1      40.530  27.555  28.657  1.00  0.00     0.049 A 
ATOM     16  N   UNL A   1      42.330  29.598  29.893  1.00  0.00    -0.248 NA
ATOM     17  C   UNL A   1      40.515  31.060  30.047  1.00  0.00     0.031 C 
ATOM     18  C   UNL A   1      39.711  26.528  28.002  1.00  0.00     0.029 A 
ATOM     19  N   UNL A   1      41.772  26.975  28.742  1.00  0.00    -0.354 N 
ATOM     20  C   UNL A   1      42.762  30.803  30.433  1.00  0.00     0.074 A 
ATOM     21  C   UNL A   1      41.608  31.678  30.482  1.00  0.00     0.031 C 
ATOM     22  C   UNL A   1      40.460  25.440  27.778  1.00  0.00     0.029 A 
ATOM     23  C   UNL A   1      41.824  25.705  28.217  1.00  0.00     0.049 A 
ATOM     24  H   UNL A   1      42.551  27.426  29.140  1.00  0.00     0.167 HD
ATOM     25  C   UNL A   1      44.004  31.141  30.854  1.00  0.00     0.037 A 
ATOM     26  C   UNL A   1      42.855  24.851  28.078  1.00  0.00     0.037 A 
ATOM     27  C   UNL A   1      45.146  30.260  30.838  1.00  0.00     0.049 A 
ATOM     28  C   UNL A   1      44.219  25.260  28.548  1.00  0.00     0.074 A 
ATOM     29  C   UNL A   1      46.416  30.489  31.343  1.00  0.00     0.029 A 
ATOM     30  N   UNL A   1      45.162  28.994  30.279  1.00  0.00    -0.354 N 
ATOM     31  N   UNL A   1      44.589  26.373  29.129  1.00  0.00    -0.248 NA
ATOM     32  C   UNL A   1      45.312  24.300  28.331  1.00  0.00     0.031 C 
ATOM     33  C   UNL A   1      47.212  29.376  31.051  1.00  0.00     0.029 A 
ATOM     34  C   UNL A   1      46.429  28.443  30.392  1.00  0.00     0.049 A 
ATOM     35  H   UNL A   1      44.388  28.549  29.862  1.00  0.00     0.167 HD
ATOM     36  C   UNL A   1      45.954  26.252  29.344  1.00  0.00     0.074 A 
ATOM     37  C   UNL A   1      46.343  24.945  28.858  1.00  0.00     0.031 C 
ATOM     38  C   UNL A   1      46.809  27.150  29.888  1.00  0.00     0.037 A 
BRANCH  25  39
ATOM     39  C   UNL A   1      44.216  32.531  31.375  1.00  0.00     0.057 A 
ATOM     40  C   UNL A   1      44.562  33.590  30.528  1.00  0.00     0.134 A 
ATOM     41  C   UNL A   1      43.973  32.829  32.723  1.00  0.00     0.134 A 
ATOM     42  F   UNL A   1      44.808  33.369  29.228  1.00  0.00    -0.206 F 
ATOM     43  C   UNL A   1      44.666  34.898  31.005  1.00  0.00     0.040 A 
ATOM     44  C   UNL A   1      44.058  34.135  33.207  1.00  0.00     0.040 A 
ATOM     45  F   UNL A   1      43.626  31.859  33.582  1.00  0.00    -0.206 F 
ATOM     46  C   UNL A   1      44.405  35.174  32.346  1.00  0.00     0.006 A 
ENDBRANCH  25  39
BRANCH  26  47
ATOM     47  C   UNL A   1      42.641  23.531  27.435  1.00  0.00     0.057 A 
ATOM     48  C   UNL A   1      42.771  23.369  26.051  1.00  0.00     0.134 A 
ATOM     49  C   UNL A   1      42.298  22.404  28.189  1.00  0.00     0.134 A 
ATOM     50  F   UNL A   1      43.077  24.419  25.275  1.00  0.00    -0.206 F 
ATOM     51  C   UNL A   1      42.557  22.134  25.439  1.00  0.00     0.040 A 
ATOM     52  C   UNL A   1      42.105  21.157  27.593  1.00  0.00     0.040 A 
ATOM     53  F   UNL A   1      42.163  22.495  29.520  1.00  0.00    -0.206 F 
ATOM     54  C   UNL A   1      42.227  21.021  26.212  1.00  0.00     0.006 A 
ENDBRANCH  26  47
BRANCH  38  55
ATOM     55  C   UNL A   1      48.250  26.749  29.974  1.00  0.00     0.057 A 
ATOM     56  C   UNL A   1      49.153  27.060  28.950  1.00  0.00     0.134 A 
ATOM     57  C   UNL A   1      48.742  26.066  31.091  1.00  0.00     0.134 A 
ATOM     58  F   UNL A   1      48.737  27.697  27.845  1.00  0.00    -0.206 F 
ATOM     59  C   UNL A   1      50.497  26.693  29.029  1.00  0.00     0.040 A 
ATOM     60  C   UNL A   1      50.088  25.710  31.190  1.00  0.00     0.040 A 
ATOM     61  F   UNL A   1      47.927  25.741  32.106  1.00  0.00    -0.206 F 
ATOM     62  C   UNL A   1      50.969  26.020  30.155  1.00  0.00     0.006 A 
ENDBRANCH  38  55
ENDBRANCH  12  13
ENDBRANCH   5   7
ENDBRANCH   2   3
ENDBRANCH   1   2
BRANCH   1  63
ATOM     63  C   UNL A   1      33.717  28.625  24.873  1.00  0.00     0.117 C 
BRANCH  63  64
ATOM     64  N   UNL A   1      33.048  27.679  23.998  1.00  0.00    -0.354 N 
ATOM     65  C   UNL A   1      33.302  26.385  23.663  1.00  0.00     0.242 C 
ATOM     66  H   UNL A   1      32.249  28.049  23.559  1.00  0.00     0.163 HD
ATOM     67  O   UNL A   1      32.659  25.959  22.692  1.00  0.00    -0.273 OA
BRANCH  65  68
ATOM     68  C   UNL A   1      34.319  25.455  24.370  1.00  0.00     0.173 C 
BRANCH  68  69
ATOM     69  C   UNL A   1      33.927  25.092  25.825  1.00  0.00     0.070 C 
BRANCH  69  70
ATOM     70  C   UNL A   1      32.695  24.278  26.158  1.00  0.00    -0.045 A 
ATOM     71  C   UNL A   1      32.751  23.084  26.889  1.00  0.00     0.007 A 
ATOM     72  C   UNL A   1      31.428  24.782  25.808  1.00  0.00     0.007 A 
ATOM     73  C   UNL A   1      31.589  22.346  27.148  1.00  0.00     0.046 A 
ATOM     74  C   UNL A   1      30.266  24.055  26.077  1.00  0.00     0.046 A 
ATOM     75  C   UNL A   1      30.358  22.829  26.720  1.00  0.00     0.115 A 
BRANCH  75  76
ATOM     76  O   UNL A   1      29.209  22.121  26.904  1.00  0.00    -0.508 OA
ATOM     77  H   UNL A   1      28.524  22.470  27.440  1.00  0.00     0.293 HD
ENDBRANCH  75  76
ENDBRANCH  69  70
ENDBRANCH  68  69
BRANCH  68  78
ATOM     78  N   UNL A   1      34.751  24.309  23.546  1.00  0.00    -0.372 N 
ATOM     79  H   UNL A   1      34.788  24.414  22.568  1.00  0.00     0.161 HD
BRANCH  78  80
ATOM     80  C   UNL A   1      35.112  23.066  24.112  1.00  0.00     0.054 A 
ATOM     81  C   UNL A   1      36.354  22.873  24.795  1.00  0.00     0.024 A 
ATOM     82  C   UNL A   1      34.213  21.959  23.998  1.00  0.00     0.024 A 
ATOM     83  C   UNL A   1      37.334  23.872  25.022  1.00  0.00     0.012 A 
ATOM     84  C   UNL A   1      36.611  21.594  25.332  1.00  0.00     0.073 A 
ATOM     85  C   UNL A   1      34.588  20.750  24.618  1.00  0.00     0.073 A 
ATOM     86  C   UNL A   1      32.975  21.984  23.303  1.00  0.00     0.012 A 
ATOM     87  C   UNL A   1      38.535  23.608  25.681  1.00  0.00     0.001 A 
ATOM     88  C   UNL A   1      37.805  21.351  25.999  1.00  0.00     0.029 A 
ATOM     89  N   UNL A   1      35.748  20.579  25.256  1.00  0.00    -0.248 NA
ATOM     90  C   UNL A   1      33.728  19.660  24.581  1.00  0.00     0.029 A 
ATOM     91  C   UNL A   1      32.130  20.871  23.266  1.00  0.00     0.001 A 
ATOM     92  C   UNL A   1      38.775  22.337  26.168  1.00  0.00     0.002 A 
ATOM     93  C   UNL A   1      32.503  19.709  23.918  1.00  0.00     0.002 A 
ENDBRANCH  78  80
ENDBRANCH  68  78
ENDBRANCH  65  68
ENDBRANCH  63  64
ENDBRANCH   1  63
TORSDOF 15
ENDMDL
