MODEL 1
REMARK VINA RESULT:     -12.0      0.000      0.000
REMARK SMILES N#Cc1cccc(C(=O)N2CCC(CC(=O)NCCCNC(=O)c3ccc(-c4c5nc(c(-c6c(F)cccc6F)c6ccc([nH]6)c(-c6c(F)cccc6F)c6nc(c(-c7c(F)cccc7F)c7ccc4[nH]7)C=C6)C=C5)cc3)CC2)c1
REMARK SMILES IDX 18 1 17 2 15 3 16 4 14 6 13 7 8 8 9 9 10 10 11 11 79 12
REMARK SMILES IDX 12 13 78 14 7 15 3 16 4 17 80 18 5 19 6 20 2 21 1 22 19 23
REMARK SMILES IDX 20 24 21 25 22 26 23 28 24 29 25 30 77 31 26 32 76 33 27 34
REMARK SMILES IDX 28 35 29 36 70 37 30 38 75 39 69 40 71 41 31 42 74 43 68 44
REMARK SMILES IDX 67 45 32 47 58 48 41 49 57 50 42 51 45 52 56 53 72 54 43 55
REMARK SMILES IDX 44 56 55 58 73 59 46 60 33 61 34 62 39 63 35 64 36 65 38 66
REMARK SMILES IDX 40 67 37 68 59 69 60 70 65 71 61 72 62 73 64 74 66 75 63 76
REMARK SMILES IDX 47 77 48 78 53 79 49 80 50 81 52 82 54 83 51 84
REMARK H PARENT 17 5 21 27 71 46 45 57
REMARK Flexibility Score: inf
ROOT
ATOM      1  C   UNL A   1      36.279  20.129  25.036  1.00  0.00     0.117 C 
ENDROOT
BRANCH   1   2
ATOM      2  N   UNL A   1      35.114  19.330  24.665  1.00  0.00    -0.356 N 
ATOM      3  C   UNL A   1      33.788  19.444  24.973  1.00  0.00     0.220 C 
ATOM      4  O   UNL A   1      33.015  18.623  24.474  1.00  0.00    -0.275 OA
ATOM      5  H   UNL A   1      35.325  18.564  24.083  1.00  0.00     0.163 HD
BRANCH   3   6
ATOM      6  C   UNL A   1      33.262  20.524  25.918  1.00  0.00     0.103 C 
BRANCH   6   7
ATOM      7  C   UNL A   1      33.408  21.967  25.378  1.00  0.00     0.002 C 
ATOM      8  C   UNL A   1      31.359  25.454  26.079  1.00  0.00     0.253 C 
ATOM      9  O   UNL A   1      30.462  25.000  26.777  1.00  0.00    -0.269 OA
ATOM     10  N   UNL A   1      32.325  24.668  25.482  1.00  0.00    -0.339 N 
ATOM     11  C   UNL A   1      31.954  23.842  24.366  1.00  0.00     0.120 C 
ATOM     12  C   UNL A   1      33.629  24.423  26.076  1.00  0.00     0.120 C 
ATOM     13  C   UNL A   1      32.100  22.390  24.730  1.00  0.00     0.026 C 
ATOM     14  C   UNL A   1      33.801  22.957  26.494  1.00  0.00     0.026 C 
BRANCH   8  15
ATOM     15  C   UNL A   1      31.370  26.885  25.656  1.00  0.00     0.041 A 
ATOM     16  C   UNL A   1      30.780  28.615  24.054  1.00  0.00     0.053 A 
ATOM     17  C   UNL A   1      31.262  29.589  24.931  1.00  0.00     0.019 A 
ATOM     18  C   UNL A   1      30.836  27.268  24.418  1.00  0.00     0.033 A 
ATOM     19  C   UNL A   1      31.795  29.214  26.168  1.00  0.00     0.002 A 
ATOM     20  C   UNL A   1      31.848  27.866  26.532  1.00  0.00     0.014 A 
BRANCH  16  21
ATOM     21  C   UNL A   1      30.212  28.972  22.790  1.00  0.00     0.099 C 
ATOM     22  N   UNL A   1      29.771  29.293  21.763  1.00  0.00    -0.192 NA
ENDBRANCH  16  21
ENDBRANCH   8  15
ENDBRANCH   6   7
ENDBRANCH   3   6
ENDBRANCH   1   2
BRANCH   1  23
ATOM     23  C   UNL A   1      37.605  19.356  24.956  1.00  0.00     0.042 C 
BRANCH  23  24
ATOM     24  C   UNL A   1      38.827  20.145  25.388  1.00  0.00     0.118 C 
BRANCH  24  25
ATOM     25  N   UNL A   1      39.928  19.257  25.692  1.00  0.00    -0.352 N 
ATOM     26  C   UNL A   1      41.223  19.561  26.027  1.00  0.00     0.251 C 
ATOM     27  H   UNL A   1      39.718  18.296  25.654  1.00  0.00     0.163 HD
ATOM     28  O   UNL A   1      42.088  18.701  25.880  1.00  0.00    -0.269 OA
BRANCH  26  29
ATOM     29  C   UNL A   1      41.596  20.895  26.562  1.00  0.00     0.039 A 
ATOM     30  C   UNL A   1      41.445  21.117  27.933  1.00  0.00     0.014 A 
ATOM     31  C   UNL A   1      42.009  21.948  25.740  1.00  0.00     0.014 A 
ATOM     32  C   UNL A   1      41.714  22.376  28.471  1.00  0.00     0.010 A 
ATOM     33  C   UNL A   1      42.387  23.172  26.293  1.00  0.00     0.010 A 
ATOM     34  C   UNL A   1      42.212  23.411  27.661  1.00  0.00    -0.014 A 
BRANCH  34  35
ATOM     35  C   UNL A   1      42.537  24.731  28.264  1.00  0.00     0.031 A 
ATOM     36  C   UNL A   1      43.945  25.084  28.660  1.00  0.00     0.074 A 
ATOM     37  C   UNL A   1      41.548  25.627  28.440  1.00  0.00     0.049 A 
ATOM     38  N   UNL A   1      44.416  26.223  29.103  1.00  0.00    -0.248 NA
ATOM     39  C   UNL A   1      44.951  24.016  28.572  1.00  0.00     0.031 C 
ATOM     40  C   UNL A   1      40.132  25.381  28.162  1.00  0.00     0.029 A 
ATOM     41  N   UNL A   1      41.581  26.928  28.874  1.00  0.00    -0.354 N 
ATOM     42  C   UNL A   1      45.770  26.010  29.337  1.00  0.00     0.074 A 
ATOM     43  C   UNL A   1      46.025  24.613  29.065  1.00  0.00     0.031 C 
ATOM     44  C   UNL A   1      39.440  26.509  28.378  1.00  0.00     0.029 A 
ATOM     45  C   UNL A   1      40.353  27.541  28.855  1.00  0.00     0.049 A 
ATOM     46  H   UNL A   1      42.405  27.377  29.170  1.00  0.00     0.167 HD
ATOM     47  C   UNL A   1      46.720  26.901  29.714  1.00  0.00     0.037 A 
ATOM     48  C   UNL A   1      39.998  28.797  29.181  1.00  0.00     0.037 A 
ATOM     49  C   UNL A   1      46.452  28.289  30.003  1.00  0.00     0.049 A 
ATOM     50  C   UNL A   1      41.060  29.767  29.608  1.00  0.00     0.074 A 
ATOM     51  C   UNL A   1      47.345  29.285  30.359  1.00  0.00     0.029 A 
ATOM     52  N   UNL A   1      45.192  28.873  29.988  1.00  0.00    -0.354 N 
ATOM     53  N   UNL A   1      42.351  29.575  29.746  1.00  0.00    -0.248 NA
ATOM     54  C   UNL A   1      40.619  31.135  29.906  1.00  0.00     0.031 C 
ATOM     55  C   UNL A   1      46.617  30.450  30.629  1.00  0.00     0.029 A 
ATOM     56  C   UNL A   1      45.279  30.205  30.361  1.00  0.00     0.049 A 
ATOM     57  H   UNL A   1      44.359  28.407  29.748  1.00  0.00     0.167 HD
ATOM     58  C   UNL A   1      42.880  30.799  30.132  1.00  0.00     0.074 A 
ATOM     59  C   UNL A   1      41.771  31.733  30.172  1.00  0.00     0.031 C 
ATOM     60  C   UNL A   1      44.166  31.122  30.426  1.00  0.00     0.037 A 
BRANCH  47  61
ATOM     61  C   UNL A   1      48.129  26.386  29.851  1.00  0.00     0.057 A 
ATOM     62  C   UNL A   1      49.046  26.434  28.790  1.00  0.00     0.134 A 
ATOM     63  C   UNL A   1      48.577  25.829  31.056  1.00  0.00     0.134 A 
ATOM     64  F   UNL A   1      48.689  26.948  27.602  1.00  0.00    -0.206 F 
ATOM     65  C   UNL A   1      50.333  25.900  28.905  1.00  0.00     0.040 A 
ATOM     66  C   UNL A   1      49.873  25.328  31.196  1.00  0.00     0.040 A 
ATOM     67  F   UNL A   1      47.762  25.758  32.118  1.00  0.00    -0.206 F 
ATOM     68  C   UNL A   1      50.750  25.349  30.113  1.00  0.00     0.006 A 
ENDBRANCH  47  61
BRANCH  48  69
ATOM     69  C   UNL A   1      38.570  29.196  29.098  1.00  0.00     0.057 A 
ATOM     70  C   UNL A   1      37.722  29.132  30.209  1.00  0.00     0.134 A 
ATOM     71  C   UNL A   1      38.028  29.686  27.902  1.00  0.00     0.134 A 
ATOM     72  F   UNL A   1      38.176  28.660  31.380  1.00  0.00    -0.206 F 
ATOM     73  C   UNL A   1      36.386  29.530  30.132  1.00  0.00     0.040 A 
ATOM     74  C   UNL A   1      36.704  30.116  27.819  1.00  0.00     0.040 A 
ATOM     75  F   UNL A   1      38.793  29.784  26.803  1.00  0.00    -0.206 F 
ATOM     76  C   UNL A   1      35.877  30.033  28.936  1.00  0.00     0.006 A 
ENDBRANCH  48  69
BRANCH  60  77
ATOM     77  C   UNL A   1      44.436  32.557  30.792  1.00  0.00     0.057 A 
ATOM     78  C   UNL A   1      44.733  33.532  29.829  1.00  0.00     0.134 A 
ATOM     79  C   UNL A   1      44.417  32.965  32.132  1.00  0.00     0.134 A 
ATOM     80  F   UNL A   1      44.776  33.210  28.526  1.00  0.00    -0.206 F 
ATOM     81  C   UNL A   1      45.061  34.840  30.189  1.00  0.00     0.040 A 
ATOM     82  C   UNL A   1      44.702  34.281  32.501  1.00  0.00     0.040 A 
ATOM     83  F   UNL A   1      44.124  32.093  33.108  1.00  0.00    -0.206 F 
ATOM     84  C   UNL A   1      45.043  35.218  31.529  1.00  0.00     0.006 A 
ENDBRANCH  60  77
ENDBRANCH  34  35
ENDBRANCH  26  29
ENDBRANCH  24  25
ENDBRANCH  23  24
ENDBRANCH   1  23
TORSDOF 13
ENDMDL
MODEL 2
REMARK VINA RESULT:     -12.0      4.184      9.584
REMARK SMILES N#Cc1cccc(C(=O)N2CCC(CC(=O)NCCCNC(=O)c3ccc(-c4c5nc(c(-c6c(F)cccc6F)c6ccc([nH]6)c(-c6c(F)cccc6F)c6nc(c(-c7c(F)cccc7F)c7ccc4[nH]7)C=C6)C=C5)cc3)CC2)c1
REMARK SMILES IDX 18 1 17 2 15 3 16 4 14 6 13 7 8 8 9 9 10 10 11 11 79 12
REMARK SMILES IDX 12 13 78 14 7 15 3 16 4 17 80 18 5 19 6 20 2 21 1 22 19 23
REMARK SMILES IDX 20 24 21 25 22 26 23 28 24 29 25 30 77 31 26 32 76 33 27 34
REMARK SMILES IDX 28 35 29 36 70 37 30 38 75 39 69 40 71 41 31 42 74 43 68 44
REMARK SMILES IDX 67 45 32 47 58 48 41 49 57 50 42 51 45 52 56 53 72 54 43 55
REMARK SMILES IDX 44 56 55 58 73 59 46 60 33 61 34 62 39 63 35 64 36 65 38 66
REMARK SMILES IDX 40 67 37 68 59 69 60 70 65 71 61 72 62 73 64 74 66 75 63 76
REMARK SMILES IDX 47 77 48 78 53 79 49 80 50 81 52 82 54 83 51 84
REMARK H PARENT 17 5 21 27 71 46 45 57
REMARK Flexibility Score: inf
ROOT
ATOM      1  C   UNL A   1      31.201  30.328  25.207  1.00  0.00     0.117 C 
ENDROOT
BRANCH   1   2
ATOM      2  N   UNL A   1      30.241  30.107  24.130  1.00  0.00    -0.356 N 
ATOM      3  C   UNL A   1      30.316  29.395  22.966  1.00  0.00     0.220 C 
ATOM      4  O   UNL A   1      29.310  29.361  22.253  1.00  0.00    -0.275 OA
ATOM      5  H   UNL A   1      29.375  30.556  24.268  1.00  0.00     0.163 HD
BRANCH   3   6
ATOM      6  C   UNL A   1      31.595  28.681  22.531  1.00  0.00     0.103 C 
BRANCH   6   7
ATOM      7  C   UNL A   1      32.048  27.550  23.484  1.00  0.00     0.002 C 
ATOM      8  C   UNL A   1      33.722  23.853  22.868  1.00  0.00     0.253 C 
ATOM      9  O   UNL A   1      33.649  23.822  21.646  1.00  0.00    -0.269 OA
ATOM     10  N   UNL A   1      33.210  24.884  23.632  1.00  0.00    -0.339 N 
ATOM     11  C   UNL A   1      31.785  25.000  23.771  1.00  0.00     0.120 C 
ATOM     12  C   UNL A   1      34.009  26.011  24.082  1.00  0.00     0.120 C 
ATOM     13  C   UNL A   1      31.306  26.272  23.128  1.00  0.00     0.026 C 
ATOM     14  C   UNL A   1      33.573  27.323  23.418  1.00  0.00     0.026 C 
BRANCH   8  15
ATOM     15  C   UNL A   1      34.204  22.676  23.651  1.00  0.00     0.041 A 
ATOM     16  C   UNL A   1      33.813  20.479  24.611  1.00  0.00     0.053 A 
ATOM     17  C   UNL A   1      35.154  20.410  24.995  1.00  0.00     0.019 A 
ATOM     18  C   UNL A   1      33.343  21.610  23.942  1.00  0.00     0.033 A 
ATOM     19  C   UNL A   1      36.019  21.469  24.707  1.00  0.00     0.002 A 
ATOM     20  C   UNL A   1      35.548  22.600  24.035  1.00  0.00     0.014 A 
BRANCH  16  21
ATOM     21  C   UNL A   1      32.911  19.400  24.876  1.00  0.00     0.099 C 
ATOM     22  N   UNL A   1      32.152  18.540  25.069  1.00  0.00    -0.192 NA
ENDBRANCH  16  21
ENDBRANCH   8  15
ENDBRANCH   6   7
ENDBRANCH   3   6
ENDBRANCH   1   2
BRANCH   1  23
ATOM     23  C   UNL A   1      31.031  31.683  25.913  1.00  0.00     0.042 C 
BRANCH  23  24
ATOM     24  C   UNL A   1      32.109  32.009  26.930  1.00  0.00     0.118 C 
BRANCH  24  25
ATOM     25  N   UNL A   1      32.147  33.430  27.197  1.00  0.00    -0.352 N 
ATOM     26  C   UNL A   1      32.909  34.124  28.103  1.00  0.00     0.251 C 
ATOM     27  H   UNL A   1      31.540  33.979  26.651  1.00  0.00     0.163 HD
ATOM     28  O   UNL A   1      32.542  35.245  28.446  1.00  0.00    -0.269 OA
BRANCH  26  29
ATOM     29  C   UNL A   1      34.158  33.555  28.669  1.00  0.00     0.039 A 
ATOM     30  C   UNL A   1      34.062  32.377  29.414  1.00  0.00     0.014 A 
ATOM     31  C   UNL A   1      35.397  34.193  28.553  1.00  0.00     0.014 A 
ATOM     32  C   UNL A   1      35.197  31.844  30.026  1.00  0.00     0.010 A 
ATOM     33  C   UNL A   1      36.550  33.600  29.069  1.00  0.00     0.010 A 
ATOM     34  C   UNL A   1      36.459  32.435  29.840  1.00  0.00    -0.014 A 
BRANCH  34  35
ATOM     35  C   UNL A   1      37.662  31.823  30.463  1.00  0.00     0.031 A 
ATOM     36  C   UNL A   1      38.082  32.176  31.864  1.00  0.00     0.074 A 
ATOM     37  C   UNL A   1      38.373  30.923  29.757  1.00  0.00     0.049 A 
ATOM     38  N   UNL A   1      39.042  31.661  32.591  1.00  0.00    -0.248 NA
ATOM     39  C   UNL A   1      37.349  33.263  32.527  1.00  0.00     0.031 C 
ATOM     40  C   UNL A   1      38.110  30.549  28.367  1.00  0.00     0.029 A 
ATOM     41  N   UNL A   1      39.446  30.148  30.114  1.00  0.00    -0.354 N 
ATOM     42  C   UNL A   1      39.020  32.354  33.796  1.00  0.00     0.074 A 
ATOM     43  C   UNL A   1      38.008  33.379  33.669  1.00  0.00     0.031 C 
ATOM     44  C   UNL A   1      38.960  29.576  28.006  1.00  0.00     0.029 A 
ATOM     45  C   UNL A   1      39.857  29.294  29.121  1.00  0.00     0.049 A 
ATOM     46  H   UNL A   1      39.879  30.198  30.997  1.00  0.00     0.167 HD
ATOM     47  C   UNL A   1      39.754  32.139  34.916  1.00  0.00     0.037 A 
ATOM     48  C   UNL A   1      40.845  28.381  29.106  1.00  0.00     0.037 A 
ATOM     49  C   UNL A   1      40.776  31.127  35.026  1.00  0.00     0.049 A 
ATOM     50  C   UNL A   1      41.655  28.163  30.351  1.00  0.00     0.074 A 
ATOM     51  C   UNL A   1      41.555  30.802  36.124  1.00  0.00     0.029 A 
ATOM     52  N   UNL A   1      41.177  30.290  33.994  1.00  0.00    -0.354 N 
ATOM     53  N   UNL A   1      41.570  28.770  31.511  1.00  0.00    -0.248 NA
ATOM     54  C   UNL A   1      42.687  27.122  30.290  1.00  0.00     0.031 C 
ATOM     55  C   UNL A   1      42.473  29.819  35.734  1.00  0.00     0.029 A 
ATOM     56  C   UNL A   1      42.213  29.472  34.417  1.00  0.00     0.049 A 
ATOM     57  H   UNL A   1      40.783  30.279  33.092  1.00  0.00     0.167 HD
ATOM     58  C   UNL A   1      42.525  28.174  32.325  1.00  0.00     0.074 A 
ATOM     59  C   UNL A   1      43.152  27.136  31.530  1.00  0.00     0.031 C 
ATOM     60  C   UNL A   1      42.852  28.459  33.611  1.00  0.00     0.037 A 
BRANCH  47  61
ATOM     61  C   UNL A   1      39.482  33.033  36.097  1.00  0.00     0.057 A 
ATOM     62  C   UNL A   1      40.180  34.233  36.300  1.00  0.00     0.134 A 
ATOM     63  C   UNL A   1      38.514  32.690  37.051  1.00  0.00     0.134 A 
ATOM     64  F   UNL A   1      41.127  34.626  35.433  1.00  0.00    -0.206 F 
ATOM     65  C   UNL A   1      39.964  35.028  37.429  1.00  0.00     0.040 A 
ATOM     66  C   UNL A   1      38.261  33.496  38.163  1.00  0.00     0.040 A 
ATOM     67  F   UNL A   1      37.797  31.564  36.920  1.00  0.00    -0.206 F 
ATOM     68  C   UNL A   1      38.998  34.661  38.362  1.00  0.00     0.006 A 
ENDBRANCH  47  61
BRANCH  48  69
ATOM     69  C   UNL A   1      41.099  27.601  27.869  1.00  0.00     0.057 A 
ATOM     70  C   UNL A   1      41.938  28.081  26.857  1.00  0.00     0.134 A 
ATOM     71  C   UNL A   1      40.530  26.334  27.686  1.00  0.00     0.134 A 
ATOM     72  F   UNL A   1      42.504  29.293  26.964  1.00  0.00    -0.206 F 
ATOM     73  C   UNL A   1      42.193  27.335  25.704  1.00  0.00     0.040 A 
ATOM     74  C   UNL A   1      40.801  25.565  26.554  1.00  0.00     0.040 A 
ATOM     75  F   UNL A   1      39.727  25.812  28.626  1.00  0.00    -0.206 F 
ATOM     76  C   UNL A   1      41.630  26.069  25.556  1.00  0.00     0.006 A 
ENDBRANCH  48  69
BRANCH  60  77
ATOM     77  C   UNL A   1      43.926  27.610  34.239  1.00  0.00     0.057 A 
ATOM     78  C   UNL A   1      43.639  26.401  34.888  1.00  0.00     0.134 A 
ATOM     79  C   UNL A   1      45.265  28.021  34.211  1.00  0.00     0.134 A 
ATOM     80  F   UNL A   1      42.377  25.949  34.960  1.00  0.00    -0.206 F 
ATOM     81  C   UNL A   1      44.633  25.665  35.536  1.00  0.00     0.040 A 
ATOM     82  C   UNL A   1      46.273  27.272  34.820  1.00  0.00     0.040 A 
ATOM     83  F   UNL A   1      45.618  29.159  33.594  1.00  0.00    -0.206 F 
ATOM     84  C   UNL A   1      45.956  26.099  35.501  1.00  0.00     0.006 A 
ENDBRANCH  60  77
ENDBRANCH  34  35
ENDBRANCH  26  29
ENDBRANCH  24  25
ENDBRANCH  23  24
ENDBRANCH   1  23
TORSDOF 13
ENDMDL
MODEL 3
REMARK VINA RESULT:     -11.9      3.809      9.411
REMARK SMILES N#Cc1cccc(C(=O)N2CCC(CC(=O)NCCCNC(=O)c3ccc(-c4c5nc(c(-c6c(F)cccc6F)c6ccc([nH]6)c(-c6c(F)cccc6F)c6nc(c(-c7c(F)cccc7F)c7ccc4[nH]7)C=C6)C=C5)cc3)CC2)c1
REMARK SMILES IDX 18 1 17 2 15 3 16 4 14 6 13 7 8 8 9 9 10 10 11 11 79 12
REMARK SMILES IDX 12 13 78 14 7 15 3 16 4 17 80 18 5 19 6 20 2 21 1 22 19 23
REMARK SMILES IDX 20 24 21 25 22 26 23 28 24 29 25 30 77 31 26 32 76 33 27 34
REMARK SMILES IDX 28 35 29 36 70 37 30 38 75 39 69 40 71 41 31 42 74 43 68 44
REMARK SMILES IDX 67 45 32 47 58 48 41 49 57 50 42 51 45 52 56 53 72 54 43 55
REMARK SMILES IDX 44 56 55 58 73 59 46 60 33 61 34 62 39 63 35 64 36 65 38 66
REMARK SMILES IDX 40 67 37 68 59 69 60 70 65 71 61 72 62 73 64 74 66 75 63 76
REMARK SMILES IDX 47 77 48 78 53 79 49 80 50 81 52 82 54 83 51 84
REMARK H PARENT 17 5 21 27 71 46 45 57
REMARK Flexibility Score: inf
ROOT
ATOM      1  C   UNL A   1      31.351  30.451  25.283  1.00  0.00     0.117 C 
ENDROOT
BRANCH   1   2
ATOM      2  N   UNL A   1      30.321  30.186  24.283  1.00  0.00    -0.356 N 
ATOM      3  C   UNL A   1      30.316  29.421  23.150  1.00  0.00     0.220 C 
ATOM      4  O   UNL A   1      29.265  29.360  22.509  1.00  0.00    -0.275 OA
ATOM      5  H   UNL A   1      29.467  30.646  24.458  1.00  0.00     0.163 HD
BRANCH   3   6
ATOM      6  C   UNL A   1      31.562  28.681  22.665  1.00  0.00     0.103 C 
BRANCH   6   7
ATOM      7  C   UNL A   1      32.032  27.543  23.602  1.00  0.00     0.002 C 
ATOM      8  C   UNL A   1      33.720  23.861  22.934  1.00  0.00     0.253 C 
ATOM      9  O   UNL A   1      33.633  23.842  21.713  1.00  0.00    -0.269 OA
ATOM     10  N   UNL A   1      33.210  24.882  23.713  1.00  0.00    -0.339 N 
ATOM     11  C   UNL A   1      31.786  24.989  23.869  1.00  0.00     0.120 C 
ATOM     12  C   UNL A   1      34.007  26.010  24.165  1.00  0.00     0.120 C 
ATOM     13  C   UNL A   1      31.293  26.264  23.243  1.00  0.00     0.026 C 
ATOM     14  C   UNL A   1      33.557  27.326  23.518  1.00  0.00     0.026 C 
BRANCH   8  15
ATOM     15  C   UNL A   1      34.217  22.681  23.701  1.00  0.00     0.041 A 
ATOM     16  C   UNL A   1      33.832  20.496  24.691  1.00  0.00     0.053 A 
ATOM     17  C   UNL A   1      35.188  20.404  25.012  1.00  0.00     0.019 A 
ATOM     18  C   UNL A   1      33.351  21.632  24.038  1.00  0.00     0.033 A 
ATOM     19  C   UNL A   1      36.058  21.446  24.677  1.00  0.00     0.002 A 
ATOM     20  C   UNL A   1      35.575  22.582  24.022  1.00  0.00     0.014 A 
BRANCH  16  21
ATOM     21  C   UNL A   1      32.924  19.435  25.005  1.00  0.00     0.099 C 
ATOM     22  N   UNL A   1      32.209  18.550  25.243  1.00  0.00    -0.192 NA
ENDBRANCH  16  21
ENDBRANCH   8  15
ENDBRANCH   6   7
ENDBRANCH   3   6
ENDBRANCH   1   2
BRANCH   1  23
ATOM     23  C   UNL A   1      31.081  31.709  26.124  1.00  0.00     0.042 C 
BRANCH  23  24
ATOM     24  C   UNL A   1      32.192  32.077  27.090  1.00  0.00     0.118 C 
BRANCH  24  25
ATOM     25  N   UNL A   1      32.207  33.503  27.332  1.00  0.00    -0.352 N 
ATOM     26  C   UNL A   1      32.941  34.223  28.240  1.00  0.00     0.251 C 
ATOM     27  H   UNL A   1      31.603  34.034  26.765  1.00  0.00     0.163 HD
ATOM     28  O   UNL A   1      32.554  35.345  28.557  1.00  0.00    -0.269 OA
BRANCH  26  29
ATOM     29  C   UNL A   1      34.187  33.680  28.840  1.00  0.00     0.039 A 
ATOM     30  C   UNL A   1      35.408  34.095  28.303  1.00  0.00     0.014 A 
ATOM     31  C   UNL A   1      34.177  32.717  29.855  1.00  0.00     0.014 A 
ATOM     32  C   UNL A   1      36.602  33.557  28.785  1.00  0.00     0.010 A 
ATOM     33  C   UNL A   1      35.373  32.265  30.413  1.00  0.00     0.010 A 
ATOM     34  C   UNL A   1      36.600  32.655  29.863  1.00  0.00    -0.014 A 
BRANCH  34  35
ATOM     35  C   UNL A   1      37.887  32.131  30.392  1.00  0.00     0.031 A 
ATOM     36  C   UNL A   1      38.510  32.700  31.637  1.00  0.00     0.074 A 
ATOM     37  C   UNL A   1      38.490  31.115  29.746  1.00  0.00     0.049 A 
ATOM     38  N   UNL A   1      39.572  32.294  32.288  1.00  0.00    -0.248 NA
ATOM     39  C   UNL A   1      37.877  33.894  32.215  1.00  0.00     0.031 C 
ATOM     40  C   UNL A   1      38.025  30.523  28.490  1.00  0.00     0.029 A 
ATOM     41  N   UNL A   1      39.610  30.390  30.061  1.00  0.00    -0.354 N 
ATOM     42  C   UNL A   1      39.726  33.175  33.352  1.00  0.00     0.074 A 
ATOM     43  C   UNL A   1      38.699  34.184  33.211  1.00  0.00     0.031 C 
ATOM     44  C   UNL A   1      38.818  29.490  28.172  1.00  0.00     0.029 A 
ATOM     45  C   UNL A   1      39.874  29.378  29.172  1.00  0.00     0.049 A 
ATOM     46  H   UNL A   1      40.171  30.577  30.849  1.00  0.00     0.167 HD
ATOM     47  C   UNL A   1      40.621  33.133  34.370  1.00  0.00     0.037 A 
ATOM     48  C   UNL A   1      40.855  28.457  29.160  1.00  0.00     0.037 A 
ATOM     49  C   UNL A   1      41.656  32.136  34.491  1.00  0.00     0.049 A 
ATOM     50  C   UNL A   1      41.844  28.432  30.289  1.00  0.00     0.074 A 
ATOM     51  C   UNL A   1      42.592  31.980  35.499  1.00  0.00     0.029 A 
ATOM     52  N   UNL A   1      41.903  31.133  33.562  1.00  0.00    -0.354 N 
ATOM     53  N   UNL A   1      41.930  29.222  31.333  1.00  0.00    -0.248 NA
ATOM     54  C   UNL A   1      42.862  27.376  30.246  1.00  0.00     0.031 C 
ATOM     55  C   UNL A   1      43.448  30.930  35.143  1.00  0.00     0.029 A 
ATOM     56  C   UNL A   1      42.997  30.378  33.955  1.00  0.00     0.049 A 
ATOM     57  H   UNL A   1      41.378  30.982  32.743  1.00  0.00     0.167 HD
ATOM     58  C   UNL A   1      43.000  28.750  32.081  1.00  0.00     0.074 A 
ATOM     59  C   UNL A   1      43.508  27.585  31.383  1.00  0.00     0.031 C 
ATOM     60  C   UNL A   1      43.514  29.235  33.240  1.00  0.00     0.037 A 
BRANCH  47  61
ATOM     61  C   UNL A   1      40.523  34.213  35.415  1.00  0.00     0.057 A 
ATOM     62  C   UNL A   1      39.718  34.075  36.556  1.00  0.00     0.134 A 
ATOM     63  C   UNL A   1      41.237  35.411  35.281  1.00  0.00     0.134 A 
ATOM     64  F   UNL A   1      38.999  32.958  36.751  1.00  0.00    -0.206 F 
ATOM     65  C   UNL A   1      39.585  35.104  37.492  1.00  0.00     0.040 A 
ATOM     66  C   UNL A   1      41.143  36.432  36.230  1.00  0.00     0.040 A 
ATOM     67  F   UNL A   1      42.037  35.613  34.224  1.00  0.00    -0.206 F 
ATOM     68  C   UNL A   1      40.303  36.286  37.332  1.00  0.00     0.006 A 
ENDBRANCH  47  61
BRANCH  48  69
ATOM     69  C   UNL A   1      40.926  27.481  28.043  1.00  0.00     0.057 A 
ATOM     70  C   UNL A   1      40.285  26.240  28.110  1.00  0.00     0.134 A 
ATOM     71  C   UNL A   1      41.616  27.787  26.863  1.00  0.00     0.134 A 
ATOM     72  F   UNL A   1      39.619  25.880  29.218  1.00  0.00    -0.206 F 
ATOM     73  C   UNL A   1      40.335  25.333  27.049  1.00  0.00     0.040 A 
ATOM     74  C   UNL A   1      41.648  26.904  25.783  1.00  0.00     0.040 A 
ATOM     75  F   UNL A   1      42.241  28.967  26.731  1.00  0.00    -0.206 F 
ATOM     76  C   UNL A   1      41.011  25.670  25.877  1.00  0.00     0.006 A 
ENDBRANCH  48  69
BRANCH  60  77
ATOM     77  C   UNL A   1      44.676  28.482  33.832  1.00  0.00     0.057 A 
ATOM     78  C   UNL A   1      46.008  28.830  33.563  1.00  0.00     0.134 A 
ATOM     79  C   UNL A   1      44.458  27.380  34.668  1.00  0.00     0.134 A 
ATOM     80  F   UNL A   1      46.292  29.871  32.764  1.00  0.00    -0.206 F 
ATOM     81  C   UNL A   1      47.074  28.074  34.053  1.00  0.00     0.040 A 
ATOM     82  C   UNL A   1      45.517  26.641  35.198  1.00  0.00     0.040 A 
ATOM     83  F   UNL A   1      43.211  26.998  34.984  1.00  0.00    -0.206 F 
ATOM     84  C   UNL A   1      46.830  26.976  34.875  1.00  0.00     0.006 A 
ENDBRANCH  60  77
ENDBRANCH  34  35
ENDBRANCH  26  29
ENDBRANCH  24  25
ENDBRANCH  23  24
ENDBRANCH   1  23
TORSDOF 13
ENDMDL
