MODEL 1
REMARK VINA RESULT:     -12.2      0.000      0.000
REMARK SMILES COc1cccc(NC(=O)[C@@H]2[C@@H](C(=O)NCCCNC(=O)c3ccc(-c4c5nc(c(-c6c(F)cccc6F)c6ccc([nH]6)c(-c6c(F)cccc6F)c6nc(c(-c7c(F)cccc7F)c7ccc4[nH]7)C=C6)C=C5)cc3)[C@H]3C=C[C@@H]2C3)c1
REMARK SMILES IDX 16 1 15 2 13 3 14 4 12 6 11 7 79 8 76 9 78 10 80 11 77 12
REMARK SMILES IDX 9 13 8 14 10 16 7 17 3 18 4 19 81 20 5 21 6 22 2 23 1 24
REMARK SMILES IDX 17 25 18 26 19 27 20 28 21 30 22 31 23 32 75 33 24 34 74 35
REMARK SMILES IDX 25 36 26 37 27 38 68 39 28 40 73 41 67 42 69 43 29 44 72 45
REMARK SMILES IDX 66 46 65 47 30 49 56 50 39 51 55 52 40 53 43 54 54 55 70 56
REMARK SMILES IDX 41 57 42 58 53 60 71 61 44 62 31 63 32 64 37 65 33 66 34 67
REMARK SMILES IDX 36 68 38 69 35 70 57 71 58 72 63 73 59 74 60 75 62 76 64 77
REMARK SMILES IDX 61 78 45 79 46 80 51 81 47 82 48 83 50 84 52 85 49 86
REMARK H PARENT 15 5 8 15 19 29 69 48 43 59
REMARK Flexibility Score: inf
ROOT
ATOM      1  C   UNL A   1      36.981  20.925  24.732  1.00  0.00     0.117 C 
ENDROOT
BRANCH   1   2
ATOM      2  N   UNL A   1      37.353  22.128  25.430  1.00  0.00    -0.356 N 
ATOM      3  C   UNL A   1      36.647  23.212  25.812  1.00  0.00     0.224 C 
ATOM      4  O   UNL A   1      37.310  24.057  26.432  1.00  0.00    -0.275 OA
ATOM      5  H   UNL A   1      38.306  22.167  25.675  1.00  0.00     0.163 HD
BRANCH   3   6
ATOM      6  C   UNL A   1      35.144  23.443  25.654  1.00  0.00     0.098 C 
ATOM      7  C   UNL A   1      34.428  22.102  25.302  1.00  0.00     0.099 C 
ATOM      8  C   UNL A   1      33.228  22.580  24.444  1.00  0.00     0.025 C 
ATOM      9  C   UNL A   1      34.442  24.451  24.699  1.00  0.00     0.025 C 
ATOM     10  C   UNL A   1      33.750  22.926  23.081  1.00  0.00    -0.027 C 
ATOM     11  C   UNL A   1      32.993  24.013  24.964  1.00  0.00     0.017 C 
ATOM     12  C   UNL A   1      34.432  24.067  23.224  1.00  0.00    -0.027 C 
BRANCH   7  13
ATOM     13  C   UNL A   1      33.861  21.304  26.453  1.00  0.00     0.228 C 
ATOM     14  N   UNL A   1      33.270  20.086  26.235  1.00  0.00    -0.326 N 
ATOM     15  H   UNL A   1      32.827  19.733  27.040  1.00  0.00     0.169 HD
ATOM     16  O   UNL A   1      33.807  21.765  27.596  1.00  0.00    -0.274 OA
BRANCH  14  17
ATOM     17  C   UNL A   1      33.149  19.216  25.126  1.00  0.00     0.044 A 
ATOM     18  C   UNL A   1      33.815  17.077  24.160  1.00  0.00     0.120 A 
ATOM     19  C   UNL A   1      33.128  17.369  22.988  1.00  0.00     0.046 A 
ATOM     20  C   UNL A   1      33.844  17.998  25.213  1.00  0.00     0.072 A 
ATOM     21  C   UNL A   1      32.433  18.565  22.888  1.00  0.00     0.006 A 
ATOM     22  C   UNL A   1      32.444  19.477  23.949  1.00  0.00     0.026 A 
BRANCH  18  23
ATOM     23  O   UNL A   1      34.506  15.896  24.172  1.00  0.00    -0.497 OA
ATOM     24  C   UNL A   1      35.391  15.778  25.283  1.00  0.00     0.278 C 
ENDBRANCH  18  23
ENDBRANCH  14  17
ENDBRANCH   7  13
ENDBRANCH   3   6
ENDBRANCH   1   2
BRANCH   1  25
ATOM     25  C   UNL A   1      37.964  19.785  24.928  1.00  0.00     0.042 C 
BRANCH  25  26
ATOM     26  C   UNL A   1      38.993  20.054  26.009  1.00  0.00     0.118 C 
BRANCH  26  27
ATOM     27  N   UNL A   1      40.191  19.231  25.865  1.00  0.00    -0.352 N 
ATOM     28  C   UNL A   1      41.526  19.539  25.979  1.00  0.00     0.251 C 
ATOM     29  H   UNL A   1      40.009  18.289  25.646  1.00  0.00     0.163 HD
ATOM     30  O   UNL A   1      42.365  18.715  25.622  1.00  0.00    -0.269 OA
BRANCH  28  31
ATOM     31  C   UNL A   1      41.967  20.856  26.490  1.00  0.00     0.039 A 
ATOM     32  C   UNL A   1      42.361  21.847  25.584  1.00  0.00     0.014 A 
ATOM     33  C   UNL A   1      42.015  21.121  27.857  1.00  0.00     0.014 A 
ATOM     34  C   UNL A   1      42.702  23.122  26.048  1.00  0.00     0.010 A 
ATOM     35  C   UNL A   1      42.224  22.419  28.307  1.00  0.00     0.010 A 
ATOM     36  C   UNL A   1      42.581  23.435  27.411  1.00  0.00    -0.014 A 
BRANCH  36  37
ATOM     37  C   UNL A   1      42.838  24.802  27.937  1.00  0.00     0.031 A 
ATOM     38  C   UNL A   1      44.227  25.189  28.373  1.00  0.00     0.074 A 
ATOM     39  C   UNL A   1      41.813  25.657  28.120  1.00  0.00     0.049 A 
ATOM     40  N   UNL A   1      44.631  26.271  28.990  1.00  0.00    -0.248 NA
ATOM     41  C   UNL A   1      45.299  24.210  28.124  1.00  0.00     0.031 C 
ATOM     42  C   UNL A   1      40.410  25.384  27.799  1.00  0.00     0.029 A 
ATOM     43  N   UNL A   1      41.792  26.929  28.637  1.00  0.00    -0.354 N 
ATOM     44  C   UNL A   1      45.986  26.083  29.234  1.00  0.00     0.074 A 
ATOM     45  C   UNL A   1      46.325  24.762  28.753  1.00  0.00     0.031 C 
ATOM     46  C   UNL A   1      39.671  26.466  28.097  1.00  0.00     0.029 A 
ATOM     47  C   UNL A   1      40.538  27.490  28.670  1.00  0.00     0.049 A 
ATOM     48  H   UNL A   1      42.599  27.395  28.953  1.00  0.00     0.167 HD
ATOM     49  C   UNL A   1      46.878  26.942  29.782  1.00  0.00     0.037 A 
ATOM     50  C   UNL A   1      40.131  28.692  29.120  1.00  0.00     0.037 A 
ATOM     51  C   UNL A   1      46.553  28.277  30.206  1.00  0.00     0.049 A 
ATOM     52  C   UNL A   1      41.145  29.644  29.690  1.00  0.00     0.074 A 
ATOM     53  C   UNL A   1      47.397  29.255  30.701  1.00  0.00     0.029 A 
ATOM     54  N   UNL A   1      45.279  28.824  30.175  1.00  0.00    -0.354 N 
ATOM     55  N   UNL A   1      42.434  29.475  29.856  1.00  0.00    -0.248 NA
ATOM     56  C   UNL A   1      40.648  30.955  30.130  1.00  0.00     0.031 C 
ATOM     57  C   UNL A   1      46.629  30.385  30.999  1.00  0.00     0.029 A 
ATOM     58  C   UNL A   1      45.314  30.124  30.651  1.00  0.00     0.049 A 
ATOM     59  H   UNL A   1      44.471  28.359  29.860  1.00  0.00     0.167 HD
ATOM     60  C   UNL A   1      42.908  30.666  30.390  1.00  0.00     0.074 A 
ATOM     61  C   UNL A   1      41.768  31.553  30.511  1.00  0.00     0.031 C 
ATOM     62  C   UNL A   1      44.172  30.997  30.748  1.00  0.00     0.037 A 
BRANCH  49  63
ATOM     63  C   UNL A   1      48.294  26.467  29.935  1.00  0.00     0.057 A 
ATOM     64  C   UNL A   1      48.725  25.784  31.082  1.00  0.00     0.134 A 
ATOM     65  C   UNL A   1      49.232  26.671  28.917  1.00  0.00     0.134 A 
ATOM     66  F   UNL A   1      47.879  25.568  32.101  1.00  0.00    -0.206 F 
ATOM     67  C   UNL A   1      50.044  25.352  31.223  1.00  0.00     0.040 A 
ATOM     68  C   UNL A   1      50.547  26.218  29.034  1.00  0.00     0.040 A 
ATOM     69  F   UNL A   1      48.887  27.311  27.789  1.00  0.00    -0.206 F 
ATOM     70  C   UNL A   1      50.959  25.563  30.193  1.00  0.00     0.006 A 
ENDBRANCH  49  63
BRANCH  50  71
ATOM     71  C   UNL A   1      38.702  29.081  29.014  1.00  0.00     0.057 A 
ATOM     72  C   UNL A   1      38.176  29.566  27.812  1.00  0.00     0.134 A 
ATOM     73  C   UNL A   1      37.830  28.980  30.106  1.00  0.00     0.134 A 
ATOM     74  F   UNL A   1      38.966  29.701  26.736  1.00  0.00    -0.206 F 
ATOM     75  C   UNL A   1      36.841  29.957  27.700  1.00  0.00     0.040 A 
ATOM     76  C   UNL A   1      36.486  29.345  30.003  1.00  0.00     0.040 A 
ATOM     77  F   UNL A   1      38.269  28.512  31.283  1.00  0.00    -0.206 F 
ATOM     78  C   UNL A   1      35.990  29.843  28.798  1.00  0.00     0.006 A 
ENDBRANCH  50  71
BRANCH  62  79
ATOM     79  C   UNL A   1      44.400  32.387  31.261  1.00  0.00     0.057 A 
ATOM     80  C   UNL A   1      44.675  33.456  30.402  1.00  0.00     0.134 A 
ATOM     81  C   UNL A   1      44.292  32.664  32.630  1.00  0.00     0.134 A 
ATOM     82  F   UNL A   1      44.803  33.253  29.082  1.00  0.00    -0.206 F 
ATOM     83  C   UNL A   1      44.855  34.752  30.888  1.00  0.00     0.040 A 
ATOM     84  C   UNL A   1      44.445  33.958  33.126  1.00  0.00     0.040 A 
ATOM     85  F   UNL A   1      44.021  31.683  33.504  1.00  0.00    -0.206 F 
ATOM     86  C   UNL A   1      44.732  35.006  32.253  1.00  0.00     0.006 A 
ENDBRANCH  62  79
ENDBRANCH  36  37
ENDBRANCH  28  31
ENDBRANCH  26  27
ENDBRANCH  25  26
ENDBRANCH   1  25
TORSDOF 13
ENDMDL
MODEL 2
REMARK VINA RESULT:     -12.2      5.425      9.703
REMARK SMILES COc1cccc(NC(=O)[C@@H]2[C@@H](C(=O)NCCCNC(=O)c3ccc(-c4c5nc(c(-c6c(F)cccc6F)c6ccc([nH]6)c(-c6c(F)cccc6F)c6nc(c(-c7c(F)cccc7F)c7ccc4[nH]7)C=C6)C=C5)cc3)[C@H]3C=C[C@@H]2C3)c1
REMARK SMILES IDX 16 1 15 2 13 3 14 4 12 6 11 7 79 8 76 9 78 10 80 11 77 12
REMARK SMILES IDX 9 13 8 14 10 16 7 17 3 18 4 19 81 20 5 21 6 22 2 23 1 24
REMARK SMILES IDX 17 25 18 26 19 27 20 28 21 30 22 31 23 32 75 33 24 34 74 35
REMARK SMILES IDX 25 36 26 37 27 38 68 39 28 40 73 41 67 42 69 43 29 44 72 45
REMARK SMILES IDX 66 46 65 47 30 49 56 50 39 51 55 52 40 53 43 54 54 55 70 56
REMARK SMILES IDX 41 57 42 58 53 60 71 61 44 62 31 63 32 64 37 65 33 66 34 67
REMARK SMILES IDX 36 68 38 69 35 70 57 71 58 72 63 73 59 74 60 75 62 76 64 77
REMARK SMILES IDX 61 78 45 79 46 80 51 81 47 82 48 83 50 84 52 85 49 86
REMARK H PARENT 15 5 8 15 19 29 69 48 43 59
REMARK Flexibility Score: inf
ROOT
ATOM      1  C   UNL A   1      31.626  30.200  26.835  1.00  0.00     0.117 C 
ENDROOT
BRANCH   1   2
ATOM      2  N   UNL A   1      33.045  29.997  26.974  1.00  0.00    -0.356 N 
ATOM      3  C   UNL A   1      33.879  29.054  26.489  1.00  0.00     0.224 C 
ATOM      4  O   UNL A   1      35.068  29.221  26.799  1.00  0.00    -0.275 OA
ATOM      5  H   UNL A   1      33.491  30.677  27.528  1.00  0.00     0.163 HD
BRANCH   3   6
ATOM      6  C   UNL A   1      33.531  27.904  25.543  1.00  0.00     0.098 C 
ATOM      7  C   UNL A   1      32.306  28.290  24.657  1.00  0.00     0.099 C 
ATOM      8  C   UNL A   1      31.629  26.917  24.408  1.00  0.00     0.025 C 
ATOM      9  C   UNL A   1      33.206  26.433  25.930  1.00  0.00     0.025 C 
ATOM     10  C   UNL A   1      30.896  26.536  25.659  1.00  0.00    -0.027 C 
ATOM     11  C   UNL A   1      32.811  25.933  24.532  1.00  0.00     0.017 C 
ATOM     12  C   UNL A   1      31.833  26.200  26.551  1.00  0.00    -0.027 C 
BRANCH   7  13
ATOM     13  C   UNL A   1      32.601  28.892  23.302  1.00  0.00     0.228 C 
ATOM     14  N   UNL A   1      31.582  29.319  22.490  1.00  0.00    -0.326 N 
ATOM     15  H   UNL A   1      31.896  29.564  21.590  1.00  0.00     0.169 HD
ATOM     16  O   UNL A   1      33.744  28.913  22.839  1.00  0.00    -0.274 OA
BRANCH  14  17
ATOM     17  C   UNL A   1      30.186  29.489  22.642  1.00  0.00     0.044 A 
ATOM     18  C   UNL A   1      28.368  31.098  22.895  1.00  0.00     0.120 A 
ATOM     19  C   UNL A   1      27.449  30.066  23.041  1.00  0.00     0.046 A 
ATOM     20  C   UNL A   1      29.727  30.816  22.717  1.00  0.00     0.072 A 
ATOM     21  C   UNL A   1      27.884  28.752  22.964  1.00  0.00     0.006 A 
ATOM     22  C   UNL A   1      29.240  28.470  22.764  1.00  0.00     0.026 A 
BRANCH  18  23
ATOM     23  O   UNL A   1      27.872  32.367  23.017  1.00  0.00    -0.497 OA
ATOM     24  C   UNL A   1      28.886  33.367  23.014  1.00  0.00     0.278 C 
ENDBRANCH  18  23
ENDBRANCH  14  17
ENDBRANCH   7  13
ENDBRANCH   3   6
ENDBRANCH   1   2
BRANCH   1  25
ATOM     25  C   UNL A   1      31.232  31.662  26.742  1.00  0.00     0.042 C 
BRANCH  25  26
ATOM     26  C   UNL A   1      32.408  32.591  26.514  1.00  0.00     0.118 C 
BRANCH  26  27
ATOM     27  N   UNL A   1      32.282  33.850  27.244  1.00  0.00    -0.352 N 
ATOM     28  C   UNL A   1      32.978  34.354  28.317  1.00  0.00     0.251 C 
ATOM     29  H   UNL A   1      31.571  34.442  26.908  1.00  0.00     0.163 HD
ATOM     30  O   UNL A   1      32.562  35.362  28.884  1.00  0.00    -0.269 OA
BRANCH  28  31
ATOM     31  C   UNL A   1      34.198  33.685  28.821  1.00  0.00     0.039 A 
ATOM     32  C   UNL A   1      35.444  34.291  28.627  1.00  0.00     0.014 A 
ATOM     33  C   UNL A   1      34.131  32.454  29.470  1.00  0.00     0.014 A 
ATOM     34  C   UNL A   1      36.596  33.711  29.170  1.00  0.00     0.010 A 
ATOM     35  C   UNL A   1      35.250  31.948  30.120  1.00  0.00     0.010 A 
ATOM     36  C   UNL A   1      36.499  32.562  29.970  1.00  0.00    -0.014 A 
BRANCH  36  37
ATOM     37  C   UNL A   1      37.681  31.965  30.647  1.00  0.00     0.031 A 
ATOM     38  C   UNL A   1      38.484  30.896  29.953  1.00  0.00     0.074 A 
ATOM     39  C   UNL A   1      37.972  32.305  31.919  1.00  0.00     0.049 A 
ATOM     40  N   UNL A   1      39.452  30.150  30.422  1.00  0.00    -0.248 NA
ATOM     41  C   UNL A   1      38.119  30.592  28.559  1.00  0.00     0.031 C 
ATOM     42  C   UNL A   1      37.236  33.280  32.728  1.00  0.00     0.029 A 
ATOM     43  N   UNL A   1      38.958  31.855  32.761  1.00  0.00    -0.354 N 
ATOM     44  C   UNL A   1      39.781  29.270  29.398  1.00  0.00     0.074 A 
ATOM     45  C   UNL A   1      38.871  29.533  28.304  1.00  0.00     0.031 C 
ATOM     46  C   UNL A   1      37.815  33.376  33.937  1.00  0.00     0.029 A 
ATOM     47  C   UNL A   1      38.933  32.440  34.004  1.00  0.00     0.049 A 
ATOM     48  H   UNL A   1      39.622  31.177  32.498  1.00  0.00     0.167 HD
ATOM     49  C   UNL A   1      40.769  28.346  29.357  1.00  0.00     0.037 A 
ATOM     50  C   UNL A   1      39.717  32.239  35.079  1.00  0.00     0.037 A 
ATOM     51  C   UNL A   1      41.710  28.125  30.422  1.00  0.00     0.049 A 
ATOM     52  C   UNL A   1      40.831  31.234  34.998  1.00  0.00     0.074 A 
ATOM     53  C   UNL A   1      42.796  27.269  30.450  1.00  0.00     0.029 A 
ATOM     54  N   UNL A   1      41.680  28.777  31.645  1.00  0.00    -0.354 N 
ATOM     55  N   UNL A   1      41.168  30.455  34.000  1.00  0.00    -0.248 NA
ATOM     56  C   UNL A   1      41.677  31.085  36.191  1.00  0.00     0.031 C 
ATOM     57  C   UNL A   1      43.406  27.379  31.704  1.00  0.00     0.029 A 
ATOM     58  C   UNL A   1      42.723  28.334  32.440  1.00  0.00     0.049 A 
ATOM     59  H   UNL A   1      41.016  29.454  31.909  1.00  0.00     0.167 HD
ATOM     60  C   UNL A   1      42.282  29.745  34.431  1.00  0.00     0.074 A 
ATOM     61  C   UNL A   1      42.569  30.195  35.778  1.00  0.00     0.031 C 
ATOM     62  C   UNL A   1      43.002  28.806  33.772  1.00  0.00     0.037 A 
BRANCH  49  63
ATOM     63  C   UNL A   1      40.892  27.517  28.110  1.00  0.00     0.057 A 
ATOM     64  C   UNL A   1      40.236  26.285  27.975  1.00  0.00     0.134 A 
ATOM     65  C   UNL A   1      41.652  27.965  27.024  1.00  0.00     0.134 A 
ATOM     66  F   UNL A   1      39.503  25.791  28.984  1.00  0.00    -0.206 F 
ATOM     67  C   UNL A   1      40.360  25.514  26.818  1.00  0.00     0.040 A 
ATOM     68  C   UNL A   1      41.760  27.217  25.850  1.00  0.00     0.040 A 
ATOM     69  F   UNL A   1      42.300  29.138  27.083  1.00  0.00    -0.206 F 
ATOM     70  C   UNL A   1      41.119  25.984  25.748  1.00  0.00     0.006 A 
ENDBRANCH  49  63
BRANCH  50  71
ATOM     71  C   UNL A   1      39.501  33.034  36.316  1.00  0.00     0.057 A 
ATOM     72  C   UNL A   1      40.171  34.246  36.516  1.00  0.00     0.134 A 
ATOM     73  C   UNL A   1      38.628  32.604  37.323  1.00  0.00     0.134 A 
ATOM     74  F   UNL A   1      41.032  34.702  35.594  1.00  0.00    -0.206 F 
ATOM     75  C   UNL A   1      39.997  34.995  37.681  1.00  0.00     0.040 A 
ATOM     76  C   UNL A   1      38.427  33.354  38.483  1.00  0.00     0.040 A 
ATOM     77  F   UNL A   1      37.949  31.456  37.187  1.00  0.00    -0.206 F 
ATOM     78  C   UNL A   1      39.119  34.551  38.667  1.00  0.00     0.006 A 
ENDBRANCH  50  71
BRANCH  62  79
ATOM     79  C   UNL A   1      44.196  28.235  34.477  1.00  0.00     0.057 A 
ATOM     80  C   UNL A   1      44.114  27.063  35.238  1.00  0.00     0.134 A 
ATOM     81  C   UNL A   1      45.452  28.842  34.351  1.00  0.00     0.134 A 
ATOM     82  F   UNL A   1      42.937  26.442  35.406  1.00  0.00    -0.206 F 
ATOM     83  C   UNL A   1      45.238  26.524  35.865  1.00  0.00     0.040 A 
ATOM     84  C   UNL A   1      46.586  28.300  34.953  1.00  0.00     0.040 A 
ATOM     85  F   UNL A   1      45.597  29.963  33.629  1.00  0.00    -0.206 F 
ATOM     86  C   UNL A   1      46.480  27.138  35.716  1.00  0.00     0.006 A 
ENDBRANCH  62  79
ENDBRANCH  36  37
ENDBRANCH  28  31
ENDBRANCH  26  27
ENDBRANCH  25  26
ENDBRANCH   1  25
TORSDOF 13
ENDMDL
MODEL 3
REMARK VINA RESULT:     -12.2      1.814      6.885
REMARK SMILES COc1cccc(NC(=O)[C@@H]2[C@@H](C(=O)NCCCNC(=O)c3ccc(-c4c5nc(c(-c6c(F)cccc6F)c6ccc([nH]6)c(-c6c(F)cccc6F)c6nc(c(-c7c(F)cccc7F)c7ccc4[nH]7)C=C6)C=C5)cc3)[C@H]3C=C[C@@H]2C3)c1
REMARK SMILES IDX 16 1 15 2 13 3 14 4 12 6 11 7 79 8 76 9 78 10 80 11 77 12
REMARK SMILES IDX 9 13 8 14 10 16 7 17 3 18 4 19 81 20 5 21 6 22 2 23 1 24
REMARK SMILES IDX 17 25 18 26 19 27 20 28 21 30 22 31 23 32 75 33 24 34 74 35
REMARK SMILES IDX 25 36 26 37 27 38 68 39 28 40 73 41 67 42 69 43 29 44 72 45
REMARK SMILES IDX 66 46 65 47 30 49 56 50 39 51 55 52 40 53 43 54 54 55 70 56
REMARK SMILES IDX 41 57 42 58 53 60 71 61 44 62 31 63 32 64 37 65 33 66 34 67
REMARK SMILES IDX 36 68 38 69 35 70 57 71 58 72 63 73 59 74 60 75 62 76 64 77
REMARK SMILES IDX 61 78 45 79 46 80 51 81 47 82 48 83 50 84 52 85 49 86
REMARK H PARENT 15 5 8 15 19 29 69 48 43 59
REMARK Flexibility Score: inf
ROOT
ATOM      1  C   UNL A   1      37.046  21.067  24.676  1.00  0.00     0.117 C 
ENDROOT
BRANCH   1   2
ATOM      2  N   UNL A   1      35.888  21.104  25.530  1.00  0.00    -0.356 N 
ATOM      3  C   UNL A   1      34.687  20.494  25.460  1.00  0.00     0.224 C 
ATOM      4  O   UNL A   1      33.932  20.746  26.412  1.00  0.00    -0.275 OA
ATOM      5  H   UNL A   1      35.993  21.687  26.317  1.00  0.00     0.163 HD
BRANCH   3   6
ATOM      6  C   UNL A   1      34.223  19.475  24.418  1.00  0.00     0.098 C 
ATOM      7  C   UNL A   1      32.692  19.628  24.161  1.00  0.00     0.099 C 
ATOM      8  C   UNL A   1      32.269  18.181  23.797  1.00  0.00     0.025 C 
ATOM      9  C   UNL A   1      34.395  17.930  24.472  1.00  0.00     0.025 C 
ATOM     10  C   UNL A   1      32.211  17.388  25.068  1.00  0.00    -0.027 C 
ATOM     11  C   UNL A   1      33.571  17.585  23.222  1.00  0.00     0.017 C 
ATOM     12  C   UNL A   1      33.478  17.196  25.445  1.00  0.00    -0.027 C 
BRANCH   7  13
ATOM     13  C   UNL A   1      32.274  20.516  23.012  1.00  0.00     0.228 C 
ATOM     14  N   UNL A   1      32.022  21.848  23.214  1.00  0.00    -0.326 N 
ATOM     15  H   UNL A   1      31.632  22.282  22.421  1.00  0.00     0.169 HD
ATOM     16  O   UNL A   1      32.036  20.055  21.892  1.00  0.00    -0.274 OA
BRANCH  14  17
ATOM     17  C   UNL A   1      32.190  22.746  24.294  1.00  0.00     0.044 A 
ATOM     18  C   UNL A   1      31.200  23.659  26.329  1.00  0.00     0.120 A 
ATOM     19  C   UNL A   1      32.268  24.534  26.480  1.00  0.00     0.046 A 
ATOM     20  C   UNL A   1      31.148  22.786  25.236  1.00  0.00     0.072 A 
ATOM     21  C   UNL A   1      33.307  24.504  25.562  1.00  0.00     0.006 A 
ATOM     22  C   UNL A   1      33.266  23.616  24.481  1.00  0.00     0.026 A 
BRANCH  18  23
ATOM     23  O   UNL A   1      30.197  23.771  27.252  1.00  0.00    -0.497 OA
ATOM     24  C   UNL A   1      29.326  22.643  27.271  1.00  0.00     0.278 C 
ENDBRANCH  18  23
ENDBRANCH  14  17
ENDBRANCH   7  13
ENDBRANCH   3   6
ENDBRANCH   1   2
BRANCH   1  25
ATOM     25  C   UNL A   1      37.979  19.909  24.974  1.00  0.00     0.042 C 
BRANCH  25  26
ATOM     26  C   UNL A   1      39.132  20.282  25.887  1.00  0.00     0.118 C 
BRANCH  26  27
ATOM     27  N   UNL A   1      40.179  19.264  25.916  1.00  0.00    -0.352 N 
ATOM     28  C   UNL A   1      41.540  19.363  26.092  1.00  0.00     0.251 C 
ATOM     29  H   UNL A   1      39.853  18.345  25.787  1.00  0.00     0.163 HD
ATOM     30  O   UNL A   1      42.245  18.378  25.885  1.00  0.00    -0.269 OA
BRANCH  28  31
ATOM     31  C   UNL A   1      42.170  20.642  26.489  1.00  0.00     0.039 A 
ATOM     32  C   UNL A   1      42.685  21.489  25.502  1.00  0.00     0.014 A 
ATOM     33  C   UNL A   1      42.275  21.009  27.829  1.00  0.00     0.014 A 
ATOM     34  C   UNL A   1      43.209  22.737  25.856  1.00  0.00     0.010 A 
ATOM     35  C   UNL A   1      42.672  22.297  28.168  1.00  0.00     0.010 A 
ATOM     36  C   UNL A   1      43.155  23.175  27.189  1.00  0.00    -0.014 A 
BRANCH  36  37
ATOM     37  C   UNL A   1      43.610  24.530  27.597  1.00  0.00     0.031 A 
ATOM     38  C   UNL A   1      42.602  25.563  28.028  1.00  0.00     0.074 A 
ATOM     39  C   UNL A   1      44.910  24.867  27.482  1.00  0.00     0.049 A 
ATOM     40  N   UNL A   1      42.774  26.836  28.281  1.00  0.00    -0.248 NA
ATOM     41  C   UNL A   1      41.204  25.116  28.148  1.00  0.00     0.031 C 
ATOM     42  C   UNL A   1      45.980  23.981  27.016  1.00  0.00     0.029 A 
ATOM     43  N   UNL A   1      45.551  26.054  27.735  1.00  0.00    -0.354 N 
ATOM     44  C   UNL A   1      41.508  27.343  28.549  1.00  0.00     0.074 A 
ATOM     45  C   UNL A   1      40.570  26.256  28.372  1.00  0.00     0.031 C 
ATOM     46  C   UNL A   1      47.147  24.647  27.046  1.00  0.00     0.029 A 
ATOM     47  C   UNL A   1      46.903  26.015  27.490  1.00  0.00     0.049 A 
ATOM     48  H   UNL A   1      45.086  26.858  28.063  1.00  0.00     0.167 HD
ATOM     49  C   UNL A   1      41.158  28.591  28.937  1.00  0.00     0.037 A 
ATOM     50  C   UNL A   1      47.838  26.976  27.602  1.00  0.00     0.037 A 
ATOM     51  C   UNL A   1      42.098  29.655  29.170  1.00  0.00     0.049 A 
ATOM     52  C   UNL A   1      47.432  28.345  28.070  1.00  0.00     0.074 A 
ATOM     53  C   UNL A   1      41.855  30.933  29.639  1.00  0.00     0.029 A 
ATOM     54  N   UNL A   1      43.464  29.558  28.958  1.00  0.00    -0.354 N 
ATOM     55  N   UNL A   1      46.239  28.791  28.380  1.00  0.00    -0.248 NA
ATOM     56  C   UNL A   1      48.502  29.343  28.210  1.00  0.00     0.031 C 
ATOM     57  C   UNL A   1      43.072  31.621  29.683  1.00  0.00     0.029 A 
ATOM     58  C   UNL A   1      44.077  30.757  29.279  1.00  0.00     0.049 A 
ATOM     59  H   UNL A   1      43.930  28.755  28.630  1.00  0.00     0.167 HD
ATOM     60  C   UNL A   1      46.419  30.109  28.780  1.00  0.00     0.074 A 
ATOM     61  C   UNL A   1      47.837  30.387  28.682  1.00  0.00     0.031 C 
ATOM     62  C   UNL A   1      45.492  31.009  29.192  1.00  0.00     0.037 A 
BRANCH  49  63
ATOM     63  C   UNL A   1      39.697  28.867  29.151  1.00  0.00     0.057 A 
ATOM     64  C   UNL A   1      39.094  28.722  30.409  1.00  0.00     0.134 A 
ATOM     65  C   UNL A   1      38.889  29.305  28.096  1.00  0.00     0.134 A 
ATOM     66  F   UNL A   1      39.810  28.292  31.459  1.00  0.00    -0.206 F 
ATOM     67  C   UNL A   1      37.735  28.971  30.600  1.00  0.00     0.040 A 
ATOM     68  C   UNL A   1      37.534  29.585  28.281  1.00  0.00     0.040 A 
ATOM     69  F   UNL A   1      39.402  29.471  26.867  1.00  0.00    -0.206 F 
ATOM     70  C   UNL A   1      36.952  29.411  29.535  1.00  0.00     0.006 A 
ENDBRANCH  49  63
BRANCH  50  71
ATOM     71  C   UNL A   1      49.260  26.668  27.302  1.00  0.00     0.057 A 
ATOM     72  C   UNL A   1      49.793  26.907  26.030  1.00  0.00     0.134 A 
ATOM     73  C   UNL A   1      50.117  26.130  28.270  1.00  0.00     0.134 A 
ATOM     74  F   UNL A   1      49.017  27.407  25.057  1.00  0.00    -0.206 F 
ATOM     75  C   UNL A   1      51.121  26.604  25.723  1.00  0.00     0.040 A 
ATOM     76  C   UNL A   1      51.452  25.843  27.985  1.00  0.00     0.040 A 
ATOM     77  F   UNL A   1      49.669  25.887  29.511  1.00  0.00    -0.206 F 
ATOM     78  C   UNL A   1      51.956  26.074  26.704  1.00  0.00     0.006 A 
ENDBRANCH  50  71
BRANCH  62  79
ATOM     79  C   UNL A   1      45.987  32.361  29.609  1.00  0.00     0.057 A 
ATOM     80  C   UNL A   1      46.082  33.425  28.705  1.00  0.00     0.134 A 
ATOM     81  C   UNL A   1      46.324  32.611  30.946  1.00  0.00     0.134 A 
ATOM     82  F   UNL A   1      45.785  33.245  27.409  1.00  0.00    -0.206 F 
ATOM     83  C   UNL A   1      46.514  34.688  29.112  1.00  0.00     0.040 A 
ATOM     84  C   UNL A   1      46.734  33.875  31.369  1.00  0.00     0.040 A 
ATOM     85  F   UNL A   1      46.245  31.635  31.862  1.00  0.00    -0.206 F 
ATOM     86  C   UNL A   1      46.834  34.917  30.449  1.00  0.00     0.006 A 
ENDBRANCH  62  79
ENDBRANCH  36  37
ENDBRANCH  28  31
ENDBRANCH  26  27
ENDBRANCH  25  26
ENDBRANCH   1  25
TORSDOF 13
ENDMDL
