MODEL 1
REMARK VINA RESULT:     -10.5      0.000      0.000
REMARK SMILES CC(=O)N[C@@H](C(=O)N(CC(=O)NCCCNC(=O)c1ccc(-c2c3nc(c(-c4c(F)cccc4F)c4ccc([nH]4)c(-c4c(F)cccc4F)c4nc(c(-c5c(F)cccc5F)c5ccc2[nH]5)C=C4)C=C3)cc1)C(C)(C)C)C(C)C
REMARK SMILES IDX 13 1 12 2 10 3 11 4 9 6 8 7 6 8 7 9 5 10 4 11 1 12 2 13 3 14
REMARK SMILES IDX 77 16 78 17 79 18 73 19 74 20 75 21 76 22 14 23 15 24 16 25
REMARK SMILES IDX 17 26 18 28 19 29 20 30 72 31 21 32 71 33 22 34 23 35 24 36
REMARK SMILES IDX 65 37 25 38 70 39 64 40 66 41 26 42 69 43 63 44 62 45 27 47
REMARK SMILES IDX 53 48 36 49 52 50 37 51 40 52 51 53 67 54 38 55 39 56 50 58
REMARK SMILES IDX 68 59 41 60 28 61 29 62 34 63 30 64 31 65 33 66 35 67 32 68
REMARK SMILES IDX 54 69 55 70 60 71 56 72 57 73 59 74 61 75 58 76 42 77 43 78
REMARK SMILES IDX 48 79 44 80 45 81 47 82 49 83 46 84
REMARK H PARENT 12 5 4 15 16 27 66 46 40 57
REMARK Flexibility Score: inf
ROOT
ATOM      1  C   UNL A   1      36.520  21.533  25.005  1.00  0.00     0.117 C 
ENDROOT
BRANCH   1   2
ATOM      2  N   UNL A   1      35.944  21.815  26.296  1.00  0.00    -0.354 N 
ATOM      3  C   UNL A   1      34.910  22.665  26.574  1.00  0.00     0.239 C 
ATOM      4  O   UNL A   1      34.289  22.482  27.625  1.00  0.00    -0.273 OA
ATOM      5  H   UNL A   1      36.339  21.342  27.064  1.00  0.00     0.163 HD
BRANCH   3   6
ATOM      6  C   UNL A   1      34.440  23.738  25.565  1.00  0.00     0.220 C 
BRANCH   6   7
ATOM      7  N   UNL A   1      32.990  23.901  25.371  1.00  0.00    -0.327 N 
BRANCH   7   8
ATOM      8  C   UNL A   1      32.250  24.942  25.975  1.00  0.00     0.246 C 
ATOM      9  O   UNL A   1      31.501  24.688  26.925  1.00  0.00    -0.272 OA
BRANCH   8  10
ATOM     10  C   UNL A   1      32.293  26.449  25.428  1.00  0.00     0.174 C 
BRANCH  10  11
ATOM     11  N   UNL A   1      33.134  26.609  24.232  1.00  0.00    -0.344 N 
ATOM     12  C   UNL A   1      31.380  27.015  22.537  1.00  0.00     0.114 C 
ATOM     13  C   UNL A   1      32.818  26.827  22.928  1.00  0.00     0.217 C 
ATOM     14  O   UNL A   1      33.728  26.870  22.104  1.00  0.00    -0.275 OA
ATOM     15  H   UNL A   1      34.101  26.547  24.407  1.00  0.00     0.164 HD
ENDBRANCH  10  11
BRANCH  10  16
ATOM     16  C   UNL A   1      32.889  27.400  26.524  1.00  0.00     0.015 C 
ATOM     17  C   UNL A   1      33.963  28.361  25.985  1.00  0.00     0.010 C 
ATOM     18  C   UNL A   1      31.810  28.230  27.227  1.00  0.00     0.010 C 
ENDBRANCH  10  16
ENDBRANCH   8  10
ENDBRANCH   7   8
BRANCH   7  19
ATOM     19  C   UNL A   1      32.273  22.876  24.494  1.00  0.00     0.035 C 
ATOM     20  C   UNL A   1      31.773  21.657  25.297  1.00  0.00     0.034 C 
ATOM     21  C   UNL A   1      31.080  23.544  23.775  1.00  0.00     0.034 C 
ATOM     22  C   UNL A   1      33.151  22.278  23.357  1.00  0.00     0.034 C 
ENDBRANCH   7  19
ENDBRANCH   6   7
ENDBRANCH   3   6
ENDBRANCH   1   2
BRANCH   1  23
ATOM     23  C   UNL A   1      37.579  20.454  24.968  1.00  0.00     0.042 C 
BRANCH  23  24
ATOM     24  C   UNL A   1      38.804  20.796  25.784  1.00  0.00     0.118 C 
BRANCH  24  25
ATOM     25  N   UNL A   1      39.753  19.690  25.827  1.00  0.00    -0.352 N 
ATOM     26  C   UNL A   1      41.101  19.703  26.088  1.00  0.00     0.251 C 
ATOM     27  H   UNL A   1      39.370  18.803  25.640  1.00  0.00     0.163 HD
ATOM     28  O   UNL A   1      41.785  18.709  25.856  1.00  0.00    -0.269 OA
BRANCH  26  29
ATOM     29  C   UNL A   1      41.738  20.927  26.619  1.00  0.00     0.039 A 
ATOM     30  C   UNL A   1      42.280  21.855  25.725  1.00  0.00     0.014 A 
ATOM     31  C   UNL A   1      41.775  21.174  27.993  1.00  0.00     0.014 A 
ATOM     32  C   UNL A   1      42.767  23.071  26.205  1.00  0.00     0.010 A 
ATOM     33  C   UNL A   1      42.163  22.424  28.458  1.00  0.00     0.010 A 
ATOM     34  C   UNL A   1      42.656  23.388  27.569  1.00  0.00    -0.014 A 
BRANCH  34  35
ATOM     35  C   UNL A   1      43.021  24.730  28.090  1.00  0.00     0.031 A 
ATOM     36  C   UNL A   1      41.958  25.770  28.302  1.00  0.00     0.074 A 
ATOM     37  C   UNL A   1      44.319  25.037  28.278  1.00  0.00     0.049 A 
ATOM     38  N   UNL A   1      42.090  27.031  28.629  1.00  0.00    -0.248 NA
ATOM     39  C   UNL A   1      40.566  25.346  28.091  1.00  0.00     0.031 C 
ATOM     40  C   UNL A   1      45.445  24.127  28.062  1.00  0.00     0.029 A 
ATOM     41  N   UNL A   1      44.913  26.210  28.674  1.00  0.00    -0.354 N 
ATOM     42  C   UNL A   1      40.801  27.549  28.654  1.00  0.00     0.074 A 
ATOM     43  C   UNL A   1      39.909  26.485  28.252  1.00  0.00     0.031 C 
ATOM     44  C   UNL A   1      46.590  24.769  28.340  1.00  0.00     0.029 A 
ATOM     45  C   UNL A   1      46.285  26.149  28.702  1.00  0.00     0.049 A 
ATOM     46  H   UNL A   1      44.404  27.017  28.914  1.00  0.00     0.167 HD
ATOM     47  C   UNL A   1      40.399  28.793  29.005  1.00  0.00     0.037 A 
ATOM     48  C   UNL A   1      47.198  27.104  28.964  1.00  0.00     0.037 A 
ATOM     49  C   UNL A   1      41.293  29.845  29.412  1.00  0.00     0.049 A 
ATOM     50  C   UNL A   1      46.728  28.491  29.303  1.00  0.00     0.074 A 
ATOM     51  C   UNL A   1      40.981  31.123  29.840  1.00  0.00     0.029 A 
ATOM     52  N   UNL A   1      42.676  29.744  29.428  1.00  0.00    -0.354 N 
ATOM     53  N   UNL A   1      45.504  28.949  29.395  1.00  0.00    -0.248 NA
ATOM     54  C   UNL A   1      47.767  29.497  29.568  1.00  0.00     0.031 C 
ATOM     55  C   UNL A   1      42.177  31.814  30.060  1.00  0.00     0.029 A 
ATOM     56  C   UNL A   1      43.233  30.949  29.823  1.00  0.00     0.049 A 
ATOM     57  H   UNL A   1      43.186  28.935  29.195  1.00  0.00     0.167 HD
ATOM     58  C   UNL A   1      45.623  30.288  29.743  1.00  0.00     0.074 A 
ATOM     59  C   UNL A   1      47.039  30.563  29.868  1.00  0.00     0.031 C 
ATOM     60  C   UNL A   1      44.646  31.208  29.936  1.00  0.00     0.037 A 
BRANCH  47  61
ATOM     61  C   UNL A   1      38.926  29.081  28.963  1.00  0.00     0.057 A 
ATOM     62  C   UNL A   1      38.111  28.934  30.094  1.00  0.00     0.134 A 
ATOM     63  C   UNL A   1      38.318  29.539  27.787  1.00  0.00     0.134 A 
ATOM     64  F   UNL A   1      38.627  28.489  31.250  1.00  0.00    -0.206 F 
ATOM     65  C   UNL A   1      36.743  29.204  30.050  1.00  0.00     0.040 A 
ATOM     66  C   UNL A   1      36.957  29.840  27.738  1.00  0.00     0.040 A 
ATOM     67  F   UNL A   1      39.039  29.709  26.668  1.00  0.00    -0.206 F 
ATOM     68  C   UNL A   1      36.163  29.665  28.870  1.00  0.00     0.006 A 
ENDBRANCH  47  61
BRANCH  48  69
ATOM     69  C   UNL A   1      48.647  26.782  28.903  1.00  0.00     0.057 A 
ATOM     70  C   UNL A   1      49.354  26.856  27.697  1.00  0.00     0.134 A 
ATOM     71  C   UNL A   1      49.357  26.392  30.045  1.00  0.00     0.134 A 
ATOM     72  F   UNL A   1      48.725  27.202  26.565  1.00  0.00    -0.206 F 
ATOM     73  C   UNL A   1      50.713  26.540  27.627  1.00  0.00     0.040 A 
ATOM     74  C   UNL A   1      50.721  26.102  29.994  1.00  0.00     0.040 A 
ATOM     75  F   UNL A   1      48.739  26.308  31.232  1.00  0.00    -0.206 F 
ATOM     76  C   UNL A   1      51.401  26.169  28.779  1.00  0.00     0.006 A 
ENDBRANCH  48  69
BRANCH  60  77
ATOM     77  C   UNL A   1      45.074  32.598  30.309  1.00  0.00     0.057 A 
ATOM     78  C   UNL A   1      45.252  33.596  29.342  1.00  0.00     0.134 A 
ATOM     79  C   UNL A   1      45.251  32.957  31.651  1.00  0.00     0.134 A 
ATOM     80  F   UNL A   1      45.112  33.314  28.038  1.00  0.00    -0.206 F 
ATOM     81  C   UNL A   1      45.605  34.899  29.697  1.00  0.00     0.040 A 
ATOM     82  C   UNL A   1      45.577  34.263  32.020  1.00  0.00     0.040 A 
ATOM     83  F   UNL A   1      45.088  32.051  32.626  1.00  0.00    -0.206 F 
ATOM     84  C   UNL A   1      45.758  35.238  31.040  1.00  0.00     0.006 A 
ENDBRANCH  60  77
ENDBRANCH  34  35
ENDBRANCH  26  29
ENDBRANCH  24  25
ENDBRANCH  23  24
ENDBRANCH   1  23
TORSDOF 16
ENDMDL
MODEL 2
REMARK VINA RESULT:     -10.5      1.108      6.398
REMARK SMILES CC(=O)N[C@@H](C(=O)N(CC(=O)NCCCNC(=O)c1ccc(-c2c3nc(c(-c4c(F)cccc4F)c4ccc([nH]4)c(-c4c(F)cccc4F)c4nc(c(-c5c(F)cccc5F)c5ccc2[nH]5)C=C4)C=C3)cc1)C(C)(C)C)C(C)C
REMARK SMILES IDX 13 1 12 2 10 3 11 4 9 6 8 7 6 8 7 9 5 10 4 11 1 12 2 13 3 14
REMARK SMILES IDX 77 16 78 17 79 18 73 19 74 20 75 21 76 22 14 23 15 24 16 25
REMARK SMILES IDX 17 26 18 28 19 29 20 30 72 31 21 32 71 33 22 34 23 35 24 36
REMARK SMILES IDX 65 37 25 38 70 39 64 40 66 41 26 42 69 43 63 44 62 45 27 47
REMARK SMILES IDX 53 48 36 49 52 50 37 51 40 52 51 53 67 54 38 55 39 56 50 58
REMARK SMILES IDX 68 59 41 60 28 61 29 62 34 63 30 64 31 65 33 66 35 67 32 68
REMARK SMILES IDX 54 69 55 70 60 71 56 72 57 73 59 74 61 75 58 76 42 77 43 78
REMARK SMILES IDX 48 79 44 80 45 81 47 82 49 83 46 84
REMARK H PARENT 12 5 4 15 16 27 66 46 40 57
REMARK Flexibility Score: inf
ROOT
ATOM      1  C   UNL A   1      36.394  20.907  25.152  1.00  0.00     0.117 C 
ENDROOT
BRANCH   1   2
ATOM      2  N   UNL A   1      36.595  22.312  25.404  1.00  0.00    -0.354 N 
ATOM      3  C   UNL A   1      35.925  23.359  24.834  1.00  0.00     0.239 C 
ATOM      4  O   UNL A   1      35.926  24.434  25.443  1.00  0.00    -0.273 OA
ATOM      5  H   UNL A   1      37.292  22.544  26.059  1.00  0.00     0.163 HD
BRANCH   3   6
ATOM      6  C   UNL A   1      35.087  23.191  23.546  1.00  0.00     0.220 C 
BRANCH   6   7
ATOM      7  N   UNL A   1      33.744  23.793  23.525  1.00  0.00    -0.327 N 
BRANCH   7   8
ATOM      8  C   UNL A   1      33.491  25.079  22.997  1.00  0.00     0.246 C 
ATOM      9  O   UNL A   1      33.951  25.387  21.891  1.00  0.00    -0.272 OA
BRANCH   8  10
ATOM     10  C   UNL A   1      32.677  26.193  23.814  1.00  0.00     0.174 C 
BRANCH  10  11
ATOM     11  N   UNL A   1      31.942  27.127  22.949  1.00  0.00    -0.344 N 
ATOM     12  C   UNL A   1      29.654  26.801  23.829  1.00  0.00     0.114 C 
ATOM     13  C   UNL A   1      30.620  27.432  22.866  1.00  0.00     0.217 C 
ATOM     14  O   UNL A   1      30.254  28.225  22.002  1.00  0.00    -0.275 OA
ATOM     15  H   UNL A   1      32.510  27.621  22.314  1.00  0.00     0.164 HD
ENDBRANCH  10  11
BRANCH  10  16
ATOM     16  C   UNL A   1      33.666  27.060  24.669  1.00  0.00     0.015 C 
ATOM     17  C   UNL A   1      33.881  28.476  24.109  1.00  0.00     0.010 C 
ATOM     18  C   UNL A   1      33.223  27.182  26.130  1.00  0.00     0.010 C 
ENDBRANCH  10  16
ENDBRANCH   8  10
ENDBRANCH   7   8
BRANCH   7  19
ATOM     19  C   UNL A   1      32.595  22.984  24.124  1.00  0.00     0.035 C 
ATOM     20  C   UNL A   1      31.236  23.317  23.475  1.00  0.00     0.034 C 
ATOM     21  C   UNL A   1      32.883  21.473  23.973  1.00  0.00     0.034 C 
ATOM     22  C   UNL A   1      32.381  23.206  25.649  1.00  0.00     0.034 C 
ENDBRANCH   7  19
ENDBRANCH   6   7
ENDBRANCH   3   6
ENDBRANCH   1   2
BRANCH   1  23
ATOM     23  C   UNL A   1      37.639  20.096  24.871  1.00  0.00     0.042 C 
BRANCH  23  24
ATOM     24  C   UNL A   1      38.843  20.563  25.656  1.00  0.00     0.118 C 
BRANCH  24  25
ATOM     25  N   UNL A   1      39.835  19.506  25.808  1.00  0.00    -0.352 N 
ATOM     26  C   UNL A   1      41.167  19.596  26.127  1.00  0.00     0.251 C 
ATOM     27  H   UNL A   1      39.499  18.593  25.660  1.00  0.00     0.163 HD
ATOM     28  O   UNL A   1      41.902  18.621  25.986  1.00  0.00    -0.269 OA
BRANCH  26  29
ATOM     29  C   UNL A   1      41.726  20.877  26.607  1.00  0.00     0.039 A 
ATOM     30  C   UNL A   1      42.293  21.761  25.686  1.00  0.00     0.014 A 
ATOM     31  C   UNL A   1      41.666  21.219  27.961  1.00  0.00     0.014 A 
ATOM     32  C   UNL A   1      42.706  23.026  26.107  1.00  0.00     0.010 A 
ATOM     33  C   UNL A   1      41.981  22.511  28.359  1.00  0.00     0.010 A 
ATOM     34  C   UNL A   1      42.497  23.431  27.436  1.00  0.00    -0.014 A 
BRANCH  34  35
ATOM     35  C   UNL A   1      42.781  24.818  27.882  1.00  0.00     0.031 A 
ATOM     36  C   UNL A   1      44.173  25.209  28.292  1.00  0.00     0.074 A 
ATOM     37  C   UNL A   1      41.765  25.694  28.008  1.00  0.00     0.049 A 
ATOM     38  N   UNL A   1      44.594  26.327  28.825  1.00  0.00    -0.248 NA
ATOM     39  C   UNL A   1      45.225  24.198  28.104  1.00  0.00     0.031 C 
ATOM     40  C   UNL A   1      40.364  25.419  27.687  1.00  0.00     0.029 A 
ATOM     41  N   UNL A   1      41.752  26.989  28.463  1.00  0.00    -0.354 N 
ATOM     42  C   UNL A   1      45.954  26.151  29.043  1.00  0.00     0.074 A 
ATOM     43  C   UNL A   1      46.276  24.800  28.641  1.00  0.00     0.031 C 
ATOM     44  C   UNL A   1      39.631  26.513  27.941  1.00  0.00     0.029 A 
ATOM     45  C   UNL A   1      40.498  27.549  28.492  1.00  0.00     0.049 A 
ATOM     46  H   UNL A   1      42.564  27.471  28.742  1.00  0.00     0.167 HD
ATOM     47  C   UNL A   1      46.856  27.044  29.513  1.00  0.00     0.037 A 
ATOM     48  C   UNL A   1      40.086  28.751  28.937  1.00  0.00     0.037 A 
ATOM     49  C   UNL A   1      46.530  28.391  29.903  1.00  0.00     0.049 A 
ATOM     50  C   UNL A   1      41.100  29.709  29.500  1.00  0.00     0.074 A 
ATOM     51  C   UNL A   1      47.380  29.391  30.339  1.00  0.00     0.029 A 
ATOM     52  N   UNL A   1      45.248  28.920  29.917  1.00  0.00    -0.354 N 
ATOM     53  N   UNL A   1      42.394  29.557  29.633  1.00  0.00    -0.248 NA
ATOM     54  C   UNL A   1      40.594  31.002  29.983  1.00  0.00     0.031 C 
ATOM     55  C   UNL A   1      46.606  30.507  30.671  1.00  0.00     0.029 A 
ATOM     56  C   UNL A   1      45.280  30.222  30.390  1.00  0.00     0.049 A 
ATOM     57  H   UNL A   1      44.436  28.442  29.632  1.00  0.00     0.167 HD
ATOM     58  C   UNL A   1      42.861  30.737  30.197  1.00  0.00     0.074 A 
ATOM     59  C   UNL A   1      41.713  31.604  30.361  1.00  0.00     0.031 C 
ATOM     60  C   UNL A   1      44.126  31.069  30.553  1.00  0.00     0.037 A 
BRANCH  47  61
ATOM     61  C   UNL A   1      48.283  26.591  29.629  1.00  0.00     0.057 A 
ATOM     62  C   UNL A   1      49.215  26.809  28.604  1.00  0.00     0.134 A 
ATOM     63  C   UNL A   1      48.741  25.954  30.790  1.00  0.00     0.134 A 
ATOM     64  F   UNL A   1      48.840  27.403  27.461  1.00  0.00    -0.206 F 
ATOM     65  C   UNL A   1      50.540  26.386  28.718  1.00  0.00     0.040 A 
ATOM     66  C   UNL A   1      50.070  25.553  30.927  1.00  0.00     0.040 A 
ATOM     67  F   UNL A   1      47.906  25.719  31.813  1.00  0.00    -0.206 F 
ATOM     68  C   UNL A   1      50.972  25.762  29.885  1.00  0.00     0.006 A 
ENDBRANCH  47  61
BRANCH  48  69
ATOM     69  C   UNL A   1      38.646  29.111  28.879  1.00  0.00     0.057 A 
ATOM     70  C   UNL A   1      38.061  29.565  27.691  1.00  0.00     0.134 A 
ATOM     71  C   UNL A   1      37.822  29.009  30.006  1.00  0.00     0.134 A 
ATOM     72  F   UNL A   1      38.803  29.703  26.583  1.00  0.00    -0.206 F 
ATOM     73  C   UNL A   1      36.712  29.920  27.631  1.00  0.00     0.040 A 
ATOM     74  C   UNL A   1      36.465  29.333  29.952  1.00  0.00     0.040 A 
ATOM     75  F   UNL A   1      38.319  28.575  31.173  1.00  0.00    -0.206 F 
ATOM     76  C   UNL A   1      35.909  29.798  28.762  1.00  0.00     0.006 A 
ENDBRANCH  48  69
BRANCH  60  77
ATOM     77  C   UNL A   1      44.338  32.431  31.149  1.00  0.00     0.057 A 
ATOM     78  C   UNL A   1      44.549  33.559  30.346  1.00  0.00     0.134 A 
ATOM     79  C   UNL A   1      44.272  32.625  32.534  1.00  0.00     0.134 A 
ATOM     80  F   UNL A   1      44.637  33.439  29.012  1.00  0.00    -0.206 F 
ATOM     81  C   UNL A   1      44.700  34.830  30.901  1.00  0.00     0.040 A 
ATOM     82  C   UNL A   1      44.395  33.896  33.099  1.00  0.00     0.040 A 
ATOM     83  F   UNL A   1      44.065  31.588  33.359  1.00  0.00    -0.206 F 
ATOM     84  C   UNL A   1      44.613  35.002  32.282  1.00  0.00     0.006 A 
ENDBRANCH  60  77
ENDBRANCH  34  35
ENDBRANCH  26  29
ENDBRANCH  24  25
ENDBRANCH  23  24
ENDBRANCH   1  23
TORSDOF 16
ENDMDL
MODEL 3
REMARK VINA RESULT:     -10.4      4.534      9.151
REMARK SMILES CC(=O)N[C@@H](C(=O)N(CC(=O)NCCCNC(=O)c1ccc(-c2c3nc(c(-c4c(F)cccc4F)c4ccc([nH]4)c(-c4c(F)cccc4F)c4nc(c(-c5c(F)cccc5F)c5ccc2[nH]5)C=C4)C=C3)cc1)C(C)(C)C)C(C)C
REMARK SMILES IDX 13 1 12 2 10 3 11 4 9 6 8 7 6 8 7 9 5 10 4 11 1 12 2 13 3 14
REMARK SMILES IDX 77 16 78 17 79 18 73 19 74 20 75 21 76 22 14 23 15 24 16 25
REMARK SMILES IDX 17 26 18 28 19 29 20 30 72 31 21 32 71 33 22 34 23 35 24 36
REMARK SMILES IDX 65 37 25 38 70 39 64 40 66 41 26 42 69 43 63 44 62 45 27 47
REMARK SMILES IDX 53 48 36 49 52 50 37 51 40 52 51 53 67 54 38 55 39 56 50 58
REMARK SMILES IDX 68 59 41 60 28 61 29 62 34 63 30 64 31 65 33 66 35 67 32 68
REMARK SMILES IDX 54 69 55 70 60 71 56 72 57 73 59 74 61 75 58 76 42 77 43 78
REMARK SMILES IDX 48 79 44 80 45 81 47 82 49 83 46 84
REMARK H PARENT 12 5 4 15 16 27 66 46 40 57
REMARK Flexibility Score: inf
ROOT
ATOM      1  C   UNL A   1      31.431  30.711  26.431  1.00  0.00     0.117 C 
ENDROOT
BRANCH   1   2
ATOM      2  N   UNL A   1      32.648  30.061  26.845  1.00  0.00    -0.354 N 
ATOM      3  C   UNL A   1      33.472  29.280  26.081  1.00  0.00     0.239 C 
ATOM      4  O   UNL A   1      34.642  29.152  26.455  1.00  0.00    -0.273 OA
ATOM      5  H   UNL A   1      32.918  30.193  27.783  1.00  0.00     0.163 HD
BRANCH   3   6
ATOM      6  C   UNL A   1      33.011  28.680  24.734  1.00  0.00     0.220 C 
BRANCH   6   7
ATOM      7  N   UNL A   1      32.004  27.606  24.776  1.00  0.00    -0.327 N 
BRANCH   7   8
ATOM      8  C   UNL A   1      32.047  26.554  25.718  1.00  0.00     0.246 C 
ATOM      9  O   UNL A   1      31.685  26.762  26.882  1.00  0.00    -0.272 OA
BRANCH   8  10
ATOM     10  C   UNL A   1      32.617  25.102  25.351  1.00  0.00     0.174 C 
BRANCH  10  11
ATOM     11  N   UNL A   1      32.753  24.218  26.519  1.00  0.00    -0.344 N 
ATOM     12  C   UNL A   1      30.645  22.940  26.328  1.00  0.00     0.114 C 
ATOM     13  C   UNL A   1      31.928  23.270  27.035  1.00  0.00     0.217 C 
ATOM     14  O   UNL A   1      32.265  22.702  28.072  1.00  0.00    -0.275 OA
ATOM     15  H   UNL A   1      33.594  24.336  27.018  1.00  0.00     0.164 HD
ENDBRANCH  10  11
BRANCH  10  16
ATOM     16  C   UNL A   1      34.047  25.231  24.718  1.00  0.00     0.015 C 
ATOM     17  C   UNL A   1      35.131  24.461  25.492  1.00  0.00     0.010 C 
ATOM     18  C   UNL A   1      34.083  24.774  23.257  1.00  0.00     0.010 C 
ENDBRANCH  10  16
ENDBRANCH   8  10
ENDBRANCH   7   8
BRANCH   7  19
ATOM     19  C   UNL A   1      30.888  27.640  23.733  1.00  0.00     0.035 C 
ATOM     20  C   UNL A   1      30.317  29.058  23.524  1.00  0.00     0.034 C 
ATOM     21  C   UNL A   1      31.411  27.090  22.387  1.00  0.00     0.034 C 
ATOM     22  C   UNL A   1      29.656  26.756  24.083  1.00  0.00     0.034 C 
ENDBRANCH   7  19
ENDBRANCH   6   7
ENDBRANCH   3   6
ENDBRANCH   1   2
BRANCH   1  23
ATOM     23  C   UNL A   1      31.417  32.220  26.519  1.00  0.00     0.042 C 
BRANCH  23  24
ATOM     24  C   UNL A   1      32.520  32.774  27.391  1.00  0.00     0.118 C 
BRANCH  24  25
ATOM     25  N   UNL A   1      32.352  34.201  27.636  1.00  0.00    -0.352 N 
ATOM     26  C   UNL A   1      32.983  35.013  28.547  1.00  0.00     0.251 C 
ATOM     27  H   UNL A   1      31.687  34.649  27.065  1.00  0.00     0.163 HD
ATOM     28  O   UNL A   1      32.552  36.142  28.770  1.00  0.00    -0.269 OA
BRANCH  26  29
ATOM     29  C   UNL A   1      34.164  34.516  29.285  1.00  0.00     0.039 A 
ATOM     30  C   UNL A   1      33.993  33.990  30.567  1.00  0.00     0.014 A 
ATOM     31  C   UNL A   1      35.433  34.542  28.701  1.00  0.00     0.014 A 
ATOM     32  C   UNL A   1      35.076  33.401  31.221  1.00  0.00     0.010 A 
ATOM     33  C   UNL A   1      36.483  33.865  29.307  1.00  0.00     0.010 A 
ATOM     34  C   UNL A   1      36.315  33.281  30.570  1.00  0.00    -0.014 A 
BRANCH  34  35
ATOM     35  C   UNL A   1      37.442  32.526  31.171  1.00  0.00     0.031 A 
ATOM     36  C   UNL A   1      38.088  33.015  32.436  1.00  0.00     0.074 A 
ATOM     37  C   UNL A   1      37.944  31.457  30.522  1.00  0.00     0.049 A 
ATOM     38  N   UNL A   1      39.157  32.568  33.045  1.00  0.00    -0.248 NA
ATOM     39  C   UNL A   1      37.466  34.177  33.089  1.00  0.00     0.031 C 
ATOM     40  C   UNL A   1      37.433  30.914  29.263  1.00  0.00     0.029 A 
ATOM     41  N   UNL A   1      39.010  30.646  30.824  1.00  0.00    -0.354 N 
ATOM     42  C   UNL A   1      39.339  33.398  34.143  1.00  0.00     0.074 A 
ATOM     43  C   UNL A   1      38.308  34.410  34.085  1.00  0.00     0.031 C 
ATOM     44  C   UNL A   1      38.176  29.855  28.906  1.00  0.00     0.029 A 
ATOM     45  C   UNL A   1      39.247  29.675  29.881  1.00  0.00     0.049 A 
ATOM     46  H   UNL A   1      39.554  30.752  31.637  1.00  0.00     0.167 HD
ATOM     47  C   UNL A   1      40.268  33.308  35.124  1.00  0.00     0.037 A 
ATOM     48  C   UNL A   1      40.230  28.760  29.796  1.00  0.00     0.037 A 
ATOM     49  C   UNL A   1      41.287  32.292  35.179  1.00  0.00     0.049 A 
ATOM     50  C   UNL A   1      41.279  28.710  30.872  1.00  0.00     0.074 A 
ATOM     51  C   UNL A   1      42.240  32.081  36.160  1.00  0.00     0.029 A 
ATOM     52  N   UNL A   1      41.492  31.326  34.206  1.00  0.00    -0.354 N 
ATOM     53  N   UNL A   1      41.397  29.455  31.944  1.00  0.00    -0.248 NA
ATOM     54  C   UNL A   1      42.335  27.699  30.722  1.00  0.00     0.031 C 
ATOM     55  C   UNL A   1      43.058  31.023  35.752  1.00  0.00     0.029 A 
ATOM     56  C   UNL A   1      42.581  30.539  34.544  1.00  0.00     0.049 A 
ATOM     57  H   UNL A   1      40.944  31.214  33.396  1.00  0.00     0.167 HD
ATOM     58  C   UNL A   1      42.528  28.993  32.605  1.00  0.00     0.074 A 
ATOM     59  C   UNL A   1      43.047  27.890  31.825  1.00  0.00     0.031 C 
ATOM     60  C   UNL A   1      43.089  29.448  33.752  1.00  0.00     0.037 A 
BRANCH  47  61
ATOM     61  C   UNL A   1      40.222  34.337  36.217  1.00  0.00     0.057 A 
ATOM     62  C   UNL A   1      40.908  35.555  36.115  1.00  0.00     0.134 A 
ATOM     63  C   UNL A   1      39.461  34.120  37.373  1.00  0.00     0.134 A 
ATOM     64  F   UNL A   1      41.664  35.821  35.039  1.00  0.00    -0.206 F 
ATOM     65  C   UNL A   1      40.861  36.508  37.134  1.00  0.00     0.040 A 
ATOM     66  C   UNL A   1      39.383  35.078  38.385  1.00  0.00     0.040 A 
ATOM     67  F   UNL A   1      38.775  32.979  37.535  1.00  0.00    -0.206 F 
ATOM     68  C   UNL A   1      40.091  36.273  38.271  1.00  0.00     0.006 A 
ENDBRANCH  47  61
BRANCH  48  69
ATOM     69  C   UNL A   1      40.274  27.824  28.643  1.00  0.00     0.057 A 
ATOM     70  C   UNL A   1      40.962  28.153  27.469  1.00  0.00     0.134 A 
ATOM     71  C   UNL A   1      39.632  26.580  28.686  1.00  0.00     0.134 A 
ATOM     72  F   UNL A   1      41.580  29.338  27.359  1.00  0.00    -0.206 F 
ATOM     73  C   UNL A   1      40.996  27.287  26.375  1.00  0.00     0.040 A 
ATOM     74  C   UNL A   1      39.683  25.692  27.611  1.00  0.00     0.040 A 
ATOM     75  F   UNL A   1      38.961  26.202  29.784  1.00  0.00    -0.206 F 
ATOM     76  C   UNL A   1      40.361  26.049  26.447  1.00  0.00     0.006 A 
ENDBRANCH  48  69
BRANCH  60  77
ATOM     77  C   UNL A   1      44.325  28.748  34.238  1.00  0.00     0.057 A 
ATOM     78  C   UNL A   1      45.607  29.215  33.919  1.00  0.00     0.134 A 
ATOM     79  C   UNL A   1      44.234  27.634  35.081  1.00  0.00     0.134 A 
ATOM     80  F   UNL A   1      45.763  30.270  33.104  1.00  0.00    -0.206 F 
ATOM     81  C   UNL A   1      46.753  28.590  34.410  1.00  0.00     0.040 A 
ATOM     82  C   UNL A   1      45.373  27.017  35.601  1.00  0.00     0.040 A 
ATOM     83  F   UNL A   1      43.037  27.141  35.432  1.00  0.00    -0.206 F 
ATOM     84  C   UNL A   1      46.637  27.493  35.263  1.00  0.00     0.006 A 
ENDBRANCH  60  77
ENDBRANCH  34  35
ENDBRANCH  26  29
ENDBRANCH  24  25
ENDBRANCH  23  24
ENDBRANCH   1  23
TORSDOF 16
ENDMDL
