MODEL 1
REMARK VINA RESULT:     -10.5      0.000      0.000
REMARK SMILES N#C[C@H]1CN(C(=O)[C@H]([NH3+])CC(=O)NCCCNC(=O)c2ccc(-c3c4nc(c(-c5c(F)cccc5F)c5ccc([nH]5)c(-c5c(F)cccc5F)c5nc(c(-c6c(F)cccc6F)c6ccc3[nH]6)C=C5)C=C4)cc2)CCO1
REMARK SMILES IDX 14 1 13 2 11 3 12 4 10 6 8 7 6 8 7 9 5 10 3 11 4 12 76 13
REMARK SMILES IDX 75 14 74 15 2 16 1 17 9 18 15 22 16 23 17 24 18 25 19 27
REMARK SMILES IDX 20 28 21 29 73 30 22 31 72 32 23 33 24 34 25 35 66 36 26 37
REMARK SMILES IDX 71 38 65 39 67 40 27 41 70 42 64 43 63 44 28 46 54 47 37 48
REMARK SMILES IDX 53 49 38 50 41 51 52 52 68 53 39 54 40 55 51 57 69 58 42 59
REMARK SMILES IDX 29 60 30 61 35 62 31 63 32 64 34 65 36 66 33 67 55 68 56 69
REMARK SMILES IDX 61 70 57 71 58 72 60 73 62 74 59 75 43 76 44 77 49 78 45 79
REMARK SMILES IDX 46 80 48 81 50 82 47 83
REMARK H PARENT 13 5 9 19 9 20 9 21 17 26 67 45 41 56
REMARK Flexibility Score: inf
ROOT
ATOM      1  C   UNL A   1      36.286  20.805  25.028  1.00  0.00     0.117 C 
ENDROOT
BRANCH   1   2
ATOM      2  N   UNL A   1      35.155  19.914  25.216  1.00  0.00    -0.356 N 
ATOM      3  C   UNL A   1      33.824  20.142  25.020  1.00  0.00     0.226 C 
ATOM      4  O   UNL A   1      33.022  19.292  25.404  1.00  0.00    -0.275 OA
ATOM      5  H   UNL A   1      35.382  19.010  25.531  1.00  0.00     0.163 HD
BRANCH   3   6
ATOM      6  C   UNL A   1      33.365  21.357  24.243  1.00  0.00     0.175 C 
BRANCH   6   7
ATOM      7  C   UNL A   1      32.496  22.363  25.000  1.00  0.00     0.280 C 
BRANCH   7   8
ATOM      8  C   UNL A   1      33.328  23.573  25.498  1.00  0.00     0.281 C 
ATOM      9  O   UNL A   1      34.069  23.435  26.475  1.00  0.00    -0.268 OA
BRANCH   8  10
ATOM     10  N   UNL A   1      33.288  24.776  24.798  1.00  0.00    -0.332 N 
ATOM     11  C   UNL A   1      32.337  25.213  22.580  1.00  0.00     0.240 C 
ATOM     12  C   UNL A   1      33.634  25.014  23.391  1.00  0.00     0.167 C 
ATOM     13  O   UNL A   1      31.604  26.337  23.121  1.00  0.00    -0.360 OA
ATOM     14  C   UNL A   1      31.270  26.129  24.509  1.00  0.00     0.183 C 
ATOM     15  C   UNL A   1      32.526  25.895  25.359  1.00  0.00     0.148 C 
BRANCH  11  16
ATOM     16  C   UNL A   1      32.667  25.425  21.163  1.00  0.00     0.096 C 
ATOM     17  N   UNL A   1      32.971  25.540  20.046  1.00  0.00    -0.195 NA
ENDBRANCH  11  16
ENDBRANCH   8  10
ENDBRANCH   7   8
BRANCH   7  18
ATOM     18  N   UNL A   1      31.685  21.879  26.132  1.00  0.00    -0.347 N 
ATOM     19  H   UNL A   1      31.690  22.578  26.876  1.00  0.00     0.345 HD
ATOM     20  H   UNL A   1      32.079  21.006  26.483  1.00  0.00     0.345 HD
ATOM     21  H   UNL A   1      30.727  21.721  25.822  1.00  0.00     0.345 HD
ENDBRANCH   7  18
ENDBRANCH   6   7
ENDBRANCH   3   6
ENDBRANCH   1   2
BRANCH   1  22
ATOM     22  C   UNL A   1      37.573  20.024  24.790  1.00  0.00     0.042 C 
BRANCH  22  23
ATOM     23  C   UNL A   1      38.719  20.455  25.687  1.00  0.00     0.118 C 
BRANCH  23  24
ATOM     24  N   UNL A   1      39.764  19.447  25.762  1.00  0.00    -0.352 N 
ATOM     25  C   UNL A   1      41.098  19.597  26.050  1.00  0.00     0.251 C 
ATOM     26  H   UNL A   1      39.474  18.524  25.579  1.00  0.00     0.163 HD
ATOM     27  O   UNL A   1      41.877  18.674  25.837  1.00  0.00    -0.269 OA
BRANCH  25  28
ATOM     28  C   UNL A   1      41.597  20.877  26.598  1.00  0.00     0.039 A 
ATOM     29  C   UNL A   1      42.059  21.859  25.718  1.00  0.00     0.014 A 
ATOM     30  C   UNL A   1      41.620  21.107  27.976  1.00  0.00     0.014 A 
ATOM     31  C   UNL A   1      42.485  23.091  26.218  1.00  0.00     0.010 A 
ATOM     32  C   UNL A   1      41.947  22.366  28.464  1.00  0.00     0.010 A 
ATOM     33  C   UNL A   1      42.396  23.369  27.591  1.00  0.00    -0.014 A 
BRANCH  33  34
ATOM     34  C   UNL A   1      42.786  24.689  28.148  1.00  0.00     0.031 A 
ATOM     35  C   UNL A   1      41.737  25.746  28.369  1.00  0.00     0.074 A 
ATOM     36  C   UNL A   1      44.083  24.961  28.385  1.00  0.00     0.049 A 
ATOM     37  N   UNL A   1      41.885  26.990  28.746  1.00  0.00    -0.248 NA
ATOM     38  C   UNL A   1      40.341  25.361  28.107  1.00  0.00     0.031 C 
ATOM     39  C   UNL A   1      45.196  24.031  28.177  1.00  0.00     0.029 A 
ATOM     40  N   UNL A   1      44.689  26.107  28.837  1.00  0.00    -0.354 N 
ATOM     41  C   UNL A   1      40.607  27.537  28.748  1.00  0.00     0.074 A 
ATOM     42  C   UNL A   1      39.704  26.509  28.280  1.00  0.00     0.031 C 
ATOM     43  C   UNL A   1      46.344  24.636  28.520  1.00  0.00     0.029 A 
ATOM     44  C   UNL A   1      46.058  26.011  28.918  1.00  0.00     0.049 A 
ATOM     45  H   UNL A   1      44.191  26.919  29.081  1.00  0.00     0.167 HD
ATOM     46  C   UNL A   1      40.219  28.777  29.127  1.00  0.00     0.037 A 
ATOM     47  C   UNL A   1      46.980  26.934  29.253  1.00  0.00     0.037 A 
ATOM     48  C   UNL A   1      41.122  29.791  29.605  1.00  0.00     0.049 A 
ATOM     49  C   UNL A   1      46.525  28.319  29.630  1.00  0.00     0.074 A 
ATOM     50  C   UNL A   1      40.822  31.062  30.062  1.00  0.00     0.029 A 
ATOM     51  N   UNL A   1      42.499  29.653  29.678  1.00  0.00    -0.354 N 
ATOM     52  N   UNL A   1      45.308  28.802  29.692  1.00  0.00    -0.248 NA
ATOM     53  C   UNL A   1      47.571  29.287  29.989  1.00  0.00     0.031 C 
ATOM     54  C   UNL A   1      42.023  31.717  30.345  1.00  0.00     0.029 A 
ATOM     55  C   UNL A   1      43.066  30.828  30.141  1.00  0.00     0.049 A 
ATOM     56  H   UNL A   1      43.000  28.840  29.437  1.00  0.00     0.167 HD
ATOM     57  C   UNL A   1      45.439  30.114  30.132  1.00  0.00     0.074 A 
ATOM     58  C   UNL A   1      46.854  30.346  30.333  1.00  0.00     0.031 C 
ATOM     59  C   UNL A   1      44.475  31.039  30.354  1.00  0.00     0.037 A 
BRANCH  46  60
ATOM     60  C   UNL A   1      38.757  29.113  29.034  1.00  0.00     0.057 A 
ATOM     61  C   UNL A   1      37.910  29.054  30.149  1.00  0.00     0.134 A 
ATOM     62  C   UNL A   1      38.201  29.547  27.824  1.00  0.00     0.134 A 
ATOM     63  F   UNL A   1      38.374  28.637  31.336  1.00  0.00    -0.206 F 
ATOM     64  C   UNL A   1      36.557  29.390  30.056  1.00  0.00     0.040 A 
ATOM     65  C   UNL A   1      36.860  29.918  27.728  1.00  0.00     0.040 A 
ATOM     66  F   UNL A   1      38.956  29.634  26.719  1.00  0.00    -0.206 F 
ATOM     67  C   UNL A   1      36.032  29.833  28.845  1.00  0.00     0.006 A 
ENDBRANCH  46  60
BRANCH  47  68
ATOM     68  C   UNL A   1      48.426  26.589  29.246  1.00  0.00     0.057 A 
ATOM     69  C   UNL A   1      49.039  26.008  30.363  1.00  0.00     0.134 A 
ATOM     70  C   UNL A   1      49.238  26.856  28.136  1.00  0.00     0.134 A 
ATOM     71  F   UNL A   1      48.321  25.741  31.464  1.00  0.00    -0.206 F 
ATOM     72  C   UNL A   1      50.409  25.739  30.390  1.00  0.00     0.040 A 
ATOM     73  C   UNL A   1      50.602  26.561  28.138  1.00  0.00     0.040 A 
ATOM     74  F   UNL A   1      48.714  27.400  27.028  1.00  0.00    -0.206 F 
ATOM     75  C   UNL A   1      51.194  26.012  29.273  1.00  0.00     0.006 A 
ENDBRANCH  47  68
BRANCH  59  76
ATOM     76  C   UNL A   1      44.903  32.374  30.895  1.00  0.00     0.057 A 
ATOM     77  C   UNL A   1      45.035  32.618  32.267  1.00  0.00     0.134 A 
ATOM     78  C   UNL A   1      45.248  33.413  30.019  1.00  0.00     0.134 A 
ATOM     79  F   UNL A   1      44.711  31.672  33.162  1.00  0.00    -0.206 F 
ATOM     80  C   UNL A   1      45.474  33.853  32.750  1.00  0.00     0.040 A 
ATOM     81  C   UNL A   1      45.721  34.638  30.486  1.00  0.00     0.040 A 
ATOM     82  F   UNL A   1      45.155  33.243  28.691  1.00  0.00    -0.206 F 
ATOM     83  C   UNL A   1      45.830  34.863  31.857  1.00  0.00     0.006 A 
ENDBRANCH  59  76
ENDBRANCH  33  34
ENDBRANCH  25  28
ENDBRANCH  23  24
ENDBRANCH  22  23
ENDBRANCH   1  22
TORSDOF 15
ENDMDL
MODEL 2
REMARK VINA RESULT:     -10.4      1.951      3.025
REMARK SMILES N#C[C@H]1CN(C(=O)[C@H]([NH3+])CC(=O)NCCCNC(=O)c2ccc(-c3c4nc(c(-c5c(F)cccc5F)c5ccc([nH]5)c(-c5c(F)cccc5F)c5nc(c(-c6c(F)cccc6F)c6ccc3[nH]6)C=C5)C=C4)cc2)CCO1
REMARK SMILES IDX 14 1 13 2 11 3 12 4 10 6 8 7 6 8 7 9 5 10 3 11 4 12 76 13
REMARK SMILES IDX 75 14 74 15 2 16 1 17 9 18 15 22 16 23 17 24 18 25 19 27
REMARK SMILES IDX 20 28 21 29 73 30 22 31 72 32 23 33 24 34 25 35 66 36 26 37
REMARK SMILES IDX 71 38 65 39 67 40 27 41 70 42 64 43 63 44 28 46 54 47 37 48
REMARK SMILES IDX 53 49 38 50 41 51 52 52 68 53 39 54 40 55 51 57 69 58 42 59
REMARK SMILES IDX 29 60 30 61 35 62 31 63 32 64 34 65 36 66 33 67 55 68 56 69
REMARK SMILES IDX 61 70 57 71 58 72 60 73 62 74 59 75 43 76 44 77 49 78 45 79
REMARK SMILES IDX 46 80 48 81 50 82 47 83
REMARK H PARENT 13 5 9 19 9 20 9 21 17 26 67 45 41 56
REMARK Flexibility Score: inf
ROOT
ATOM      1  C   UNL A   1      36.824  20.625  24.994  1.00  0.00     0.117 C 
ENDROOT
BRANCH   1   2
ATOM      2  N   UNL A   1      37.164  21.798  24.207  1.00  0.00    -0.356 N 
ATOM      3  C   UNL A   1      36.356  22.622  23.479  1.00  0.00     0.226 C 
ATOM      4  O   UNL A   1      36.882  23.463  22.751  1.00  0.00    -0.275 OA
ATOM      5  H   UNL A   1      38.119  22.034  24.198  1.00  0.00     0.163 HD
BRANCH   3   6
ATOM      6  C   UNL A   1      34.855  22.573  23.661  1.00  0.00     0.175 C 
BRANCH   6   7
ATOM      7  C   UNL A   1      34.211  23.778  24.350  1.00  0.00     0.280 C 
BRANCH   7   8
ATOM      8  C   UNL A   1      33.225  24.514  23.406  1.00  0.00     0.281 C 
ATOM      9  O   UNL A   1      33.654  25.038  22.375  1.00  0.00    -0.268 OA
BRANCH   8  10
ATOM     10  N   UNL A   1      31.862  24.512  23.691  1.00  0.00    -0.332 N 
ATOM     11  C   UNL A   1      30.768  24.450  25.886  1.00  0.00     0.240 C 
ATOM     12  C   UNL A   1      31.135  23.641  24.625  1.00  0.00     0.167 C 
ATOM     13  O   UNL A   1      29.951  25.582  25.504  1.00  0.00    -0.360 OA
ATOM     14  C   UNL A   1      30.642  26.440  24.573  1.00  0.00     0.183 C 
ATOM     15  C   UNL A   1      31.058  25.676  23.309  1.00  0.00     0.148 C 
BRANCH  11  16
ATOM     16  C   UNL A   1      30.063  23.583  26.841  1.00  0.00     0.096 C 
ATOM     17  N   UNL A   1      29.480  22.953  27.626  1.00  0.00    -0.195 NA
ENDBRANCH  11  16
ENDBRANCH   8  10
ENDBRANCH   7   8
BRANCH   7  18
ATOM     18  N   UNL A   1      35.090  24.793  24.958  1.00  0.00    -0.347 N 
ATOM     19  H   UNL A   1      35.679  25.208  24.236  1.00  0.00     0.345 HD
ATOM     20  H   UNL A   1      35.678  24.352  25.665  1.00  0.00     0.345 HD
ATOM     21  H   UNL A   1      34.522  25.520  25.393  1.00  0.00     0.345 HD
ENDBRANCH   7  18
ENDBRANCH   6   7
ENDBRANCH   3   6
ENDBRANCH   1   2
BRANCH   1  22
ATOM     22  C   UNL A   1      37.969  19.619  25.010  1.00  0.00     0.042 C 
BRANCH  22  23
ATOM     23  C   UNL A   1      39.199  20.111  25.751  1.00  0.00     0.118 C 
BRANCH  23  24
ATOM     24  N   UNL A   1      40.203  19.070  25.898  1.00  0.00    -0.352 N 
ATOM     25  C   UNL A   1      41.559  19.188  26.076  1.00  0.00     0.251 C 
ATOM     26  H   UNL A   1      39.861  18.147  25.864  1.00  0.00     0.163 HD
ATOM     27  O   UNL A   1      42.281  18.205  25.944  1.00  0.00    -0.269 OA
BRANCH  25  28
ATOM     28  C   UNL A   1      42.150  20.502  26.410  1.00  0.00     0.039 A 
ATOM     29  C   UNL A   1      42.611  21.321  25.375  1.00  0.00     0.014 A 
ATOM     30  C   UNL A   1      42.259  20.924  27.737  1.00  0.00     0.014 A 
ATOM     31  C   UNL A   1      43.124  22.586  25.671  1.00  0.00     0.010 A 
ATOM     32  C   UNL A   1      42.674  22.220  28.021  1.00  0.00     0.010 A 
ATOM     33  C   UNL A   1      43.124  23.060  26.993  1.00  0.00    -0.014 A 
BRANCH  33  34
ATOM     34  C   UNL A   1      43.608  24.422  27.333  1.00  0.00     0.031 A 
ATOM     35  C   UNL A   1      42.627  25.477  27.769  1.00  0.00     0.074 A 
ATOM     36  C   UNL A   1      44.910  24.729  27.182  1.00  0.00     0.049 A 
ATOM     37  N   UNL A   1      42.831  26.747  28.009  1.00  0.00    -0.248 NA
ATOM     38  C   UNL A   1      41.226  25.054  27.930  1.00  0.00     0.031 C 
ATOM     39  C   UNL A   1      45.953  23.802  26.733  1.00  0.00     0.029 A 
ATOM     40  N   UNL A   1      45.580  25.912  27.373  1.00  0.00    -0.354 N 
ATOM     41  C   UNL A   1      41.587  27.275  28.331  1.00  0.00     0.074 A 
ATOM     42  C   UNL A   1      40.624  26.203  28.199  1.00  0.00     0.031 C 
ATOM     43  C   UNL A   1      47.130  24.446  26.704  1.00  0.00     0.029 A 
ATOM     44  C   UNL A   1      46.920  25.842  27.076  1.00  0.00     0.049 A 
ATOM     45  H   UNL A   1      45.142  26.733  27.694  1.00  0.00     0.167 HD
ATOM     46  C   UNL A   1      41.277  28.533  28.723  1.00  0.00     0.037 A 
ATOM     47  C   UNL A   1      47.868  26.800  27.082  1.00  0.00     0.037 A 
ATOM     48  C   UNL A   1      42.242  29.591  28.864  1.00  0.00     0.049 A 
ATOM     49  C   UNL A   1      47.488  28.201  27.481  1.00  0.00     0.074 A 
ATOM     50  C   UNL A   1      42.038  30.887  29.304  1.00  0.00     0.029 A 
ATOM     51  N   UNL A   1      43.590  29.477  28.561  1.00  0.00    -0.354 N 
ATOM     52  N   UNL A   1      46.320  28.670  27.848  1.00  0.00    -0.248 NA
ATOM     53  C   UNL A   1      48.560  29.207  27.472  1.00  0.00     0.031 C 
ATOM     54  C   UNL A   1      43.249  31.577  29.200  1.00  0.00     0.029 A 
ATOM     55  C   UNL A   1      44.223  30.690  28.772  1.00  0.00     0.049 A 
ATOM     56  H   UNL A   1      44.031  28.657  28.242  1.00  0.00     0.167 HD
ATOM     57  C   UNL A   1      46.524  30.011  28.149  1.00  0.00     0.074 A 
ATOM     58  C   UNL A   1      47.931  30.277  27.933  1.00  0.00     0.031 C 
ATOM     59  C   UNL A   1      45.629  30.936  28.570  1.00  0.00     0.037 A 
BRANCH  46  60
ATOM     60  C   UNL A   1      39.836  28.840  29.018  1.00  0.00     0.057 A 
ATOM     61  C   UNL A   1      38.936  29.216  28.012  1.00  0.00     0.134 A 
ATOM     62  C   UNL A   1      39.332  28.711  30.318  1.00  0.00     0.134 A 
ATOM     63  F   UNL A   1      39.354  29.369  26.746  1.00  0.00    -0.206 F 
ATOM     64  C   UNL A   1      37.594  29.478  28.293  1.00  0.00     0.040 A 
ATOM     65  C   UNL A   1      37.985  28.936  30.605  1.00  0.00     0.040 A 
ATOM     66  F   UNL A   1      40.136  28.347  31.329  1.00  0.00    -0.206 F 
ATOM     67  C   UNL A   1      37.113  29.328  29.592  1.00  0.00     0.006 A 
ENDBRANCH  46  60
BRANCH  47  68
ATOM     68  C   UNL A   1      49.266  26.475  26.696  1.00  0.00     0.057 A 
ATOM     69  C   UNL A   1      49.726  26.689  25.391  1.00  0.00     0.134 A 
ATOM     70  C   UNL A   1      50.168  25.914  27.610  1.00  0.00     0.134 A 
ATOM     71  F   UNL A   1      48.908  27.208  24.463  1.00  0.00    -0.206 F 
ATOM     72  C   UNL A   1      51.017  26.328  25.000  1.00  0.00     0.040 A 
ATOM     73  C   UNL A   1      51.472  25.580  27.241  1.00  0.00     0.040 A 
ATOM     74  F   UNL A   1      49.797  25.693  28.880  1.00  0.00    -0.206 F 
ATOM     75  C   UNL A   1      51.895  25.775  25.928  1.00  0.00     0.006 A 
ENDBRANCH  47  68
BRANCH  59  76
ATOM     76  C   UNL A   1      46.145  32.312  28.884  1.00  0.00     0.057 A 
ATOM     77  C   UNL A   1      46.225  33.320  27.916  1.00  0.00     0.134 A 
ATOM     78  C   UNL A   1      46.510  32.647  30.196  1.00  0.00     0.134 A 
ATOM     79  F   UNL A   1      45.902  33.065  26.639  1.00  0.00    -0.206 F 
ATOM     80  C   UNL A   1      46.668  34.605  28.236  1.00  0.00     0.040 A 
ATOM     81  C   UNL A   1      46.920  33.935  30.536  1.00  0.00     0.040 A 
ATOM     82  F   UNL A   1      46.447  31.731  31.175  1.00  0.00    -0.206 F 
ATOM     83  C   UNL A   1      47.007  34.918  29.552  1.00  0.00     0.006 A 
ENDBRANCH  59  76
ENDBRANCH  33  34
ENDBRANCH  25  28
ENDBRANCH  23  24
ENDBRANCH  22  23
ENDBRANCH   1  22
TORSDOF 15
ENDMDL
MODEL 3
REMARK VINA RESULT:     -10.4      0.481      6.457
REMARK SMILES N#C[C@H]1CN(C(=O)[C@H]([NH3+])CC(=O)NCCCNC(=O)c2ccc(-c3c4nc(c(-c5c(F)cccc5F)c5ccc([nH]5)c(-c5c(F)cccc5F)c5nc(c(-c6c(F)cccc6F)c6ccc3[nH]6)C=C5)C=C4)cc2)CCO1
REMARK SMILES IDX 14 1 13 2 11 3 12 4 10 6 8 7 6 8 7 9 5 10 3 11 4 12 76 13
REMARK SMILES IDX 75 14 74 15 2 16 1 17 9 18 15 22 16 23 17 24 18 25 19 27
REMARK SMILES IDX 20 28 21 29 73 30 22 31 72 32 23 33 24 34 25 35 66 36 26 37
REMARK SMILES IDX 71 38 65 39 67 40 27 41 70 42 64 43 63 44 28 46 54 47 37 48
REMARK SMILES IDX 53 49 38 50 41 51 52 52 68 53 39 54 40 55 51 57 69 58 42 59
REMARK SMILES IDX 29 60 30 61 35 62 31 63 32 64 34 65 36 66 33 67 55 68 56 69
REMARK SMILES IDX 61 70 57 71 58 72 60 73 62 74 59 75 43 76 44 77 49 78 45 79
REMARK SMILES IDX 46 80 48 81 50 82 47 83
REMARK H PARENT 13 5 9 19 9 20 9 21 17 26 67 45 41 56
REMARK Flexibility Score: inf
ROOT
ATOM      1  C   UNL A   1      36.549  20.414  24.985  1.00  0.00     0.117 C 
ENDROOT
BRANCH   1   2
ATOM      2  N   UNL A   1      35.357  19.586  24.983  1.00  0.00    -0.356 N 
ATOM      3  C   UNL A   1      34.043  19.951  24.926  1.00  0.00     0.226 C 
ATOM      4  O   UNL A   1      33.187  19.086  25.106  1.00  0.00    -0.275 OA
ATOM      5  H   UNL A   1      35.520  18.617  25.029  1.00  0.00     0.163 HD
BRANCH   3   6
ATOM      6  C   UNL A   1      33.660  21.362  24.533  1.00  0.00     0.175 C 
BRANCH   6   7
ATOM      7  C   UNL A   1      33.144  22.266  25.655  1.00  0.00     0.280 C 
BRANCH   7   8
ATOM      8  C   UNL A   1      34.119  23.439  25.934  1.00  0.00     0.281 C 
ATOM      9  O   UNL A   1      35.115  23.242  26.635  1.00  0.00    -0.268 OA
BRANCH   8  10
ATOM     10  N   UNL A   1      33.902  24.677  25.336  1.00  0.00    -0.332 N 
ATOM     11  C   UNL A   1      32.733  25.166  23.236  1.00  0.00     0.240 C 
ATOM     12  C   UNL A   1      34.106  25.050  23.930  1.00  0.00     0.167 C 
ATOM     13  O   UNL A   1      31.938  26.166  23.916  1.00  0.00    -0.360 OA
ATOM     14  C   UNL A   1      31.742  25.826  25.304  1.00  0.00     0.183 C 
ATOM     15  C   UNL A   1      33.080  25.667  26.038  1.00  0.00     0.148 C 
BRANCH  11  16
ATOM     16  C   UNL A   1      32.924  25.512  21.819  1.00  0.00     0.096 C 
ATOM     17  N   UNL A   1      33.062  25.720  20.683  1.00  0.00    -0.195 NA
ENDBRANCH  11  16
ENDBRANCH   8  10
ENDBRANCH   7   8
BRANCH   7  18
ATOM     18  N   UNL A   1      32.798  21.652  26.949  1.00  0.00    -0.347 N 
ATOM     19  H   UNL A   1      33.578  21.080  27.273  1.00  0.00     0.345 HD
ATOM     20  H   UNL A   1      31.971  21.067  26.837  1.00  0.00     0.345 HD
ATOM     21  H   UNL A   1      32.607  22.385  27.633  1.00  0.00     0.345 HD
ENDBRANCH   7  18
ENDBRANCH   6   7
ENDBRANCH   3   6
ENDBRANCH   1   2
BRANCH   1  22
ATOM     22  C   UNL A   1      37.813  19.565  24.907  1.00  0.00     0.042 C 
BRANCH  22  23
ATOM     23  C   UNL A   1      38.981  20.142  25.686  1.00  0.00     0.118 C 
BRANCH  23  24
ATOM     24  N   UNL A   1      40.069  19.189  25.826  1.00  0.00    -0.352 N 
ATOM     25  C   UNL A   1      41.398  19.418  26.086  1.00  0.00     0.251 C 
ATOM     26  H   UNL A   1      39.819  18.243  25.718  1.00  0.00     0.163 HD
ATOM     27  O   UNL A   1      42.215  18.516  25.936  1.00  0.00    -0.269 OA
BRANCH  25  28
ATOM     28  C   UNL A   1      41.845  20.757  26.530  1.00  0.00     0.039 A 
ATOM     29  C   UNL A   1      42.227  21.698  25.570  1.00  0.00     0.014 A 
ATOM     30  C   UNL A   1      41.898  21.082  27.887  1.00  0.00     0.014 A 
ATOM     31  C   UNL A   1      42.602  22.982  25.971  1.00  0.00     0.010 A 
ATOM     32  C   UNL A   1      42.172  22.387  28.278  1.00  0.00     0.010 A 
ATOM     33  C   UNL A   1      42.540  23.348  27.325  1.00  0.00    -0.014 A 
BRANCH  33  34
ATOM     34  C   UNL A   1      42.876  24.722  27.778  1.00  0.00     0.031 A 
ATOM     35  C   UNL A   1      44.310  25.091  28.048  1.00  0.00     0.074 A 
ATOM     36  C   UNL A   1      41.891  25.610  28.015  1.00  0.00     0.049 A 
ATOM     37  N   UNL A   1      44.799  26.198  28.546  1.00  0.00    -0.248 NA
ATOM     38  C   UNL A   1      45.326  24.071  27.743  1.00  0.00     0.031 C 
ATOM     39  C   UNL A   1      40.461  25.359  27.824  1.00  0.00     0.029 A 
ATOM     40  N   UNL A   1      41.942  26.899  28.483  1.00  0.00    -0.354 N 
ATOM     41  C   UNL A   1      46.171  26.000  28.629  1.00  0.00     0.074 A 
ATOM     42  C   UNL A   1      46.433  24.648  28.186  1.00  0.00     0.031 C 
ATOM     43  C   UNL A   1      39.773  26.464  28.153  1.00  0.00     0.029 A 
ATOM     44  C   UNL A   1      40.706  27.481  28.630  1.00  0.00     0.049 A 
ATOM     45  H   UNL A   1      42.784  27.363  28.694  1.00  0.00     0.167 HD
ATOM     46  C   UNL A   1      47.130  26.873  29.018  1.00  0.00     0.037 A 
ATOM     47  C   UNL A   1      40.361  28.691  29.114  1.00  0.00     0.037 A 
ATOM     48  C   UNL A   1      46.863  28.222  29.445  1.00  0.00     0.049 A 
ATOM     49  C   UNL A   1      41.444  29.627  29.580  1.00  0.00     0.074 A 
ATOM     50  C   UNL A   1      47.769  29.202  29.810  1.00  0.00     0.029 A 
ATOM     51  N   UNL A   1      45.599  28.775  29.572  1.00  0.00    -0.354 N 
ATOM     52  N   UNL A   1      42.743  29.451  29.590  1.00  0.00    -0.248 NA
ATOM     53  C   UNL A   1      41.014  30.934  30.098  1.00  0.00     0.031 C 
ATOM     54  C   UNL A   1      47.049  30.325  30.225  1.00  0.00     0.029 A 
ATOM     55  C   UNL A   1      45.700  30.073  30.043  1.00  0.00     0.049 A 
ATOM     56  H   UNL A   1      44.755  28.314  29.360  1.00  0.00     0.167 HD
ATOM     57  C   UNL A   1      43.285  30.634  30.076  1.00  0.00     0.074 A 
ATOM     58  C   UNL A   1      42.175  31.524  30.339  1.00  0.00     0.031 C 
ATOM     59  C   UNL A   1      44.585  30.956  30.282  1.00  0.00     0.037 A 
BRANCH  46  60
ATOM     60  C   UNL A   1      48.555  26.398  29.009  1.00  0.00     0.057 A 
ATOM     61  C   UNL A   1      49.401  26.608  27.912  1.00  0.00     0.134 A 
ATOM     62  C   UNL A   1      49.103  25.767  30.133  1.00  0.00     0.134 A 
ATOM     63  F   UNL A   1      48.939  27.197  26.798  1.00  0.00    -0.206 F 
ATOM     64  C   UNL A   1      50.731  26.182  27.923  1.00  0.00     0.040 A 
ATOM     65  C   UNL A   1      50.440  25.368  30.169  1.00  0.00     0.040 A 
ATOM     66  F   UNL A   1      48.353  25.541  31.222  1.00  0.00    -0.206 F 
ATOM     67  C   UNL A   1      51.256  25.570  29.058  1.00  0.00     0.006 A 
ENDBRANCH  46  60
BRANCH  47  68
ATOM     68  C   UNL A   1      38.931  29.089  29.191  1.00  0.00     0.057 A 
ATOM     69  C   UNL A   1      38.206  28.964  30.382  1.00  0.00     0.134 A 
ATOM     70  C   UNL A   1      38.245  29.576  28.070  1.00  0.00     0.134 A 
ATOM     71  F   UNL A   1      38.800  28.490  31.487  1.00  0.00    -0.206 F 
ATOM     72  C   UNL A   1      36.846  29.275  30.448  1.00  0.00     0.040 A 
ATOM     73  C   UNL A   1      36.894  29.922  28.132  1.00  0.00     0.040 A 
ATOM     74  F   UNL A   1      38.881  29.732  26.900  1.00  0.00    -0.206 F 
ATOM     75  C   UNL A   1      36.187  29.759  29.321  1.00  0.00     0.006 A 
ENDBRANCH  47  68
BRANCH  59  76
ATOM     76  C   UNL A   1      44.891  32.346  30.764  1.00  0.00     0.057 A 
ATOM     77  C   UNL A   1      45.063  33.421  29.885  1.00  0.00     0.134 A 
ATOM     78  C   UNL A   1      44.953  32.619  32.138  1.00  0.00     0.134 A 
ATOM     79  F   UNL A   1      45.028  33.228  28.557  1.00  0.00    -0.206 F 
ATOM     80  C   UNL A   1      45.306  34.714  30.352  1.00  0.00     0.040 A 
ATOM     81  C   UNL A   1      45.159  33.911  32.618  1.00  0.00     0.040 A 
ATOM     82  F   UNL A   1      44.786  31.636  33.036  1.00  0.00    -0.206 F 
ATOM     83  C   UNL A   1      45.343  34.964  31.723  1.00  0.00     0.006 A 
ENDBRANCH  59  76
ENDBRANCH  33  34
ENDBRANCH  25  28
ENDBRANCH  23  24
ENDBRANCH  22  23
ENDBRANCH   1  22
TORSDOF 15
ENDMDL
