MODEL 1
REMARK VINA RESULT:     -11.0      0.000      0.000
REMARK SMILES CC[C@@](C)([NH2+][C@H]1CC[C@H](C)[C@H](C)C1)C(=O)NCCCNC(=O)c1ccc(-c2c3nc(c(-c4c(F)cccc4F)c4ccc([nH]4)c(-c4c(F)cccc4F)c4nc(c(-c5c(F)cccc5F)c5ccc2[nH]5)C=C4)C=C3)cc1
REMARK SMILES IDX 18 1 17 2 16 3 14 4 15 5 3 7 4 8 2 9 1 10 5 11 6 14 7 15
REMARK SMILES IDX 13 16 8 17 11 18 9 19 12 20 10 21 19 22 20 23 21 24 22 26
REMARK SMILES IDX 23 27 24 28 76 29 25 30 75 31 26 32 27 33 28 34 69 35 29 36
REMARK SMILES IDX 74 37 68 38 70 39 30 40 73 41 67 42 66 43 31 45 57 46 40 47
REMARK SMILES IDX 56 48 41 49 44 50 55 51 71 52 42 53 43 54 54 56 72 57 45 58
REMARK SMILES IDX 32 59 33 60 38 61 34 62 35 63 37 64 39 65 36 66 58 67 59 68
REMARK SMILES IDX 64 69 60 70 61 71 63 72 65 73 62 74 46 75 47 76 52 77 48 78
REMARK SMILES IDX 49 79 51 80 53 81 50 82
REMARK H PARENT 16 6 5 12 5 13 20 25 70 44 44 55
REMARK Flexibility Score: inf
ROOT
ATOM      1  C   UNL A   1      32.935  28.131  26.897  1.00  0.00     0.042 C 
ENDROOT
BRANCH   1   2
ATOM      2  C   UNL A   1      31.430  27.967  26.703  1.00  0.00     0.118 C 
BRANCH   2   3
ATOM      3  N   UNL A   1      31.052  26.576  26.858  1.00  0.00    -0.351 N 
ATOM      4  C   UNL A   1      30.674  25.606  25.979  1.00  0.00     0.281 C 
ATOM      5  O   UNL A   1      30.041  24.682  26.514  1.00  0.00    -0.268 OA
ATOM      6  H   UNL A   1      31.073  26.268  27.793  1.00  0.00     0.163 HD
BRANCH   4   7
ATOM      7  C   UNL A   1      31.012  25.579  24.434  1.00  0.00     0.172 C 
ATOM      8  C   UNL A   1      30.437  24.369  23.691  1.00  0.00     0.090 C 
BRANCH   7   9
ATOM      9  C   UNL A   1      30.312  26.860  23.828  1.00  0.00     0.075 C 
ATOM     10  C   UNL A   1      28.784  26.814  23.773  1.00  0.00     0.011 C 
ENDBRANCH   7   9
BRANCH   7  11
ATOM     11  N   UNL A   1      32.464  25.839  24.180  1.00  0.00    -0.331 N 
ATOM     12  H   UNL A   1      32.758  26.547  24.853  1.00  0.00     0.347 HD
ATOM     13  H   UNL A   1      32.484  26.088  23.191  1.00  0.00     0.347 HD
BRANCH  11  14
ATOM     14  C   UNL A   1      33.434  24.752  24.265  1.00  0.00     0.183 C 
ATOM     15  C   UNL A   1      34.153  24.430  22.954  1.00  0.00     0.065 C 
ATOM     16  C   UNL A   1      34.509  25.119  25.309  1.00  0.00     0.068 C 
ATOM     17  C   UNL A   1      34.999  23.176  23.156  1.00  0.00     0.010 C 
ATOM     18  C   UNL A   1      35.587  24.026  25.534  1.00  0.00    -0.006 C 
ATOM     19  C   UNL A   1      36.094  23.380  24.213  1.00  0.00    -0.011 C 
ATOM     20  C   UNL A   1      35.157  23.015  26.603  1.00  0.00     0.008 C 
ATOM     21  C   UNL A   1      36.845  22.059  24.419  1.00  0.00     0.008 C 
ENDBRANCH  11  14
ENDBRANCH   7  11
ENDBRANCH   4   7
ENDBRANCH   2   3
ENDBRANCH   1   2
BRANCH   1  22
ATOM     22  C   UNL A   1      33.598  29.169  26.011  1.00  0.00     0.118 C 
BRANCH  22  23
ATOM     23  N   UNL A   1      33.676  30.454  26.682  1.00  0.00    -0.352 N 
ATOM     24  C   UNL A   1      34.493  30.928  27.677  1.00  0.00     0.251 C 
ATOM     25  H   UNL A   1      33.014  31.111  26.363  1.00  0.00     0.163 HD
ATOM     26  O   UNL A   1      34.132  31.951  28.261  1.00  0.00    -0.269 OA
BRANCH  24  27
ATOM     27  C   UNL A   1      35.779  30.287  28.076  1.00  0.00     0.039 A 
ATOM     28  C   UNL A   1      35.836  29.681  29.341  1.00  0.00     0.014 A 
ATOM     29  C   UNL A   1      36.956  30.362  27.328  1.00  0.00     0.014 A 
ATOM     30  C   UNL A   1      37.042  29.170  29.840  1.00  0.00     0.010 A 
ATOM     31  C   UNL A   1      38.134  29.755  27.778  1.00  0.00     0.010 A 
ATOM     32  C   UNL A   1      38.206  29.190  29.058  1.00  0.00    -0.014 A 
BRANCH  32  33
ATOM     33  C   UNL A   1      39.500  28.684  29.597  1.00  0.00     0.031 A 
ATOM     34  C   UNL A   1      40.108  29.292  30.838  1.00  0.00     0.074 A 
ATOM     35  C   UNL A   1      40.144  27.680  28.969  1.00  0.00     0.049 A 
ATOM     36  N   UNL A   1      41.222  28.981  31.454  1.00  0.00    -0.248 NA
ATOM     37  C   UNL A   1      39.385  30.416  31.455  1.00  0.00     0.031 C 
ATOM     38  C   UNL A   1      39.702  27.034  27.733  1.00  0.00     0.029 A 
ATOM     39  N   UNL A   1      41.307  27.024  29.290  1.00  0.00    -0.354 N 
ATOM     40  C   UNL A   1      41.342  29.881  32.508  1.00  0.00     0.074 A 
ATOM     41  C   UNL A   1      40.216  30.784  32.418  1.00  0.00     0.031 C 
ATOM     42  C   UNL A   1      40.559  26.047  27.422  1.00  0.00     0.029 A 
ATOM     43  C   UNL A   1      41.625  26.011  28.419  1.00  0.00     0.049 A 
ATOM     44  H   UNL A   1      41.859  27.257  30.071  1.00  0.00     0.167 HD
ATOM     45  C   UNL A   1      42.286  29.938  33.479  1.00  0.00     0.037 A 
ATOM     46  C   UNL A   1      42.654  25.142  28.425  1.00  0.00     0.037 A 
ATOM     47  C   UNL A   1      43.384  29.017  33.602  1.00  0.00     0.049 A 
ATOM     48  C   UNL A   1      43.665  25.198  29.536  1.00  0.00     0.074 A 
ATOM     49  C   UNL A   1      44.356  28.957  34.587  1.00  0.00     0.029 A 
ATOM     50  N   UNL A   1      43.654  27.988  32.713  1.00  0.00    -0.354 N 
ATOM     51  N   UNL A   1      43.726  26.016  30.558  1.00  0.00    -0.248 NA
ATOM     52  C   UNL A   1      44.743  24.200  29.499  1.00  0.00     0.031 C 
ATOM     53  C   UNL A   1      45.230  27.909  34.277  1.00  0.00     0.029 A 
ATOM     54  C   UNL A   1      44.782  27.294  33.121  1.00  0.00     0.049 A 
ATOM     55  H   UNL A   1      43.122  27.781  31.910  1.00  0.00     0.167 HD
ATOM     56  C   UNL A   1      44.834  25.618  31.297  1.00  0.00     0.074 A 
ATOM     57  C   UNL A   1      45.402  24.473  30.617  1.00  0.00     0.031 C 
ATOM     58  C   UNL A   1      45.335  26.154  32.437  1.00  0.00     0.037 A 
BRANCH  45  59
ATOM     59  C   UNL A   1      42.163  31.034  34.499  1.00  0.00     0.057 A 
ATOM     60  C   UNL A   1      42.774  32.282  34.321  1.00  0.00     0.134 A 
ATOM     61  C   UNL A   1      41.396  30.852  35.657  1.00  0.00     0.134 A 
ATOM     62  F   UNL A   1      43.531  32.520  33.239  1.00  0.00    -0.206 F 
ATOM     63  C   UNL A   1      42.651  33.299  35.269  1.00  0.00     0.040 A 
ATOM     64  C   UNL A   1      41.244  31.870  36.601  1.00  0.00     0.040 A 
ATOM     65  F   UNL A   1      40.776  29.684  35.889  1.00  0.00    -0.206 F 
ATOM     66  C   UNL A   1      41.879  33.096  36.411  1.00  0.00     0.006 A 
ENDBRANCH  45  59
BRANCH  46  67
ATOM     67  C   UNL A   1      42.758  24.111  27.364  1.00  0.00     0.057 A 
ATOM     68  C   UNL A   1      42.228  22.828  27.551  1.00  0.00     0.134 A 
ATOM     69  C   UNL A   1      43.389  24.377  26.143  1.00  0.00     0.134 A 
ATOM     70  F   UNL A   1      41.629  22.509  28.708  1.00  0.00    -0.206 F 
ATOM     71  C   UNL A   1      42.337  21.841  26.571  1.00  0.00     0.040 A 
ATOM     72  C   UNL A   1      43.484  23.407  25.144  1.00  0.00     0.040 A 
ATOM     73  F   UNL A   1      43.909  25.589  25.901  1.00  0.00    -0.206 F 
ATOM     74  C   UNL A   1      42.962  22.133  25.359  1.00  0.00     0.006 A 
ENDBRANCH  46  67
BRANCH  58  75
ATOM     75  C   UNL A   1      46.539  25.487  33.031  1.00  0.00     0.057 A 
ATOM     76  C   UNL A   1      46.425  24.466  33.983  1.00  0.00     0.134 A 
ATOM     77  C   UNL A   1      47.829  25.861  32.634  1.00  0.00     0.134 A 
ATOM     78  F   UNL A   1      45.217  24.071  34.414  1.00  0.00    -0.206 F 
ATOM     79  C   UNL A   1      47.551  23.861  34.542  1.00  0.00     0.040 A 
ATOM     80  C   UNL A   1      48.963  25.246  33.168  1.00  0.00     0.040 A 
ATOM     81  F   UNL A   1      48.009  26.826  31.719  1.00  0.00    -0.206 F 
ATOM     82  C   UNL A   1      48.825  24.249  34.131  1.00  0.00     0.006 A 
ENDBRANCH  58  75
ENDBRANCH  32  33
ENDBRANCH  24  27
ENDBRANCH  22  23
ENDBRANCH   1  22
TORSDOF 13
ENDMDL
MODEL 2
REMARK VINA RESULT:     -11.0      3.715      8.489
REMARK SMILES CC[C@@](C)([NH2+][C@H]1CC[C@H](C)[C@H](C)C1)C(=O)NCCCNC(=O)c1ccc(-c2c3nc(c(-c4c(F)cccc4F)c4ccc([nH]4)c(-c4c(F)cccc4F)c4nc(c(-c5c(F)cccc5F)c5ccc2[nH]5)C=C4)C=C3)cc1
REMARK SMILES IDX 18 1 17 2 16 3 14 4 15 5 3 7 4 8 2 9 1 10 5 11 6 14 7 15
REMARK SMILES IDX 13 16 8 17 11 18 9 19 12 20 10 21 19 22 20 23 21 24 22 26
REMARK SMILES IDX 23 27 24 28 76 29 25 30 75 31 26 32 27 33 28 34 69 35 29 36
REMARK SMILES IDX 74 37 68 38 70 39 30 40 73 41 67 42 66 43 31 45 57 46 40 47
REMARK SMILES IDX 56 48 41 49 44 50 55 51 71 52 42 53 43 54 54 56 72 57 45 58
REMARK SMILES IDX 32 59 33 60 38 61 34 62 35 63 37 64 39 65 36 66 58 67 59 68
REMARK SMILES IDX 64 69 60 70 61 71 63 72 65 73 62 74 46 75 47 76 52 77 48 78
REMARK SMILES IDX 49 79 51 80 53 81 50 82
REMARK H PARENT 16 6 5 12 5 13 20 25 70 44 44 55
REMARK Flexibility Score: inf
ROOT
ATOM      1  C   UNL A   1      38.968  21.904  26.057  1.00  0.00     0.042 C 
ENDROOT
BRANCH   1   2
ATOM      2  C   UNL A   1      37.581  22.505  25.844  1.00  0.00     0.118 C 
BRANCH   2   3
ATOM      3  N   UNL A   1      37.388  22.838  24.446  1.00  0.00    -0.351 N 
ATOM      4  C   UNL A   1      36.285  22.949  23.654  1.00  0.00     0.281 C 
ATOM      5  O   UNL A   1      36.540  22.844  22.444  1.00  0.00    -0.268 OA
ATOM      6  H   UNL A   1      38.230  23.023  23.970  1.00  0.00     0.163 HD
BRANCH   4   7
ATOM      7  C   UNL A   1      34.812  23.225  24.160  1.00  0.00     0.172 C 
ATOM      8  C   UNL A   1      34.611  24.620  24.764  1.00  0.00     0.090 C 
BRANCH   7   9
ATOM      9  C   UNL A   1      33.903  23.152  22.870  1.00  0.00     0.075 C 
ATOM     10  C   UNL A   1      33.323  24.486  22.394  1.00  0.00     0.011 C 
ENDBRANCH   7   9
BRANCH   7  11
ATOM     11  N   UNL A   1      34.294  22.099  24.999  1.00  0.00    -0.331 N 
ATOM     12  H   UNL A   1      33.334  22.335  25.248  1.00  0.00     0.347 HD
ATOM     13  H   UNL A   1      34.978  22.040  25.753  1.00  0.00     0.347 HD
BRANCH  11  14
ATOM     14  C   UNL A   1      34.267  20.738  24.473  1.00  0.00     0.183 C 
ATOM     15  C   UNL A   1      35.260  19.777  25.128  1.00  0.00     0.065 C 
ATOM     16  C   UNL A   1      32.853  20.152  24.667  1.00  0.00     0.068 C 
ATOM     17  C   UNL A   1      35.237  18.455  24.366  1.00  0.00     0.010 C 
ATOM     18  C   UNL A   1      32.670  18.717  24.109  1.00  0.00    -0.006 C 
ATOM     19  C   UNL A   1      33.863  17.773  24.434  1.00  0.00    -0.011 C 
ATOM     20  C   UNL A   1      32.261  18.728  22.631  1.00  0.00     0.008 C 
ATOM     21  C   UNL A   1      33.893  16.499  23.580  1.00  0.00     0.008 C 
ENDBRANCH  11  14
ENDBRANCH   7  11
ENDBRANCH   4   7
ENDBRANCH   2   3
ENDBRANCH   1   2
BRANCH   1  22
ATOM     22  C   UNL A   1      39.885  22.690  26.976  1.00  0.00     0.118 C 
BRANCH  22  23
ATOM     23  N   UNL A   1      40.974  23.297  26.231  1.00  0.00    -0.352 N 
ATOM     24  C   UNL A   1      41.451  24.583  26.178  1.00  0.00     0.251 C 
ATOM     25  H   UNL A   1      41.462  22.666  25.654  1.00  0.00     0.163 HD
ATOM     26  O   UNL A   1      42.185  24.870  25.231  1.00  0.00    -0.269 OA
BRANCH  24  27
ATOM     27  C   UNL A   1      41.142  25.631  27.193  1.00  0.00     0.039 A 
ATOM     28  C   UNL A   1      41.940  26.786  27.194  1.00  0.00     0.014 A 
ATOM     29  C   UNL A   1      40.199  25.480  28.211  1.00  0.00     0.014 A 
ATOM     30  C   UNL A   1      41.795  27.758  28.193  1.00  0.00     0.010 A 
ATOM     31  C   UNL A   1      39.980  26.499  29.145  1.00  0.00     0.010 A 
ATOM     32  C   UNL A   1      40.804  27.632  29.176  1.00  0.00    -0.014 A 
BRANCH  32  33
ATOM     33  C   UNL A   1      40.671  28.642  30.265  1.00  0.00     0.031 A 
ATOM     34  C   UNL A   1      39.589  29.693  30.213  1.00  0.00     0.074 A 
ATOM     35  C   UNL A   1      41.530  28.628  31.303  1.00  0.00     0.049 A 
ATOM     36  N   UNL A   1      39.318  30.649  31.068  1.00  0.00    -0.248 NA
ATOM     37  C   UNL A   1      38.710  29.690  29.032  1.00  0.00     0.031 C 
ATOM     38  C   UNL A   1      42.655  27.705  31.459  1.00  0.00     0.029 A 
ATOM     39  N   UNL A   1      41.585  29.412  32.429  1.00  0.00    -0.354 N 
ATOM     40  C   UNL A   1      38.262  31.367  30.518  1.00  0.00     0.074 A 
ATOM     41  C   UNL A   1      37.974  30.772  29.233  1.00  0.00     0.031 C 
ATOM     42  C   UNL A   1      43.264  27.949  32.632  1.00  0.00     0.029 A 
ATOM     43  C   UNL A   1      42.592  29.061  33.296  1.00  0.00     0.049 A 
ATOM     44  H   UNL A   1      40.962  30.155  32.600  1.00  0.00     0.167 HD
ATOM     45  C   UNL A   1      37.574  32.411  31.044  1.00  0.00     0.037 A 
ATOM     46  C   UNL A   1      42.932  29.570  34.495  1.00  0.00     0.037 A 
ATOM     47  C   UNL A   1      37.825  32.980  32.341  1.00  0.00     0.049 A 
ATOM     48  C   UNL A   1      42.128  30.699  35.076  1.00  0.00     0.074 A 
ATOM     49  C   UNL A   1      37.141  33.998  32.986  1.00  0.00     0.029 A 
ATOM     50  N   UNL A   1      38.837  32.576  33.198  1.00  0.00    -0.354 N 
ATOM     51  N   UNL A   1      41.093  31.324  34.569  1.00  0.00    -0.248 NA
ATOM     52  C   UNL A   1      42.533  31.185  36.403  1.00  0.00     0.031 C 
ATOM     53  C   UNL A   1      37.759  34.229  34.220  1.00  0.00     0.029 A 
ATOM     54  C   UNL A   1      38.802  33.330  34.360  1.00  0.00     0.049 A 
ATOM     55  H   UNL A   1      39.485  31.859  33.009  1.00  0.00     0.167 HD
ATOM     56  C   UNL A   1      40.710  32.259  35.523  1.00  0.00     0.074 A 
ATOM     57  C   UNL A   1      41.610  32.106  36.646  1.00  0.00     0.031 C 
ATOM     58  C   UNL A   1      39.702  33.165  35.472  1.00  0.00     0.037 A 
BRANCH  45  59
ATOM     59  C   UNL A   1      36.468  32.999  30.214  1.00  0.00     0.057 A 
ATOM     60  C   UNL A   1      35.124  32.674  30.437  1.00  0.00     0.134 A 
ATOM     61  C   UNL A   1      36.748  33.926  29.202  1.00  0.00     0.134 A 
ATOM     62  F   UNL A   1      34.788  31.784  31.383  1.00  0.00    -0.206 F 
ATOM     63  C   UNL A   1      34.100  33.228  29.666  1.00  0.00     0.040 A 
ATOM     64  C   UNL A   1      35.730  34.507  28.442  1.00  0.00     0.040 A 
ATOM     65  F   UNL A   1      38.013  34.290  28.940  1.00  0.00    -0.206 F 
ATOM     66  C   UNL A   1      34.402  34.152  28.669  1.00  0.00     0.006 A 
ENDBRANCH  45  59
BRANCH  46  67
ATOM     67  C   UNL A   1      44.066  28.986  35.252  1.00  0.00     0.057 A 
ATOM     68  C   UNL A   1      45.371  29.462  35.077  1.00  0.00     0.134 A 
ATOM     69  C   UNL A   1      43.877  27.940  36.163  1.00  0.00     0.134 A 
ATOM     70  F   UNL A   1      45.616  30.450  34.204  1.00  0.00    -0.206 F 
ATOM     71  C   UNL A   1      46.450  28.909  35.766  1.00  0.00     0.040 A 
ATOM     72  C   UNL A   1      44.944  27.392  36.876  1.00  0.00     0.040 A 
ATOM     73  F   UNL A   1      42.649  27.445  36.380  1.00  0.00    -0.206 F 
ATOM     74  C   UNL A   1      46.236  27.873  36.674  1.00  0.00     0.006 A 
ENDBRANCH  46  67
BRANCH  58  75
ATOM     75  C   UNL A   1      39.507  34.036  36.677  1.00  0.00     0.057 A 
ATOM     76  C   UNL A   1      38.794  33.595  37.799  1.00  0.00     0.134 A 
ATOM     77  C   UNL A   1      40.052  35.325  36.721  1.00  0.00     0.134 A 
ATOM     78  F   UNL A   1      38.236  32.375  37.815  1.00  0.00    -0.206 F 
ATOM     79  C   UNL A   1      38.604  34.417  38.911  1.00  0.00     0.040 A 
ATOM     80  C   UNL A   1      39.889  36.147  37.837  1.00  0.00     0.040 A 
ATOM     81  F   UNL A   1      40.754  35.804  35.683  1.00  0.00    -0.206 F 
ATOM     82  C   UNL A   1      39.156  35.697  38.932  1.00  0.00     0.006 A 
ENDBRANCH  58  75
ENDBRANCH  32  33
ENDBRANCH  24  27
ENDBRANCH  22  23
ENDBRANCH   1  22
TORSDOF 13
ENDMDL
MODEL 3
REMARK VINA RESULT:     -11.0      2.325      3.474
REMARK SMILES CC[C@@](C)([NH2+][C@H]1CC[C@H](C)[C@H](C)C1)C(=O)NCCCNC(=O)c1ccc(-c2c3nc(c(-c4c(F)cccc4F)c4ccc([nH]4)c(-c4c(F)cccc4F)c4nc(c(-c5c(F)cccc5F)c5ccc2[nH]5)C=C4)C=C3)cc1
REMARK SMILES IDX 18 1 17 2 16 3 14 4 15 5 3 7 4 8 2 9 1 10 5 11 6 14 7 15
REMARK SMILES IDX 13 16 8 17 11 18 9 19 12 20 10 21 19 22 20 23 21 24 22 26
REMARK SMILES IDX 23 27 24 28 76 29 25 30 75 31 26 32 27 33 28 34 69 35 29 36
REMARK SMILES IDX 74 37 68 38 70 39 30 40 73 41 67 42 66 43 31 45 57 46 40 47
REMARK SMILES IDX 56 48 41 49 44 50 55 51 71 52 42 53 43 54 54 56 72 57 45 58
REMARK SMILES IDX 32 59 33 60 38 61 34 62 35 63 37 64 39 65 36 66 58 67 59 68
REMARK SMILES IDX 64 69 60 70 61 71 63 72 65 73 62 74 46 75 47 76 52 77 48 78
REMARK SMILES IDX 49 79 51 80 53 81 50 82
REMARK H PARENT 16 6 5 12 5 13 20 25 70 44 44 55
REMARK Flexibility Score: inf
ROOT
ATOM      1  C   UNL A   1      32.045  30.080  25.374  1.00  0.00     0.042 C 
ENDROOT
BRANCH   1   2
ATOM      2  C   UNL A   1      33.265  29.174  25.227  1.00  0.00     0.118 C 
BRANCH   2   3
ATOM      3  N   UNL A   1      33.651  29.075  23.833  1.00  0.00    -0.351 N 
ATOM      4  C   UNL A   1      33.598  28.067  22.917  1.00  0.00     0.281 C 
ATOM      5  O   UNL A   1      34.385  28.225  21.970  1.00  0.00    -0.268 OA
ATOM      6  H   UNL A   1      34.029  29.909  23.472  1.00  0.00     0.163 HD
BRANCH   4   7
ATOM      7  C   UNL A   1      32.628  26.819  22.974  1.00  0.00     0.172 C 
ATOM      8  C   UNL A   1      31.211  27.107  22.467  1.00  0.00     0.090 C 
BRANCH   7   9
ATOM      9  C   UNL A   1      33.254  25.752  21.992  1.00  0.00     0.075 C 
ATOM     10  C   UNL A   1      32.529  25.578  20.656  1.00  0.00     0.011 C 
ENDBRANCH   7   9
BRANCH   7  11
ATOM     11  N   UNL A   1      32.690  26.130  24.302  1.00  0.00    -0.331 N 
ATOM     12  H   UNL A   1      31.734  25.872  24.544  1.00  0.00     0.347 HD
ATOM     13  H   UNL A   1      33.161  26.814  24.894  1.00  0.00     0.347 HD
BRANCH  11  14
ATOM     14  C   UNL A   1      33.503  24.931  24.474  1.00  0.00     0.183 C 
ATOM     15  C   UNL A   1      34.741  25.115  25.353  1.00  0.00     0.065 C 
ATOM     16  C   UNL A   1      32.638  23.824  25.112  1.00  0.00     0.068 C 
ATOM     17  C   UNL A   1      35.573  23.837  25.300  1.00  0.00     0.010 C 
ATOM     18  C   UNL A   1      33.369  22.471  25.313  1.00  0.00    -0.006 C 
ATOM     19  C   UNL A   1      34.815  22.629  25.866  1.00  0.00    -0.011 C 
ATOM     20  C   UNL A   1      33.266  21.578  24.070  1.00  0.00     0.008 C 
ATOM     21  C   UNL A   1      35.679  21.372  25.704  1.00  0.00     0.008 C 
ENDBRANCH  11  14
ENDBRANCH   7  11
ENDBRANCH   4   7
ENDBRANCH   2   3
ENDBRANCH   1   2
BRANCH   1  22
ATOM     22  C   UNL A   1      31.776  30.587  26.778  1.00  0.00     0.118 C 
BRANCH  22  23
ATOM     23  N   UNL A   1      31.928  32.029  26.850  1.00  0.00    -0.352 N 
ATOM     24  C   UNL A   1      32.838  32.831  27.493  1.00  0.00     0.251 C 
ATOM     25  H   UNL A   1      31.247  32.527  26.341  1.00  0.00     0.163 HD
ATOM     26  O   UNL A   1      32.542  34.019  27.628  1.00  0.00    -0.269 OA
BRANCH  24  27
ATOM     27  C   UNL A   1      34.148  32.352  28.017  1.00  0.00     0.039 A 
ATOM     28  C   UNL A   1      34.260  30.988  28.333  1.00  0.00     0.014 A 
ATOM     29  C   UNL A   1      35.221  33.190  28.328  1.00  0.00     0.014 A 
ATOM     30  C   UNL A   1      35.414  30.485  28.948  1.00  0.00     0.010 A 
ATOM     31  C   UNL A   1      36.415  32.669  28.840  1.00  0.00     0.010 A 
ATOM     32  C   UNL A   1      36.513  31.319  29.199  1.00  0.00    -0.014 A 
BRANCH  32  33
ATOM     33  C   UNL A   1      37.728  30.799  29.889  1.00  0.00     0.031 A 
ATOM     34  C   UNL A   1      38.002  31.144  31.332  1.00  0.00     0.074 A 
ATOM     35  C   UNL A   1      38.600  30.020  29.218  1.00  0.00     0.049 A 
ATOM     36  N   UNL A   1      39.003  30.782  32.097  1.00  0.00    -0.248 NA
ATOM     37  C   UNL A   1      37.041  32.037  32.000  1.00  0.00     0.031 C 
ATOM     38  C   UNL A   1      38.492  29.648  27.807  1.00  0.00     0.029 A 
ATOM     39  N   UNL A   1      39.748  29.395  29.639  1.00  0.00    -0.354 N 
ATOM     40  C   UNL A   1      38.803  31.418  33.318  1.00  0.00     0.074 A 
ATOM     41  C   UNL A   1      37.615  32.230  33.177  1.00  0.00     0.031 C 
ATOM     42  C   UNL A   1      39.507  28.828  27.490  1.00  0.00     0.029 A 
ATOM     43  C   UNL A   1      40.353  28.639  28.664  1.00  0.00     0.049 A 
ATOM     44  H   UNL A   1      40.104  29.481  30.553  1.00  0.00     0.167 HD
ATOM     45  C   UNL A   1      39.524  31.317  34.461  1.00  0.00     0.037 A 
ATOM     46  C   UNL A   1      41.459  27.872  28.711  1.00  0.00     0.037 A 
ATOM     47  C   UNL A   1      40.681  30.477  34.623  1.00  0.00     0.049 A 
ATOM     48  C   UNL A   1      42.217  27.743  30.002  1.00  0.00     0.074 A 
ATOM     49  C   UNL A   1      41.440  30.261  35.761  1.00  0.00     0.029 A 
ATOM     50  N   UNL A   1      41.243  29.707  33.617  1.00  0.00    -0.354 N 
ATOM     51  N   UNL A   1      41.976  28.302  31.162  1.00  0.00    -0.248 NA
ATOM     52  C   UNL A   1      43.395  26.864  29.991  1.00  0.00     0.031 C 
ATOM     53  C   UNL A   1      42.479  29.382  35.435  1.00  0.00     0.029 A 
ATOM     54  C   UNL A   1      42.344  29.022  34.105  1.00  0.00     0.049 A 
ATOM     55  H   UNL A   1      40.908  29.653  32.692  1.00  0.00     0.167 HD
ATOM     56  C   UNL A   1      42.957  27.826  32.024  1.00  0.00     0.074 A 
ATOM     57  C   UNL A   1      43.783  26.917  31.257  1.00  0.00     0.031 C 
ATOM     58  C   UNL A   1      43.155  28.117  33.333  1.00  0.00     0.037 A 
BRANCH  45  59
ATOM     59  C   UNL A   1      39.070  32.133  35.639  1.00  0.00     0.057 A 
ATOM     60  C   UNL A   1      39.463  33.467  35.809  1.00  0.00     0.134 A 
ATOM     61  C   UNL A   1      38.203  31.589  36.595  1.00  0.00     0.134 A 
ATOM     62  F   UNL A   1      40.302  34.045  34.936  1.00  0.00    -0.206 F 
ATOM     63  C   UNL A   1      39.034  34.221  36.902  1.00  0.00     0.040 A 
ATOM     64  C   UNL A   1      37.745  32.343  37.678  1.00  0.00     0.040 A 
ATOM     65  F   UNL A   1      37.779  30.320  36.490  1.00  0.00    -0.206 F 
ATOM     66  C   UNL A   1      38.167  33.661  37.838  1.00  0.00     0.006 A 
ENDBRANCH  45  59
BRANCH  46  67
ATOM     67  C   UNL A   1      41.893  27.127  27.504  1.00  0.00     0.057 A 
ATOM     68  C   UNL A   1      42.694  27.737  26.530  1.00  0.00     0.134 A 
ATOM     69  C   UNL A   1      41.519  25.796  27.291  1.00  0.00     0.134 A 
ATOM     70  F   UNL A   1      43.068  29.017  26.670  1.00  0.00    -0.206 F 
ATOM     71  C   UNL A   1      43.093  27.056  25.380  1.00  0.00     0.040 A 
ATOM     72  C   UNL A   1      41.931  25.095  26.156  1.00  0.00     0.040 A 
ATOM     73  F   UNL A   1      40.759  25.154  28.191  1.00  0.00    -0.206 F 
ATOM     74  C   UNL A   1      42.715  25.727  25.194  1.00  0.00     0.006 A 
ENDBRANCH  46  67
BRANCH  58  75
ATOM     75  C   UNL A   1      44.292  27.422  34.021  1.00  0.00     0.057 A 
ATOM     76  C   UNL A   1      45.575  27.984  34.080  1.00  0.00     0.134 A 
ATOM     77  C   UNL A   1      44.098  26.183  34.643  1.00  0.00     0.134 A 
ATOM     78  F   UNL A   1      45.828  29.163  33.492  1.00  0.00    -0.206 F 
ATOM     79  C   UNL A   1      46.631  27.323  34.709  1.00  0.00     0.040 A 
ATOM     80  C   UNL A   1      45.141  25.525  35.296  1.00  0.00     0.040 A 
ATOM     81  F   UNL A   1      42.893  25.595  34.632  1.00  0.00    -0.206 F 
ATOM     82  C   UNL A   1      46.414  26.091  35.323  1.00  0.00     0.006 A 
ENDBRANCH  58  75
ENDBRANCH  32  33
ENDBRANCH  24  27
ENDBRANCH  22  23
ENDBRANCH   1  22
TORSDOF 13
ENDMDL
