MODEL 1
REMARK VINA RESULT:     -13.2      0.000      0.000
REMARK SMILES C[C@@H]1CC(C)(C)C[C@@](CC(=O)Nc2cccc(C(F)(F)F)c2)(C(=O)NCCCNC(=O)c2ccc(-c3c4nc(c(-c5c(F)cccc5F)c5ccc([nH]5)c(-c5c(F)cccc5F)c5nc(c(-c6c(F)cccc6F)c6ccc3[nH]6)C=C5)C=C4)cc2)C1
REMARK SMILES IDX 26 1 25 2 23 3 24 4 8 6 1 7 2 8 3 9 86 10 4 11 5 12 6 13
REMARK SMILES IDX 7 14 9 15 10 16 11 17 12 18 13 20 14 21 22 22 15 23 17 24
REMARK SMILES IDX 16 25 18 26 19 27 20 28 21 29 27 30 28 31 29 32 30 33 31 35
REMARK SMILES IDX 32 36 33 37 85 38 34 39 84 40 35 41 36 42 37 43 78 44 38 45
REMARK SMILES IDX 83 46 77 47 79 48 39 49 82 50 76 51 75 52 40 54 66 55 49 56
REMARK SMILES IDX 65 57 50 58 53 59 64 60 80 61 51 62 52 63 63 65 81 66 54 67
REMARK SMILES IDX 41 68 42 69 47 70 43 71 44 72 46 73 48 74 45 75 67 76 68 77
REMARK SMILES IDX 73 78 69 79 70 80 72 81 74 82 71 83 55 84 56 85 61 86 57 87
REMARK SMILES IDX 58 88 60 89 62 90 59 91
REMARK H PARENT 25 5 12 19 29 34 79 53 53 64
REMARK Flexibility Score: inf
ROOT
ATOM      1  C   UNL A   1      36.261  21.133  24.949  1.00  0.00     0.117 C 
ENDROOT
BRANCH   1   2
ATOM      2  N   UNL A   1      35.490  21.209  26.191  1.00  0.00    -0.356 N 
ATOM      3  C   UNL A   1      34.355  21.897  26.550  1.00  0.00     0.226 C 
ATOM      4  O   UNL A   1      33.936  21.664  27.687  1.00  0.00    -0.274 OA
ATOM      5  H   UNL A   1      35.859  20.655  26.917  1.00  0.00     0.163 HD
BRANCH   3   6
ATOM      6  C   UNL A   1      33.627  22.920  25.592  1.00  0.00     0.059 C 
ATOM      7  C   UNL A   1      33.471  25.607  23.514  1.00  0.00     0.008 C 
ATOM      8  C   UNL A   1      34.207  24.280  23.382  1.00  0.00    -0.013 C 
ATOM      9  C   UNL A   1      33.458  23.279  22.525  1.00  0.00     0.009 C 
ATOM     10  C   UNL A   1      34.673  23.604  24.674  1.00  0.00     0.020 C 
ATOM     11  C   UNL A   1      32.351  22.479  23.242  1.00  0.00    -0.034 C 
ATOM     12  C   UNL A   1      31.028  23.260  23.308  1.00  0.00     0.011 C 
ATOM     13  C   UNL A   1      32.095  21.239  22.345  1.00  0.00     0.011 C 
ATOM     14  C   UNL A   1      32.741  22.003  24.674  1.00  0.00     0.024 C 
BRANCH   6  15
ATOM     15  C   UNL A   1      32.907  23.863  26.592  1.00  0.00     0.117 C 
BRANCH  15  16
ATOM     16  C   UNL A   1      31.443  23.955  26.929  1.00  0.00     0.225 C 
ATOM     17  O   UNL A   1      30.937  23.017  27.566  1.00  0.00    -0.275 OA
ATOM     18  N   UNL A   1      30.619  25.007  26.712  1.00  0.00    -0.326 N 
ATOM     19  H   UNL A   1      29.783  24.905  27.221  1.00  0.00     0.169 HD
BRANCH  18  20
ATOM     20  C   UNL A   1      30.609  26.203  25.973  1.00  0.00     0.041 A 
ATOM     21  C   UNL A   1      29.806  26.161  24.820  1.00  0.00     0.026 A 
ATOM     22  C   UNL A   1      31.394  27.332  26.188  1.00  0.00     0.039 A 
ATOM     23  C   UNL A   1      29.887  27.146  23.839  1.00  0.00     0.003 A 
ATOM     24  C   UNL A   1      31.561  28.288  25.158  1.00  0.00     0.058 A 
ATOM     25  C   UNL A   1      30.789  28.189  23.990  1.00  0.00     0.013 A 
BRANCH  24  26
ATOM     26  C   UNL A   1      32.611  29.375  25.254  1.00  0.00     0.416 C 
ATOM     27  F   UNL A   1      33.498  29.160  26.270  1.00  0.00    -0.166 F 
ATOM     28  F   UNL A   1      33.360  29.484  24.125  1.00  0.00    -0.166 F 
ATOM     29  F   UNL A   1      32.087  30.604  25.493  1.00  0.00    -0.166 F 
ENDBRANCH  24  26
ENDBRANCH  18  20
ENDBRANCH  15  16
ENDBRANCH   6  15
ENDBRANCH   3   6
ENDBRANCH   1   2
BRANCH   1  30
ATOM     30  C   UNL A   1      37.388  20.100  24.974  1.00  0.00     0.042 C 
BRANCH  30  31
ATOM     31  C   UNL A   1      38.653  20.543  25.716  1.00  0.00     0.118 C 
BRANCH  31  32
ATOM     32  N   UNL A   1      39.726  19.555  25.709  1.00  0.00    -0.352 N 
ATOM     33  C   UNL A   1      41.056  19.642  26.064  1.00  0.00     0.251 C 
ATOM     34  H   UNL A   1      39.449  18.664  25.394  1.00  0.00     0.163 HD
ATOM     35  O   UNL A   1      41.784  18.674  25.888  1.00  0.00    -0.269 OA
BRANCH  33  36
ATOM     36  C   UNL A   1      41.635  20.891  26.618  1.00  0.00     0.039 A 
ATOM     37  C   UNL A   1      42.065  21.884  25.727  1.00  0.00     0.014 A 
ATOM     38  C   UNL A   1      41.796  21.090  27.990  1.00  0.00     0.014 A 
ATOM     39  C   UNL A   1      42.557  23.101  26.211  1.00  0.00     0.010 A 
ATOM     40  C   UNL A   1      42.211  22.332  28.473  1.00  0.00     0.010 A 
ATOM     41  C   UNL A   1      42.584  23.358  27.590  1.00  0.00    -0.014 A 
BRANCH  41  42
ATOM     42  C   UNL A   1      42.967  24.691  28.131  1.00  0.00     0.031 A 
ATOM     43  C   UNL A   1      41.921  25.738  28.402  1.00  0.00     0.074 A 
ATOM     44  C   UNL A   1      44.270  24.999  28.289  1.00  0.00     0.049 A 
ATOM     45  N   UNL A   1      42.073  26.992  28.751  1.00  0.00    -0.248 NA
ATOM     46  C   UNL A   1      40.519  25.330  28.228  1.00  0.00     0.031 C 
ATOM     47  C   UNL A   1      45.392  24.097  28.024  1.00  0.00     0.029 A 
ATOM     48  N   UNL A   1      44.873  26.165  28.694  1.00  0.00    -0.354 N 
ATOM     49  C   UNL A   1      40.793  27.529  28.805  1.00  0.00     0.074 A 
ATOM     50  C   UNL A   1      39.880  26.475  28.417  1.00  0.00     0.031 C 
ATOM     51  C   UNL A   1      46.542  24.733  28.295  1.00  0.00     0.029 A 
ATOM     52  C   UNL A   1      46.245  26.100  28.710  1.00  0.00     0.049 A 
ATOM     53  H   UNL A   1      44.368  26.971  28.950  1.00  0.00     0.167 HD
ATOM     54  C   UNL A   1      40.410  28.779  29.162  1.00  0.00     0.037 A 
ATOM     55  C   UNL A   1      47.164  27.037  29.016  1.00  0.00     0.037 A 
ATOM     56  C   UNL A   1      41.312  29.818  29.588  1.00  0.00     0.049 A 
ATOM     57  C   UNL A   1      46.716  28.414  29.414  1.00  0.00     0.074 A 
ATOM     58  C   UNL A   1      41.010  31.090  30.042  1.00  0.00     0.029 A 
ATOM     59  N   UNL A   1      42.694  29.703  29.611  1.00  0.00    -0.354 N 
ATOM     60  N   UNL A   1      45.499  28.889  29.518  1.00  0.00    -0.248 NA
ATOM     61  C   UNL A   1      47.769  29.386  29.740  1.00  0.00     0.031 C 
ATOM     62  C   UNL A   1      42.212  31.758  30.305  1.00  0.00     0.029 A 
ATOM     63  C   UNL A   1      43.259  30.888  30.054  1.00  0.00     0.049 A 
ATOM     64  H   UNL A   1      43.199  28.899  29.352  1.00  0.00     0.167 HD
ATOM     65  C   UNL A   1      45.638  30.202  29.948  1.00  0.00     0.074 A 
ATOM     66  C   UNL A   1      47.057  30.448  30.094  1.00  0.00     0.031 C 
ATOM     67  C   UNL A   1      44.674  31.119  30.203  1.00  0.00     0.037 A 
BRANCH  54  68
ATOM     68  C   UNL A   1      38.942  29.092  29.103  1.00  0.00     0.057 A 
ATOM     69  C   UNL A   1      38.119  28.999  30.233  1.00  0.00     0.134 A 
ATOM     70  C   UNL A   1      38.349  29.510  27.905  1.00  0.00     0.134 A 
ATOM     71  F   UNL A   1      38.622  28.597  31.409  1.00  0.00    -0.206 F 
ATOM     72  C   UNL A   1      36.752  29.275  30.166  1.00  0.00     0.040 A 
ATOM     73  C   UNL A   1      36.989  29.816  27.830  1.00  0.00     0.040 A 
ATOM     74  F   UNL A   1      39.081  29.629  26.786  1.00  0.00    -0.206 F 
ATOM     75  C   UNL A   1      36.184  29.690  28.962  1.00  0.00     0.006 A 
ENDBRANCH  54  68
BRANCH  55  76
ATOM     76  C   UNL A   1      48.607  26.693  28.986  1.00  0.00     0.057 A 
ATOM     77  C   UNL A   1      49.378  26.945  27.845  1.00  0.00     0.134 A 
ATOM     78  C   UNL A   1      49.251  26.114  30.086  1.00  0.00     0.134 A 
ATOM     79  F   UNL A   1      48.812  27.480  26.754  1.00  0.00    -0.206 F 
ATOM     80  C   UNL A   1      50.735  26.625  27.794  1.00  0.00     0.040 A 
ATOM     81  C   UNL A   1      50.612  25.807  30.056  1.00  0.00     0.040 A 
ATOM     82  F   UNL A   1      48.566  25.853  31.210  1.00  0.00    -0.206 F 
ATOM     83  C   UNL A   1      51.357  26.059  28.905  1.00  0.00     0.006 A 
ENDBRANCH  55  76
BRANCH  67  84
ATOM     84  C   UNL A   1      45.117  32.463  30.701  1.00  0.00     0.057 A 
ATOM     85  C   UNL A   1      45.372  33.528  29.829  1.00  0.00     0.134 A 
ATOM     86  C   UNL A   1      45.254  32.703  32.075  1.00  0.00     0.134 A 
ATOM     87  F   UNL A   1      45.274  33.359  28.501  1.00  0.00    -0.206 F 
ATOM     88  C   UNL A   1      45.764  34.782  30.305  1.00  0.00     0.040 A 
ATOM     89  C   UNL A   1      45.622  33.957  32.563  1.00  0.00     0.040 A 
ATOM     90  F   UNL A   1      45.019  31.726  32.963  1.00  0.00    -0.206 F 
ATOM     91  C   UNL A   1      45.883  35.000  31.677  1.00  0.00     0.006 A 
ENDBRANCH  67  84
ENDBRANCH  41  42
ENDBRANCH  33  36
ENDBRANCH  31  32
ENDBRANCH  30  31
ENDBRANCH   1  30
TORSDOF 14
ENDMDL
MODEL 2
REMARK VINA RESULT:     -13.0      0.932      1.763
REMARK SMILES C[C@@H]1CC(C)(C)C[C@@](CC(=O)Nc2cccc(C(F)(F)F)c2)(C(=O)NCCCNC(=O)c2ccc(-c3c4nc(c(-c5c(F)cccc5F)c5ccc([nH]5)c(-c5c(F)cccc5F)c5nc(c(-c6c(F)cccc6F)c6ccc3[nH]6)C=C5)C=C4)cc2)C1
REMARK SMILES IDX 26 1 25 2 23 3 24 4 8 6 1 7 2 8 3 9 86 10 4 11 5 12 6 13
REMARK SMILES IDX 7 14 9 15 10 16 11 17 12 18 13 20 14 21 22 22 15 23 17 24
REMARK SMILES IDX 16 25 18 26 19 27 20 28 21 29 27 30 28 31 29 32 30 33 31 35
REMARK SMILES IDX 32 36 33 37 85 38 34 39 84 40 35 41 36 42 37 43 78 44 38 45
REMARK SMILES IDX 83 46 77 47 79 48 39 49 82 50 76 51 75 52 40 54 66 55 49 56
REMARK SMILES IDX 65 57 50 58 53 59 64 60 80 61 51 62 52 63 63 65 81 66 54 67
REMARK SMILES IDX 41 68 42 69 47 70 43 71 44 72 46 73 48 74 45 75 67 76 68 77
REMARK SMILES IDX 73 78 69 79 70 80 72 81 74 82 71 83 55 84 56 85 61 86 57 87
REMARK SMILES IDX 58 88 60 89 62 90 59 91
REMARK H PARENT 25 5 12 19 29 34 79 53 53 64
REMARK Flexibility Score: inf
ROOT
ATOM      1  C   UNL A   1      36.620  21.204  24.866  1.00  0.00     0.117 C 
ENDROOT
BRANCH   1   2
ATOM      2  N   UNL A   1      35.837  21.219  26.103  1.00  0.00    -0.356 N 
ATOM      3  C   UNL A   1      34.684  21.868  26.476  1.00  0.00     0.226 C 
ATOM      4  O   UNL A   1      34.261  21.587  27.600  1.00  0.00    -0.274 OA
ATOM      5  H   UNL A   1      36.213  20.649  26.813  1.00  0.00     0.163 HD
BRANCH   3   6
ATOM      6  C   UNL A   1      33.940  22.907  25.548  1.00  0.00     0.059 C 
ATOM      7  C   UNL A   1      33.770  25.547  23.411  1.00  0.00     0.008 C 
ATOM      8  C   UNL A   1      34.420  24.178  23.261  1.00  0.00    -0.013 C 
ATOM      9  C   UNL A   1      33.553  23.200  22.493  1.00  0.00     0.009 C 
ATOM     10  C   UNL A   1      34.947  23.508  24.532  1.00  0.00     0.020 C 
ATOM     11  C   UNL A   1      32.464  22.482  23.315  1.00  0.00    -0.034 C 
ATOM     12  C   UNL A   1      31.194  23.338  23.459  1.00  0.00     0.011 C 
ATOM     13  C   UNL A   1      32.071  21.236  22.477  1.00  0.00     0.011 C 
ATOM     14  C   UNL A   1      32.937  22.020  24.726  1.00  0.00     0.024 C 
BRANCH   6  15
ATOM     15  C   UNL A   1      33.353  23.914  26.572  1.00  0.00     0.117 C 
BRANCH  15  16
ATOM     16  C   UNL A   1      31.914  24.215  26.893  1.00  0.00     0.225 C 
ATOM     17  O   UNL A   1      31.236  23.312  27.410  1.00  0.00    -0.275 OA
ATOM     18  N   UNL A   1      31.285  25.409  26.783  1.00  0.00    -0.326 N 
ATOM     19  H   UNL A   1      30.426  25.395  27.263  1.00  0.00     0.169 HD
BRANCH  18  20
ATOM     20  C   UNL A   1      31.501  26.662  26.185  1.00  0.00     0.041 A 
ATOM     21  C   UNL A   1      32.172  27.586  27.005  1.00  0.00     0.026 A 
ATOM     22  C   UNL A   1      31.012  27.105  24.958  1.00  0.00     0.039 A 
ATOM     23  C   UNL A   1      32.231  28.940  26.682  1.00  0.00     0.003 A 
ATOM     24  C   UNL A   1      30.977  28.489  24.665  1.00  0.00     0.058 A 
ATOM     25  C   UNL A   1      31.604  29.396  25.533  1.00  0.00     0.013 A 
BRANCH  24  26
ATOM     26  C   UNL A   1      30.212  29.022  23.472  1.00  0.00     0.416 C 
ATOM     27  F   UNL A   1      29.364  28.096  22.935  1.00  0.00    -0.166 F 
ATOM     28  F   UNL A   1      29.439  30.097  23.781  1.00  0.00    -0.166 F 
ATOM     29  F   UNL A   1      31.017  29.404  22.448  1.00  0.00    -0.166 F 
ENDBRANCH  24  26
ENDBRANCH  18  20
ENDBRANCH  15  16
ENDBRANCH   6  15
ENDBRANCH   3   6
ENDBRANCH   1   2
BRANCH   1  30
ATOM     30  C   UNL A   1      37.739  20.162  24.847  1.00  0.00     0.042 C 
BRANCH  30  31
ATOM     31  C   UNL A   1      38.806  20.343  25.932  1.00  0.00     0.118 C 
BRANCH  31  32
ATOM     32  N   UNL A   1      39.884  19.361  25.877  1.00  0.00    -0.352 N 
ATOM     33  C   UNL A   1      41.236  19.468  26.133  1.00  0.00     0.251 C 
ATOM     34  H   UNL A   1      39.594  18.459  25.611  1.00  0.00     0.163 HD
ATOM     35  O   UNL A   1      41.957  18.500  25.934  1.00  0.00    -0.269 OA
BRANCH  33  36
ATOM     36  C   UNL A   1      41.843  20.737  26.606  1.00  0.00     0.039 A 
ATOM     37  C   UNL A   1      42.280  21.667  25.652  1.00  0.00     0.014 A 
ATOM     38  C   UNL A   1      42.022  21.014  27.961  1.00  0.00     0.014 A 
ATOM     39  C   UNL A   1      42.798  22.902  26.058  1.00  0.00     0.010 A 
ATOM     40  C   UNL A   1      42.464  22.275  28.365  1.00  0.00     0.010 A 
ATOM     41  C   UNL A   1      42.844  23.240  27.419  1.00  0.00    -0.014 A 
BRANCH  41  42
ATOM     42  C   UNL A   1      43.257  24.596  27.876  1.00  0.00     0.031 A 
ATOM     43  C   UNL A   1      42.225  25.640  28.207  1.00  0.00     0.074 A 
ATOM     44  C   UNL A   1      44.564  24.924  27.899  1.00  0.00     0.049 A 
ATOM     45  N   UNL A   1      42.391  26.907  28.497  1.00  0.00    -0.248 NA
ATOM     46  C   UNL A   1      40.819  25.210  28.181  1.00  0.00     0.031 C 
ATOM     47  C   UNL A   1      45.670  24.026  27.561  1.00  0.00     0.029 A 
ATOM     48  N   UNL A   1      45.185  26.111  28.206  1.00  0.00    -0.354 N 
ATOM     49  C   UNL A   1      41.113  27.430  28.653  1.00  0.00     0.074 A 
ATOM     50  C   UNL A   1      40.183  26.353  28.389  1.00  0.00     0.031 C 
ATOM     51  C   UNL A   1      46.831  24.686  27.701  1.00  0.00     0.029 A 
ATOM     52  C   UNL A   1      46.553  26.063  28.096  1.00  0.00     0.049 A 
ATOM     53  H   UNL A   1      44.694  26.920  28.481  1.00  0.00     0.167 HD
ATOM     54  C   UNL A   1      40.747  28.687  29.002  1.00  0.00     0.037 A 
ATOM     55  C   UNL A   1      47.482  27.020  28.281  1.00  0.00     0.037 A 
ATOM     56  C   UNL A   1      41.669  29.751  29.305  1.00  0.00     0.049 A 
ATOM     57  C   UNL A   1      47.053  28.406  28.672  1.00  0.00     0.074 A 
ATOM     58  C   UNL A   1      41.392  31.036  29.742  1.00  0.00     0.029 A 
ATOM     59  N   UNL A   1      43.048  29.654  29.203  1.00  0.00    -0.354 N 
ATOM     60  N   UNL A   1      45.844  28.870  28.873  1.00  0.00    -0.248 NA
ATOM     61  C   UNL A   1      48.117  29.401  28.865  1.00  0.00     0.031 C 
ATOM     62  C   UNL A   1      42.602  31.726  29.868  1.00  0.00     0.029 A 
ATOM     63  C   UNL A   1      43.635  30.860  29.550  1.00  0.00     0.049 A 
ATOM     64  H   UNL A   1      43.539  28.846  28.925  1.00  0.00     0.167 HD
ATOM     65  C   UNL A   1      46.003  30.198  29.244  1.00  0.00     0.074 A 
ATOM     66  C   UNL A   1      47.426  30.466  29.247  1.00  0.00     0.031 C 
ATOM     67  C   UNL A   1      45.053  31.113  29.557  1.00  0.00     0.037 A 
BRANCH  54  68
ATOM     68  C   UNL A   1      39.275  28.981  29.071  1.00  0.00     0.057 A 
ATOM     69  C   UNL A   1      38.557  29.429  27.955  1.00  0.00     0.134 A 
ATOM     70  C   UNL A   1      38.565  28.797  30.264  1.00  0.00     0.134 A 
ATOM     71  F   UNL A   1      39.178  29.636  26.784  1.00  0.00    -0.206 F 
ATOM     72  C   UNL A   1      37.192  29.718  28.031  1.00  0.00     0.040 A 
ATOM     73  C   UNL A   1      37.195  29.055  30.346  1.00  0.00     0.040 A 
ATOM     74  F   UNL A   1      39.189  28.361  31.369  1.00  0.00    -0.206 F 
ATOM     75  C   UNL A   1      36.507  29.526  29.229  1.00  0.00     0.006 A 
ENDBRANCH  54  68
BRANCH  55  76
ATOM     76  C   UNL A   1      48.921  26.693  28.128  1.00  0.00     0.057 A 
ATOM     77  C   UNL A   1      49.670  26.235  29.218  1.00  0.00     0.134 A 
ATOM     78  C   UNL A   1      49.581  26.822  26.900  1.00  0.00     0.134 A 
ATOM     79  F   UNL A   1      49.097  26.111  30.424  1.00  0.00    -0.206 F 
ATOM     80  C   UNL A   1      51.025  25.927  29.098  1.00  0.00     0.040 A 
ATOM     81  C   UNL A   1      50.931  26.497  26.759  1.00  0.00     0.040 A 
ATOM     82  F   UNL A   1      48.916  27.250  25.816  1.00  0.00    -0.206 F 
ATOM     83  C   UNL A   1      51.658  26.053  27.863  1.00  0.00     0.006 A 
ENDBRANCH  55  76
BRANCH  67  84
ATOM     84  C   UNL A   1      45.521  32.479  29.965  1.00  0.00     0.057 A 
ATOM     85  C   UNL A   1      45.671  33.517  29.038  1.00  0.00     0.134 A 
ATOM     86  C   UNL A   1      45.789  32.767  31.309  1.00  0.00     0.134 A 
ATOM     87  F   UNL A   1      45.445  33.302  27.732  1.00  0.00    -0.206 F 
ATOM     88  C   UNL A   1      46.087  34.791  29.432  1.00  0.00     0.040 A 
ATOM     89  C   UNL A   1      46.182  34.041  31.718  1.00  0.00     0.040 A 
ATOM     90  F   UNL A   1      45.659  31.817  32.248  1.00  0.00    -0.206 F 
ATOM     91  C   UNL A   1      46.337  35.057  30.777  1.00  0.00     0.006 A 
ENDBRANCH  67  84
ENDBRANCH  41  42
ENDBRANCH  33  36
ENDBRANCH  31  32
ENDBRANCH  30  31
ENDBRANCH   1  30
TORSDOF 14
ENDMDL
MODEL 3
REMARK VINA RESULT:     -12.7      1.004      6.095
REMARK SMILES C[C@@H]1CC(C)(C)C[C@@](CC(=O)Nc2cccc(C(F)(F)F)c2)(C(=O)NCCCNC(=O)c2ccc(-c3c4nc(c(-c5c(F)cccc5F)c5ccc([nH]5)c(-c5c(F)cccc5F)c5nc(c(-c6c(F)cccc6F)c6ccc3[nH]6)C=C5)C=C4)cc2)C1
REMARK SMILES IDX 26 1 25 2 23 3 24 4 8 6 1 7 2 8 3 9 86 10 4 11 5 12 6 13
REMARK SMILES IDX 7 14 9 15 10 16 11 17 12 18 13 20 14 21 22 22 15 23 17 24
REMARK SMILES IDX 16 25 18 26 19 27 20 28 21 29 27 30 28 31 29 32 30 33 31 35
REMARK SMILES IDX 32 36 33 37 85 38 34 39 84 40 35 41 36 42 37 43 78 44 38 45
REMARK SMILES IDX 83 46 77 47 79 48 39 49 82 50 76 51 75 52 40 54 66 55 49 56
REMARK SMILES IDX 65 57 50 58 53 59 64 60 80 61 51 62 52 63 63 65 81 66 54 67
REMARK SMILES IDX 41 68 42 69 47 70 43 71 44 72 46 73 48 74 45 75 67 76 68 77
REMARK SMILES IDX 73 78 69 79 70 80 72 81 74 82 71 83 55 84 56 85 61 86 57 87
REMARK SMILES IDX 58 88 60 89 62 90 59 91
REMARK H PARENT 25 5 12 19 29 34 79 53 53 64
REMARK Flexibility Score: inf
ROOT
ATOM      1  C   UNL A   1      36.983  21.659  25.115  1.00  0.00     0.117 C 
ENDROOT
BRANCH   1   2
ATOM      2  N   UNL A   1      36.034  21.450  26.211  1.00  0.00    -0.356 N 
ATOM      3  C   UNL A   1      34.759  21.906  26.447  1.00  0.00     0.226 C 
ATOM      4  O   UNL A   1      34.222  21.462  27.464  1.00  0.00    -0.274 OA
ATOM      5  H   UNL A   1      36.380  20.866  26.923  1.00  0.00     0.163 HD
BRANCH   3   6
ATOM      6  C   UNL A   1      34.018  22.927  25.497  1.00  0.00     0.059 C 
ATOM      7  C   UNL A   1      33.856  25.515  23.297  1.00  0.00     0.008 C 
ATOM      8  C   UNL A   1      34.494  24.137  23.177  1.00  0.00    -0.013 C 
ATOM      9  C   UNL A   1      33.614  23.148  22.439  1.00  0.00     0.009 C 
ATOM     10  C   UNL A   1      35.023  23.494  24.461  1.00  0.00     0.020 C 
ATOM     11  C   UNL A   1      32.524  22.460  23.285  1.00  0.00    -0.034 C 
ATOM     12  C   UNL A   1      31.263  23.330  23.416  1.00  0.00     0.011 C 
ATOM     13  C   UNL A   1      32.116  21.197  22.480  1.00  0.00     0.011 C 
ATOM     14  C   UNL A   1      33.003  22.029  24.704  1.00  0.00     0.024 C 
BRANCH   6  15
ATOM     15  C   UNL A   1      33.446  23.965  26.500  1.00  0.00     0.117 C 
BRANCH  15  16
ATOM     16  C   UNL A   1      32.013  24.237  26.874  1.00  0.00     0.225 C 
ATOM     17  O   UNL A   1      31.378  23.326  27.429  1.00  0.00    -0.275 OA
ATOM     18  N   UNL A   1      31.353  25.415  26.775  1.00  0.00    -0.326 N 
ATOM     19  H   UNL A   1      30.514  25.388  27.289  1.00  0.00     0.169 HD
BRANCH  18  20
ATOM     20  C   UNL A   1      31.516  26.665  26.153  1.00  0.00     0.041 A 
ATOM     21  C   UNL A   1      32.053  27.660  26.989  1.00  0.00     0.026 A 
ATOM     22  C   UNL A   1      31.086  27.035  24.882  1.00  0.00     0.039 A 
ATOM     23  C   UNL A   1      32.032  29.005  26.628  1.00  0.00     0.003 A 
ATOM     24  C   UNL A   1      30.967  28.403  24.542  1.00  0.00     0.058 A 
ATOM     25  C   UNL A   1      31.458  29.380  25.423  1.00  0.00     0.013 A 
BRANCH  24  26
ATOM     26  C   UNL A   1      30.253  28.843  23.282  1.00  0.00     0.416 C 
ATOM     27  F   UNL A   1      29.533  27.836  22.707  1.00  0.00    -0.166 F 
ATOM     28  F   UNL A   1      29.369  29.851  23.504  1.00  0.00    -0.166 F 
ATOM     29  F   UNL A   1      31.099  29.275  22.311  1.00  0.00    -0.166 F 
ENDBRANCH  24  26
ENDBRANCH  18  20
ENDBRANCH  15  16
ENDBRANCH   6  15
ENDBRANCH   3   6
ENDBRANCH   1   2
BRANCH   1  30
ATOM     30  C   UNL A   1      37.945  20.492  24.890  1.00  0.00     0.042 C 
BRANCH  30  31
ATOM     31  C   UNL A   1      38.748  20.071  26.124  1.00  0.00     0.118 C 
BRANCH  31  32
ATOM     32  N   UNL A   1      39.945  19.295  25.821  1.00  0.00    -0.352 N 
ATOM     33  C   UNL A   1      41.287  19.598  25.927  1.00  0.00     0.251 C 
ATOM     34  H   UNL A   1      39.762  18.390  25.479  1.00  0.00     0.163 HD
ATOM     35  O   UNL A   1      42.114  18.791  25.526  1.00  0.00    -0.269 OA
BRANCH  33  36
ATOM     36  C   UNL A   1      41.752  20.894  26.481  1.00  0.00     0.039 A 
ATOM     37  C   UNL A   1      42.235  21.867  25.595  1.00  0.00     0.014 A 
ATOM     38  C   UNL A   1      41.755  21.158  27.851  1.00  0.00     0.014 A 
ATOM     39  C   UNL A   1      42.622  23.125  26.070  1.00  0.00     0.010 A 
ATOM     40  C   UNL A   1      42.065  22.437  28.316  1.00  0.00     0.010 A 
ATOM     41  C   UNL A   1      42.489  23.440  27.431  1.00  0.00    -0.014 A 
BRANCH  41  42
ATOM     42  C   UNL A   1      42.757  24.811  27.947  1.00  0.00     0.031 A 
ATOM     43  C   UNL A   1      44.142  25.209  28.383  1.00  0.00     0.074 A 
ATOM     44  C   UNL A   1      41.735  25.673  28.118  1.00  0.00     0.049 A 
ATOM     45  N   UNL A   1      44.541  26.309  28.974  1.00  0.00    -0.248 NA
ATOM     46  C   UNL A   1      45.213  24.230  28.151  1.00  0.00     0.031 C 
ATOM     47  C   UNL A   1      40.336  25.406  27.780  1.00  0.00     0.029 A 
ATOM     48  N   UNL A   1      41.712  26.945  28.636  1.00  0.00    -0.354 N 
ATOM     49  C   UNL A   1      45.899  26.138  29.213  1.00  0.00     0.074 A 
ATOM     50  C   UNL A   1      46.246  24.815  28.738  1.00  0.00     0.031 C 
ATOM     51  C   UNL A   1      39.597  26.486  28.077  1.00  0.00     0.029 A 
ATOM     52  C   UNL A   1      40.458  27.506  28.666  1.00  0.00     0.049 A 
ATOM     53  H   UNL A   1      42.518  27.411  28.955  1.00  0.00     0.167 HD
ATOM     54  C   UNL A   1      46.781  27.009  29.761  1.00  0.00     0.037 A 
ATOM     55  C   UNL A   1      40.043  28.703  29.124  1.00  0.00     0.037 A 
ATOM     56  C   UNL A   1      46.448  28.340  30.198  1.00  0.00     0.049 A 
ATOM     57  C   UNL A   1      41.040  29.654  29.723  1.00  0.00     0.074 A 
ATOM     58  C   UNL A   1      47.289  29.321  30.695  1.00  0.00     0.029 A 
ATOM     59  N   UNL A   1      45.170  28.878  30.190  1.00  0.00    -0.354 N 
ATOM     60  N   UNL A   1      42.331  29.502  29.889  1.00  0.00    -0.248 NA
ATOM     61  C   UNL A   1      40.523  30.946  30.198  1.00  0.00     0.031 C 
ATOM     62  C   UNL A   1      46.514  30.439  31.022  1.00  0.00     0.029 A 
ATOM     63  C   UNL A   1      45.197  30.169  30.690  1.00  0.00     0.049 A 
ATOM     64  H   UNL A   1      44.363  28.411  29.874  1.00  0.00     0.167 HD
ATOM     65  C   UNL A   1      42.784  30.684  30.458  1.00  0.00     0.074 A 
ATOM     66  C   UNL A   1      41.632  31.549  30.603  1.00  0.00     0.031 C 
ATOM     67  C   UNL A   1      44.044  31.024  30.823  1.00  0.00     0.037 A 
BRANCH  54  68
ATOM     68  C   UNL A   1      48.199  26.541  29.924  1.00  0.00     0.057 A 
ATOM     69  C   UNL A   1      48.636  25.890  31.084  1.00  0.00     0.134 A 
ATOM     70  C   UNL A   1      49.135  26.729  28.898  1.00  0.00     0.134 A 
ATOM     71  F   UNL A   1      47.794  25.687  32.108  1.00  0.00    -0.206 F 
ATOM     72  C   UNL A   1      49.961  25.475  31.235  1.00  0.00     0.040 A 
ATOM     73  C   UNL A   1      50.455  26.293  29.024  1.00  0.00     0.040 A 
ATOM     74  F   UNL A   1      48.781  27.337  27.755  1.00  0.00    -0.206 F 
ATOM     75  C   UNL A   1      50.874  25.672  30.200  1.00  0.00     0.006 A 
ENDBRANCH  54  68
BRANCH  55  76
ATOM     76  C   UNL A   1      38.615  29.085  29.006  1.00  0.00     0.057 A 
ATOM     77  C   UNL A   1      38.101  29.562  27.794  1.00  0.00     0.134 A 
ATOM     78  C   UNL A   1      37.731  28.981  30.086  1.00  0.00     0.134 A 
ATOM     79  F   UNL A   1      38.904  29.702  26.730  1.00  0.00    -0.206 F 
ATOM     80  C   UNL A   1      36.762  29.932  27.662  1.00  0.00     0.040 A 
ATOM     81  C   UNL A   1      36.384  29.328  29.963  1.00  0.00     0.040 A 
ATOM     82  F   UNL A   1      38.163  28.526  31.272  1.00  0.00    -0.206 F 
ATOM     83  C   UNL A   1      35.898  29.810  28.749  1.00  0.00     0.006 A 
ENDBRANCH  55  76
BRANCH  67  84
ATOM     84  C   UNL A   1      44.251  32.401  31.382  1.00  0.00     0.057 A 
ATOM     85  C   UNL A   1      44.199  32.657  32.757  1.00  0.00     0.134 A 
ATOM     86  C   UNL A   1      44.545  33.476  30.533  1.00  0.00     0.134 A 
ATOM     87  F   UNL A   1      43.908  31.673  33.622  1.00  0.00    -0.206 F 
ATOM     88  C   UNL A   1      44.415  33.939  33.268  1.00  0.00     0.040 A 
ATOM     89  C   UNL A   1      44.785  34.756  31.034  1.00  0.00     0.040 A 
ATOM     90  F   UNL A   1      44.615  33.296  29.205  1.00  0.00    -0.206 F 
ATOM     91  C   UNL A   1      44.716  34.991  32.405  1.00  0.00     0.006 A 
ENDBRANCH  67  84
ENDBRANCH  41  42
ENDBRANCH  33  36
ENDBRANCH  31  32
ENDBRANCH  30  31
ENDBRANCH   1  30
TORSDOF 14
ENDMDL
