MODEL 1
REMARK VINA RESULT:     -12.0      0.000      0.000
REMARK SMILES O=C(NCCCNC(=O)[C@H]1CSCN1C(=O)c1cnc2ccccn2c1=O)c1ccc(-c2c3nc(c(-c4c(F)cccc4F)c4ccc([nH]4)c(-c4c(F)cccc4F)c4nc(c(-c5c(F)cccc5F)c5ccc2[nH]5)C=C4)C=C3)cc1
REMARK SMILES IDX 5 1 4 2 3 3 1 4 2 5 28 7 29 8 81 9 30 10 80 11 31 12 32 13
REMARK SMILES IDX 33 14 74 15 34 16 79 17 73 18 75 19 35 20 78 21 72 22 71 23
REMARK SMILES IDX 36 25 62 26 45 27 61 28 46 29 49 30 60 31 76 32 47 33 48 34
REMARK SMILES IDX 59 36 77 37 50 38 37 39 38 40 43 41 39 42 40 43 42 44 44 45
REMARK SMILES IDX 41 46 63 47 64 48 69 49 65 50 66 51 68 52 70 53 67 54 51 55
REMARK SMILES IDX 52 56 57 57 53 58 54 59 56 60 58 61 55 62 6 63 7 64 8 65
REMARK SMILES IDX 9 67 10 68 11 69 14 70 12 71 13 72 15 73 16 74 17 75 18 76
REMARK SMILES IDX 26 77 19 78 25 79 27 80 20 81 24 82 21 83 23 84 22 85
REMARK H PARENT 3 6 75 24 49 35 7 66
REMARK Flexibility Score: inf
ROOT
ATOM      1  C   UNL A   1      38.399  20.062  24.979  1.00  0.00     0.042 C 
ENDROOT
BRANCH   1   2
ATOM      2  C   UNL A   1      39.266  19.746  26.192  1.00  0.00     0.118 C 
BRANCH   2   3
ATOM      3  N   UNL A   1      40.531  19.115  25.832  1.00  0.00    -0.352 N 
ATOM      4  O   UNL A   1      42.714  18.970  25.310  1.00  0.00    -0.269 OA
ATOM      5  C   UNL A   1      41.806  19.621  25.824  1.00  0.00     0.251 C 
ATOM      6  H   UNL A   1      40.457  18.174  25.551  1.00  0.00     0.163 HD
BRANCH   5   7
ATOM      7  C   UNL A   1      42.093  20.946  26.411  1.00  0.00     0.039 A 
ATOM      8  C   UNL A   1      42.023  21.148  27.790  1.00  0.00     0.014 A 
ATOM      9  C   UNL A   1      42.474  21.998  25.570  1.00  0.00     0.014 A 
ATOM     10  C   UNL A   1      42.186  22.425  28.312  1.00  0.00     0.010 A 
ATOM     11  C   UNL A   1      42.731  23.262  26.109  1.00  0.00     0.010 A 
ATOM     12  C   UNL A   1      42.562  23.492  27.483  1.00  0.00    -0.014 A 
BRANCH  12  13
ATOM     13  C   UNL A   1      42.844  24.818  28.088  1.00  0.00     0.031 A 
ATOM     14  C   UNL A   1      44.233  25.203  28.512  1.00  0.00     0.074 A 
ATOM     15  C   UNL A   1      41.826  25.689  28.230  1.00  0.00     0.049 A 
ATOM     16  N   UNL A   1      44.649  26.325  29.046  1.00  0.00    -0.248 NA
ATOM     17  C   UNL A   1      45.294  24.202  28.322  1.00  0.00     0.031 C 
ATOM     18  C   UNL A   1      40.432  25.423  27.864  1.00  0.00     0.029 A 
ATOM     19  N   UNL A   1      41.803  26.976  28.703  1.00  0.00    -0.354 N 
ATOM     20  C   UNL A   1      46.010  26.161  29.268  1.00  0.00     0.074 A 
ATOM     21  C   UNL A   1      46.348  24.821  28.837  1.00  0.00     0.031 C 
ATOM     22  C   UNL A   1      39.701  26.523  28.088  1.00  0.00     0.029 A 
ATOM     23  C   UNL A   1      40.555  27.549  28.673  1.00  0.00     0.049 A 
ATOM     24  H   UNL A   1      42.604  27.444  29.033  1.00  0.00     0.167 HD
ATOM     25  C   UNL A   1      46.896  27.053  29.774  1.00  0.00     0.037 A 
ATOM     26  C   UNL A   1      40.137  28.757  29.090  1.00  0.00     0.037 A 
ATOM     27  C   UNL A   1      46.553  28.389  30.191  1.00  0.00     0.049 A 
ATOM     28  C   UNL A   1      41.135  29.708  29.682  1.00  0.00     0.074 A 
ATOM     29  C   UNL A   1      47.387  29.379  30.684  1.00  0.00     0.029 A 
ATOM     30  N   UNL A   1      45.272  28.923  30.171  1.00  0.00    -0.354 N 
ATOM     31  N   UNL A   1      42.427  29.554  29.846  1.00  0.00    -0.248 NA
ATOM     32  C   UNL A   1      40.618  31.001  30.149  1.00  0.00     0.031 C 
ATOM     33  C   UNL A   1      46.605  30.490  31.012  1.00  0.00     0.029 A 
ATOM     34  C   UNL A   1      45.291  30.216  30.668  1.00  0.00     0.049 A 
ATOM     35  H   UNL A   1      44.469  28.452  29.850  1.00  0.00     0.167 HD
ATOM     36  C   UNL A   1      42.881  30.737  30.411  1.00  0.00     0.074 A 
ATOM     37  C   UNL A   1      41.730  31.606  30.543  1.00  0.00     0.031 C 
ATOM     38  C   UNL A   1      44.138  31.072  30.788  1.00  0.00     0.037 A 
BRANCH  25  39
ATOM     39  C   UNL A   1      48.325  26.614  29.926  1.00  0.00     0.057 A 
ATOM     40  C   UNL A   1      48.765  25.891  31.043  1.00  0.00     0.134 A 
ATOM     41  C   UNL A   1      49.258  26.859  28.910  1.00  0.00     0.134 A 
ATOM     42  F   UNL A   1      47.926  25.629  32.056  1.00  0.00    -0.206 F 
ATOM     43  C   UNL A   1      50.082  25.441  31.149  1.00  0.00     0.040 A 
ATOM     44  C   UNL A   1      50.571  26.393  28.993  1.00  0.00     0.040 A 
ATOM     45  F   UNL A   1      48.902  27.539  27.809  1.00  0.00    -0.206 F 
ATOM     46  C   UNL A   1      50.987  25.685  30.118  1.00  0.00     0.006 A 
ENDBRANCH  25  39
BRANCH  26  47
ATOM     47  C   UNL A   1      38.704  29.126  28.977  1.00  0.00     0.057 A 
ATOM     48  C   UNL A   1      37.837  29.020  30.070  1.00  0.00     0.134 A 
ATOM     49  C   UNL A   1      38.164  29.588  27.769  1.00  0.00     0.134 A 
ATOM     50  F   UNL A   1      38.290  28.568  31.250  1.00  0.00    -0.206 F 
ATOM     51  C   UNL A   1      36.482  29.336  29.962  1.00  0.00     0.040 A 
ATOM     52  C   UNL A   1      36.819  29.937  27.655  1.00  0.00     0.040 A 
ATOM     53  F   UNL A   1      38.943  29.721  26.686  1.00  0.00    -0.206 F 
ATOM     54  C   UNL A   1      35.970  29.801  28.752  1.00  0.00     0.006 A 
ENDBRANCH  26  47
BRANCH  38  55
ATOM     55  C   UNL A   1      44.339  32.453  31.343  1.00  0.00     0.057 A 
ATOM     56  C   UNL A   1      44.610  33.552  30.519  1.00  0.00     0.134 A 
ATOM     57  C   UNL A   1      44.236  32.686  32.721  1.00  0.00     0.134 A 
ATOM     58  F   UNL A   1      44.738  33.393  29.194  1.00  0.00    -0.206 F 
ATOM     59  C   UNL A   1      44.797  34.830  31.048  1.00  0.00     0.040 A 
ATOM     60  C   UNL A   1      44.391  33.964  33.258  1.00  0.00     0.040 A 
ATOM     61  F   UNL A   1      43.971  31.678  33.565  1.00  0.00    -0.206 F 
ATOM     62  C   UNL A   1      44.681  35.040  32.420  1.00  0.00     0.006 A 
ENDBRANCH  38  55
ENDBRANCH  12  13
ENDBRANCH   5   7
ENDBRANCH   2   3
ENDBRANCH   1   2
BRANCH   1  63
ATOM     63  C   UNL A   1      37.804  21.463  25.006  1.00  0.00     0.117 C 
BRANCH  63  64
ATOM     64  N   UNL A   1      36.802  21.613  26.047  1.00  0.00    -0.354 N 
ATOM     65  C   UNL A   1      35.440  21.491  25.960  1.00  0.00     0.243 C 
ATOM     66  H   UNL A   1      37.151  21.834  26.941  1.00  0.00     0.163 HD
ATOM     67  O   UNL A   1      34.776  21.670  26.981  1.00  0.00    -0.273 OA
BRANCH  65  68
ATOM     68  C   UNL A   1      34.832  21.030  24.621  1.00  0.00     0.185 C 
ATOM     69  C   UNL A   1      33.913  19.842  24.924  1.00  0.00     0.106 C 
ATOM     70  N   UNL A   1      34.103  22.084  23.911  1.00  0.00    -0.316 N 
ATOM     71  S   UNL A   1      32.271  20.233  24.294  1.00  0.00    -0.138 SA
ATOM     72  C   UNL A   1      32.818  21.678  23.389  1.00  0.00     0.190 C 
BRANCH  70  73
ATOM     73  C   UNL A   1      34.807  23.200  23.491  1.00  0.00     0.262 C 
ATOM     74  O   UNL A   1      35.768  23.102  22.723  1.00  0.00    -0.269 OA
BRANCH  73  75
ATOM     75  C   UNL A   1      34.318  24.544  23.884  1.00  0.00     0.124 A 
ATOM     76  C   UNL A   1      34.389  24.877  25.177  1.00  0.00     0.133 A 
ATOM     77  C   UNL A   1      33.734  25.536  22.958  1.00  0.00     0.270 A 
ATOM     78  N   UNL A   1      34.063  26.099  25.700  1.00  0.00    -0.237 NA
ATOM     79  N   UNL A   1      33.514  26.801  23.499  1.00  0.00    -0.267 N 
ATOM     80  O   UNL A   1      33.494  25.239  21.789  1.00  0.00    -0.268 OA
ATOM     81  C   UNL A   1      33.669  27.011  24.864  1.00  0.00     0.139 A 
ATOM     82  C   UNL A   1      33.119  27.837  22.657  1.00  0.00     0.096 A 
ATOM     83  C   UNL A   1      33.372  28.378  25.376  1.00  0.00     0.048 A 
ATOM     84  C   UNL A   1      32.886  29.071  23.119  1.00  0.00     0.019 A 
ATOM     85  C   UNL A   1      33.013  29.347  24.525  1.00  0.00     0.005 A 
ENDBRANCH  73  75
ENDBRANCH  70  73
ENDBRANCH  65  68
ENDBRANCH  63  64
ENDBRANCH   1  63
TORSDOF 12
ENDMDL
MODEL 2
REMARK VINA RESULT:     -12.0      0.340      1.710
REMARK SMILES O=C(NCCCNC(=O)[C@H]1CSCN1C(=O)c1cnc2ccccn2c1=O)c1ccc(-c2c3nc(c(-c4c(F)cccc4F)c4ccc([nH]4)c(-c4c(F)cccc4F)c4nc(c(-c5c(F)cccc5F)c5ccc2[nH]5)C=C4)C=C3)cc1
REMARK SMILES IDX 5 1 4 2 3 3 1 4 2 5 28 7 29 8 81 9 30 10 80 11 31 12 32 13
REMARK SMILES IDX 33 14 74 15 34 16 79 17 73 18 75 19 35 20 78 21 72 22 71 23
REMARK SMILES IDX 36 25 62 26 45 27 61 28 46 29 49 30 60 31 76 32 47 33 48 34
REMARK SMILES IDX 59 36 77 37 50 38 37 39 38 40 43 41 39 42 40 43 42 44 44 45
REMARK SMILES IDX 41 46 63 47 64 48 69 49 65 50 66 51 68 52 70 53 67 54 51 55
REMARK SMILES IDX 52 56 57 57 53 58 54 59 56 60 58 61 55 62 6 63 7 64 8 65
REMARK SMILES IDX 9 67 10 68 11 69 14 70 12 71 13 72 15 73 16 74 17 75 18 76
REMARK SMILES IDX 26 77 19 78 25 79 27 80 20 81 24 82 21 83 23 84 22 85
REMARK H PARENT 3 6 75 24 49 35 7 66
REMARK Flexibility Score: inf
ROOT
ATOM      1  C   UNL A   1      38.411  20.127  24.969  1.00  0.00     0.042 C 
ENDROOT
BRANCH   1   2
ATOM      2  C   UNL A   1      39.217  19.785  26.216  1.00  0.00     0.118 C 
BRANCH   2   3
ATOM      3  N   UNL A   1      40.477  19.119  25.907  1.00  0.00    -0.352 N 
ATOM      4  O   UNL A   1      42.670  18.917  25.444  1.00  0.00    -0.269 OA
ATOM      5  C   UNL A   1      41.763  19.601  25.913  1.00  0.00     0.251 C 
ATOM      6  H   UNL A   1      40.393  18.171  25.655  1.00  0.00     0.163 HD
BRANCH   5   7
ATOM      7  C   UNL A   1      42.061  20.938  26.465  1.00  0.00     0.039 A 
ATOM      8  C   UNL A   1      42.356  22.010  25.622  1.00  0.00     0.014 A 
ATOM      9  C   UNL A   1      42.009  21.133  27.850  1.00  0.00     0.014 A 
ATOM     10  C   UNL A   1      42.742  23.231  26.162  1.00  0.00     0.010 A 
ATOM     11  C   UNL A   1      42.305  22.389  28.388  1.00  0.00     0.010 A 
ATOM     12  C   UNL A   1      42.701  23.441  27.549  1.00  0.00    -0.014 A 
BRANCH  12  13
ATOM     13  C   UNL A   1      43.006  24.791  28.088  1.00  0.00     0.031 A 
ATOM     14  C   UNL A   1      44.416  25.209  28.395  1.00  0.00     0.074 A 
ATOM     15  C   UNL A   1      41.987  25.653  28.275  1.00  0.00     0.049 A 
ATOM     16  N   UNL A   1      44.852  26.353  28.859  1.00  0.00    -0.248 NA
ATOM     17  C   UNL A   1      45.476  24.216  28.161  1.00  0.00     0.031 C 
ATOM     18  C   UNL A   1      40.575  25.356  28.023  1.00  0.00     0.029 A 
ATOM     19  N   UNL A   1      41.978  26.955  28.706  1.00  0.00    -0.354 N 
ATOM     20  C   UNL A   1      46.228  26.216  28.986  1.00  0.00     0.074 A 
ATOM     21  C   UNL A   1      46.554  24.866  28.576  1.00  0.00     0.031 C 
ATOM     22  C   UNL A   1      39.844  26.453  28.263  1.00  0.00     0.029 A 
ATOM     23  C   UNL A   1      40.722  27.509  28.749  1.00  0.00     0.049 A 
ATOM     24  H   UNL A   1      42.794  27.444  28.961  1.00  0.00     0.167 HD
ATOM     25  C   UNL A   1      47.134  27.136  29.396  1.00  0.00     0.037 A 
ATOM     26  C   UNL A   1      40.317  28.725  29.156  1.00  0.00     0.037 A 
ATOM     27  C   UNL A   1      46.802  28.481  29.792  1.00  0.00     0.049 A 
ATOM     28  C   UNL A   1      41.340  29.710  29.641  1.00  0.00     0.074 A 
ATOM     29  C   UNL A   1      47.654  29.498  30.189  1.00  0.00     0.029 A 
ATOM     30  N   UNL A   1      45.515  28.997  29.849  1.00  0.00    -0.354 N 
ATOM     31  N   UNL A   1      42.643  29.578  29.714  1.00  0.00    -0.248 NA
ATOM     32  C   UNL A   1      40.839  31.010  30.102  1.00  0.00     0.031 C 
ATOM     33  C   UNL A   1      46.881  30.610  30.537  1.00  0.00     0.029 A 
ATOM     34  C   UNL A   1      45.549  30.307  30.300  1.00  0.00     0.049 A 
ATOM     35  H   UNL A   1      44.698  28.505  29.604  1.00  0.00     0.167 HD
ATOM     36  C   UNL A   1      43.119  30.786  30.205  1.00  0.00     0.074 A 
ATOM     37  C   UNL A   1      41.967  31.643  30.392  1.00  0.00     0.031 C 
ATOM     38  C   UNL A   1      44.395  31.151  30.476  1.00  0.00     0.037 A 
BRANCH  25  39
ATOM     39  C   UNL A   1      48.577  26.722  29.456  1.00  0.00     0.057 A 
ATOM     40  C   UNL A   1      49.461  26.953  28.395  1.00  0.00     0.134 A 
ATOM     41  C   UNL A   1      49.105  26.144  30.619  1.00  0.00     0.134 A 
ATOM     42  F   UNL A   1      49.021  27.495  27.250  1.00  0.00    -0.206 F 
ATOM     43  C   UNL A   1      50.813  26.613  28.482  1.00  0.00     0.040 A 
ATOM     44  C   UNL A   1      50.459  25.822  30.728  1.00  0.00     0.040 A 
ATOM     45  F   UNL A   1      48.315  25.902  31.678  1.00  0.00    -0.206 F 
ATOM     46  C   UNL A   1      51.316  26.053  29.655  1.00  0.00     0.006 A 
ENDBRANCH  25  39
BRANCH  26  47
ATOM     47  C   UNL A   1      38.874  29.071  29.137  1.00  0.00     0.057 A 
ATOM     48  C   UNL A   1      38.255  29.546  27.976  1.00  0.00     0.134 A 
ATOM     49  C   UNL A   1      38.079  28.940  30.283  1.00  0.00     0.134 A 
ATOM     50  F   UNL A   1      38.967  29.708  26.850  1.00  0.00    -0.206 F 
ATOM     51  C   UNL A   1      36.905  29.902  27.960  1.00  0.00     0.040 A 
ATOM     52  C   UNL A   1      36.721  29.262  30.273  1.00  0.00     0.040 A 
ATOM     53  F   UNL A   1      38.608  28.482  31.427  1.00  0.00    -0.206 F 
ATOM     54  C   UNL A   1      36.134  29.756  29.110  1.00  0.00     0.006 A 
ENDBRANCH  26  47
BRANCH  38  55
ATOM     55  C   UNL A   1      44.614  32.552  30.969  1.00  0.00     0.057 A 
ATOM     56  C   UNL A   1      44.651  32.861  32.334  1.00  0.00     0.134 A 
ATOM     57  C   UNL A   1      44.815  33.600  30.063  1.00  0.00     0.134 A 
ATOM     58  F   UNL A   1      44.449  31.905  33.254  1.00  0.00    -0.206 F 
ATOM     59  C   UNL A   1      44.853  34.167  32.781  1.00  0.00     0.040 A 
ATOM     60  C   UNL A   1      45.048  34.906  30.497  1.00  0.00     0.040 A 
ATOM     61  F   UNL A   1      44.800  33.372  28.741  1.00  0.00    -0.206 F 
ATOM     62  C   UNL A   1      45.060  35.193  31.860  1.00  0.00     0.006 A 
ENDBRANCH  38  55
ENDBRANCH  12  13
ENDBRANCH   5   7
ENDBRANCH   2   3
ENDBRANCH   1   2
BRANCH   1  63
ATOM     63  C   UNL A   1      37.799  21.522  25.003  1.00  0.00     0.117 C 
BRANCH  63  64
ATOM     64  N   UNL A   1      36.791  21.652  26.039  1.00  0.00    -0.354 N 
ATOM     65  C   UNL A   1      35.431  21.498  25.948  1.00  0.00     0.243 C 
ATOM     66  H   UNL A   1      37.131  21.882  26.935  1.00  0.00     0.163 HD
ATOM     67  O   UNL A   1      34.760  21.665  26.965  1.00  0.00    -0.273 OA
BRANCH  65  68
ATOM     68  C   UNL A   1      34.840  21.020  24.607  1.00  0.00     0.185 C 
ATOM     69  C   UNL A   1      33.927  19.829  24.913  1.00  0.00     0.106 C 
ATOM     70  N   UNL A   1      34.110  22.062  23.880  1.00  0.00    -0.316 N 
ATOM     71  S   UNL A   1      32.288  20.200  24.263  1.00  0.00    -0.138 SA
ATOM     72  C   UNL A   1      32.833  21.641  23.350  1.00  0.00     0.190 C 
BRANCH  70  73
ATOM     73  C   UNL A   1      34.809  23.180  23.456  1.00  0.00     0.262 C 
ATOM     74  O   UNL A   1      35.774  23.083  22.693  1.00  0.00    -0.269 OA
BRANCH  73  75
ATOM     75  C   UNL A   1      34.312  24.523  23.839  1.00  0.00     0.124 A 
ATOM     76  C   UNL A   1      34.370  24.861  25.132  1.00  0.00     0.133 A 
ATOM     77  C   UNL A   1      33.732  25.509  22.905  1.00  0.00     0.270 A 
ATOM     78  N   UNL A   1      34.034  26.084  25.647  1.00  0.00    -0.237 NA
ATOM     79  N   UNL A   1      33.502  26.775  23.438  1.00  0.00    -0.267 N 
ATOM     80  O   UNL A   1      33.503  25.206  21.735  1.00  0.00    -0.268 OA
ATOM     81  C   UNL A   1      33.644  26.991  24.803  1.00  0.00     0.139 A 
ATOM     82  C   UNL A   1      33.110  27.806  22.589  1.00  0.00     0.096 A 
ATOM     83  C   UNL A   1      33.337  28.359  25.307  1.00  0.00     0.048 A 
ATOM     84  C   UNL A   1      32.867  29.041  23.044  1.00  0.00     0.019 A 
ATOM     85  C   UNL A   1      32.981  29.323  24.449  1.00  0.00     0.005 A 
ENDBRANCH  73  75
ENDBRANCH  70  73
ENDBRANCH  65  68
ENDBRANCH  63  64
ENDBRANCH   1  63
TORSDOF 12
ENDMDL
MODEL 3
REMARK VINA RESULT:     -11.9      4.263      9.311
REMARK SMILES O=C(NCCCNC(=O)[C@H]1CSCN1C(=O)c1cnc2ccccn2c1=O)c1ccc(-c2c3nc(c(-c4c(F)cccc4F)c4ccc([nH]4)c(-c4c(F)cccc4F)c4nc(c(-c5c(F)cccc5F)c5ccc2[nH]5)C=C4)C=C3)cc1
REMARK SMILES IDX 5 1 4 2 3 3 1 4 2 5 28 7 29 8 81 9 30 10 80 11 31 12 32 13
REMARK SMILES IDX 33 14 74 15 34 16 79 17 73 18 75 19 35 20 78 21 72 22 71 23
REMARK SMILES IDX 36 25 62 26 45 27 61 28 46 29 49 30 60 31 76 32 47 33 48 34
REMARK SMILES IDX 59 36 77 37 50 38 37 39 38 40 43 41 39 42 40 43 42 44 44 45
REMARK SMILES IDX 41 46 63 47 64 48 69 49 65 50 66 51 68 52 70 53 67 54 51 55
REMARK SMILES IDX 52 56 57 57 53 58 54 59 56 60 58 61 55 62 6 63 7 64 8 65
REMARK SMILES IDX 9 67 10 68 11 69 14 70 12 71 13 72 15 73 16 74 17 75 18 76
REMARK SMILES IDX 26 77 19 78 25 79 27 80 20 81 24 82 21 83 23 84 22 85
REMARK H PARENT 3 6 75 24 49 35 7 66
REMARK Flexibility Score: inf
ROOT
ATOM      1  C   UNL A   1      31.838  31.841  27.146  1.00  0.00     0.042 C 
ENDROOT
BRANCH   1   2
ATOM      2  C   UNL A   1      32.816  32.960  26.807  1.00  0.00     0.118 C 
BRANCH   2   3
ATOM      3  N   UNL A   1      32.583  34.169  27.589  1.00  0.00    -0.352 N 
ATOM      4  O   UNL A   1      32.697  35.570  29.346  1.00  0.00    -0.269 OA
ATOM      5  C   UNL A   1      33.169  34.603  28.752  1.00  0.00     0.251 C 
ATOM      6  H   UNL A   1      31.895  34.771  27.224  1.00  0.00     0.163 HD
BRANCH   5   7
ATOM      7  C   UNL A   1      34.352  33.909  29.301  1.00  0.00     0.039 A 
ATOM      8  C   UNL A   1      34.206  32.820  30.161  1.00  0.00     0.014 A 
ATOM      9  C   UNL A   1      35.630  34.332  28.920  1.00  0.00     0.014 A 
ATOM     10  C   UNL A   1      35.327  32.252  30.755  1.00  0.00     0.010 A 
ATOM     11  C   UNL A   1      36.759  33.696  29.444  1.00  0.00     0.010 A 
ATOM     12  C   UNL A   1      36.616  32.668  30.388  1.00  0.00    -0.014 A 
BRANCH  12  13
ATOM     13  C   UNL A   1      37.794  31.961  30.951  1.00  0.00     0.031 A 
ATOM     14  C   UNL A   1      38.310  32.277  32.327  1.00  0.00     0.074 A 
ATOM     15  C   UNL A   1      38.385  31.004  30.209  1.00  0.00     0.049 A 
ATOM     16  N   UNL A   1      39.320  31.744  32.969  1.00  0.00    -0.248 NA
ATOM     17  C   UNL A   1      37.611  33.330  33.080  1.00  0.00     0.031 C 
ATOM     18  C   UNL A   1      37.980  30.619  28.854  1.00  0.00     0.029 A 
ATOM     19  N   UNL A   1      39.439  30.172  30.487  1.00  0.00    -0.354 N 
ATOM     20  C   UNL A   1      39.387  32.402  34.190  1.00  0.00     0.074 A 
ATOM     21  C   UNL A   1      38.334  33.395  34.190  1.00  0.00     0.031 C 
ATOM     22  C   UNL A   1      38.747  29.601  28.438  1.00  0.00     0.029 A 
ATOM     23  C   UNL A   1      39.739  29.307  29.464  1.00  0.00     0.049 A 
ATOM     24  H   UNL A   1      39.934  30.194  31.338  1.00  0.00     0.167 HD
ATOM     25  C   UNL A   1      40.244  32.188  35.218  1.00  0.00     0.037 A 
ATOM     26  C   UNL A   1      40.718  28.391  29.352  1.00  0.00     0.037 A 
ATOM     27  C   UNL A   1      41.284  31.191  35.213  1.00  0.00     0.049 A 
ATOM     28  C   UNL A   1      41.674  28.204  30.492  1.00  0.00     0.074 A 
ATOM     29  C   UNL A   1      42.179  30.874  36.221  1.00  0.00     0.029 A 
ATOM     30  N   UNL A   1      41.573  30.352  34.147  1.00  0.00    -0.354 N 
ATOM     31  N   UNL A   1      41.698  28.805  31.658  1.00  0.00    -0.248 NA
ATOM     32  C   UNL A   1      42.741  27.213  30.304  1.00  0.00     0.031 C 
ATOM     33  C   UNL A   1      43.043  29.883  35.747  1.00  0.00     0.029 A 
ATOM     34  C   UNL A   1      42.650  29.538  34.464  1.00  0.00     0.049 A 
ATOM     35  H   UNL A   1      41.086  30.335  33.292  1.00  0.00     0.167 HD
ATOM     36  C   UNL A   1      42.765  28.250  32.349  1.00  0.00     0.074 A 
ATOM     37  C   UNL A   1      43.350  27.249  31.481  1.00  0.00     0.031 C 
ATOM     38  C   UNL A   1      43.219  28.542  33.592  1.00  0.00     0.037 A 
BRANCH  25  39
ATOM     39  C   UNL A   1      40.110  33.059  36.435  1.00  0.00     0.057 A 
ATOM     40  C   UNL A   1      40.876  34.220  36.605  1.00  0.00     0.134 A 
ATOM     41  C   UNL A   1      39.155  32.769  37.418  1.00  0.00     0.134 A 
ATOM     42  F   UNL A   1      41.814  34.553  35.706  1.00  0.00    -0.206 F 
ATOM     43  C   UNL A   1      40.706  35.051  37.714  1.00  0.00     0.040 A 
ATOM     44  C   UNL A   1      38.959  33.605  38.519  1.00  0.00     0.040 A 
ATOM     45  F   UNL A   1      38.382  31.676  37.315  1.00  0.00    -0.206 F 
ATOM     46  C   UNL A   1      39.739  34.749  38.670  1.00  0.00     0.006 A 
ENDBRANCH  25  39
BRANCH  26  47
ATOM     47  C   UNL A   1      40.850  27.595  28.106  1.00  0.00     0.057 A 
ATOM     48  C   UNL A   1      40.236  26.345  27.973  1.00  0.00     0.134 A 
ATOM     49  C   UNL A   1      41.599  28.064  27.019  1.00  0.00     0.134 A 
ATOM     50  F   UNL A   1      39.518  25.835  28.986  1.00  0.00    -0.206 F 
ATOM     51  C   UNL A   1      40.382  25.578  26.816  1.00  0.00     0.040 A 
ATOM     52  C   UNL A   1      41.727  27.322  25.844  1.00  0.00     0.040 A 
ATOM     53  F   UNL A   1      42.205  29.259  27.078  1.00  0.00    -0.206 F 
ATOM     54  C   UNL A   1      41.126  26.069  25.745  1.00  0.00     0.006 A 
ENDBRANCH  26  47
BRANCH  38  55
ATOM     55  C   UNL A   1      44.383  27.742  34.099  1.00  0.00     0.057 A 
ATOM     56  C   UNL A   1      45.704  28.187  33.964  1.00  0.00     0.134 A 
ATOM     57  C   UNL A   1      44.175  26.521  34.753  1.00  0.00     0.134 A 
ATOM     58  F   UNL A   1      45.973  29.340  33.333  1.00  0.00    -0.206 F 
ATOM     59  C   UNL A   1      46.779  27.433  34.438  1.00  0.00     0.040 A 
ATOM     60  C   UNL A   1      45.239  25.773  35.258  1.00  0.00     0.040 A 
ATOM     61  F   UNL A   1      42.934  26.041  34.923  1.00  0.00    -0.206 F 
ATOM     62  C   UNL A   1      46.547  26.226  35.093  1.00  0.00     0.006 A 
ENDBRANCH  38  55
ENDBRANCH  12  13
ENDBRANCH   5   7
ENDBRANCH   2   3
ENDBRANCH   1   2
BRANCH   1  63
ATOM     63  C   UNL A   1      32.484  30.463  27.196  1.00  0.00     0.117 C 
BRANCH  63  64
ATOM     64  N   UNL A   1      33.138  30.120  25.946  1.00  0.00    -0.354 N 
ATOM     65  C   UNL A   1      32.649  29.408  24.881  1.00  0.00     0.243 C 
ATOM     66  H   UNL A   1      34.063  30.444  25.849  1.00  0.00     0.163 HD
ATOM     67  O   UNL A   1      33.390  29.228  23.915  1.00  0.00    -0.273 OA
BRANCH  65  68
ATOM     68  C   UNL A   1      31.171  28.972  24.911  1.00  0.00     0.185 C 
ATOM     69  C   UNL A   1      30.520  29.484  23.622  1.00  0.00     0.106 C 
ATOM     70  N   UNL A   1      30.985  27.526  25.049  1.00  0.00    -0.316 N 
ATOM     71  S   UNL A   1      29.793  28.074  22.767  1.00  0.00    -0.138 SA
ATOM     72  C   UNL A   1      30.007  26.957  24.150  1.00  0.00     0.190 C 
BRANCH  70  73
ATOM     73  C   UNL A   1      31.447  26.911  26.201  1.00  0.00     0.262 C 
ATOM     74  O   UNL A   1      31.049  27.257  27.317  1.00  0.00    -0.269 OA
BRANCH  73  75
ATOM     75  C   UNL A   1      32.347  25.740  26.076  1.00  0.00     0.124 A 
ATOM     76  C   UNL A   1      33.472  25.894  25.369  1.00  0.00     0.133 A 
ATOM     77  C   UNL A   1      32.086  24.405  26.653  1.00  0.00     0.270 A 
ATOM     78  N   UNL A   1      34.451  24.949  25.222  1.00  0.00    -0.237 NA
ATOM     79  N   UNL A   1      33.144  23.503  26.579  1.00  0.00    -0.267 N 
ATOM     80  O   UNL A   1      31.003  24.150  27.178  1.00  0.00    -0.268 OA
ATOM     81  C   UNL A   1      34.276  23.818  25.836  1.00  0.00     0.139 A 
ATOM     82  C   UNL A   1      33.040  22.282  27.238  1.00  0.00     0.096 A 
ATOM     83  C   UNL A   1      35.348  22.786  25.766  1.00  0.00     0.048 A 
ATOM     84  C   UNL A   1      34.021  21.372  27.197  1.00  0.00     0.019 A 
ATOM     85  C   UNL A   1      35.211  21.633  26.432  1.00  0.00     0.005 A 
ENDBRANCH  73  75
ENDBRANCH  70  73
ENDBRANCH  65  68
ENDBRANCH  63  64
ENDBRANCH   1  63
TORSDOF 12
ENDMDL
