MODEL 1
REMARK VINA RESULT:     -13.5      0.000      0.000
REMARK SMILES O=C(NCCCNC(=O)[C@@H]1CC2(CC[NH2+]CC2)C[NH+]1Cc1cccc2nonc12)c1ccc(-c2c3nc(c(-c4c(F)cccc4F)c4ccc([nH]4)c(-c4c(F)cccc4F)c4nc(c(-c5c(F)cccc5F)c5ccc2[nH]5)C=C4)C=C3)cc1
REMARK SMILES IDX 5 1 4 2 3 3 1 4 2 5 30 7 31 8 83 9 32 10 82 11 33 12 34 13
REMARK SMILES IDX 35 14 76 15 36 16 81 17 75 18 77 19 37 20 80 21 74 22 73 23
REMARK SMILES IDX 38 25 64 26 47 27 63 28 48 29 51 30 62 31 78 32 49 33 50 34
REMARK SMILES IDX 61 36 79 37 52 38 39 39 40 40 45 41 41 42 42 43 44 44 46 45
REMARK SMILES IDX 43 46 65 47 66 48 71 49 67 50 68 51 70 52 72 53 69 54 53 55
REMARK SMILES IDX 54 56 59 57 55 58 56 59 58 60 60 61 57 62 6 63 7 64 8 65
REMARK SMILES IDX 9 67 10 68 11 69 19 70 12 71 18 72 13 74 17 75 14 76 16 77
REMARK SMILES IDX 15 78 20 81 21 82 22 83 29 84 23 85 25 86 28 87 24 88 26 89
REMARK SMILES IDX 27 90
REMARK H PARENT 3 6 77 24 51 35 7 66 19 73 15 79 15 80
REMARK Flexibility Score: inf
ROOT
ATOM      1  C   UNL A   1      37.429  21.060  24.704  1.00  0.00     0.042 C 
ENDROOT
BRANCH   1   2
ATOM      2  C   UNL A   1      38.247  22.055  25.539  1.00  0.00     0.118 C 
BRANCH   2   3
ATOM      3  N   UNL A   1      39.137  21.391  26.472  1.00  0.00    -0.352 N 
ATOM      4  O   UNL A   1      40.845  21.049  27.872  1.00  0.00    -0.269 OA
ATOM      5  C   UNL A   1      40.149  21.861  27.265  1.00  0.00     0.251 C 
ATOM      6  H   UNL A   1      38.985  20.422  26.550  1.00  0.00     0.163 HD
BRANCH   5   7
ATOM      7  C   UNL A   1      40.440  23.305  27.422  1.00  0.00     0.039 A 
ATOM      8  C   UNL A   1      41.709  23.744  27.026  1.00  0.00     0.014 A 
ATOM      9  C   UNL A   1      39.572  24.193  28.067  1.00  0.00     0.014 A 
ATOM     10  C   UNL A   1      42.094  25.067  27.239  1.00  0.00     0.010 A 
ATOM     11  C   UNL A   1      39.955  25.524  28.269  1.00  0.00     0.010 A 
ATOM     12  C   UNL A   1      41.216  25.969  27.851  1.00  0.00    -0.014 A 
BRANCH  12  13
ATOM     13  C   UNL A   1      41.661  27.371  27.974  1.00  0.00     0.031 A 
ATOM     14  C   UNL A   1      40.604  28.418  27.834  1.00  0.00     0.074 A 
ATOM     15  C   UNL A   1      42.753  27.690  28.700  1.00  0.00     0.049 A 
ATOM     16  N   UNL A   1      39.810  28.771  28.804  1.00  0.00    -0.248 NA
ATOM     17  C   UNL A   1      40.233  28.976  26.534  1.00  0.00     0.031 C 
ATOM     18  C   UNL A   1      43.113  27.012  29.951  1.00  0.00     0.029 A 
ATOM     19  N   UNL A   1      43.574  28.794  28.658  1.00  0.00    -0.354 N 
ATOM     20  C   UNL A   1      38.811  29.554  28.252  1.00  0.00     0.074 A 
ATOM     21  C   UNL A   1      39.120  29.661  26.843  1.00  0.00     0.031 C 
ATOM     22  C   UNL A   1      43.954  27.808  30.642  1.00  0.00     0.029 A 
ATOM     23  C   UNL A   1      44.314  28.964  29.824  1.00  0.00     0.049 A 
ATOM     24  H   UNL A   1      43.631  29.399  27.884  1.00  0.00     0.167 HD
ATOM     25  C   UNL A   1      37.784  30.068  28.978  1.00  0.00     0.037 A 
ATOM     26  C   UNL A   1      44.712  30.168  30.319  1.00  0.00     0.037 A 
ATOM     27  C   UNL A   1      37.815  29.801  30.384  1.00  0.00     0.049 A 
ATOM     28  C   UNL A   1      43.410  30.713  30.844  1.00  0.00     0.074 A 
ATOM     29  C   UNL A   1      37.308  28.855  31.248  1.00  0.00     0.029 A 
ATOM     30  N   UNL A   1      38.567  30.633  31.180  1.00  0.00    -0.354 N 
ATOM     31  N   UNL A   1      42.850  30.405  31.984  1.00  0.00    -0.248 NA
ATOM     32  C   UNL A   1      42.519  31.370  29.886  1.00  0.00     0.031 C 
ATOM     33  C   UNL A   1      38.152  28.902  32.401  1.00  0.00     0.029 A 
ATOM     34  C   UNL A   1      39.151  29.837  32.131  1.00  0.00     0.049 A 
ATOM     35  H   UNL A   1      38.666  31.608  31.085  1.00  0.00     0.167 HD
ATOM     36  C   UNL A   1      41.479  30.580  31.781  1.00  0.00     0.074 A 
ATOM     37  C   UNL A   1      41.348  31.222  30.490  1.00  0.00     0.031 C 
ATOM     38  C   UNL A   1      40.516  30.016  32.567  1.00  0.00     0.037 A 
BRANCH  25  39
ATOM     39  C   UNL A   1      36.738  30.968  28.456  1.00  0.00     0.057 A 
ATOM     40  C   UNL A   1      35.461  30.512  28.132  1.00  0.00     0.134 A 
ATOM     41  C   UNL A   1      36.944  32.352  28.529  1.00  0.00     0.134 A 
ATOM     42  F   UNL A   1      35.201  29.199  28.064  1.00  0.00    -0.206 F 
ATOM     43  C   UNL A   1      34.408  31.409  27.930  1.00  0.00     0.040 A 
ATOM     44  C   UNL A   1      35.902  33.256  28.339  1.00  0.00     0.040 A 
ATOM     45  F   UNL A   1      38.155  32.838  28.851  1.00  0.00    -0.206 F 
ATOM     46  C   UNL A   1      34.624  32.783  28.053  1.00  0.00     0.006 A 
ENDBRANCH  25  39
BRANCH  26  47
ATOM     47  C   UNL A   1      45.668  30.928  29.455  1.00  0.00     0.057 A 
ATOM     48  C   UNL A   1      45.426  31.423  28.168  1.00  0.00     0.134 A 
ATOM     49  C   UNL A   1      46.954  31.189  29.971  1.00  0.00     0.134 A 
ATOM     50  F   UNL A   1      44.210  31.364  27.612  1.00  0.00    -0.206 F 
ATOM     51  C   UNL A   1      46.435  32.004  27.389  1.00  0.00     0.040 A 
ATOM     52  C   UNL A   1      47.965  31.791  29.215  1.00  0.00     0.040 A 
ATOM     53  F   UNL A   1      47.256  30.860  31.238  1.00  0.00    -0.206 F 
ATOM     54  C   UNL A   1      47.715  32.174  27.905  1.00  0.00     0.006 A 
ENDBRANCH  26  47
BRANCH  38  55
ATOM     55  C   UNL A   1      40.994  29.324  33.794  1.00  0.00     0.057 A 
ATOM     56  C   UNL A   1      41.122  29.996  35.018  1.00  0.00     0.134 A 
ATOM     57  C   UNL A   1      41.388  27.983  33.749  1.00  0.00     0.134 A 
ATOM     58  F   UNL A   1      40.744  31.278  35.142  1.00  0.00    -0.206 F 
ATOM     59  C   UNL A   1      41.670  29.373  36.139  1.00  0.00     0.040 A 
ATOM     60  C   UNL A   1      41.914  27.343  34.871  1.00  0.00     0.040 A 
ATOM     61  F   UNL A   1      41.300  27.286  32.605  1.00  0.00    -0.206 F 
ATOM     62  C   UNL A   1      42.069  28.043  36.067  1.00  0.00     0.006 A 
ENDBRANCH  38  55
ENDBRANCH  12  13
ENDBRANCH   5   7
ENDBRANCH   2   3
ENDBRANCH   1   2
BRANCH   1  63
ATOM     63  C   UNL A   1      36.049  20.678  25.256  1.00  0.00     0.118 C 
BRANCH  63  64
ATOM     64  N   UNL A   1      35.549  21.590  26.268  1.00  0.00    -0.351 N 
ATOM     65  C   UNL A   1      34.722  22.675  26.130  1.00  0.00     0.278 C 
ATOM     66  H   UNL A   1      35.848  21.403  27.187  1.00  0.00     0.163 HD
ATOM     67  O   UNL A   1      34.387  23.262  27.163  1.00  0.00    -0.268 OA
BRANCH  65  68
ATOM     68  C   UNL A   1      34.243  23.111  24.728  1.00  0.00     0.275 C 
ATOM     69  C   UNL A   1      34.550  24.609  24.464  1.00  0.00     0.089 C 
ATOM     70  N   UNL A   1      32.794  23.049  24.565  1.00  0.00    -0.320 N 
ATOM     71  C   UNL A   1      33.182  25.336  24.408  1.00  0.00     0.036 C 
ATOM     72  C   UNL A   1      32.260  24.215  23.910  1.00  0.00     0.270 C 
ATOM     73  H   UNL A   1      32.507  22.252  25.134  1.00  0.00     0.349 HD
ATOM     74  C   UNL A   1      33.161  26.527  23.431  1.00  0.00     0.074 C 
ATOM     75  C   UNL A   1      32.741  25.844  25.805  1.00  0.00     0.074 C 
ATOM     76  C   UNL A   1      33.899  27.750  23.973  1.00  0.00     0.261 C 
ATOM     77  C   UNL A   1      33.486  27.101  26.253  1.00  0.00     0.261 C 
ATOM     78  N   UNL A   1      33.367  28.176  25.267  1.00  0.00    -0.346 N 
ATOM     79  H   UNL A   1      32.384  28.424  25.158  1.00  0.00     0.346 HD
ATOM     80  H   UNL A   1      33.902  28.981  25.593  1.00  0.00     0.346 HD
BRANCH  70  81
ATOM     81  C   UNL A   1      31.946  21.953  24.962  1.00  0.00     0.302 C 
BRANCH  81  82
ATOM     82  C   UNL A   1      32.204  20.720  24.138  1.00  0.00     0.038 A 
ATOM     83  C   UNL A   1      32.121  20.731  22.721  1.00  0.00     0.012 A 
ATOM     84  C   UNL A   1      32.461  19.433  24.657  1.00  0.00     0.144 A 
ATOM     85  C   UNL A   1      32.162  19.569  21.907  1.00  0.00     0.003 A 
ATOM     86  C   UNL A   1      32.507  18.238  23.822  1.00  0.00     0.135 A 
ATOM     87  N   UNL A   1      32.684  19.056  25.923  1.00  0.00    -0.049 NA
ATOM     88  C   UNL A   1      32.330  18.279  22.430  1.00  0.00     0.034 A 
ATOM     89  N   UNL A   1      32.723  17.179  24.611  1.00  0.00    -0.050 NA
ATOM     90  O   UNL A   1      32.861  17.685  25.888  1.00  0.00    -0.243 OA
ENDBRANCH  81  82
ENDBRANCH  70  81
ENDBRANCH  65  68
ENDBRANCH  63  64
ENDBRANCH   1  63
TORSDOF 12
ENDMDL
MODEL 2
REMARK VINA RESULT:     -13.3      3.122      7.811
REMARK SMILES O=C(NCCCNC(=O)[C@@H]1CC2(CC[NH2+]CC2)C[NH+]1Cc1cccc2nonc12)c1ccc(-c2c3nc(c(-c4c(F)cccc4F)c4ccc([nH]4)c(-c4c(F)cccc4F)c4nc(c(-c5c(F)cccc5F)c5ccc2[nH]5)C=C4)C=C3)cc1
REMARK SMILES IDX 5 1 4 2 3 3 1 4 2 5 30 7 31 8 83 9 32 10 82 11 33 12 34 13
REMARK SMILES IDX 35 14 76 15 36 16 81 17 75 18 77 19 37 20 80 21 74 22 73 23
REMARK SMILES IDX 38 25 64 26 47 27 63 28 48 29 51 30 62 31 78 32 49 33 50 34
REMARK SMILES IDX 61 36 79 37 52 38 39 39 40 40 45 41 41 42 42 43 44 44 46 45
REMARK SMILES IDX 43 46 65 47 66 48 71 49 67 50 68 51 70 52 72 53 69 54 53 55
REMARK SMILES IDX 54 56 59 57 55 58 56 59 58 60 60 61 57 62 6 63 7 64 8 65
REMARK SMILES IDX 9 67 10 68 11 69 19 70 12 71 18 72 13 74 17 75 14 76 16 77
REMARK SMILES IDX 15 78 20 81 21 82 22 83 29 84 23 85 25 86 28 87 24 88 26 89
REMARK SMILES IDX 27 90
REMARK H PARENT 3 6 77 24 51 35 7 66 19 73 15 79 15 80
REMARK Flexibility Score: inf
ROOT
ATOM      1  C   UNL A   1      31.810  30.391  26.849  1.00  0.00     0.042 C 
ENDROOT
BRANCH   1   2
ATOM      2  C   UNL A   1      33.253  30.466  27.369  1.00  0.00     0.118 C 
BRANCH   2   3
ATOM      3  N   UNL A   1      33.798  31.808  27.290  1.00  0.00    -0.352 N 
ATOM      4  O   UNL A   1      35.120  33.569  27.672  1.00  0.00    -0.269 OA
ATOM      5  C   UNL A   1      34.962  32.352  27.762  1.00  0.00     0.251 C 
ATOM      6  H   UNL A   1      33.225  32.446  26.808  1.00  0.00     0.163 HD
BRANCH   5   7
ATOM      7  C   UNL A   1      36.037  31.539  28.375  1.00  0.00     0.039 A 
ATOM      8  C   UNL A   1      36.238  31.685  29.753  1.00  0.00     0.014 A 
ATOM      9  C   UNL A   1      36.929  30.763  27.626  1.00  0.00     0.014 A 
ATOM     10  C   UNL A   1      37.296  31.034  30.383  1.00  0.00     0.010 A 
ATOM     11  C   UNL A   1      37.985  30.099  28.261  1.00  0.00     0.010 A 
ATOM     12  C   UNL A   1      38.171  30.227  29.644  1.00  0.00    -0.014 A 
BRANCH  12  13
ATOM     13  C   UNL A   1      39.221  29.506  30.390  1.00  0.00     0.031 A 
ATOM     14  C   UNL A   1      39.422  28.070  30.031  1.00  0.00     0.074 A 
ATOM     15  C   UNL A   1      40.277  30.165  30.910  1.00  0.00     0.049 A 
ATOM     16  N   UNL A   1      40.125  27.676  29.009  1.00  0.00    -0.248 NA
ATOM     17  C   UNL A   1      38.665  26.997  30.676  1.00  0.00     0.031 C 
ATOM     18  C   UNL A   1      40.924  31.303  30.245  1.00  0.00     0.029 A 
ATOM     19  N   UNL A   1      41.139  29.828  31.930  1.00  0.00    -0.354 N 
ATOM     20  C   UNL A   1      39.878  26.325  28.837  1.00  0.00     0.074 A 
ATOM     21  C   UNL A   1      38.974  25.946  29.899  1.00  0.00     0.031 C 
ATOM     22  C   UNL A   1      42.160  31.454  30.760  1.00  0.00     0.029 A 
ATOM     23  C   UNL A   1      42.334  30.540  31.887  1.00  0.00     0.049 A 
ATOM     24  H   UNL A   1      40.931  29.154  32.615  1.00  0.00     0.167 HD
ATOM     25  C   UNL A   1      40.425  25.592  27.831  1.00  0.00     0.037 A 
ATOM     26  C   UNL A   1      43.533  30.064  32.320  1.00  0.00     0.037 A 
ATOM     27  C   UNL A   1      41.333  26.288  26.970  1.00  0.00     0.049 A 
ATOM     28  C   UNL A   1      43.865  29.078  31.231  1.00  0.00     0.074 A 
ATOM     29  C   UNL A   1      41.275  26.977  25.779  1.00  0.00     0.029 A 
ATOM     30  N   UNL A   1      42.643  26.396  27.372  1.00  0.00    -0.354 N 
ATOM     31  N   UNL A   1      44.376  29.364  30.062  1.00  0.00    -0.248 NA
ATOM     32  C   UNL A   1      43.271  27.743  31.325  1.00  0.00     0.031 C 
ATOM     33  C   UNL A   1      42.419  27.836  25.780  1.00  0.00     0.029 A 
ATOM     34  C   UNL A   1      43.061  27.649  27.003  1.00  0.00     0.049 A 
ATOM     35  H   UNL A   1      43.177  25.709  27.834  1.00  0.00     0.167 HD
ATOM     36  C   UNL A   1      43.923  28.358  29.205  1.00  0.00     0.074 A 
ATOM     37  C   UNL A   1      43.292  27.369  30.054  1.00  0.00     0.031 C 
ATOM     38  C   UNL A   1      43.897  28.472  27.846  1.00  0.00     0.037 A 
BRANCH  25  39
ATOM     39  C   UNL A   1      40.255  24.138  27.647  1.00  0.00     0.057 A 
ATOM     40  C   UNL A   1      39.332  23.607  26.746  1.00  0.00     0.134 A 
ATOM     41  C   UNL A   1      41.214  23.275  28.192  1.00  0.00     0.134 A 
ATOM     42  F   UNL A   1      38.403  24.390  26.179  1.00  0.00    -0.206 F 
ATOM     43  C   UNL A   1      39.392  22.263  26.365  1.00  0.00     0.040 A 
ATOM     44  C   UNL A   1      41.290  21.936  27.816  1.00  0.00     0.040 A 
ATOM     45  F   UNL A   1      42.132  23.745  29.054  1.00  0.00    -0.206 F 
ATOM     46  C   UNL A   1      40.384  21.431  26.887  1.00  0.00     0.006 A 
ENDBRANCH  25  39
BRANCH  26  47
ATOM     47  C   UNL A   1      43.614  29.775  33.785  1.00  0.00     0.057 A 
ATOM     48  C   UNL A   1      44.299  28.720  34.398  1.00  0.00     0.134 A 
ATOM     49  C   UNL A   1      42.938  30.648  34.664  1.00  0.00     0.134 A 
ATOM     50  F   UNL A   1      45.090  27.898  33.697  1.00  0.00    -0.206 F 
ATOM     51  C   UNL A   1      44.199  28.460  35.770  1.00  0.00     0.040 A 
ATOM     52  C   UNL A   1      42.849  30.416  36.040  1.00  0.00     0.040 A 
ATOM     53  F   UNL A   1      42.342  31.756  34.194  1.00  0.00    -0.206 F 
ATOM     54  C   UNL A   1      43.457  29.298  36.595  1.00  0.00     0.006 A 
ENDBRANCH  26  47
BRANCH  38  55
ATOM     55  C   UNL A   1      44.552  29.681  27.277  1.00  0.00     0.057 A 
ATOM     56  C   UNL A   1      45.901  29.679  26.898  1.00  0.00     0.134 A 
ATOM     57  C   UNL A   1      43.847  30.882  27.156  1.00  0.00     0.134 A 
ATOM     58  F   UNL A   1      46.635  28.557  26.966  1.00  0.00    -0.206 F 
ATOM     59  C   UNL A   1      46.539  30.841  26.465  1.00  0.00     0.040 A 
ATOM     60  C   UNL A   1      44.470  32.046  26.700  1.00  0.00     0.040 A 
ATOM     61  F   UNL A   1      42.555  30.954  27.511  1.00  0.00    -0.206 F 
ATOM     62  C   UNL A   1      45.823  32.030  26.366  1.00  0.00     0.006 A 
ENDBRANCH  38  55
ENDBRANCH  12  13
ENDBRANCH   5   7
ENDBRANCH   2   3
ENDBRANCH   1   2
BRANCH   1  63
ATOM     63  C   UNL A   1      31.638  30.170  25.340  1.00  0.00     0.118 C 
BRANCH  63  64
ATOM     64  N   UNL A   1      32.789  29.559  24.702  1.00  0.00    -0.351 N 
ATOM     65  C   UNL A   1      33.081  28.231  24.520  1.00  0.00     0.278 C 
ATOM     66  H   UNL A   1      33.459  30.189  24.349  1.00  0.00     0.163 HD
ATOM     67  O   UNL A   1      34.104  27.962  23.885  1.00  0.00    -0.268 OA
BRANCH  65  68
ATOM     68  C   UNL A   1      32.142  27.146  25.092  1.00  0.00     0.275 C 
ATOM     69  C   UNL A   1      32.914  26.145  25.991  1.00  0.00     0.089 C 
ATOM     70  N   UNL A   1      31.568  26.278  24.069  1.00  0.00    -0.320 N 
ATOM     71  C   UNL A   1      32.909  24.787  25.244  1.00  0.00     0.036 C 
ATOM     72  C   UNL A   1      31.609  24.886  24.436  1.00  0.00     0.270 C 
ATOM     73  H   UNL A   1      31.445  26.886  23.258  1.00  0.00     0.349 HD
ATOM     74  C   UNL A   1      32.868  23.569  26.187  1.00  0.00     0.074 C 
ATOM     75  C   UNL A   1      34.138  24.638  24.309  1.00  0.00     0.074 C 
ATOM     76  C   UNL A   1      34.210  23.302  26.867  1.00  0.00     0.261 C 
ATOM     77  C   UNL A   1      35.431  24.317  25.059  1.00  0.00     0.261 C 
ATOM     78  N   UNL A   1      35.286  23.124  25.892  1.00  0.00    -0.346 N 
ATOM     79  H   UNL A   1      35.070  22.323  25.298  1.00  0.00     0.346 HD
ATOM     80  H   UNL A   1      36.160  22.966  26.395  1.00  0.00     0.346 HD
BRANCH  70  81
ATOM     81  C   UNL A   1      30.979  26.713  22.827  1.00  0.00     0.302 C 
BRANCH  81  82
ATOM     82  C   UNL A   1      29.684  27.446  23.049  1.00  0.00     0.038 A 
ATOM     83  C   UNL A   1      28.585  26.847  23.719  1.00  0.00     0.012 A 
ATOM     84  C   UNL A   1      29.384  28.736  22.559  1.00  0.00     0.144 A 
ATOM     85  C   UNL A   1      27.285  27.412  23.788  1.00  0.00     0.003 A 
ATOM     86  C   UNL A   1      28.049  29.319  22.633  1.00  0.00     0.135 A 
ATOM     87  N   UNL A   1      30.186  29.623  21.957  1.00  0.00    -0.049 NA
ATOM     88  C   UNL A   1      26.963  28.655  23.226  1.00  0.00     0.034 A 
ATOM     89  N   UNL A   1      28.080  30.521  22.047  1.00  0.00    -0.050 NA
ATOM     90  O   UNL A   1      29.392  30.717  21.663  1.00  0.00    -0.243 OA
ENDBRANCH  81  82
ENDBRANCH  70  81
ENDBRANCH  65  68
ENDBRANCH  63  64
ENDBRANCH   1  63
TORSDOF 12
ENDMDL
MODEL 3
REMARK VINA RESULT:     -13.0      3.113      7.298
REMARK SMILES O=C(NCCCNC(=O)[C@@H]1CC2(CC[NH2+]CC2)C[NH+]1Cc1cccc2nonc12)c1ccc(-c2c3nc(c(-c4c(F)cccc4F)c4ccc([nH]4)c(-c4c(F)cccc4F)c4nc(c(-c5c(F)cccc5F)c5ccc2[nH]5)C=C4)C=C3)cc1
REMARK SMILES IDX 5 1 4 2 3 3 1 4 2 5 30 7 31 8 83 9 32 10 82 11 33 12 34 13
REMARK SMILES IDX 35 14 76 15 36 16 81 17 75 18 77 19 37 20 80 21 74 22 73 23
REMARK SMILES IDX 38 25 64 26 47 27 63 28 48 29 51 30 62 31 78 32 49 33 50 34
REMARK SMILES IDX 61 36 79 37 52 38 39 39 40 40 45 41 41 42 42 43 44 44 46 45
REMARK SMILES IDX 43 46 65 47 66 48 71 49 67 50 68 51 70 52 72 53 69 54 53 55
REMARK SMILES IDX 54 56 59 57 55 58 56 59 58 60 60 61 57 62 6 63 7 64 8 65
REMARK SMILES IDX 9 67 10 68 11 69 19 70 12 71 18 72 13 74 17 75 14 76 16 77
REMARK SMILES IDX 15 78 20 81 21 82 22 83 29 84 23 85 25 86 28 87 24 88 26 89
REMARK SMILES IDX 27 90
REMARK H PARENT 3 6 77 24 51 35 7 66 19 73 15 79 15 80
REMARK Flexibility Score: inf
ROOT
ATOM      1  C   UNL A   1      34.039  30.479  26.917  1.00  0.00     0.042 C 
ENDROOT
BRANCH   1   2
ATOM      2  C   UNL A   1      33.611  31.426  28.047  1.00  0.00     0.118 C 
BRANCH   2   3
ATOM      3  N   UNL A   1      34.320  32.690  28.006  1.00  0.00    -0.352 N 
ATOM      4  O   UNL A   1      35.869  34.249  28.411  1.00  0.00    -0.269 OA
ATOM      5  C   UNL A   1      35.561  33.060  28.452  1.00  0.00     0.251 C 
ATOM      6  H   UNL A   1      33.816  33.419  27.578  1.00  0.00     0.163 HD
BRANCH   5   7
ATOM      7  C   UNL A   1      36.545  32.087  28.982  1.00  0.00     0.039 A 
ATOM      8  C   UNL A   1      36.878  32.195  30.338  1.00  0.00     0.014 A 
ATOM      9  C   UNL A   1      37.240  31.186  28.168  1.00  0.00     0.014 A 
ATOM     10  C   UNL A   1      37.872  31.385  30.884  1.00  0.00     0.010 A 
ATOM     11  C   UNL A   1      38.230  30.364  28.721  1.00  0.00     0.010 A 
ATOM     12  C   UNL A   1      38.547  30.456  30.082  1.00  0.00    -0.014 A 
BRANCH  12  13
ATOM     13  C   UNL A   1      39.532  29.579  30.745  1.00  0.00     0.031 A 
ATOM     14  C   UNL A   1      39.584  28.162  30.271  1.00  0.00     0.074 A 
ATOM     15  C   UNL A   1      40.656  30.087  31.291  1.00  0.00     0.049 A 
ATOM     16  N   UNL A   1      40.228  27.785  29.205  1.00  0.00    -0.248 NA
ATOM     17  C   UNL A   1      38.733  27.121  30.847  1.00  0.00     0.031 C 
ATOM     18  C   UNL A   1      41.403  31.206  30.702  1.00  0.00     0.029 A 
ATOM     19  N   UNL A   1      41.495  29.586  32.260  1.00  0.00    -0.354 N 
ATOM     20  C   UNL A   1      39.846  26.483  28.933  1.00  0.00     0.074 A 
ATOM     21  C   UNL A   1      38.924  26.110  29.984  1.00  0.00     0.031 C 
ATOM     22  C   UNL A   1      42.656  31.193  31.198  1.00  0.00     0.029 A 
ATOM     23  C   UNL A   1      42.754  30.179  32.246  1.00  0.00     0.049 A 
ATOM     24  H   UNL A   1      41.232  28.883  32.896  1.00  0.00     0.167 HD
ATOM     25  C   UNL A   1      40.301  25.783  27.862  1.00  0.00     0.037 A 
ATOM     26  C   UNL A   1      43.907  29.555  32.613  1.00  0.00     0.037 A 
ATOM     27  C   UNL A   1      41.261  26.453  27.037  1.00  0.00     0.049 A 
ATOM     28  C   UNL A   1      44.123  28.631  31.443  1.00  0.00     0.074 A 
ATOM     29  C   UNL A   1      41.254  27.237  25.904  1.00  0.00     0.029 A 
ATOM     30  N   UNL A   1      42.582  26.399  27.416  1.00  0.00    -0.354 N 
ATOM     31  N   UNL A   1      44.642  28.958  30.289  1.00  0.00    -0.248 NA
ATOM     32  C   UNL A   1      43.400  27.358  31.447  1.00  0.00     0.031 C 
ATOM     33  C   UNL A   1      42.477  27.976  25.947  1.00  0.00     0.029 A 
ATOM     34  C   UNL A   1      43.116  27.630  27.136  1.00  0.00     0.049 A 
ATOM     35  H   UNL A   1      43.051  25.628  27.810  1.00  0.00     0.167 HD
ATOM     36  C   UNL A   1      44.077  28.073  29.366  1.00  0.00     0.074 A 
ATOM     37  C   UNL A   1      43.364  27.086  30.150  1.00  0.00     0.031 C 
ATOM     38  C   UNL A   1      44.042  28.297  28.021  1.00  0.00     0.037 A 
BRANCH  25  39
ATOM     39  C   UNL A   1      39.984  24.372  27.568  1.00  0.00     0.057 A 
ATOM     40  C   UNL A   1      38.925  24.005  26.739  1.00  0.00     0.134 A 
ATOM     41  C   UNL A   1      40.919  23.387  27.916  1.00  0.00     0.134 A 
ATOM     42  F   UNL A   1      38.011  24.910  26.359  1.00  0.00    -0.206 F 
ATOM     43  C   UNL A   1      38.823  22.706  26.234  1.00  0.00     0.040 A 
ATOM     44  C   UNL A   1      40.834  22.091  27.414  1.00  0.00     0.040 A 
ATOM     45  F   UNL A   1      41.964  23.696  28.701  1.00  0.00    -0.206 F 
ATOM     46  C   UNL A   1      39.790  21.752  26.557  1.00  0.00     0.006 A 
ENDBRANCH  25  39
BRANCH  26  47
ATOM     47  C   UNL A   1      43.980  29.143  34.049  1.00  0.00     0.057 A 
ATOM     48  C   UNL A   1      43.167  28.207  34.698  1.00  0.00     0.134 A 
ATOM     49  C   UNL A   1      44.970  29.746  34.855  1.00  0.00     0.134 A 
ATOM     50  F   UNL A   1      42.279  27.464  34.025  1.00  0.00    -0.206 F 
ATOM     51  C   UNL A   1      43.230  27.994  36.081  1.00  0.00     0.040 A 
ATOM     52  C   UNL A   1      45.062  29.524  36.232  1.00  0.00     0.040 A 
ATOM     53  F   UNL A   1      45.877  30.573  34.310  1.00  0.00    -0.206 F 
ATOM     54  C   UNL A   1      44.167  28.666  36.857  1.00  0.00     0.006 A 
ENDBRANCH  26  47
BRANCH  38  55
ATOM     55  C   UNL A   1      44.806  29.478  27.534  1.00  0.00     0.057 A 
ATOM     56  C   UNL A   1      44.210  30.741  27.409  1.00  0.00     0.134 A 
ATOM     57  C   UNL A   1      46.137  29.348  27.129  1.00  0.00     0.134 A 
ATOM     58  F   UNL A   1      42.942  30.946  27.797  1.00  0.00    -0.206 F 
ATOM     59  C   UNL A   1      44.897  31.820  26.853  1.00  0.00     0.040 A 
ATOM     60  C   UNL A   1      46.842  30.427  26.594  1.00  0.00     0.040 A 
ATOM     61  F   UNL A   1      46.763  28.163  27.214  1.00  0.00    -0.206 F 
ATOM     62  C   UNL A   1      46.218  31.664  26.442  1.00  0.00     0.006 A 
ENDBRANCH  38  55
ENDBRANCH  12  13
ENDBRANCH   5   7
ENDBRANCH   2   3
ENDBRANCH   1   2
BRANCH   1  63
ATOM     63  C   UNL A   1      34.214  29.002  27.293  1.00  0.00     0.118 C 
BRANCH  63  64
ATOM     64  N   UNL A   1      32.980  28.239  27.263  1.00  0.00    -0.351 N 
ATOM     65  C   UNL A   1      31.989  28.224  26.314  1.00  0.00     0.278 C 
ATOM     66  H   UNL A   1      32.832  27.647  28.035  1.00  0.00     0.163 HD
ATOM     67  O   UNL A   1      31.056  27.435  26.488  1.00  0.00    -0.268 OA
BRANCH  65  68
ATOM     68  C   UNL A   1      32.073  29.163  25.091  1.00  0.00     0.275 C 
ATOM     69  C   UNL A   1      30.663  29.601  24.613  1.00  0.00     0.089 C 
ATOM     70  N   UNL A   1      32.626  28.519  23.904  1.00  0.00    -0.320 N 
ATOM     71  C   UNL A   1      30.440  28.937  23.231  1.00  0.00     0.036 C 
ATOM     72  C   UNL A   1      31.879  28.823  22.710  1.00  0.00     0.270 C 
ATOM     73  H   UNL A   1      33.313  27.859  24.268  1.00  0.00     0.349 HD
ATOM     74  C   UNL A   1      29.585  29.788  22.273  1.00  0.00     0.074 C 
ATOM     75  C   UNL A   1      29.780  27.539  23.360  1.00  0.00     0.074 C 
ATOM     76  C   UNL A   1      28.100  29.769  22.630  1.00  0.00     0.261 C 
ATOM     77  C   UNL A   1      28.284  27.605  23.664  1.00  0.00     0.261 C 
ATOM     78  N   UNL A   1      27.569  28.407  22.672  1.00  0.00    -0.346 N 
ATOM     79  H   UNL A   1      27.677  27.979  21.753  1.00  0.00     0.346 HD
ATOM     80  H   UNL A   1      26.583  28.448  22.931  1.00  0.00     0.346 HD
BRANCH  70  81
ATOM     81  C   UNL A   1      33.806  27.692  23.864  1.00  0.00     0.302 C 
BRANCH  81  82
ATOM     82  C   UNL A   1      33.461  26.234  23.721  1.00  0.00     0.038 A 
ATOM     83  C   UNL A   1      33.278  25.390  24.847  1.00  0.00     0.012 A 
ATOM     84  C   UNL A   1      33.370  25.535  22.498  1.00  0.00     0.144 A 
ATOM     85  C   UNL A   1      33.143  23.979  24.777  1.00  0.00     0.003 A 
ATOM     86  C   UNL A   1      33.228  24.086  22.424  1.00  0.00     0.135 A 
ATOM     87  N   UNL A   1      33.406  26.007  21.245  1.00  0.00    -0.049 NA
ATOM     88  C   UNL A   1      33.140  23.273  23.566  1.00  0.00     0.034 A 
ATOM     89  N   UNL A   1      33.215  23.728  21.135  1.00  0.00    -0.050 NA
ATOM     90  O   UNL A   1      33.293  24.905  20.418  1.00  0.00    -0.243 OA
ENDBRANCH  81  82
ENDBRANCH  70  81
ENDBRANCH  65  68
ENDBRANCH  63  64
ENDBRANCH   1  63
TORSDOF 12
ENDMDL
