MODEL 1
REMARK VINA RESULT:     -10.8      0.000      0.000
REMARK SMILES CCN(C(=O)Nc1cc(OC)ccc1F)[C@H](C)CC(=O)NCCCNC(=O)c1ccc(-c2c3nc(c(-c4c(F)cccc4F)c4ccc([nH]4)c(-c4c(F)cccc4F)c4nc(c(-c5c(F)cccc5F)c5ccc2[nH]5)C=C4)C=C3)cc1
REMARK SMILES IDX 19 1 20 2 21 3 18 5 16 6 17 7 3 8 2 9 1 10 4 11 5 12 6 13
REMARK SMILES IDX 7 15 8 16 14 17 9 18 13 19 15 20 12 21 10 22 11 23 22 24
REMARK SMILES IDX 23 25 24 26 25 27 26 28 27 30 28 31 29 32 81 33 30 34 80 35
REMARK SMILES IDX 31 36 32 37 33 38 74 39 34 40 79 41 73 42 75 43 35 44 78 45
REMARK SMILES IDX 72 46 71 47 36 49 62 50 45 51 61 52 46 53 49 54 60 55 76 56
REMARK SMILES IDX 47 57 48 58 59 60 77 61 50 62 37 63 38 64 43 65 39 66 40 67
REMARK SMILES IDX 42 68 44 69 41 70 63 71 64 72 69 73 65 74 66 75 68 76 70 77
REMARK SMILES IDX 67 78 51 79 52 80 57 81 53 82 54 83 56 84 58 85 55 86
REMARK H PARENT 21 4 6 14 25 29 75 48 49 59
REMARK Flexibility Score: inf
ROOT
ATOM      1  C   UNL A   1      32.456  25.319  26.098  1.00  0.00     0.222 C 
ATOM      2  O   UNL A   1      31.702  24.620  26.773  1.00  0.00    -0.275 OA
ATOM      3  N   UNL A   1      32.186  26.655  25.992  1.00  0.00    -0.356 N 
ATOM      4  H   UNL A   1      31.499  26.986  26.613  1.00  0.00     0.163 HD
ENDROOT
BRANCH   1   5
ATOM      5  C   UNL A   1      33.702  24.745  25.462  1.00  0.00     0.124 C 
BRANCH   5   6
ATOM      6  C   UNL A   1      33.561  23.336  24.862  1.00  0.00     0.093 C 
ATOM      7  C   UNL A   1      34.051  23.328  23.405  1.00  0.00     0.031 C 
BRANCH   6   8
ATOM      8  N   UNL A   1      34.244  22.238  25.616  1.00  0.00    -0.322 N 
BRANCH   8   9
ATOM      9  C   UNL A   1      35.702  22.040  25.465  1.00  0.00     0.118 C 
ATOM     10  C   UNL A   1      36.219  20.653  25.108  1.00  0.00     0.027 C 
ENDBRANCH   8   9
BRANCH   8  11
ATOM     11  C   UNL A   1      33.398  21.502  26.468  1.00  0.00     0.322 C 
ATOM     12  O   UNL A   1      33.238  21.793  27.657  1.00  0.00    -0.248 OA
ATOM     13  N   UNL A   1      32.544  20.576  25.950  1.00  0.00    -0.305 N 
ATOM     14  H   UNL A   1      31.615  20.632  26.273  1.00  0.00     0.171 HD
BRANCH  13  15
ATOM     15  C   UNL A   1      32.796  19.557  25.027  1.00  0.00     0.082 A 
ATOM     16  C   UNL A   1      33.294  18.352  25.526  1.00  0.00     0.075 A 
ATOM     17  C   UNL A   1      32.422  19.655  23.684  1.00  0.00     0.147 A 
ATOM     18  C   UNL A   1      33.248  17.207  24.729  1.00  0.00     0.121 A 
ATOM     19  C   UNL A   1      32.450  18.536  22.864  1.00  0.00     0.045 A 
ATOM     20  F   UNL A   1      31.980  20.816  23.179  1.00  0.00    -0.205 F 
ATOM     21  C   UNL A   1      32.834  17.301  23.396  1.00  0.00     0.049 A 
BRANCH  18  22
ATOM     22  O   UNL A   1      33.593  16.049  25.373  1.00  0.00    -0.497 OA
ATOM     23  C   UNL A   1      32.579  15.054  25.455  1.00  0.00     0.278 C 
ENDBRANCH  18  22
ENDBRANCH  13  15
ENDBRANCH   8  11
ENDBRANCH   6   8
ENDBRANCH   5   6
ENDBRANCH   1   5
BRANCH   3  24
ATOM     24  C   UNL A   1      32.751  27.669  25.109  1.00  0.00     0.117 C 
BRANCH  24  25
ATOM     25  C   UNL A   1      33.958  28.339  25.758  1.00  0.00     0.042 C 
BRANCH  25  26
ATOM     26  C   UNL A   1      33.831  28.482  27.264  1.00  0.00     0.118 C 
BRANCH  26  27
ATOM     27  N   UNL A   1      33.727  29.873  27.663  1.00  0.00    -0.352 N 
ATOM     28  C   UNL A   1      34.634  30.654  28.339  1.00  0.00     0.251 C 
ATOM     29  H   UNL A   1      32.886  30.322  27.416  1.00  0.00     0.163 HD
ATOM     30  O   UNL A   1      34.277  31.734  28.797  1.00  0.00    -0.269 OA
BRANCH  28  31
ATOM     31  C   UNL A   1      36.032  30.194  28.534  1.00  0.00     0.039 A 
ATOM     32  C   UNL A   1      36.926  30.293  27.464  1.00  0.00     0.014 A 
ATOM     33  C   UNL A   1      36.458  29.634  29.741  1.00  0.00     0.014 A 
ATOM     34  C   UNL A   1      38.248  29.869  27.619  1.00  0.00     0.010 A 
ATOM     35  C   UNL A   1      37.798  29.302  29.926  1.00  0.00     0.010 A 
ATOM     36  C   UNL A   1      38.703  29.393  28.859  1.00  0.00    -0.014 A 
BRANCH  36  37
ATOM     37  C   UNL A   1      40.107  28.946  29.047  1.00  0.00     0.031 A 
ATOM     38  C   UNL A   1      41.117  29.878  29.662  1.00  0.00     0.074 A 
ATOM     39  C   UNL A   1      40.485  27.723  28.630  1.00  0.00     0.049 A 
ATOM     40  N   UNL A   1      42.399  29.696  29.856  1.00  0.00    -0.248 NA
ATOM     41  C   UNL A   1      40.630  31.198  30.094  1.00  0.00     0.031 C 
ATOM     42  C   UNL A   1      39.612  26.742  27.983  1.00  0.00     0.029 A 
ATOM     43  N   UNL A   1      41.706  27.097  28.684  1.00  0.00    -0.354 N 
ATOM     44  C   UNL A   1      42.869  30.879  30.413  1.00  0.00     0.074 A 
ATOM     45  C   UNL A   1      41.750  31.792  30.478  1.00  0.00     0.031 C 
ATOM     46  C   UNL A   1      40.316  25.627  27.732  1.00  0.00     0.029 A 
ATOM     47  C   UNL A   1      41.697  25.826  28.163  1.00  0.00     0.049 A 
ATOM     48  H   UNL A   1      42.511  27.518  29.062  1.00  0.00     0.167 HD
ATOM     49  C   UNL A   1      44.114  31.169  30.856  1.00  0.00     0.037 A 
ATOM     50  C   UNL A   1      42.689  24.923  28.043  1.00  0.00     0.037 A 
ATOM     51  C   UNL A   1      45.217  30.246  30.828  1.00  0.00     0.049 A 
ATOM     52  C   UNL A   1      44.064  25.268  28.542  1.00  0.00     0.074 A 
ATOM     53  C   UNL A   1      46.501  30.428  31.309  1.00  0.00     0.029 A 
ATOM     54  N   UNL A   1      45.164  28.968  30.295  1.00  0.00    -0.354 N 
ATOM     55  N   UNL A   1      44.481  26.373  29.110  1.00  0.00    -0.248 NA
ATOM     56  C   UNL A   1      45.106  24.243  28.384  1.00  0.00     0.031 C 
ATOM     57  C   UNL A   1      47.238  29.273  31.032  1.00  0.00     0.029 A 
ATOM     58  C   UNL A   1      46.399  28.355  30.419  1.00  0.00     0.049 A 
ATOM     59  H   UNL A   1      44.367  28.557  29.888  1.00  0.00     0.167 HD
ATOM     60  C   UNL A   1      45.824  26.170  29.397  1.00  0.00     0.074 A 
ATOM     61  C   UNL A   1      46.151  24.831  28.952  1.00  0.00     0.031 C 
ATOM     62  C   UNL A   1      46.706  27.019  29.977  1.00  0.00     0.037 A 
BRANCH  49  63
ATOM     63  C   UNL A   1      44.351  32.535  31.430  1.00  0.00     0.057 A 
ATOM     64  C   UNL A   1      44.115  32.793  32.787  1.00  0.00     0.134 A 
ATOM     65  C   UNL A   1      44.752  33.610  30.628  1.00  0.00     0.134 A 
ATOM     66  F   UNL A   1      43.722  31.809  33.610  1.00  0.00    -0.206 F 
ATOM     67  C   UNL A   1      44.260  34.074  33.320  1.00  0.00     0.040 A 
ATOM     68  C   UNL A   1      44.926  34.891  31.156  1.00  0.00     0.040 A 
ATOM     69  F   UNL A   1      45.006  33.427  29.323  1.00  0.00    -0.206 F 
ATOM     70  C   UNL A   1      44.670  35.127  32.505  1.00  0.00     0.006 A 
ENDBRANCH  49  63
BRANCH  50  71
ATOM     71  C   UNL A   1      42.401  23.591  27.456  1.00  0.00     0.057 A 
ATOM     72  C   UNL A   1      42.098  22.485  28.259  1.00  0.00     0.134 A 
ATOM     73  C   UNL A   1      42.454  23.388  26.072  1.00  0.00     0.134 A 
ATOM     74  F   UNL A   1      42.038  22.613  29.593  1.00  0.00    -0.206 F 
ATOM     75  C   UNL A   1      41.875  21.221  27.709  1.00  0.00     0.040 A 
ATOM     76  C   UNL A   1      42.212  22.135  25.507  1.00  0.00     0.040 A 
ATOM     77  F   UNL A   1      42.722  24.412  25.250  1.00  0.00    -0.206 F 
ATOM     78  C   UNL A   1      41.929  21.045  26.328  1.00  0.00     0.006 A 
ENDBRANCH  50  71
BRANCH  62  79
ATOM     79  C   UNL A   1      48.108  26.530  30.187  1.00  0.00     0.057 A 
ATOM     80  C   UNL A   1      49.072  26.675  29.180  1.00  0.00     0.134 A 
ATOM     81  C   UNL A   1      48.479  25.842  31.349  1.00  0.00     0.134 A 
ATOM     82  F   UNL A   1      48.775  27.314  28.040  1.00  0.00    -0.206 F 
ATOM     83  C   UNL A   1      50.352  26.136  29.315  1.00  0.00     0.040 A 
ATOM     84  C   UNL A   1      49.764  25.318  31.504  1.00  0.00     0.040 A 
ATOM     85  F   UNL A   1      47.604  25.679  32.351  1.00  0.00    -0.206 F 
ATOM     86  C   UNL A   1      50.701  25.456  30.481  1.00  0.00     0.006 A 
ENDBRANCH  62  79
ENDBRANCH  36  37
ENDBRANCH  28  31
ENDBRANCH  26  27
ENDBRANCH  25  26
ENDBRANCH  24  25
ENDBRANCH   3  24
TORSDOF 16
ENDMDL
MODEL 2
REMARK VINA RESULT:     -10.7      1.952      2.377
REMARK SMILES CCN(C(=O)Nc1cc(OC)ccc1F)[C@H](C)CC(=O)NCCCNC(=O)c1ccc(-c2c3nc(c(-c4c(F)cccc4F)c4ccc([nH]4)c(-c4c(F)cccc4F)c4nc(c(-c5c(F)cccc5F)c5ccc2[nH]5)C=C4)C=C3)cc1
REMARK SMILES IDX 19 1 20 2 21 3 18 5 16 6 17 7 3 8 2 9 1 10 4 11 5 12 6 13
REMARK SMILES IDX 7 15 8 16 14 17 9 18 13 19 15 20 12 21 10 22 11 23 22 24
REMARK SMILES IDX 23 25 24 26 25 27 26 28 27 30 28 31 29 32 81 33 30 34 80 35
REMARK SMILES IDX 31 36 32 37 33 38 74 39 34 40 79 41 73 42 75 43 35 44 78 45
REMARK SMILES IDX 72 46 71 47 36 49 62 50 45 51 61 52 46 53 49 54 60 55 76 56
REMARK SMILES IDX 47 57 48 58 59 60 77 61 50 62 37 63 38 64 43 65 39 66 40 67
REMARK SMILES IDX 42 68 44 69 41 70 63 71 64 72 69 73 65 74 66 75 68 76 70 77
REMARK SMILES IDX 67 78 51 79 52 80 57 81 53 82 54 83 56 84 58 85 55 86
REMARK H PARENT 21 4 6 14 25 29 75 48 49 59
REMARK Flexibility Score: inf
ROOT
ATOM      1  C   UNL A   1      31.623  24.924  26.530  1.00  0.00     0.222 C 
ATOM      2  O   UNL A   1      30.868  24.042  26.937  1.00  0.00    -0.275 OA
ATOM      3  N   UNL A   1      31.230  26.227  26.658  1.00  0.00    -0.356 N 
ATOM      4  H   UNL A   1      30.441  26.366  27.230  1.00  0.00     0.163 HD
ENDROOT
BRANCH   1   5
ATOM      5  C   UNL A   1      32.990  24.597  25.974  1.00  0.00     0.124 C 
BRANCH   5   6
ATOM      6  C   UNL A   1      33.053  23.396  25.015  1.00  0.00     0.093 C 
ATOM      7  C   UNL A   1      33.443  23.865  23.604  1.00  0.00     0.031 C 
BRANCH   6   8
ATOM      8  N   UNL A   1      33.960  22.280  25.430  1.00  0.00    -0.322 N 
BRANCH   8   9
ATOM      9  C   UNL A   1      35.332  22.205  24.882  1.00  0.00     0.118 C 
ATOM     10  C   UNL A   1      36.094  20.892  24.993  1.00  0.00     0.027 C 
ENDBRANCH   8   9
BRANCH   8  11
ATOM     11  C   UNL A   1      33.406  21.402  26.381  1.00  0.00     0.322 C 
ATOM     12  O   UNL A   1      33.441  21.628  27.594  1.00  0.00    -0.248 OA
ATOM     13  N   UNL A   1      32.603  20.377  25.980  1.00  0.00    -0.305 N 
ATOM     14  H   UNL A   1      31.756  20.286  26.474  1.00  0.00     0.171 HD
BRANCH  13  15
ATOM     15  C   UNL A   1      32.809  19.436  24.967  1.00  0.00     0.082 A 
ATOM     16  C   UNL A   1      33.262  18.172  25.352  1.00  0.00     0.075 A 
ATOM     17  C   UNL A   1      32.431  19.668  23.641  1.00  0.00     0.147 A 
ATOM     18  C   UNL A   1      33.165  17.105  24.455  1.00  0.00     0.121 A 
ATOM     19  C   UNL A   1      32.410  18.626  22.725  1.00  0.00     0.045 A 
ATOM     20  F   UNL A   1      32.033  20.886  23.246  1.00  0.00    -0.205 F 
ATOM     21  C   UNL A   1      32.747  17.335  23.140  1.00  0.00     0.049 A 
BRANCH  18  22
ATOM     22  O   UNL A   1      33.468  15.882  24.991  1.00  0.00    -0.497 OA
ATOM     23  C   UNL A   1      32.394  15.192  25.618  1.00  0.00     0.278 C 
ENDBRANCH  18  22
ENDBRANCH  13  15
ENDBRANCH   8  11
ENDBRANCH   6   8
ENDBRANCH   5   6
ENDBRANCH   1   5
BRANCH   3  24
ATOM     24  C   UNL A   1      31.790  27.447  26.086  1.00  0.00     0.117 C 
BRANCH  24  25
ATOM     25  C   UNL A   1      32.778  28.094  27.053  1.00  0.00     0.042 C 
BRANCH  25  26
ATOM     26  C   UNL A   1      33.831  28.940  26.362  1.00  0.00     0.118 C 
BRANCH  26  27
ATOM     27  N   UNL A   1      33.715  30.340  26.722  1.00  0.00    -0.352 N 
ATOM     28  C   UNL A   1      34.468  31.077  27.604  1.00  0.00     0.251 C 
ATOM     29  H   UNL A   1      32.992  30.834  26.270  1.00  0.00     0.163 HD
ATOM     30  O   UNL A   1      34.073  32.184  27.957  1.00  0.00    -0.269 OA
BRANCH  28  31
ATOM     31  C   UNL A   1      35.741  30.540  28.146  1.00  0.00     0.039 A 
ATOM     32  C   UNL A   1      35.689  29.656  29.228  1.00  0.00     0.014 A 
ATOM     33  C   UNL A   1      36.980  30.926  27.628  1.00  0.00     0.014 A 
ATOM     34  C   UNL A   1      36.871  29.133  29.759  1.00  0.00     0.010 A 
ATOM     35  C   UNL A   1      38.150  30.331  28.093  1.00  0.00     0.010 A 
ATOM     36  C   UNL A   1      38.111  29.447  29.180  1.00  0.00    -0.014 A 
BRANCH  36  37
ATOM     37  C   UNL A   1      39.378  28.894  29.723  1.00  0.00     0.031 A 
ATOM     38  C   UNL A   1      40.001  29.506  30.950  1.00  0.00     0.074 A 
ATOM     39  C   UNL A   1      39.991  27.873  29.095  1.00  0.00     0.049 A 
ATOM     40  N   UNL A   1      41.129  29.206  31.542  1.00  0.00    -0.248 NA
ATOM     41  C   UNL A   1      39.273  30.619  31.582  1.00  0.00     0.031 C 
ATOM     42  C   UNL A   1      39.511  27.219  27.877  1.00  0.00     0.029 A 
ATOM     43  N   UNL A   1      41.154  27.207  29.394  1.00  0.00    -0.354 N 
ATOM     44  C   UNL A   1      41.252  30.099  32.598  1.00  0.00     0.074 A 
ATOM     45  C   UNL A   1      40.113  30.988  32.538  1.00  0.00     0.031 C 
ATOM     46  C   UNL A   1      40.353  26.225  27.551  1.00  0.00     0.029 A 
ATOM     47  C   UNL A   1      41.451  26.195  28.513  1.00  0.00     0.049 A 
ATOM     48  H   UNL A   1      41.720  27.432  30.167  1.00  0.00     0.167 HD
ATOM     49  C   UNL A   1      42.212  30.157  33.550  1.00  0.00     0.037 A 
ATOM     50  C   UNL A   1      42.492  25.341  28.482  1.00  0.00     0.037 A 
ATOM     51  C   UNL A   1      43.323  29.248  33.633  1.00  0.00     0.049 A 
ATOM     52  C   UNL A   1      43.547  25.425  29.549  1.00  0.00     0.074 A 
ATOM     53  C   UNL A   1      44.315  29.190  34.596  1.00  0.00     0.029 A 
ATOM     54  N   UNL A   1      43.585  28.236  32.724  1.00  0.00    -0.354 N 
ATOM     55  N   UNL A   1      43.624  26.245  30.570  1.00  0.00    -0.248 NA
ATOM     56  C   UNL A   1      44.659  24.467  29.464  1.00  0.00     0.031 C 
ATOM     57  C   UNL A   1      45.200  28.166  34.248  1.00  0.00     0.029 A 
ATOM     58  C   UNL A   1      44.734  27.558  33.093  1.00  0.00     0.049 A 
ATOM     59  H   UNL A   1      43.036  28.030  31.932  1.00  0.00     0.167 HD
ATOM     60  C   UNL A   1      44.776  25.890  31.258  1.00  0.00     0.074 A 
ATOM     61  C   UNL A   1      45.362  24.772  30.547  1.00  0.00     0.031 C 
ATOM     62  C   UNL A   1      45.301  26.442  32.378  1.00  0.00     0.037 A 
BRANCH  49  63
ATOM     63  C   UNL A   1      42.097  31.229  34.594  1.00  0.00     0.057 A 
ATOM     64  C   UNL A   1      41.375  31.005  35.774  1.00  0.00     0.134 A 
ATOM     65  C   UNL A   1      42.648  32.502  34.405  1.00  0.00     0.134 A 
ATOM     66  F   UNL A   1      40.816  29.810  36.015  1.00  0.00    -0.206 F 
ATOM     67  C   UNL A   1      41.196  32.014  36.721  1.00  0.00     0.040 A 
ATOM     68  C   UNL A   1      42.498  33.512  35.358  1.00  0.00     0.040 A 
ATOM     69  F   UNL A   1      43.361  32.777  33.303  1.00  0.00    -0.206 F 
ATOM     70  C   UNL A   1      41.762  33.271  36.516  1.00  0.00     0.006 A 
ENDBRANCH  49  63
BRANCH  50  71
ATOM     71  C   UNL A   1      42.563  24.309  27.419  1.00  0.00     0.057 A 
ATOM     72  C   UNL A   1      42.108  23.002  27.633  1.00  0.00     0.134 A 
ATOM     73  C   UNL A   1      43.117  24.602  26.168  1.00  0.00     0.134 A 
ATOM     74  F   UNL A   1      41.573  22.657  28.813  1.00  0.00    -0.206 F 
ATOM     75  C   UNL A   1      42.219  22.018  26.648  1.00  0.00     0.040 A 
ATOM     76  C   UNL A   1      43.214  23.634  25.166  1.00  0.00     0.040 A 
ATOM     77  F   UNL A   1      43.553  25.840  25.896  1.00  0.00    -0.206 F 
ATOM     78  C   UNL A   1      42.771  22.335  25.409  1.00  0.00     0.006 A 
ENDBRANCH  50  71
BRANCH  62  79
ATOM     79  C   UNL A   1      46.561  25.843  32.926  1.00  0.00     0.057 A 
ATOM     80  C   UNL A   1      47.812  26.251  32.445  1.00  0.00     0.134 A 
ATOM     81  C   UNL A   1      46.532  24.803  33.864  1.00  0.00     0.134 A 
ATOM     82  F   UNL A   1      47.906  27.234  31.538  1.00  0.00    -0.206 F 
ATOM     83  C   UNL A   1      48.991  25.635  32.867  1.00  0.00     0.040 A 
ATOM     84  C   UNL A   1      47.706  24.194  34.309  1.00  0.00     0.040 A 
ATOM     85  F   UNL A   1      45.366  24.374  34.367  1.00  0.00    -0.206 F 
ATOM     86  C   UNL A   1      48.940  24.603  33.803  1.00  0.00     0.006 A 
ENDBRANCH  62  79
ENDBRANCH  36  37
ENDBRANCH  28  31
ENDBRANCH  26  27
ENDBRANCH  25  26
ENDBRANCH  24  25
ENDBRANCH   3  24
TORSDOF 16
ENDMDL
MODEL 3
REMARK VINA RESULT:     -10.7      4.012      8.512
REMARK SMILES CCN(C(=O)Nc1cc(OC)ccc1F)[C@H](C)CC(=O)NCCCNC(=O)c1ccc(-c2c3nc(c(-c4c(F)cccc4F)c4ccc([nH]4)c(-c4c(F)cccc4F)c4nc(c(-c5c(F)cccc5F)c5ccc2[nH]5)C=C4)C=C3)cc1
REMARK SMILES IDX 19 1 20 2 21 3 18 5 16 6 17 7 3 8 2 9 1 10 4 11 5 12 6 13
REMARK SMILES IDX 7 15 8 16 14 17 9 18 13 19 15 20 12 21 10 22 11 23 22 24
REMARK SMILES IDX 23 25 24 26 25 27 26 28 27 30 28 31 29 32 81 33 30 34 80 35
REMARK SMILES IDX 31 36 32 37 33 38 74 39 34 40 79 41 73 42 75 43 35 44 78 45
REMARK SMILES IDX 72 46 71 47 36 49 62 50 45 51 61 52 46 53 49 54 60 55 76 56
REMARK SMILES IDX 47 57 48 58 59 60 77 61 50 62 37 63 38 64 43 65 39 66 40 67
REMARK SMILES IDX 42 68 44 69 41 70 63 71 64 72 69 73 65 74 66 75 68 76 70 77
REMARK SMILES IDX 67 78 51 79 52 80 57 81 53 82 54 83 56 84 58 85 55 86
REMARK H PARENT 21 4 6 14 25 29 75 48 49 59
REMARK Flexibility Score: inf
ROOT
ATOM      1  C   UNL A   1      33.840  29.261  26.310  1.00  0.00     0.222 C 
ATOM      2  O   UNL A   1      34.887  28.982  26.891  1.00  0.00    -0.275 OA
ATOM      3  N   UNL A   1      33.015  30.198  26.869  1.00  0.00    -0.356 N 
ATOM      4  H   UNL A   1      33.413  30.707  27.611  1.00  0.00     0.163 HD
ENDROOT
BRANCH   1   5
ATOM      5  C   UNL A   1      33.496  28.653  24.970  1.00  0.00     0.124 C 
BRANCH   5   6
ATOM      6  C   UNL A   1      33.349  27.122  24.947  1.00  0.00     0.093 C 
ATOM      7  C   UNL A   1      32.147  26.692  25.804  1.00  0.00     0.031 C 
BRANCH   6   8
ATOM      8  N   UNL A   1      33.231  26.502  23.590  1.00  0.00    -0.322 N 
BRANCH   8   9
ATOM      9  C   UNL A   1      33.173  25.030  23.456  1.00  0.00     0.118 C 
ATOM     10  C   UNL A   1      34.472  24.238  23.508  1.00  0.00     0.027 C 
ENDBRANCH   8   9
BRANCH   8  11
ATOM     11  C   UNL A   1      33.136  27.427  22.532  1.00  0.00     0.322 C 
ATOM     12  O   UNL A   1      34.129  27.874  21.949  1.00  0.00    -0.248 OA
ATOM     13  N   UNL A   1      31.929  27.689  21.959  1.00  0.00    -0.305 N 
ATOM     14  H   UNL A   1      31.915  27.665  20.974  1.00  0.00     0.171 HD
BRANCH  13  15
ATOM     15  C   UNL A   1      30.706  27.989  22.567  1.00  0.00     0.082 A 
ATOM     16  C   UNL A   1      30.274  29.315  22.513  1.00  0.00     0.075 A 
ATOM     17  C   UNL A   1      29.857  26.997  23.068  1.00  0.00     0.147 A 
ATOM     18  C   UNL A   1      28.939  29.615  22.793  1.00  0.00     0.121 A 
ATOM     19  C   UNL A   1      28.552  27.306  23.424  1.00  0.00     0.045 A 
ATOM     20  F   UNL A   1      30.271  25.726  23.164  1.00  0.00    -0.205 F 
ATOM     21  C   UNL A   1      28.081  28.612  23.255  1.00  0.00     0.049 A 
BRANCH  18  22
ATOM     22  O   UNL A   1      28.580  30.911  22.538  1.00  0.00    -0.497 OA
ATOM     23  C   UNL A   1      27.694  31.511  23.475  1.00  0.00     0.278 C 
ENDBRANCH  18  22
ENDBRANCH  13  15
ENDBRANCH   8  11
ENDBRANCH   6   8
ENDBRANCH   5   6
ENDBRANCH   1   5
BRANCH   3  24
ATOM     24  C   UNL A   1      31.642  30.568  26.543  1.00  0.00     0.117 C 
BRANCH  24  25
ATOM     25  C   UNL A   1      31.428  32.068  26.723  1.00  0.00     0.042 C 
BRANCH  25  26
ATOM     26  C   UNL A   1      32.716  32.836  26.961  1.00  0.00     0.118 C 
BRANCH  26  27
ATOM     27  N   UNL A   1      32.472  34.090  27.648  1.00  0.00    -0.352 N 
ATOM     28  C   UNL A   1      33.125  34.630  28.730  1.00  0.00     0.251 C 
ATOM     29  H   UNL A   1      31.733  34.632  27.288  1.00  0.00     0.163 HD
ATOM     30  O   UNL A   1      32.628  35.584  29.320  1.00  0.00    -0.269 OA
BRANCH  28  31
ATOM     31  C   UNL A   1      34.411  34.059  29.201  1.00  0.00     0.039 A 
ATOM     32  C   UNL A   1      34.391  33.135  30.250  1.00  0.00     0.014 A 
ATOM     33  C   UNL A   1      35.634  34.452  28.650  1.00  0.00     0.014 A 
ATOM     34  C   UNL A   1      35.586  32.580  30.714  1.00  0.00     0.010 A 
ATOM     35  C   UNL A   1      36.814  33.827  29.046  1.00  0.00     0.010 A 
ATOM     36  C   UNL A   1      36.807  32.903  30.099  1.00  0.00    -0.014 A 
BRANCH  36  37
ATOM     37  C   UNL A   1      38.088  32.317  30.571  1.00  0.00     0.031 A 
ATOM     38  C   UNL A   1      38.600  31.040  29.961  1.00  0.00     0.074 A 
ATOM     39  C   UNL A   1      38.768  32.905  31.572  1.00  0.00     0.049 A 
ATOM     40  N   UNL A   1      39.663  30.341  30.274  1.00  0.00    -0.248 NA
ATOM     41  C   UNL A   1      37.802  30.454  28.871  1.00  0.00     0.031 C 
ATOM     42  C   UNL A   1      38.357  34.123  32.273  1.00  0.00     0.029 A 
ATOM     43  N   UNL A   1      39.950  32.556  32.178  1.00  0.00    -0.354 N 
ATOM     44  C   UNL A   1      39.649  29.234  29.437  1.00  0.00     0.074 A 
ATOM     45  C   UNL A   1      38.448  29.321  28.637  1.00  0.00     0.031 C 
ATOM     46  C   UNL A   1      39.287  34.438  33.188  1.00  0.00     0.029 A 
ATOM     47  C   UNL A   1      40.340  33.426  33.167  1.00  0.00     0.049 A 
ATOM     48  H   UNL A   1      40.469  31.759  31.926  1.00  0.00     0.167 HD
ATOM     49  C   UNL A   1      40.568  28.247  29.323  1.00  0.00     0.037 A 
ATOM     50  C   UNL A   1      41.421  33.409  33.969  1.00  0.00     0.037 A 
ATOM     51  C   UNL A   1      41.783  28.182  30.091  1.00  0.00     0.049 A 
ATOM     52  C   UNL A   1      42.429  32.303  33.826  1.00  0.00     0.074 A 
ATOM     53  C   UNL A   1      42.805  27.254  30.004  1.00  0.00     0.029 A 
ATOM     54  N   UNL A   1      42.141  29.085  31.080  1.00  0.00    -0.354 N 
ATOM     55  N   UNL A   1      42.426  31.288  32.995  1.00  0.00    -0.248 NA
ATOM     56  C   UNL A   1      43.589  32.337  34.728  1.00  0.00     0.031 C 
ATOM     57  C   UNL A   1      43.765  27.572  30.969  1.00  0.00     0.029 A 
ATOM     58  C   UNL A   1      43.362  28.725  31.625  1.00  0.00     0.049 A 
ATOM     59  H   UNL A   1      41.607  29.865  31.354  1.00  0.00     0.167 HD
ATOM     60  C   UNL A   1      43.589  30.577  33.258  1.00  0.00     0.074 A 
ATOM     61  C   UNL A   1      44.281  31.282  34.318  1.00  0.00     0.031 C 
ATOM     62  C   UNL A   1      44.041  29.442  32.674  1.00  0.00     0.037 A 
BRANCH  49  63
ATOM     63  C   UNL A   1      40.309  27.163  28.319  1.00  0.00     0.057 A 
ATOM     64  C   UNL A   1      39.529  26.048  28.652  1.00  0.00     0.134 A 
ATOM     65  C   UNL A   1      40.883  27.191  27.041  1.00  0.00     0.134 A 
ATOM     66  F   UNL A   1      38.955  25.955  29.861  1.00  0.00    -0.206 F 
ATOM     67  C   UNL A   1      39.339  24.997  27.755  1.00  0.00     0.040 A 
ATOM     68  C   UNL A   1      40.678  26.158  26.125  1.00  0.00     0.040 A 
ATOM     69  F   UNL A   1      41.631  28.236  26.655  1.00  0.00    -0.206 F 
ATOM     70  C   UNL A   1      39.911  25.052  26.486  1.00  0.00     0.006 A 
ENDBRANCH  49  63
BRANCH  50  71
ATOM     71  C   UNL A   1      41.622  34.500  34.955  1.00  0.00     0.057 A 
ATOM     72  C   UNL A   1      42.379  35.636  34.647  1.00  0.00     0.134 A 
ATOM     73  C   UNL A   1      41.080  34.415  36.242  1.00  0.00     0.134 A 
ATOM     74  F   UNL A   1      42.931  35.774  33.432  1.00  0.00    -0.206 F 
ATOM     75  C   UNL A   1      42.608  36.641  35.590  1.00  0.00     0.040 A 
ATOM     76  C   UNL A   1      41.282  35.422  37.188  1.00  0.00     0.040 A 
ATOM     77  F   UNL A   1      40.330  33.360  36.590  1.00  0.00    -0.206 F 
ATOM     78  C   UNL A   1      42.055  36.535  36.865  1.00  0.00     0.006 A 
ENDBRANCH  50  71
BRANCH  62  79
ATOM     79  C   UNL A   1      45.353  28.891  33.145  1.00  0.00     0.057 A 
ATOM     80  C   UNL A   1      45.406  28.000  34.225  1.00  0.00     0.134 A 
ATOM     81  C   UNL A   1      46.567  29.308  32.586  1.00  0.00     0.134 A 
ATOM     82  F   UNL A   1      44.279  27.572  34.811  1.00  0.00    -0.206 F 
ATOM     83  C   UNL A   1      46.623  27.556  34.744  1.00  0.00     0.040 A 
ATOM     84  C   UNL A   1      47.790  28.853  33.082  1.00  0.00     0.040 A 
ATOM     85  F   UNL A   1      46.582  30.152  31.544  1.00  0.00    -0.206 F 
ATOM     86  C   UNL A   1      47.821  27.982  34.171  1.00  0.00     0.006 A 
ENDBRANCH  62  79
ENDBRANCH  36  37
ENDBRANCH  28  31
ENDBRANCH  26  27
ENDBRANCH  25  26
ENDBRANCH  24  25
ENDBRANCH   3  24
TORSDOF 16
ENDMDL
