MODEL 1
REMARK VINA RESULT:     -11.8      0.000      0.000
REMARK SMILES CCC(CC)(CC(=O)Nc1ccc(F)c(F)c1)C(=O)NCCCNC(=O)c1ccc(-c2c3nc(c(-c4c(F)cccc4F)c4ccc([nH]4)c(-c4c(F)cccc4F)c4nc(c(-c5c(F)cccc5F)c5ccc2[nH]5)C=C4)C=C3)cc1
REMARK SMILES IDX 21 1 20 2 18 3 19 4 3 6 2 7 1 8 4 9 5 10 6 11 7 12 8 13 9 14
REMARK SMILES IDX 10 16 11 17 17 18 12 19 15 20 13 21 16 22 14 23 22 24 23 25
REMARK SMILES IDX 24 26 25 27 26 29 27 30 28 31 80 32 29 33 79 34 30 35 31 36
REMARK SMILES IDX 32 37 73 38 33 39 78 40 72 41 74 42 34 43 77 44 71 45 70 46
REMARK SMILES IDX 35 48 61 49 44 50 60 51 45 52 48 53 59 54 75 55 46 56 47 57
REMARK SMILES IDX 58 59 76 60 49 61 36 62 37 63 42 64 38 65 39 66 41 67 43 68
REMARK SMILES IDX 40 69 62 70 63 71 68 72 64 73 65 74 67 75 69 76 66 77 50 78
REMARK SMILES IDX 51 79 56 80 52 81 53 82 55 83 57 84 54 85
REMARK H PARENT 20 5 9 15 24 28 74 47 48 58
REMARK Flexibility Score: inf
ROOT
ATOM      1  C   UNL A   1      37.196  20.726  25.078  1.00  0.00     0.117 C 
ENDROOT
BRANCH   1   2
ATOM      2  N   UNL A   1      37.084  21.681  23.994  1.00  0.00    -0.356 N 
ATOM      3  C   UNL A   1      36.134  22.571  23.631  1.00  0.00     0.226 C 
ATOM      4  O   UNL A   1      36.328  23.124  22.542  1.00  0.00    -0.274 OA
ATOM      5  H   UNL A   1      37.865  21.682  23.395  1.00  0.00     0.163 HD
BRANCH   3   6
ATOM      6  C   UNL A   1      34.889  22.890  24.491  1.00  0.00     0.057 C 
BRANCH   6   7
ATOM      7  C   UNL A   1      34.831  24.441  24.647  1.00  0.00     0.014 C 
ATOM      8  C   UNL A   1      33.897  25.217  23.724  1.00  0.00     0.005 C 
ENDBRANCH   6   7
BRANCH   6   9
ATOM      9  C   UNL A   1      35.005  22.257  25.915  1.00  0.00     0.014 C 
ATOM     10  C   UNL A   1      34.661  23.187  27.072  1.00  0.00     0.005 C 
ENDBRANCH   6   9
BRANCH   6  11
ATOM     11  C   UNL A   1      33.590  22.430  23.759  1.00  0.00     0.117 C 
BRANCH  11  12
ATOM     12  C   UNL A   1      32.409  21.988  24.626  1.00  0.00     0.225 C 
ATOM     13  O   UNL A   1      31.743  22.821  25.245  1.00  0.00    -0.275 OA
ATOM     14  N   UNL A   1      32.019  20.669  24.667  1.00  0.00    -0.326 N 
ATOM     15  H   UNL A   1      31.160  20.486  25.110  1.00  0.00     0.169 HD
BRANCH  14  16
ATOM     16  C   UNL A   1      32.695  19.557  24.154  1.00  0.00     0.044 A 
ATOM     17  C   UNL A   1      32.210  18.927  23.002  1.00  0.00     0.029 A 
ATOM     18  C   UNL A   1      33.869  19.103  24.752  1.00  0.00     0.068 A 
ATOM     19  C   UNL A   1      32.786  17.736  22.557  1.00  0.00     0.044 A 
ATOM     20  C   UNL A   1      34.474  17.947  24.263  1.00  0.00     0.160 A 
ATOM     21  C   UNL A   1      33.913  17.245  23.202  1.00  0.00     0.158 A 
ATOM     22  F   UNL A   1      35.601  17.503  24.838  1.00  0.00    -0.204 F 
ATOM     23  F   UNL A   1      34.456  16.092  22.787  1.00  0.00    -0.204 F 
ENDBRANCH  14  16
ENDBRANCH  11  12
ENDBRANCH   6  11
ENDBRANCH   3   6
ENDBRANCH   1   2
BRANCH   1  24
ATOM     24  C   UNL A   1      38.418  19.839  24.930  1.00  0.00     0.042 C 
BRANCH  24  25
ATOM     25  C   UNL A   1      39.443  19.993  26.043  1.00  0.00     0.118 C 
BRANCH  25  26
ATOM     26  N   UNL A   1      40.457  18.942  26.039  1.00  0.00    -0.352 N 
ATOM     27  C   UNL A   1      41.825  19.057  26.106  1.00  0.00     0.251 C 
ATOM     28  H   UNL A   1      40.112  18.022  25.981  1.00  0.00     0.163 HD
ATOM     29  O   UNL A   1      42.547  18.081  25.926  1.00  0.00    -0.269 OA
BRANCH  27  30
ATOM     30  C   UNL A   1      42.417  20.383  26.361  1.00  0.00     0.039 A 
ATOM     31  C   UNL A   1      42.881  21.148  25.289  1.00  0.00     0.014 A 
ATOM     32  C   UNL A   1      42.441  20.894  27.660  1.00  0.00     0.014 A 
ATOM     33  C   UNL A   1      43.279  22.468  25.510  1.00  0.00     0.010 A 
ATOM     34  C   UNL A   1      42.735  22.234  27.860  1.00  0.00     0.010 A 
ATOM     35  C   UNL A   1      43.158  23.036  26.788  1.00  0.00    -0.014 A 
BRANCH  35  36
ATOM     36  C   UNL A   1      43.478  24.460  27.057  1.00  0.00     0.031 A 
ATOM     37  C   UNL A   1      44.909  24.916  26.993  1.00  0.00     0.074 A 
ATOM     38  C   UNL A   1      42.512  25.305  27.466  1.00  0.00     0.049 A 
ATOM     39  N   UNL A   1      45.434  26.054  27.367  1.00  0.00    -0.248 NA
ATOM     40  C   UNL A   1      45.886  23.942  26.479  1.00  0.00     0.031 C 
ATOM     41  C   UNL A   1      41.093  24.971  27.610  1.00  0.00     0.029 A 
ATOM     42  N   UNL A   1      42.585  26.616  27.864  1.00  0.00    -0.354 N 
ATOM     43  C   UNL A   1      46.801  25.919  27.165  1.00  0.00     0.074 A 
ATOM     44  C   UNL A   1      47.031  24.573  26.687  1.00  0.00     0.031 C 
ATOM     45  C   UNL A   1      40.428  26.053  28.049  1.00  0.00     0.029 A 
ATOM     46  C   UNL A   1      41.378  27.140  28.264  1.00  0.00     0.049 A 
ATOM     47  H   UNL A   1      43.422  27.134  27.863  1.00  0.00     0.167 HD
ATOM     48  C   UNL A   1      47.777  26.841  27.342  1.00  0.00     0.037 A 
ATOM     49  C   UNL A   1      41.077  28.352  28.767  1.00  0.00     0.037 A 
ATOM     50  C   UNL A   1      47.535  28.189  27.780  1.00  0.00     0.049 A 
ATOM     51  C   UNL A   1      42.178  29.362  28.951  1.00  0.00     0.074 A 
ATOM     52  C   UNL A   1      48.445  29.220  27.933  1.00  0.00     0.029 A 
ATOM     53  N   UNL A   1      46.292  28.692  28.131  1.00  0.00    -0.354 N 
ATOM     54  N   UNL A   1      43.460  29.240  28.707  1.00  0.00    -0.248 NA
ATOM     55  C   UNL A   1      41.790  30.679  29.477  1.00  0.00     0.031 C 
ATOM     56  C   UNL A   1      47.757  30.339  28.413  1.00  0.00     0.029 A 
ATOM     57  C   UNL A   1      46.412  30.017  28.511  1.00  0.00     0.049 A 
ATOM     58  H   UNL A   1      45.450  28.183  28.112  1.00  0.00     0.167 HD
ATOM     59  C   UNL A   1      44.025  30.472  29.011  1.00  0.00     0.074 A 
ATOM     60  C   UNL A   1      42.945  31.328  29.457  1.00  0.00     0.031 C 
ATOM     61  C   UNL A   1      45.319  30.861  28.924  1.00  0.00     0.037 A 
BRANCH  48  62
ATOM     62  C   UNL A   1      49.188  26.420  27.054  1.00  0.00     0.057 A 
ATOM     63  C   UNL A   1      50.026  25.909  28.053  1.00  0.00     0.134 A 
ATOM     64  C   UNL A   1      49.708  26.506  25.757  1.00  0.00     0.134 A 
ATOM     65  F   UNL A   1      49.594  25.814  29.320  1.00  0.00    -0.206 F 
ATOM     66  C   UNL A   1      51.339  25.525  27.779  1.00  0.00     0.040 A 
ATOM     67  C   UNL A   1      51.010  26.098  25.464  1.00  0.00     0.040 A 
ATOM     68  F   UNL A   1      48.959  26.982  24.751  1.00  0.00    -0.206 F 
ATOM     69  C   UNL A   1      51.833  25.612  26.479  1.00  0.00     0.006 A 
ENDBRANCH  48  62
BRANCH  49  70
ATOM     70  C   UNL A   1      39.673  28.689  29.113  1.00  0.00     0.057 A 
ATOM     71  C   UNL A   1      39.176  28.460  30.401  1.00  0.00     0.134 A 
ATOM     72  C   UNL A   1      38.795  29.239  28.172  1.00  0.00     0.134 A 
ATOM     73  F   UNL A   1      39.963  27.918  31.342  1.00  0.00    -0.206 F 
ATOM     74  C   UNL A   1      37.851  28.745  30.736  1.00  0.00     0.040 A 
ATOM     75  C   UNL A   1      37.475  29.553  28.501  1.00  0.00     0.040 A 
ATOM     76  F   UNL A   1      39.212  29.492  26.922  1.00  0.00    -0.206 F 
ATOM     77  C   UNL A   1      36.998  29.299  29.785  1.00  0.00     0.006 A 
ENDBRANCH  49  70
BRANCH  61  78
ATOM     78  C   UNL A   1      45.639  32.288  29.254  1.00  0.00     0.057 A 
ATOM     79  C   UNL A   1      46.041  32.682  30.536  1.00  0.00     0.134 A 
ATOM     80  C   UNL A   1      45.611  33.267  28.252  1.00  0.00     0.134 A 
ATOM     81  F   UNL A   1      46.076  31.794  31.541  1.00  0.00    -0.206 F 
ATOM     82  C   UNL A   1      46.393  34.005  30.812  1.00  0.00     0.040 A 
ATOM     83  C   UNL A   1      45.985  34.586  28.510  1.00  0.00     0.040 A 
ATOM     84  F   UNL A   1      45.244  32.950  27.001  1.00  0.00    -0.206 F 
ATOM     85  C   UNL A   1      46.375  34.958  29.795  1.00  0.00     0.006 A 
ENDBRANCH  61  78
ENDBRANCH  35  36
ENDBRANCH  27  30
ENDBRANCH  25  26
ENDBRANCH  24  25
ENDBRANCH   1  24
TORSDOF 15
ENDMDL
MODEL 2
REMARK VINA RESULT:     -11.8      2.212      3.266
REMARK SMILES CCC(CC)(CC(=O)Nc1ccc(F)c(F)c1)C(=O)NCCCNC(=O)c1ccc(-c2c3nc(c(-c4c(F)cccc4F)c4ccc([nH]4)c(-c4c(F)cccc4F)c4nc(c(-c5c(F)cccc5F)c5ccc2[nH]5)C=C4)C=C3)cc1
REMARK SMILES IDX 21 1 20 2 18 3 19 4 3 6 2 7 1 8 4 9 5 10 6 11 7 12 8 13 9 14
REMARK SMILES IDX 10 16 11 17 17 18 12 19 15 20 13 21 16 22 14 23 22 24 23 25
REMARK SMILES IDX 24 26 25 27 26 29 27 30 28 31 80 32 29 33 79 34 30 35 31 36
REMARK SMILES IDX 32 37 73 38 33 39 78 40 72 41 74 42 34 43 77 44 71 45 70 46
REMARK SMILES IDX 35 48 61 49 44 50 60 51 45 52 48 53 59 54 75 55 46 56 47 57
REMARK SMILES IDX 58 59 76 60 49 61 36 62 37 63 42 64 38 65 39 66 41 67 43 68
REMARK SMILES IDX 40 69 62 70 63 71 68 72 64 73 65 74 67 75 69 76 66 77 50 78
REMARK SMILES IDX 51 79 56 80 52 81 53 82 55 83 57 84 54 85
REMARK H PARENT 20 5 9 15 24 28 74 47 48 58
REMARK Flexibility Score: inf
ROOT
ATOM      1  C   UNL A   1      36.688  20.828  24.998  1.00  0.00     0.117 C 
ENDROOT
BRANCH   1   2
ATOM      2  N   UNL A   1      35.389  20.235  25.240  1.00  0.00    -0.356 N 
ATOM      3  C   UNL A   1      34.152  20.746  25.428  1.00  0.00     0.226 C 
ATOM      4  O   UNL A   1      33.293  19.921  25.757  1.00  0.00    -0.274 OA
ATOM      5  H   UNL A   1      35.412  19.252  25.276  1.00  0.00     0.163 HD
BRANCH   3   6
ATOM      6  C   UNL A   1      33.812  22.244  25.254  1.00  0.00     0.057 C 
BRANCH   6   7
ATOM      7  C   UNL A   1      34.054  22.592  23.752  1.00  0.00     0.014 C 
ATOM      8  C   UNL A   1      32.884  23.152  22.951  1.00  0.00     0.005 C 
ENDBRANCH   6   7
BRANCH   6   9
ATOM      9  C   UNL A   1      34.747  23.144  26.123  1.00  0.00     0.014 C 
ATOM     10  C   UNL A   1      35.548  24.188  25.354  1.00  0.00     0.005 C 
ENDBRANCH   6   9
BRANCH   6  11
ATOM     11  C   UNL A   1      32.305  22.500  25.570  1.00  0.00     0.117 C 
BRANCH  11  12
ATOM     12  C   UNL A   1      31.971  23.226  26.875  1.00  0.00     0.225 C 
ATOM     13  O   UNL A   1      32.044  22.634  27.954  1.00  0.00    -0.275 OA
ATOM     14  N   UNL A   1      31.665  24.568  26.878  1.00  0.00    -0.326 N 
ATOM     15  H   UNL A   1      31.625  25.001  27.761  1.00  0.00     0.169 HD
BRANCH  14  16
ATOM     16  C   UNL A   1      31.406  25.392  25.778  1.00  0.00     0.044 A 
ATOM     17  C   UNL A   1      30.092  25.536  25.319  1.00  0.00     0.029 A 
ATOM     18  C   UNL A   1      32.435  26.107  25.170  1.00  0.00     0.068 A 
ATOM     19  C   UNL A   1      29.830  26.239  24.142  1.00  0.00     0.044 A 
ATOM     20  C   UNL A   1      32.156  26.858  24.029  1.00  0.00     0.160 A 
ATOM     21  C   UNL A   1      30.873  26.889  23.495  1.00  0.00     0.158 A 
ATOM     22  F   UNL A   1      33.145  27.543  23.437  1.00  0.00    -0.204 F 
ATOM     23  F   UNL A   1      30.627  27.549  22.355  1.00  0.00    -0.204 F 
ENDBRANCH  14  16
ENDBRANCH  11  12
ENDBRANCH   6  11
ENDBRANCH   3   6
ENDBRANCH   1   2
BRANCH   1  24
ATOM     24  C   UNL A   1      37.797  19.792  25.002  1.00  0.00     0.042 C 
BRANCH  24  25
ATOM     25  C   UNL A   1      39.056  20.223  25.739  1.00  0.00     0.118 C 
BRANCH  25  26
ATOM     26  N   UNL A   1      40.024  19.143  25.902  1.00  0.00    -0.352 N 
ATOM     27  C   UNL A   1      41.378  19.219  26.129  1.00  0.00     0.251 C 
ATOM     28  H   UNL A   1      39.655  18.233  25.842  1.00  0.00     0.163 HD
ATOM     29  O   UNL A   1      42.081  18.214  26.079  1.00  0.00    -0.269 OA
BRANCH  27  30
ATOM     30  C   UNL A   1      41.983  20.536  26.398  1.00  0.00     0.039 A 
ATOM     31  C   UNL A   1      42.454  21.307  25.333  1.00  0.00     0.014 A 
ATOM     32  C   UNL A   1      42.012  21.033  27.701  1.00  0.00     0.014 A 
ATOM     33  C   UNL A   1      42.865  22.621  25.568  1.00  0.00     0.010 A 
ATOM     34  C   UNL A   1      42.318  22.369  27.915  1.00  0.00     0.010 A 
ATOM     35  C   UNL A   1      42.749  23.177  26.851  1.00  0.00    -0.014 A 
BRANCH  35  36
ATOM     36  C   UNL A   1      43.083  24.595  27.134  1.00  0.00     0.031 A 
ATOM     37  C   UNL A   1      44.522  25.030  27.111  1.00  0.00     0.074 A 
ATOM     38  C   UNL A   1      42.119  25.453  27.522  1.00  0.00     0.049 A 
ATOM     39  N   UNL A   1      45.053  26.158  27.504  1.00  0.00    -0.248 NA
ATOM     40  C   UNL A   1      45.498  24.044  26.619  1.00  0.00     0.031 C 
ATOM     41  C   UNL A   1      40.692  25.140  27.625  1.00  0.00     0.029 A 
ATOM     42  N   UNL A   1      42.201  26.761  27.926  1.00  0.00    -0.354 N 
ATOM     43  C   UNL A   1      46.423  26.004  27.337  1.00  0.00     0.074 A 
ATOM     44  C   UNL A   1      46.646  24.657  26.860  1.00  0.00     0.031 C 
ATOM     45  C   UNL A   1      40.032  26.230  28.051  1.00  0.00     0.029 A 
ATOM     46  C   UNL A   1      40.992  27.302  28.296  1.00  0.00     0.049 A 
ATOM     47  H   UNL A   1      43.046  27.267  27.949  1.00  0.00     0.167 HD
ATOM     48  C   UNL A   1      47.407  26.911  27.544  1.00  0.00     0.037 A 
ATOM     49  C   UNL A   1      40.696  28.516  28.796  1.00  0.00     0.037 A 
ATOM     50  C   UNL A   1      47.174  28.260  27.981  1.00  0.00     0.049 A 
ATOM     51  C   UNL A   1      41.806  29.509  29.013  1.00  0.00     0.074 A 
ATOM     52  C   UNL A   1      48.095  29.277  28.162  1.00  0.00     0.029 A 
ATOM     53  N   UNL A   1      45.930  28.781  28.300  1.00  0.00    -0.354 N 
ATOM     54  N   UNL A   1      43.092  29.369  28.803  1.00  0.00    -0.248 NA
ATOM     55  C   UNL A   1      41.423  30.829  29.535  1.00  0.00     0.031 C 
ATOM     56  C   UNL A   1      47.411  30.404  28.629  1.00  0.00     0.029 A 
ATOM     57  C   UNL A   1      46.059  30.103  28.689  1.00  0.00     0.049 A 
ATOM     58  H   UNL A   1      45.081  28.285  28.257  1.00  0.00     0.167 HD
ATOM     59  C   UNL A   1      43.667  30.591  29.127  1.00  0.00     0.074 A 
ATOM     60  C   UNL A   1      42.588  31.462  29.548  1.00  0.00     0.031 C 
ATOM     61  C   UNL A   1      44.969  30.961  29.077  1.00  0.00     0.037 A 
BRANCH  48  62
ATOM     62  C   UNL A   1      48.819  26.470  27.292  1.00  0.00     0.057 A 
ATOM     63  C   UNL A   1      49.614  25.919  28.306  1.00  0.00     0.134 A 
ATOM     64  C   UNL A   1      49.383  26.576  26.015  1.00  0.00     0.134 A 
ATOM     65  F   UNL A   1      49.139  25.803  29.555  1.00  0.00    -0.206 F 
ATOM     66  C   UNL A   1      50.929  25.517  28.065  1.00  0.00     0.040 A 
ATOM     67  C   UNL A   1      50.687  26.150  25.755  1.00  0.00     0.040 A 
ATOM     68  F   UNL A   1      48.677  27.090  24.997  1.00  0.00    -0.206 F 
ATOM     69  C   UNL A   1      51.467  25.626  26.784  1.00  0.00     0.006 A 
ENDBRANCH  48  62
BRANCH  49  70
ATOM     70  C   UNL A   1      39.288  28.873  29.105  1.00  0.00     0.057 A 
ATOM     71  C   UNL A   1      38.461  29.445  28.131  1.00  0.00     0.134 A 
ATOM     72  C   UNL A   1      38.736  28.659  30.373  1.00  0.00     0.134 A 
ATOM     73  F   UNL A   1      38.936  29.691  26.903  1.00  0.00    -0.206 F 
ATOM     74  C   UNL A   1      37.143  29.811  28.413  1.00  0.00     0.040 A 
ATOM     75  C   UNL A   1      37.412  28.996  30.661  1.00  0.00     0.040 A 
ATOM     76  F   UNL A   1      39.473  28.106  31.349  1.00  0.00    -0.206 F 
ATOM     77  C   UNL A   1      36.614  29.582  29.680  1.00  0.00     0.006 A 
ENDBRANCH  49  70
BRANCH  61  78
ATOM     78  C   UNL A   1      45.300  32.382  29.421  1.00  0.00     0.057 A 
ATOM     79  C   UNL A   1      45.685  32.763  30.712  1.00  0.00     0.134 A 
ATOM     80  C   UNL A   1      45.302  33.367  28.425  1.00  0.00     0.134 A 
ATOM     81  F   UNL A   1      45.691  31.869  31.712  1.00  0.00    -0.206 F 
ATOM     82  C   UNL A   1      46.049  34.079  31.002  1.00  0.00     0.040 A 
ATOM     83  C   UNL A   1      45.688  34.679  28.698  1.00  0.00     0.040 A 
ATOM     84  F   UNL A   1      44.953  33.063  27.166  1.00  0.00    -0.206 F 
ATOM     85  C   UNL A   1      46.061  35.039  29.991  1.00  0.00     0.006 A 
ENDBRANCH  61  78
ENDBRANCH  35  36
ENDBRANCH  27  30
ENDBRANCH  25  26
ENDBRANCH  24  25
ENDBRANCH   1  24
TORSDOF 15
ENDMDL
MODEL 3
REMARK VINA RESULT:     -11.7      2.763      7.293
REMARK SMILES CCC(CC)(CC(=O)Nc1ccc(F)c(F)c1)C(=O)NCCCNC(=O)c1ccc(-c2c3nc(c(-c4c(F)cccc4F)c4ccc([nH]4)c(-c4c(F)cccc4F)c4nc(c(-c5c(F)cccc5F)c5ccc2[nH]5)C=C4)C=C3)cc1
REMARK SMILES IDX 21 1 20 2 18 3 19 4 3 6 2 7 1 8 4 9 5 10 6 11 7 12 8 13 9 14
REMARK SMILES IDX 10 16 11 17 17 18 12 19 15 20 13 21 16 22 14 23 22 24 23 25
REMARK SMILES IDX 24 26 25 27 26 29 27 30 28 31 80 32 29 33 79 34 30 35 31 36
REMARK SMILES IDX 32 37 73 38 33 39 78 40 72 41 74 42 34 43 77 44 71 45 70 46
REMARK SMILES IDX 35 48 61 49 44 50 60 51 45 52 48 53 59 54 75 55 46 56 47 57
REMARK SMILES IDX 58 59 76 60 49 61 36 62 37 63 42 64 38 65 39 66 41 67 43 68
REMARK SMILES IDX 40 69 62 70 63 71 68 72 64 73 65 74 67 75 69 76 66 77 50 78
REMARK SMILES IDX 51 79 56 80 52 81 53 82 55 83 57 84 54 85
REMARK H PARENT 20 5 9 15 24 28 74 47 48 58
REMARK Flexibility Score: inf
ROOT
ATOM      1  C   UNL A   1      35.894  21.802  25.267  1.00  0.00     0.117 C 
ENDROOT
BRANCH   1   2
ATOM      2  N   UNL A   1      34.663  21.069  25.056  1.00  0.00    -0.356 N 
ATOM      3  C   UNL A   1      33.373  21.441  24.896  1.00  0.00     0.226 C 
ATOM      4  O   UNL A   1      32.561  20.509  24.884  1.00  0.00    -0.274 OA
ATOM      5  H   UNL A   1      34.792  20.094  25.021  1.00  0.00     0.163 HD
BRANCH   3   6
ATOM      6  C   UNL A   1      32.922  22.911  24.741  1.00  0.00     0.057 C 
BRANCH   6   7
ATOM      7  C   UNL A   1      31.390  22.886  24.446  1.00  0.00     0.014 C 
ATOM      8  C   UNL A   1      30.896  23.574  23.178  1.00  0.00     0.005 C 
ENDBRANCH   6   7
BRANCH   6   9
ATOM      9  C   UNL A   1      33.642  23.604  23.540  1.00  0.00     0.014 C 
ATOM     10  C   UNL A   1      34.351  24.912  23.870  1.00  0.00     0.005 C 
ENDBRANCH   6   9
BRANCH   6  11
ATOM     11  C   UNL A   1      33.141  23.692  26.075  1.00  0.00     0.117 C 
BRANCH  11  12
ATOM     12  C   UNL A   1      31.898  24.086  26.876  1.00  0.00     0.225 C 
ATOM     13  O   UNL A   1      31.342  23.264  27.608  1.00  0.00    -0.275 OA
ATOM     14  N   UNL A   1      31.429  25.378  26.860  1.00  0.00    -0.326 N 
ATOM     15  H   UNL A   1      30.733  25.595  27.521  1.00  0.00     0.169 HD
BRANCH  14  16
ATOM     16  C   UNL A   1      31.821  26.425  26.018  1.00  0.00     0.044 A 
ATOM     17  C   UNL A   1      31.071  26.704  24.870  1.00  0.00     0.029 A 
ATOM     18  C   UNL A   1      32.920  27.218  26.339  1.00  0.00     0.068 A 
ATOM     19  C   UNL A   1      31.523  27.648  23.946  1.00  0.00     0.044 A 
ATOM     20  C   UNL A   1      33.331  28.201  25.440  1.00  0.00     0.160 A 
ATOM     21  C   UNL A   1      32.663  28.386  24.234  1.00  0.00     0.158 A 
ATOM     22  F   UNL A   1      34.391  28.964  25.742  1.00  0.00    -0.204 F 
ATOM     23  F   UNL A   1      33.109  29.279  23.340  1.00  0.00    -0.204 F 
ENDBRANCH  14  16
ENDBRANCH  11  12
ENDBRANCH   6  11
ENDBRANCH   3   6
ENDBRANCH   1   2
BRANCH   1  24
ATOM     24  C   UNL A   1      37.104  21.042  24.755  1.00  0.00     0.042 C 
BRANCH  24  25
ATOM     25  C   UNL A   1      38.350  21.194  25.613  1.00  0.00     0.118 C 
BRANCH  25  26
ATOM     26  N   UNL A   1      39.208  20.013  25.594  1.00  0.00    -0.352 N 
ATOM     27  C   UNL A   1      40.537  19.901  25.928  1.00  0.00     0.251 C 
ATOM     28  H   UNL A   1      38.773  19.180  25.301  1.00  0.00     0.163 HD
ATOM     29  O   UNL A   1      41.157  18.867  25.700  1.00  0.00    -0.269 OA
BRANCH  27  30
ATOM     30  C   UNL A   1      41.219  21.059  26.534  1.00  0.00     0.039 A 
ATOM     31  C   UNL A   1      41.834  22.003  25.710  1.00  0.00     0.014 A 
ATOM     32  C   UNL A   1      41.182  21.241  27.917  1.00  0.00     0.014 A 
ATOM     33  C   UNL A   1      42.327  23.184  26.269  1.00  0.00     0.010 A 
ATOM     34  C   UNL A   1      41.574  22.457  28.455  1.00  0.00     0.010 A 
ATOM     35  C   UNL A   1      42.151  23.442  27.638  1.00  0.00    -0.014 A 
BRANCH  35  36
ATOM     36  C   UNL A   1      42.571  24.720  28.264  1.00  0.00     0.031 A 
ATOM     37  C   UNL A   1      41.549  25.801  28.485  1.00  0.00     0.074 A 
ATOM     38  C   UNL A   1      43.872  24.952  28.524  1.00  0.00     0.049 A 
ATOM     39  N   UNL A   1      41.724  27.047  28.839  1.00  0.00    -0.248 NA
ATOM     40  C   UNL A   1      40.145  25.439  28.229  1.00  0.00     0.031 C 
ATOM     41  C   UNL A   1      44.965  23.999  28.314  1.00  0.00     0.029 A 
ATOM     42  N   UNL A   1      44.500  26.075  28.998  1.00  0.00    -0.354 N 
ATOM     43  C   UNL A   1      40.460  27.623  28.816  1.00  0.00     0.074 A 
ATOM     44  C   UNL A   1      39.537  26.607  28.362  1.00  0.00     0.031 C 
ATOM     45  C   UNL A   1      46.125  24.574  28.671  1.00  0.00     0.029 A 
ATOM     46  C   UNL A   1      45.866  25.948  29.089  1.00  0.00     0.049 A 
ATOM     47  H   UNL A   1      44.018  26.896  29.251  1.00  0.00     0.167 HD
ATOM     48  C   UNL A   1      40.098  28.881  29.162  1.00  0.00     0.037 A 
ATOM     49  C   UNL A   1      46.804  26.846  29.448  1.00  0.00     0.037 A 
ATOM     50  C   UNL A   1      41.016  29.873  29.650  1.00  0.00     0.049 A 
ATOM     51  C   UNL A   1      46.377  28.236  29.833  1.00  0.00     0.074 A 
ATOM     52  C   UNL A   1      40.744  31.158  30.087  1.00  0.00     0.029 A 
ATOM     53  N   UNL A   1      42.385  29.689  29.770  1.00  0.00    -0.354 N 
ATOM     54  N   UNL A   1      45.173  28.754  29.857  1.00  0.00    -0.248 NA
ATOM     55  C   UNL A   1      47.438  29.168  30.243  1.00  0.00     0.031 C 
ATOM     56  C   UNL A   1      41.954  31.764  30.436  1.00  0.00     0.029 A 
ATOM     57  C   UNL A   1      42.973  30.840  30.264  1.00  0.00     0.049 A 
ATOM     58  H   UNL A   1      42.867  28.862  29.540  1.00  0.00     0.167 HD
ATOM     59  C   UNL A   1      45.326  30.054  30.321  1.00  0.00     0.074 A 
ATOM     60  C   UNL A   1      46.740  30.247  30.567  1.00  0.00     0.031 C 
ATOM     61  C   UNL A   1      44.380  31.002  30.529  1.00  0.00     0.037 A 
BRANCH  48  62
ATOM     62  C   UNL A   1      38.648  29.245  29.030  1.00  0.00     0.057 A 
ATOM     63  C   UNL A   1      38.092  29.634  27.805  1.00  0.00     0.134 A 
ATOM     64  C   UNL A   1      37.793  29.184  30.138  1.00  0.00     0.134 A 
ATOM     65  F   UNL A   1      38.860  29.728  26.709  1.00  0.00    -0.206 F 
ATOM     66  C   UNL A   1      36.744  29.978  27.692  1.00  0.00     0.040 A 
ATOM     67  C   UNL A   1      36.437  29.496  30.030  1.00  0.00     0.040 A 
ATOM     68  F   UNL A   1      38.258  28.815  31.340  1.00  0.00    -0.206 F 
ATOM     69  C   UNL A   1      35.910  29.902  28.805  1.00  0.00     0.006 A 
ENDBRANCH  48  62
BRANCH  49  70
ATOM     70  C   UNL A   1      48.236  26.455  29.482  1.00  0.00     0.057 A 
ATOM     71  C   UNL A   1      49.069  26.680  28.379  1.00  0.00     0.134 A 
ATOM     72  C   UNL A   1      48.806  25.846  30.606  1.00  0.00     0.134 A 
ATOM     73  F   UNL A   1      48.577  27.242  27.267  1.00  0.00    -0.206 F 
ATOM     74  C   UNL A   1      50.411  26.294  28.385  1.00  0.00     0.040 A 
ATOM     75  C   UNL A   1      50.153  25.479  30.635  1.00  0.00     0.040 A 
ATOM     76  F   UNL A   1      48.065  25.612  31.699  1.00  0.00    -0.206 F 
ATOM     77  C   UNL A   1      50.957  25.697  29.518  1.00  0.00     0.006 A 
ENDBRANCH  49  70
BRANCH  61  78
ATOM     78  C   UNL A   1      44.825  32.310  31.109  1.00  0.00     0.057 A 
ATOM     79  C   UNL A   1      44.918  32.518  32.490  1.00  0.00     0.134 A 
ATOM     80  C   UNL A   1      45.233  33.353  30.266  1.00  0.00     0.134 A 
ATOM     81  F   UNL A   1      44.530  31.563  33.349  1.00  0.00    -0.206 F 
ATOM     82  C   UNL A   1      45.391  33.722  33.013  1.00  0.00     0.040 A 
ATOM     83  C   UNL A   1      45.732  34.551  30.777  1.00  0.00     0.040 A 
ATOM     84  F   UNL A   1      45.178  33.212  28.933  1.00  0.00    -0.206 F 
ATOM     85  C   UNL A   1      45.809  34.739  32.156  1.00  0.00     0.006 A 
ENDBRANCH  61  78
ENDBRANCH  35  36
ENDBRANCH  27  30
ENDBRANCH  25  26
ENDBRANCH  24  25
ENDBRANCH   1  24
TORSDOF 15
ENDMDL
