MODEL 1
REMARK VINA RESULT:     -13.2      0.000      0.000
REMARK SMILES O=C(NCCCNC(=O)[C@@H]1[C@@H](C(=O)Nc2cccc(C(F)(F)F)c2)[C@@H]2C=C[C@H]1O2)c1ccc(-c2c3nc(c(-c4c(F)cccc4F)c4ccc([nH]4)c(-c4c(F)cccc4F)c4nc(c(-c5c(F)cccc5F)c5ccc2[nH]5)C=C4)C=C3)cc1
REMARK SMILES IDX 5 1 4 2 3 3 1 4 2 5 30 7 31 8 83 9 32 10 82 11 33 12 34 13
REMARK SMILES IDX 35 14 76 15 36 16 81 17 75 18 77 19 37 20 80 21 74 22 73 23
REMARK SMILES IDX 38 25 64 26 47 27 63 28 48 29 51 30 62 31 78 32 49 33 50 34
REMARK SMILES IDX 61 36 79 37 52 38 39 39 40 40 45 41 41 42 42 43 44 44 46 45
REMARK SMILES IDX 43 46 65 47 66 48 71 49 67 50 68 51 70 52 72 53 69 54 53 55
REMARK SMILES IDX 54 56 59 57 55 58 56 59 58 60 60 61 57 62 6 63 7 64 8 65
REMARK SMILES IDX 9 67 10 68 11 69 28 70 25 71 27 72 29 73 26 74 12 75 13 76
REMARK SMILES IDX 14 77 15 79 16 80 24 81 17 82 19 83 18 84 20 85 21 86 22 87
REMARK SMILES IDX 23 88
REMARK H PARENT 3 6 77 24 51 35 7 66 14 78
REMARK Flexibility Score: inf
ROOT
ATOM      1  C   UNL A   1      31.432  31.732  26.500  1.00  0.00     0.042 C 
ENDROOT
BRANCH   1   2
ATOM      2  C   UNL A   1      32.686  32.281  27.162  1.00  0.00     0.118 C 
BRANCH   2   3
ATOM      3  N   UNL A   1      32.526  33.693  27.500  1.00  0.00    -0.352 N 
ATOM      4  O   UNL A   1      32.691  35.539  28.777  1.00  0.00    -0.269 OA
ATOM      5  C   UNL A   1      33.135  34.437  28.478  1.00  0.00     0.251 C 
ATOM      6  H   UNL A   1      31.882  34.186  26.942  1.00  0.00     0.163 HD
BRANCH   5   7
ATOM      7  C   UNL A   1      34.330  33.906  29.156  1.00  0.00     0.039 A 
ATOM      8  C   UNL A   1      34.193  32.949  30.165  1.00  0.00     0.014 A 
ATOM      9  C   UNL A   1      35.597  34.324  28.743  1.00  0.00     0.014 A 
ATOM     10  C   UNL A   1      35.312  32.496  30.843  1.00  0.00     0.010 A 
ATOM     11  C   UNL A   1      36.730  33.783  29.351  1.00  0.00     0.010 A 
ATOM     12  C   UNL A   1      36.591  32.865  30.403  1.00  0.00    -0.014 A 
BRANCH  12  13
ATOM     13  C   UNL A   1      37.760  32.149  30.955  1.00  0.00     0.031 A 
ATOM     14  C   UNL A   1      38.459  31.081  30.175  1.00  0.00     0.074 A 
ATOM     15  C   UNL A   1      38.168  32.491  32.194  1.00  0.00     0.049 A 
ATOM     16  N   UNL A   1      39.467  30.333  30.539  1.00  0.00    -0.248 NA
ATOM     17  C   UNL A   1      37.962  30.807  28.817  1.00  0.00     0.031 C 
ATOM     18  C   UNL A   1      37.536  33.512  33.038  1.00  0.00     0.029 A 
ATOM     19  N   UNL A   1      39.204  32.028  32.962  1.00  0.00    -0.354 N 
ATOM     20  C   UNL A   1      39.711  29.480  29.471  1.00  0.00     0.074 A 
ATOM     21  C   UNL A   1      38.741  29.797  28.445  1.00  0.00     0.031 C 
ATOM     22  C   UNL A   1      38.214  33.619  34.188  1.00  0.00     0.029 A 
ATOM     23  C   UNL A   1      39.269  32.617  34.200  1.00  0.00     0.049 A 
ATOM     24  H   UNL A   1      39.838  31.341  32.655  1.00  0.00     0.167 HD
ATOM     25  C   UNL A   1      40.660  28.523  29.373  1.00  0.00     0.037 A 
ATOM     26  C   UNL A   1      40.061  32.348  35.253  1.00  0.00     0.037 A 
ATOM     27  C   UNL A   1      41.628  28.241  30.403  1.00  0.00     0.049 A 
ATOM     28  C   UNL A   1      41.074  31.250  35.119  1.00  0.00     0.074 A 
ATOM     29  C   UNL A   1      42.681  27.344  30.370  1.00  0.00     0.029 A 
ATOM     30  N   UNL A   1      41.649  28.840  31.654  1.00  0.00    -0.354 N 
ATOM     31  N   UNL A   1      41.343  30.501  34.078  1.00  0.00    -0.248 NA
ATOM     32  C   UNL A   1      41.884  30.951  36.306  1.00  0.00     0.031 C 
ATOM     33  C   UNL A   1      43.298  27.352  31.624  1.00  0.00     0.029 A 
ATOM     34  C   UNL A   1      42.666  28.295  32.419  1.00  0.00     0.049 A 
ATOM     35  H   UNL A   1      41.033  29.546  31.953  1.00  0.00     0.167 HD
ATOM     36  C   UNL A   1      42.357  29.645  34.479  1.00  0.00     0.074 A 
ATOM     37  C   UNL A   1      42.677  29.992  35.849  1.00  0.00     0.031 C 
ATOM     38  C   UNL A   1      42.962  28.654  33.782  1.00  0.00     0.037 A 
BRANCH  25  39
ATOM     39  C   UNL A   1      40.697  27.681  28.131  1.00  0.00     0.057 A 
ATOM     40  C   UNL A   1      41.447  28.044  27.006  1.00  0.00     0.134 A 
ATOM     41  C   UNL A   1      40.045  26.440  28.102  1.00  0.00     0.134 A 
ATOM     42  F   UNL A   1      42.086  29.222  26.965  1.00  0.00    -0.206 F 
ATOM     43  C   UNL A   1      41.545  27.204  25.894  1.00  0.00     0.040 A 
ATOM     44  C   UNL A   1      40.155  25.583  27.006  1.00  0.00     0.040 A 
ATOM     45  F   UNL A   1      39.314  26.031  29.149  1.00  0.00    -0.206 F 
ATOM     46  C   UNL A   1      40.907  25.964  25.899  1.00  0.00     0.006 A 
ENDBRANCH  25  39
BRANCH  26  47
ATOM     47  C   UNL A   1      39.879  33.080  36.530  1.00  0.00     0.057 A 
ATOM     48  C   UNL A   1      38.951  32.658  37.488  1.00  0.00     0.134 A 
ATOM     49  C   UNL A   1      40.624  34.233  36.820  1.00  0.00     0.134 A 
ATOM     50  F   UNL A   1      38.199  31.570  37.265  1.00  0.00    -0.206 F 
ATOM     51  C   UNL A   1      38.751  33.368  38.673  1.00  0.00     0.040 A 
ATOM     52  C   UNL A   1      40.458  34.931  38.015  1.00  0.00     0.040 A 
ATOM     53  F   UNL A   1      41.539  34.685  35.950  1.00  0.00    -0.206 F 
ATOM     54  C   UNL A   1      39.509  34.506  38.941  1.00  0.00     0.006 A 
ENDBRANCH  26  47
BRANCH  38  55
ATOM     55  C   UNL A   1      44.035  27.885  34.491  1.00  0.00     0.057 A 
ATOM     56  C   UNL A   1      43.763  26.671  35.134  1.00  0.00     0.134 A 
ATOM     57  C   UNL A   1      45.358  28.343  34.496  1.00  0.00     0.134 A 
ATOM     58  F   UNL A   1      42.511  26.192  35.180  1.00  0.00    -0.206 F 
ATOM     59  C   UNL A   1      44.769  25.945  35.771  1.00  0.00     0.040 A 
ATOM     60  C   UNL A   1      46.377  27.611  35.104  1.00  0.00     0.040 A 
ATOM     61  F   UNL A   1      45.683  29.496  33.893  1.00  0.00    -0.206 F 
ATOM     62  C   UNL A   1      46.083  26.411  35.749  1.00  0.00     0.006 A 
ENDBRANCH  38  55
ENDBRANCH  12  13
ENDBRANCH   5   7
ENDBRANCH   2   3
ENDBRANCH   1   2
BRANCH   1  63
ATOM     63  C   UNL A   1      31.737  30.451  25.733  1.00  0.00     0.117 C 
BRANCH  63  64
ATOM     64  N   UNL A   1      31.507  29.269  26.526  1.00  0.00    -0.356 N 
ATOM     65  C   UNL A   1      32.024  28.025  26.544  1.00  0.00     0.227 C 
ATOM     66  H   UNL A   1      30.814  29.402  27.213  1.00  0.00     0.163 HD
ATOM     67  O   UNL A   1      31.605  27.319  27.473  1.00  0.00    -0.275 OA
BRANCH  65  68
ATOM     68  C   UNL A   1      33.051  27.422  25.599  1.00  0.00     0.127 C 
ATOM     69  C   UNL A   1      32.414  27.085  24.216  1.00  0.00     0.127 C 
ATOM     70  C   UNL A   1      33.896  26.171  25.895  1.00  0.00     0.155 C 
ATOM     71  C   UNL A   1      32.995  25.709  23.960  1.00  0.00     0.155 C 
ATOM     72  C   UNL A   1      33.184  24.869  26.047  1.00  0.00     0.004 C 
ATOM     73  O   UNL A   1      34.324  25.888  24.537  1.00  0.00    -0.365 OA
ATOM     74  C   UNL A   1      32.534  24.643  24.899  1.00  0.00     0.004 C 
BRANCH  69  75
ATOM     75  C   UNL A   1      32.703  28.177  23.154  1.00  0.00     0.231 C 
ATOM     76  O   UNL A   1      33.889  28.444  22.909  1.00  0.00    -0.274 OA
ATOM     77  N   UNL A   1      31.784  28.765  22.324  1.00  0.00    -0.326 N 
ATOM     78  H   UNL A   1      32.169  29.148  21.503  1.00  0.00     0.169 HD
BRANCH  77  79
ATOM     79  C   UNL A   1      30.395  28.920  22.429  1.00  0.00     0.041 A 
ATOM     80  C   UNL A   1      29.613  27.818  22.765  1.00  0.00     0.026 A 
ATOM     81  C   UNL A   1      29.785  30.158  22.251  1.00  0.00     0.039 A 
ATOM     82  C   UNL A   1      28.278  28.006  23.137  1.00  0.00     0.003 A 
ATOM     83  C   UNL A   1      28.499  30.389  22.763  1.00  0.00     0.058 A 
ATOM     84  C   UNL A   1      27.739  29.293  23.190  1.00  0.00     0.013 A 
BRANCH  83  85
ATOM     85  C   UNL A   1      28.033  31.800  23.029  1.00  0.00     0.416 C 
ATOM     86  F   UNL A   1      26.969  31.861  23.872  1.00  0.00    -0.166 F 
ATOM     87  F   UNL A   1      29.003  32.572  23.599  1.00  0.00    -0.166 F 
ATOM     88  F   UNL A   1      27.654  32.471  21.901  1.00  0.00    -0.166 F 
ENDBRANCH  83  85
ENDBRANCH  77  79
ENDBRANCH  69  75
ENDBRANCH  65  68
ENDBRANCH  63  64
ENDBRANCH   1  63
TORSDOF 13
ENDMDL
MODEL 2
REMARK VINA RESULT:     -13.1      5.813     10.709
REMARK SMILES O=C(NCCCNC(=O)[C@@H]1[C@@H](C(=O)Nc2cccc(C(F)(F)F)c2)[C@@H]2C=C[C@H]1O2)c1ccc(-c2c3nc(c(-c4c(F)cccc4F)c4ccc([nH]4)c(-c4c(F)cccc4F)c4nc(c(-c5c(F)cccc5F)c5ccc2[nH]5)C=C4)C=C3)cc1
REMARK SMILES IDX 5 1 4 2 3 3 1 4 2 5 30 7 31 8 83 9 32 10 82 11 33 12 34 13
REMARK SMILES IDX 35 14 76 15 36 16 81 17 75 18 77 19 37 20 80 21 74 22 73 23
REMARK SMILES IDX 38 25 64 26 47 27 63 28 48 29 51 30 62 31 78 32 49 33 50 34
REMARK SMILES IDX 61 36 79 37 52 38 39 39 40 40 45 41 41 42 42 43 44 44 46 45
REMARK SMILES IDX 43 46 65 47 66 48 71 49 67 50 68 51 70 52 72 53 69 54 53 55
REMARK SMILES IDX 54 56 59 57 55 58 56 59 58 60 60 61 57 62 6 63 7 64 8 65
REMARK SMILES IDX 9 67 10 68 11 69 28 70 25 71 27 72 29 73 26 74 12 75 13 76
REMARK SMILES IDX 14 77 15 79 16 80 24 81 17 82 19 83 18 84 20 85 21 86 22 87
REMARK SMILES IDX 23 88
REMARK H PARENT 3 6 77 24 51 35 7 66 14 78
REMARK Flexibility Score: inf
ROOT
ATOM      1  C   UNL A   1      37.792  19.764  24.967  1.00  0.00     0.042 C 
ENDROOT
BRANCH   1   2
ATOM      2  C   UNL A   1      38.985  20.252  25.773  1.00  0.00     0.118 C 
BRANCH   2   3
ATOM      3  N   UNL A   1      40.015  19.221  25.864  1.00  0.00    -0.352 N 
ATOM      4  O   UNL A   1      42.104  18.386  25.840  1.00  0.00    -0.269 OA
ATOM      5  C   UNL A   1      41.369  19.344  26.041  1.00  0.00     0.251 C 
ATOM      6  H   UNL A   1      39.688  18.296  25.786  1.00  0.00     0.163 HD
BRANCH   5   7
ATOM      7  C   UNL A   1      41.928  20.633  26.486  1.00  0.00     0.039 A 
ATOM      8  C   UNL A   1      42.320  21.587  25.543  1.00  0.00     0.014 A 
ATOM      9  C   UNL A   1      42.010  20.913  27.852  1.00  0.00     0.014 A 
ATOM     10  C   UNL A   1      42.902  22.772  25.960  1.00  0.00     0.010 A 
ATOM     11  C   UNL A   1      42.493  22.152  28.271  1.00  0.00     0.010 A 
ATOM     12  C   UNL A   1      42.940  23.087  27.325  1.00  0.00    -0.014 A 
BRANCH  12  13
ATOM     13  C   UNL A   1      43.299  24.465  27.720  1.00  0.00     0.031 A 
ATOM     14  C   UNL A   1      42.252  25.465  28.096  1.00  0.00     0.074 A 
ATOM     15  C   UNL A   1      44.607  24.789  27.721  1.00  0.00     0.049 A 
ATOM     16  N   UNL A   1      42.403  26.722  28.421  1.00  0.00    -0.248 NA
ATOM     17  C   UNL A   1      40.854  25.005  28.102  1.00  0.00     0.031 C 
ATOM     18  C   UNL A   1      45.700  23.881  27.352  1.00  0.00     0.029 A 
ATOM     19  N   UNL A   1      45.247  25.958  28.041  1.00  0.00    -0.354 N 
ATOM     20  C   UNL A   1      41.125  27.214  28.644  1.00  0.00     0.074 A 
ATOM     21  C   UNL A   1      40.204  26.122  28.411  1.00  0.00     0.031 C 
ATOM     22  C   UNL A   1      46.871  24.515  27.496  1.00  0.00     0.029 A 
ATOM     23  C   UNL A   1      46.609  25.894  27.880  1.00  0.00     0.049 A 
ATOM     24  H   UNL A   1      44.775  26.763  28.355  1.00  0.00     0.167 HD
ATOM     25  C   UNL A   1      40.768  28.467  29.006  1.00  0.00     0.037 A 
ATOM     26  C   UNL A   1      47.544  26.855  27.982  1.00  0.00     0.037 A 
ATOM     27  C   UNL A   1      41.707  29.532  29.251  1.00  0.00     0.049 A 
ATOM     28  C   UNL A   1      47.104  28.241  28.345  1.00  0.00     0.074 A 
ATOM     29  C   UNL A   1      41.452  30.816  29.699  1.00  0.00     0.029 A 
ATOM     30  N   UNL A   1      43.078  29.439  29.055  1.00  0.00    -0.354 N 
ATOM     31  N   UNL A   1      45.899  28.675  28.623  1.00  0.00    -0.248 NA
ATOM     32  C   UNL A   1      48.146  29.273  28.396  1.00  0.00     0.031 C 
ATOM     33  C   UNL A   1      42.659  31.520  29.708  1.00  0.00     0.029 A 
ATOM     34  C   UNL A   1      43.674  30.659  29.323  1.00  0.00     0.049 A 
ATOM     35  H   UNL A   1      43.553  28.627  28.767  1.00  0.00     0.167 HD
ATOM     36  C   UNL A   1      46.037  30.029  28.890  1.00  0.00     0.074 A 
ATOM     37  C   UNL A   1      47.448  30.336  28.771  1.00  0.00     0.031 C 
ATOM     38  C   UNL A   1      45.082  30.940  29.194  1.00  0.00     0.037 A 
BRANCH  25  39
ATOM     39  C   UNL A   1      39.306  28.781  29.134  1.00  0.00     0.057 A 
ATOM     40  C   UNL A   1      38.620  28.651  30.347  1.00  0.00     0.134 A 
ATOM     41  C   UNL A   1      38.602  29.314  28.045  1.00  0.00     0.134 A 
ATOM     42  F   UNL A   1      39.232  28.139  31.425  1.00  0.00    -0.206 F 
ATOM     43  C   UNL A   1      37.283  29.038  30.472  1.00  0.00     0.040 A 
ATOM     44  C   UNL A   1      37.274  29.725  28.164  1.00  0.00     0.040 A 
ATOM     45  F   UNL A   1      39.203  29.469  26.856  1.00  0.00    -0.206 F 
ATOM     46  C   UNL A   1      36.611  29.587  29.381  1.00  0.00     0.006 A 
ENDBRANCH  25  39
BRANCH  26  47
ATOM     47  C   UNL A   1      48.963  26.550  27.673  1.00  0.00     0.057 A 
ATOM     48  C   UNL A   1      49.456  26.617  26.366  1.00  0.00     0.134 A 
ATOM     49  C   UNL A   1      49.861  26.172  28.682  1.00  0.00     0.134 A 
ATOM     50  F   UNL A   1      48.644  26.961  25.355  1.00  0.00    -0.206 F 
ATOM     51  C   UNL A   1      50.781  26.294  26.068  1.00  0.00     0.040 A 
ATOM     52  C   UNL A   1      51.196  25.880  28.403  1.00  0.00     0.040 A 
ATOM     53  F   UNL A   1      49.456  26.100  29.958  1.00  0.00    -0.206 F 
ATOM     54  C   UNL A   1      51.656  25.927  27.089  1.00  0.00     0.006 A 
ENDBRANCH  26  47
BRANCH  38  55
ATOM     55  C   UNL A   1      45.537  32.348  29.426  1.00  0.00     0.057 A 
ATOM     56  C   UNL A   1      45.555  33.292  28.393  1.00  0.00     0.134 A 
ATOM     57  C   UNL A   1      45.924  32.772  30.704  1.00  0.00     0.134 A 
ATOM     58  F   UNL A   1      45.215  32.940  27.144  1.00  0.00    -0.206 F 
ATOM     59  C   UNL A   1      45.956  34.609  28.619  1.00  0.00     0.040 A 
ATOM     60  C   UNL A   1      46.298  34.093  30.947  1.00  0.00     0.040 A 
ATOM     61  F   UNL A   1      45.923  31.916  31.736  1.00  0.00    -0.206 F 
ATOM     62  C   UNL A   1      46.320  35.014  29.902  1.00  0.00     0.006 A 
ENDBRANCH  38  55
ENDBRANCH  12  13
ENDBRANCH   5   7
ENDBRANCH   2   3
ENDBRANCH   1   2
BRANCH   1  63
ATOM     63  C   UNL A   1      36.586  20.673  25.172  1.00  0.00     0.117 C 
BRANCH  63  64
ATOM     64  N   UNL A   1      36.510  21.715  24.178  1.00  0.00    -0.356 N 
ATOM     65  C   UNL A   1      35.935  22.932  24.123  1.00  0.00     0.227 C 
ATOM     66  H   UNL A   1      36.989  21.484  23.349  1.00  0.00     0.163 HD
ATOM     67  O   UNL A   1      36.194  23.566  23.091  1.00  0.00    -0.275 OA
BRANCH  65  68
ATOM     68  C   UNL A   1      35.056  23.602  25.167  1.00  0.00     0.127 C 
ATOM     69  C   UNL A   1      33.643  22.943  25.221  1.00  0.00     0.127 C 
ATOM     70  C   UNL A   1      34.728  25.104  25.214  1.00  0.00     0.155 C 
ATOM     71  C   UNL A   1      32.756  24.170  25.284  1.00  0.00     0.155 C 
ATOM     72  C   UNL A   1      33.935  25.680  24.090  1.00  0.00     0.004 C 
ATOM     73  O   UNL A   1      33.590  25.038  26.111  1.00  0.00    -0.365 OA
ATOM     74  C   UNL A   1      32.769  25.024  24.059  1.00  0.00     0.004 C 
BRANCH  69  75
ATOM     75  C   UNL A   1      33.514  21.923  26.381  1.00  0.00     0.231 C 
ATOM     76  O   UNL A   1      33.824  22.303  27.520  1.00  0.00    -0.274 OA
ATOM     77  N   UNL A   1      32.926  20.686  26.312  1.00  0.00    -0.326 N 
ATOM     78  H   UNL A   1      32.617  20.338  27.180  1.00  0.00     0.169 HD
BRANCH  77  79
ATOM     79  C   UNL A   1      32.683  19.826  25.234  1.00  0.00     0.041 A 
ATOM     80  C   UNL A   1      32.142  20.346  24.060  1.00  0.00     0.026 A 
ATOM     81  C   UNL A   1      33.012  18.475  25.290  1.00  0.00     0.039 A 
ATOM     82  C   UNL A   1      32.145  19.571  22.896  1.00  0.00     0.003 A 
ATOM     83  C   UNL A   1      33.163  17.737  24.107  1.00  0.00     0.058 A 
ATOM     84  C   UNL A   1      32.705  18.292  22.905  1.00  0.00     0.013 A 
BRANCH  83  85
ATOM     85  C   UNL A   1      33.981  16.467  24.107  1.00  0.00     0.416 C 
ATOM     86  F   UNL A   1      33.298  15.392  24.582  1.00  0.00    -0.166 F 
ATOM     87  F   UNL A   1      34.401  16.117  22.857  1.00  0.00    -0.166 F 
ATOM     88  F   UNL A   1      35.117  16.549  24.861  1.00  0.00    -0.166 F 
ENDBRANCH  83  85
ENDBRANCH  77  79
ENDBRANCH  69  75
ENDBRANCH  65  68
ENDBRANCH  63  64
ENDBRANCH   1  63
TORSDOF 13
ENDMDL
MODEL 3
REMARK VINA RESULT:     -13.1      1.986      3.386
REMARK SMILES O=C(NCCCNC(=O)[C@@H]1[C@@H](C(=O)Nc2cccc(C(F)(F)F)c2)[C@@H]2C=C[C@H]1O2)c1ccc(-c2c3nc(c(-c4c(F)cccc4F)c4ccc([nH]4)c(-c4c(F)cccc4F)c4nc(c(-c5c(F)cccc5F)c5ccc2[nH]5)C=C4)C=C3)cc1
REMARK SMILES IDX 5 1 4 2 3 3 1 4 2 5 30 7 31 8 83 9 32 10 82 11 33 12 34 13
REMARK SMILES IDX 35 14 76 15 36 16 81 17 75 18 77 19 37 20 80 21 74 22 73 23
REMARK SMILES IDX 38 25 64 26 47 27 63 28 48 29 51 30 62 31 78 32 49 33 50 34
REMARK SMILES IDX 61 36 79 37 52 38 39 39 40 40 45 41 41 42 42 43 44 44 46 45
REMARK SMILES IDX 43 46 65 47 66 48 71 49 67 50 68 51 70 52 72 53 69 54 53 55
REMARK SMILES IDX 54 56 59 57 55 58 56 59 58 60 60 61 57 62 6 63 7 64 8 65
REMARK SMILES IDX 9 67 10 68 11 69 28 70 25 71 27 72 29 73 26 74 12 75 13 76
REMARK SMILES IDX 14 77 15 79 16 80 24 81 17 82 19 83 18 84 20 85 21 86 22 87
REMARK SMILES IDX 23 88
REMARK H PARENT 3 6 77 24 51 35 7 66 14 78
REMARK Flexibility Score: inf
ROOT
ATOM      1  C   UNL A   1      31.399  31.957  26.476  1.00  0.00     0.042 C 
ENDROOT
BRANCH   1   2
ATOM      2  C   UNL A   1      32.586  32.505  27.254  1.00  0.00     0.118 C 
BRANCH   2   3
ATOM      3  N   UNL A   1      32.411  33.926  27.544  1.00  0.00    -0.352 N 
ATOM      4  O   UNL A   1      32.543  35.812  28.763  1.00  0.00    -0.269 OA
ATOM      5  C   UNL A   1      32.998  34.704  28.508  1.00  0.00     0.251 C 
ATOM      6  H   UNL A   1      31.776  34.397  26.957  1.00  0.00     0.163 HD
BRANCH   5   7
ATOM      7  C   UNL A   1      34.182  34.201  29.226  1.00  0.00     0.039 A 
ATOM      8  C   UNL A   1      34.025  33.391  30.353  1.00  0.00     0.014 A 
ATOM      9  C   UNL A   1      35.458  34.495  28.737  1.00  0.00     0.014 A 
ATOM     10  C   UNL A   1      35.137  32.970  31.062  1.00  0.00     0.010 A 
ATOM     11  C   UNL A   1      36.578  33.977  29.388  1.00  0.00     0.010 A 
ATOM     12  C   UNL A   1      36.420  33.211  30.553  1.00  0.00    -0.014 A 
BRANCH  12  13
ATOM     13  C   UNL A   1      37.567  32.511  31.170  1.00  0.00     0.031 A 
ATOM     14  C   UNL A   1      38.248  31.374  30.477  1.00  0.00     0.074 A 
ATOM     15  C   UNL A   1      37.969  32.932  32.386  1.00  0.00     0.049 A 
ATOM     16  N   UNL A   1      39.235  30.631  30.907  1.00  0.00    -0.248 NA
ATOM     17  C   UNL A   1      37.761  31.013  29.136  1.00  0.00     0.031 C 
ATOM     18  C   UNL A   1      37.351  34.025  33.145  1.00  0.00     0.029 A 
ATOM     19  N   UNL A   1      38.985  32.502  33.197  1.00  0.00    -0.354 N 
ATOM     20  C   UNL A   1      39.471  29.698  29.906  1.00  0.00     0.074 A 
ATOM     21  C   UNL A   1      38.520  29.962  28.848  1.00  0.00     0.031 C 
ATOM     22  C   UNL A   1      38.019  34.200  34.293  1.00  0.00     0.029 A 
ATOM     23  C   UNL A   1      39.050  33.178  34.391  1.00  0.00     0.049 A 
ATOM     24  H   UNL A   1      39.606  31.781  32.949  1.00  0.00     0.167 HD
ATOM     25  C   UNL A   1      40.399  28.715  29.889  1.00  0.00     0.037 A 
ATOM     26  C   UNL A   1      39.824  32.968  35.471  1.00  0.00     0.037 A 
ATOM     27  C   UNL A   1      41.348  28.487  30.949  1.00  0.00     0.049 A 
ATOM     28  C   UNL A   1      40.812  31.841  35.429  1.00  0.00     0.074 A 
ATOM     29  C   UNL A   1      42.380  27.566  30.995  1.00  0.00     0.029 A 
ATOM     30  N   UNL A   1      41.369  29.174  32.154  1.00  0.00    -0.354 N 
ATOM     31  N   UNL A   1      41.075  31.013  34.448  1.00  0.00    -0.248 NA
ATOM     32  C   UNL A   1      41.602  31.611  36.644  1.00  0.00     0.031 C 
ATOM     33  C   UNL A   1      42.983  27.651  32.252  1.00  0.00     0.029 A 
ATOM     34  C   UNL A   1      42.365  28.663  32.969  1.00  0.00     0.049 A 
ATOM     35  H   UNL A   1      40.766  29.914  32.393  1.00  0.00     0.167 HD
ATOM     36  C   UNL A   1      42.064  30.165  34.923  1.00  0.00     0.074 A 
ATOM     37  C   UNL A   1      42.377  30.603  36.268  1.00  0.00     0.031 C 
ATOM     38  C   UNL A   1      42.654  29.113  34.307  1.00  0.00     0.037 A 
BRANCH  25  39
ATOM     39  C   UNL A   1      40.430  27.785  28.712  1.00  0.00     0.057 A 
ATOM     40  C   UNL A   1      41.245  28.019  27.599  1.00  0.00     0.134 A 
ATOM     41  C   UNL A   1      39.700  26.588  28.741  1.00  0.00     0.134 A 
ATOM     42  F   UNL A   1      41.960  29.149  27.504  1.00  0.00    -0.206 F 
ATOM     43  C   UNL A   1      41.332  27.096  26.553  1.00  0.00     0.040 A 
ATOM     44  C   UNL A   1      39.797  25.649  27.714  1.00  0.00     0.040 A 
ATOM     45  F   UNL A   1      38.904  26.302  29.781  1.00  0.00    -0.206 F 
ATOM     46  C   UNL A   1      40.615  25.901  26.616  1.00  0.00     0.006 A 
ENDBRANCH  25  39
BRANCH  26  47
ATOM     47  C   UNL A   1      39.645  33.795  36.689  1.00  0.00     0.057 A 
ATOM     48  C   UNL A   1      38.777  33.406  37.714  1.00  0.00     0.134 A 
ATOM     49  C   UNL A   1      40.332  35.006  36.853  1.00  0.00     0.134 A 
ATOM     50  F   UNL A   1      38.080  32.263  37.612  1.00  0.00    -0.206 F 
ATOM     51  C   UNL A   1      38.577  34.201  38.844  1.00  0.00     0.040 A 
ATOM     52  C   UNL A   1      40.169  35.793  37.993  1.00  0.00     0.040 A 
ATOM     53  F   UNL A   1      41.189  35.431  35.914  1.00  0.00    -0.206 F 
ATOM     54  C   UNL A   1      39.278  35.396  38.987  1.00  0.00     0.006 A 
ENDBRANCH  26  47
BRANCH  38  55
ATOM     55  C   UNL A   1      43.700  28.374  35.083  1.00  0.00     0.057 A 
ATOM     56  C   UNL A   1      43.382  27.250  35.856  1.00  0.00     0.134 A 
ATOM     57  C   UNL A   1      45.044  28.764  35.023  1.00  0.00     0.134 A 
ATOM     58  F   UNL A   1      42.110  26.840  35.967  1.00  0.00    -0.206 F 
ATOM     59  C   UNL A   1      44.363  26.549  36.557  1.00  0.00     0.040 A 
ATOM     60  C   UNL A   1      46.037  28.053  35.696  1.00  0.00     0.040 A 
ATOM     61  F   UNL A   1      45.413  29.829  34.296  1.00  0.00    -0.206 F 
ATOM     62  C   UNL A   1      45.697  26.945  36.470  1.00  0.00     0.006 A 
ENDBRANCH  38  55
ENDBRANCH  12  13
ENDBRANCH   5   7
ENDBRANCH   2   3
ENDBRANCH   1   2
BRANCH   1  63
ATOM     63  C   UNL A   1      31.509  30.445  26.308  1.00  0.00     0.117 C 
BRANCH  63  64
ATOM     64  N   UNL A   1      31.596  30.053  24.923  1.00  0.00    -0.356 N 
ATOM     65  C   UNL A   1      30.740  30.056  23.882  1.00  0.00     0.227 C 
ATOM     66  H   UNL A   1      32.484  29.703  24.683  1.00  0.00     0.163 HD
ATOM     67  O   UNL A   1      31.253  29.714  22.808  1.00  0.00    -0.275 OA
BRANCH  65  68
ATOM     68  C   UNL A   1      29.271  30.449  23.877  1.00  0.00     0.127 C 
ATOM     69  C   UNL A   1      28.488  29.683  22.768  1.00  0.00     0.127 C 
ATOM     70  C   UNL A   1      28.742  31.887  23.731  1.00  0.00     0.155 C 
ATOM     71  C   UNL A   1      27.654  30.803  22.179  1.00  0.00     0.155 C 
ATOM     72  C   UNL A   1      28.998  32.596  22.445  1.00  0.00     0.004 C 
ATOM     73  O   UNL A   1      27.368  31.565  23.391  1.00  0.00    -0.365 OA
ATOM     74  C   UNL A   1      28.430  31.868  21.477  1.00  0.00     0.004 C 
BRANCH  69  75
ATOM     75  C   UNL A   1      27.721  28.458  23.329  1.00  0.00     0.231 C 
ATOM     76  O   UNL A   1      26.497  28.571  23.498  1.00  0.00    -0.274 OA
ATOM     77  N   UNL A   1      28.225  27.194  23.500  1.00  0.00    -0.326 N 
ATOM     78  H   UNL A   1      27.540  26.487  23.519  1.00  0.00     0.169 HD
BRANCH  77  79
ATOM     79  C   UNL A   1      29.536  26.724  23.654  1.00  0.00     0.041 A 
ATOM     80  C   UNL A   1      30.322  26.525  22.521  1.00  0.00     0.026 A 
ATOM     81  C   UNL A   1      30.086  26.496  24.912  1.00  0.00     0.039 A 
ATOM     82  C   UNL A   1      31.698  26.321  22.663  1.00  0.00     0.003 A 
ATOM     83  C   UNL A   1      31.478  26.444  25.072  1.00  0.00     0.058 A 
ATOM     84  C   UNL A   1      32.283  26.337  23.931  1.00  0.00     0.013 A 
BRANCH  83  85
ATOM     85  C   UNL A   1      32.094  26.701  26.428  1.00  0.00     0.416 C 
ATOM     86  F   UNL A   1      31.257  27.349  27.280  1.00  0.00    -0.166 F 
ATOM     87  F   UNL A   1      32.453  25.549  27.064  1.00  0.00    -0.166 F 
ATOM     88  F   UNL A   1      33.231  27.455  26.377  1.00  0.00    -0.166 F 
ENDBRANCH  83  85
ENDBRANCH  77  79
ENDBRANCH  69  75
ENDBRANCH  65  68
ENDBRANCH  63  64
ENDBRANCH   1  63
TORSDOF 13
ENDMDL
