MODEL 1
REMARK VINA RESULT:     -12.3      0.000      0.000
REMARK SMILES O=C(CSc1nnc(Cc2ccncc2)n1-c1ccccc1Cl)NCCCNC(=O)c1ccc(-c2c3nc(c(-c4c(F)cccc4F)c4ccc([nH]4)c(-c4c(F)cccc4F)c4nc(c(-c5c(F)cccc5F)c5ccc2[nH]5)C=C4)C=C3)cc1
REMARK SMILES IDX 25 1 24 2 1 3 2 4 3 6 4 7 5 8 6 9 16 10 7 11 8 12 17 13
REMARK SMILES IDX 18 14 22 15 19 16 21 17 23 18 20 19 9 20 10 21 11 22 15 23
REMARK SMILES IDX 12 24 14 25 13 26 26 27 27 28 28 29 29 30 30 32 31 33 32 34
REMARK SMILES IDX 84 35 33 36 83 37 34 38 35 39 36 40 77 41 37 42 82 43 76 44
REMARK SMILES IDX 78 45 38 46 81 47 75 48 74 49 39 51 65 52 48 53 64 54 49 55
REMARK SMILES IDX 52 56 63 57 79 58 50 59 51 60 62 62 80 63 53 64 40 65 41 66
REMARK SMILES IDX 46 67 42 68 43 69 45 70 47 71 44 72 66 73 67 74 72 75 68 76
REMARK SMILES IDX 69 77 71 78 73 79 70 80 54 81 55 82 60 83 56 84 57 85 59 86
REMARK SMILES IDX 61 87 58 88
REMARK H PARENT 24 5 28 31 78 50 52 61
REMARK Flexibility Score: inf
ROOT
ATOM      1  C   UNL A   1      40.128  21.724  26.102  1.00  0.00     0.117 C 
ENDROOT
BRANCH   1   2
ATOM      2  N   UNL A   1      39.015  22.407  26.737  1.00  0.00    -0.355 N 
ATOM      3  O   UNL A   1      39.391  24.449  25.738  1.00  0.00    -0.274 OA
ATOM      4  C   UNL A   1      38.618  23.654  26.266  1.00  0.00     0.230 C 
ATOM      5  H   UNL A   1      38.544  21.989  27.495  1.00  0.00     0.163 HD
BRANCH   4   6
ATOM      6  C   UNL A   1      37.138  23.975  26.415  1.00  0.00     0.178 C 
BRANCH   6   7
ATOM      7  S   UNL A   1      36.275  23.708  24.836  1.00  0.00    -0.076 SA
BRANCH   7   8
ATOM      8  C   UNL A   1      35.559  22.137  25.007  1.00  0.00     0.196 A 
ATOM      9  N   UNL A   1      36.244  21.015  25.049  1.00  0.00    -0.123 NA
ATOM     10  N   UNL A   1      34.214  21.845  24.941  1.00  0.00    -0.272 N 
ATOM     11  N   UNL A   1      35.354  19.965  24.967  1.00  0.00    -0.134 NA
ATOM     12  C   UNL A   1      34.138  20.466  24.859  1.00  0.00     0.142 A 
BRANCH  10  13
ATOM     13  C   UNL A   1      33.100  22.690  25.046  1.00  0.00     0.068 A 
ATOM     14  C   UNL A   1      32.616  22.961  26.335  1.00  0.00     0.028 A 
ATOM     15  C   UNL A   1      32.371  23.054  23.913  1.00  0.00     0.065 A 
ATOM     16  C   UNL A   1      31.401  23.625  26.487  1.00  0.00     0.002 A 
ATOM     17  C   UNL A   1      31.143  23.700  24.079  1.00  0.00     0.023 A 
ATOM     18  Cl  UNL A   1      32.921  22.742  22.311  1.00  0.00    -0.082 Cl
ATOM     19  C   UNL A   1      30.663  23.990  25.361  1.00  0.00     0.002 A 
ENDBRANCH  10  13
BRANCH  12  20
ATOM     20  C   UNL A   1      32.860  19.702  24.695  1.00  0.00     0.113 C 
BRANCH  20  21
ATOM     21  C   UNL A   1      33.030  18.201  24.671  1.00  0.00    -0.037 A 
ATOM     22  C   UNL A   1      33.702  17.588  23.608  1.00  0.00     0.024 A 
ATOM     23  C   UNL A   1      32.567  17.389  25.714  1.00  0.00     0.024 A 
ATOM     24  C   UNL A   1      33.904  16.216  23.647  1.00  0.00     0.111 A 
ATOM     25  C   UNL A   1      32.813  16.023  25.657  1.00  0.00     0.111 A 
ATOM     26  N   UNL A   1      33.479  15.422  24.652  1.00  0.00    -0.265 NA
ENDBRANCH  20  21
ENDBRANCH  12  20
ENDBRANCH   7   8
ENDBRANCH   6   7
ENDBRANCH   4   6
ENDBRANCH   1   2
BRANCH   1  27
ATOM     27  C   UNL A   1      40.631  20.416  26.694  1.00  0.00     0.042 C 
BRANCH  27  28
ATOM     28  C   UNL A   1      42.075  20.476  27.163  1.00  0.00     0.118 C 
BRANCH  28  29
ATOM     29  N   UNL A   1      43.055  19.822  26.275  1.00  0.00    -0.352 N 
ATOM     30  C   UNL A   1      43.870  20.438  25.318  1.00  0.00     0.251 C 
ATOM     31  H   UNL A   1      43.146  18.845  26.365  1.00  0.00     0.163 HD
ATOM     32  O   UNL A   1      44.386  19.822  24.415  1.00  0.00    -0.269 OA
BRANCH  30  33
ATOM     33  C   UNL A   1      44.084  21.892  25.474  1.00  0.00     0.039 A 
ATOM     34  C   UNL A   1      43.358  22.850  24.760  1.00  0.00     0.014 A 
ATOM     35  C   UNL A   1      44.906  22.251  26.529  1.00  0.00     0.014 A 
ATOM     36  C   UNL A   1      43.356  24.163  25.231  1.00  0.00     0.010 A 
ATOM     37  C   UNL A   1      44.691  23.460  27.124  1.00  0.00     0.010 A 
ATOM     38  C   UNL A   1      43.981  24.451  26.456  1.00  0.00    -0.014 A 
BRANCH  38  39
ATOM     39  C   UNL A   1      43.796  25.723  27.156  1.00  0.00     0.031 A 
ATOM     40  C   UNL A   1      44.762  26.784  26.763  1.00  0.00     0.074 A 
ATOM     41  C   UNL A   1      42.688  25.997  27.888  1.00  0.00     0.049 A 
ATOM     42  N   UNL A   1      45.726  27.266  27.473  1.00  0.00    -0.248 NA
ATOM     43  C   UNL A   1      44.759  27.270  25.372  1.00  0.00     0.031 C 
ATOM     44  C   UNL A   1      41.507  25.139  28.087  1.00  0.00     0.029 A 
ATOM     45  N   UNL A   1      42.323  27.145  28.530  1.00  0.00    -0.354 N 
ATOM     46  C   UNL A   1      46.273  28.302  26.717  1.00  0.00     0.074 A 
ATOM     47  C   UNL A   1      45.802  28.106  25.373  1.00  0.00     0.031 C 
ATOM     48  C   UNL A   1      40.479  25.868  28.569  1.00  0.00     0.029 A 
ATOM     49  C   UNL A   1      40.985  27.178  28.925  1.00  0.00     0.049 A 
ATOM     50  H   UNL A   1      42.948  27.885  28.699  1.00  0.00     0.167 HD
ATOM     51  C   UNL A   1      46.784  29.404  27.335  1.00  0.00     0.037 A 
ATOM     52  C   UNL A   1      40.335  28.187  29.550  1.00  0.00     0.037 A 
ATOM     53  C   UNL A   1      46.908  29.168  28.753  1.00  0.00     0.049 A 
ATOM     54  C   UNL A   1      41.359  29.020  30.208  1.00  0.00     0.074 A 
ATOM     55  C   UNL A   1      47.743  28.463  29.589  1.00  0.00     0.029 A 
ATOM     56  N   UNL A   1      45.756  29.429  29.445  1.00  0.00    -0.354 N 
ATOM     57  N   UNL A   1      42.083  28.602  31.209  1.00  0.00    -0.248 NA
ATOM     58  C   UNL A   1      41.846  30.217  29.535  1.00  0.00     0.031 C 
ATOM     59  C   UNL A   1      46.977  28.165  30.757  1.00  0.00     0.029 A 
ATOM     60  C   UNL A   1      45.714  28.737  30.624  1.00  0.00     0.049 A 
ATOM     61  H   UNL A   1      45.048  30.038  29.134  1.00  0.00     0.167 HD
ATOM     62  C   UNL A   1      43.309  29.198  31.006  1.00  0.00     0.074 A 
ATOM     63  C   UNL A   1      43.055  30.310  30.097  1.00  0.00     0.031 C 
ATOM     64  C   UNL A   1      44.461  28.535  31.312  1.00  0.00     0.037 A 
BRANCH  51  65
ATOM     65  C   UNL A   1      46.691  30.827  26.817  1.00  0.00     0.057 A 
ATOM     66  C   UNL A   1      47.846  31.636  26.844  1.00  0.00     0.134 A 
ATOM     67  C   UNL A   1      45.486  31.527  26.604  1.00  0.00     0.134 A 
ATOM     68  F   UNL A   1      49.057  31.098  27.052  1.00  0.00    -0.206 F 
ATOM     69  C   UNL A   1      47.794  33.033  26.742  1.00  0.00     0.040 A 
ATOM     70  C   UNL A   1      45.429  32.917  26.453  1.00  0.00     0.040 A 
ATOM     71  F   UNL A   1      44.291  30.928  26.636  1.00  0.00    -0.206 F 
ATOM     72  C   UNL A   1      46.580  33.679  26.554  1.00  0.00     0.006 A 
ENDBRANCH  51  65
BRANCH  52  73
ATOM     73  C   UNL A   1      38.914  28.582  29.520  1.00  0.00     0.057 A 
ATOM     74  C   UNL A   1      38.139  28.599  30.688  1.00  0.00     0.134 A 
ATOM     75  C   UNL A   1      38.377  29.248  28.407  1.00  0.00     0.134 A 
ATOM     76  F   UNL A   1      38.580  28.006  31.806  1.00  0.00    -0.206 F 
ATOM     77  C   UNL A   1      36.924  29.289  30.764  1.00  0.00     0.040 A 
ATOM     78  C   UNL A   1      37.163  29.942  28.468  1.00  0.00     0.040 A 
ATOM     79  F   UNL A   1      39.064  29.328  27.256  1.00  0.00    -0.206 F 
ATOM     80  C   UNL A   1      36.442  29.981  29.657  1.00  0.00     0.006 A 
ENDBRANCH  52  73
BRANCH  64  81
ATOM     81  C   UNL A   1      44.365  27.424  32.311  1.00  0.00     0.057 A 
ATOM     82  C   UNL A   1      44.323  26.061  31.991  1.00  0.00     0.134 A 
ATOM     83  C   UNL A   1      44.378  27.759  33.668  1.00  0.00     0.134 A 
ATOM     84  F   UNL A   1      44.375  25.644  30.720  1.00  0.00    -0.206 F 
ATOM     85  C   UNL A   1      44.261  25.076  32.981  1.00  0.00     0.040 A 
ATOM     86  C   UNL A   1      44.347  26.786  34.667  1.00  0.00     0.040 A 
ATOM     87  F   UNL A   1      44.455  29.045  34.044  1.00  0.00    -0.206 F 
ATOM     88  C   UNL A   1      44.277  25.439  34.326  1.00  0.00     0.006 A 
ENDBRANCH  64  81
ENDBRANCH  38  39
ENDBRANCH  30  33
ENDBRANCH  28  29
ENDBRANCH  27  28
ENDBRANCH   1  27
TORSDOF 15
ENDMDL
MODEL 2
REMARK VINA RESULT:     -12.2      1.810      3.014
REMARK SMILES O=C(CSc1nnc(Cc2ccncc2)n1-c1ccccc1Cl)NCCCNC(=O)c1ccc(-c2c3nc(c(-c4c(F)cccc4F)c4ccc([nH]4)c(-c4c(F)cccc4F)c4nc(c(-c5c(F)cccc5F)c5ccc2[nH]5)C=C4)C=C3)cc1
REMARK SMILES IDX 25 1 24 2 1 3 2 4 3 6 4 7 5 8 6 9 16 10 7 11 8 12 17 13
REMARK SMILES IDX 18 14 22 15 19 16 21 17 23 18 20 19 9 20 10 21 11 22 15 23
REMARK SMILES IDX 12 24 14 25 13 26 26 27 27 28 28 29 29 30 30 32 31 33 32 34
REMARK SMILES IDX 84 35 33 36 83 37 34 38 35 39 36 40 77 41 37 42 82 43 76 44
REMARK SMILES IDX 78 45 38 46 81 47 75 48 74 49 39 51 65 52 48 53 64 54 49 55
REMARK SMILES IDX 52 56 63 57 79 58 50 59 51 60 62 62 80 63 53 64 40 65 41 66
REMARK SMILES IDX 46 67 42 68 43 69 45 70 47 71 44 72 66 73 67 74 72 75 68 76
REMARK SMILES IDX 69 77 71 78 73 79 70 80 54 81 55 82 60 83 56 84 57 85 59 86
REMARK SMILES IDX 61 87 58 88
REMARK H PARENT 24 5 28 31 78 50 52 61
REMARK Flexibility Score: inf
ROOT
ATOM      1  C   UNL A   1      40.229  21.660  26.489  1.00  0.00     0.117 C 
ENDROOT
BRANCH   1   2
ATOM      2  N   UNL A   1      38.784  21.730  26.368  1.00  0.00    -0.355 N 
ATOM      3  O   UNL A   1      38.660  24.032  26.367  1.00  0.00    -0.274 OA
ATOM      4  C   UNL A   1      38.181  22.944  26.055  1.00  0.00     0.230 C 
ATOM      5  H   UNL A   1      38.235  20.924  26.506  1.00  0.00     0.163 HD
BRANCH   4   6
ATOM      6  C   UNL A   1      36.886  22.852  25.261  1.00  0.00     0.178 C 
BRANCH   6   7
ATOM      7  S   UNL A   1      35.893  21.442  25.842  1.00  0.00    -0.076 SA
BRANCH   7   8
ATOM      8  C   UNL A   1      34.438  22.172  26.446  1.00  0.00     0.196 A 
ATOM      9  N   UNL A   1      34.052  22.117  27.702  1.00  0.00    -0.123 NA
ATOM     10  N   UNL A   1      33.434  22.732  25.686  1.00  0.00    -0.272 N 
ATOM     11  N   UNL A   1      32.764  22.604  27.776  1.00  0.00    -0.134 NA
ATOM     12  C   UNL A   1      32.379  22.933  26.558  1.00  0.00     0.142 A 
BRANCH  10  13
ATOM     13  C   UNL A   1      33.440  23.148  24.348  1.00  0.00     0.068 A 
ATOM     14  C   UNL A   1      33.855  24.461  24.082  1.00  0.00     0.028 A 
ATOM     15  C   UNL A   1      32.841  22.368  23.356  1.00  0.00     0.065 A 
ATOM     16  C   UNL A   1      33.689  24.989  22.803  1.00  0.00     0.002 A 
ATOM     17  C   UNL A   1      32.661  22.916  22.083  1.00  0.00     0.023 A 
ATOM     18  Cl  UNL A   1      32.314  20.752  23.633  1.00  0.00    -0.082 Cl
ATOM     19  C   UNL A   1      33.089  24.219  21.806  1.00  0.00     0.002 A 
ENDBRANCH  10  13
BRANCH  12  20
ATOM     20  C   UNL A   1      31.038  23.461  26.149  1.00  0.00     0.113 C 
BRANCH  20  21
ATOM     21  C   UNL A   1      31.033  24.925  25.777  1.00  0.00    -0.037 A 
ATOM     22  C   UNL A   1      31.714  25.853  26.570  1.00  0.00     0.024 A 
ATOM     23  C   UNL A   1      30.392  25.390  24.621  1.00  0.00     0.024 A 
ATOM     24  C   UNL A   1      31.750  27.180  26.167  1.00  0.00     0.111 A 
ATOM     25  C   UNL A   1      30.480  26.740  24.306  1.00  0.00     0.111 A 
ATOM     26  N   UNL A   1      31.153  27.642  25.048  1.00  0.00    -0.265 NA
ENDBRANCH  20  21
ENDBRANCH  12  20
ENDBRANCH   7   8
ENDBRANCH   6   7
ENDBRANCH   4   6
ENDBRANCH   1   2
BRANCH   1  27
ATOM     27  C   UNL A   1      40.924  20.316  26.322  1.00  0.00     0.042 C 
BRANCH  27  28
ATOM     28  C   UNL A   1      42.342  20.293  26.866  1.00  0.00     0.118 C 
BRANCH  28  29
ATOM     29  N   UNL A   1      43.350  19.688  25.976  1.00  0.00    -0.352 N 
ATOM     30  C   UNL A   1      44.133  20.343  25.019  1.00  0.00     0.251 C 
ATOM     31  H   UNL A   1      43.488  18.717  26.064  1.00  0.00     0.163 HD
ATOM     32  O   UNL A   1      44.676  19.754  24.114  1.00  0.00    -0.269 OA
BRANCH  30  33
ATOM     33  C   UNL A   1      44.278  21.806  25.176  1.00  0.00     0.039 A 
ATOM     34  C   UNL A   1      43.411  22.726  24.579  1.00  0.00     0.014 A 
ATOM     35  C   UNL A   1      45.204  22.201  26.126  1.00  0.00     0.014 A 
ATOM     36  C   UNL A   1      43.390  24.031  25.074  1.00  0.00     0.010 A 
ATOM     37  C   UNL A   1      44.994  23.386  26.769  1.00  0.00     0.010 A 
ATOM     38  C   UNL A   1      44.147  24.340  26.216  1.00  0.00    -0.014 A 
BRANCH  38  39
ATOM     39  C   UNL A   1      43.977  25.589  26.960  1.00  0.00     0.031 A 
ATOM     40  C   UNL A   1      44.970  26.645  26.620  1.00  0.00     0.074 A 
ATOM     41  C   UNL A   1      42.864  25.859  27.686  1.00  0.00     0.049 A 
ATOM     42  N   UNL A   1      45.932  27.081  27.362  1.00  0.00    -0.248 NA
ATOM     43  C   UNL A   1      44.997  27.181  25.248  1.00  0.00     0.031 C 
ATOM     44  C   UNL A   1      41.663  25.018  27.836  1.00  0.00     0.029 A 
ATOM     45  N   UNL A   1      42.511  26.989  28.365  1.00  0.00    -0.354 N 
ATOM     46  C   UNL A   1      46.510  28.132  26.652  1.00  0.00     0.074 A 
ATOM     47  C   UNL A   1      46.056  27.995  25.296  1.00  0.00     0.031 C 
ATOM     48  C   UNL A   1      40.642  25.749  28.330  1.00  0.00     0.029 A 
ATOM     49  C   UNL A   1      41.169  27.035  28.741  1.00  0.00     0.049 A 
ATOM     50  H   UNL A   1      43.148  27.710  28.570  1.00  0.00     0.167 HD
ATOM     51  C   UNL A   1      47.033  29.200  27.319  1.00  0.00     0.037 A 
ATOM     52  C   UNL A   1      40.529  28.033  29.394  1.00  0.00     0.037 A 
ATOM     53  C   UNL A   1      47.131  28.910  28.728  1.00  0.00     0.049 A 
ATOM     54  C   UNL A   1      41.559  28.820  30.097  1.00  0.00     0.074 A 
ATOM     55  C   UNL A   1      47.940  28.158  29.549  1.00  0.00     0.029 A 
ATOM     56  N   UNL A   1      45.974  29.168  29.413  1.00  0.00    -0.354 N 
ATOM     57  N   UNL A   1      42.260  28.352  31.092  1.00  0.00    -0.248 NA
ATOM     58  C   UNL A   1      42.080  30.031  29.476  1.00  0.00     0.031 C 
ATOM     59  C   UNL A   1      47.150  27.833  30.694  1.00  0.00     0.029 A 
ATOM     60  C   UNL A   1      45.901  28.435  30.564  1.00  0.00     0.049 A 
ATOM     61  H   UNL A   1      45.283  29.802  29.114  1.00  0.00     0.167 HD
ATOM     62  C   UNL A   1      43.500  28.930  30.928  1.00  0.00     0.074 A 
ATOM     63  C   UNL A   1      43.282  30.079  30.058  1.00  0.00     0.031 C 
ATOM     64  C   UNL A   1      44.634  28.233  31.227  1.00  0.00     0.037 A 
BRANCH  51  65
ATOM     65  C   UNL A   1      46.975  30.644  26.852  1.00  0.00     0.057 A 
ATOM     66  C   UNL A   1      48.140  31.434  26.947  1.00  0.00     0.134 A 
ATOM     67  C   UNL A   1      45.788  31.368  26.628  1.00  0.00     0.134 A 
ATOM     68  F   UNL A   1      49.337  30.871  27.172  1.00  0.00    -0.206 F 
ATOM     69  C   UNL A   1      48.110  32.835  26.896  1.00  0.00     0.040 A 
ATOM     70  C   UNL A   1      45.754  32.763  26.528  1.00  0.00     0.040 A 
ATOM     71  F   UNL A   1      44.584  30.786  26.599  1.00  0.00    -0.206 F 
ATOM     72  C   UNL A   1      46.911  33.505  26.694  1.00  0.00     0.006 A 
ENDBRANCH  51  65
BRANCH  52  73
ATOM     73  C   UNL A   1      39.116  28.457  29.358  1.00  0.00     0.057 A 
ATOM     74  C   UNL A   1      38.321  28.437  30.513  1.00  0.00     0.134 A 
ATOM     75  C   UNL A   1      38.613  29.184  28.268  1.00  0.00     0.134 A 
ATOM     76  F   UNL A   1      38.732  27.785  31.610  1.00  0.00    -0.206 F 
ATOM     77  C   UNL A   1      37.119  29.147  30.600  1.00  0.00     0.040 A 
ATOM     78  C   UNL A   1      37.411  29.898  28.341  1.00  0.00     0.040 A 
ATOM     79  F   UNL A   1      39.321  29.302  27.134  1.00  0.00    -0.206 F 
ATOM     80  C   UNL A   1      36.670  29.898  29.518  1.00  0.00     0.006 A 
ENDBRANCH  52  73
BRANCH  64  81
ATOM     81  C   UNL A   1      44.502  27.089  32.182  1.00  0.00     0.057 A 
ATOM     82  C   UNL A   1      44.392  25.742  31.810  1.00  0.00     0.134 A 
ATOM     83  C   UNL A   1      44.550  27.367  33.551  1.00  0.00     0.134 A 
ATOM     84  F   UNL A   1      44.406  25.375  30.523  1.00  0.00    -0.206 F 
ATOM     85  C   UNL A   1      44.299  24.722  32.761  1.00  0.00     0.040 A 
ATOM     86  C   UNL A   1      44.488  26.357  34.511  1.00  0.00     0.040 A 
ATOM     87  F   UNL A   1      44.691  28.632  33.977  1.00  0.00    -0.206 F 
ATOM     88  C   UNL A   1      44.351  25.030  34.118  1.00  0.00     0.006 A 
ENDBRANCH  64  81
ENDBRANCH  38  39
ENDBRANCH  30  33
ENDBRANCH  28  29
ENDBRANCH  27  28
ENDBRANCH   1  27
TORSDOF 15
ENDMDL
MODEL 3
REMARK VINA RESULT:     -12.1      3.196      7.257
REMARK SMILES O=C(CSc1nnc(Cc2ccncc2)n1-c1ccccc1Cl)NCCCNC(=O)c1ccc(-c2c3nc(c(-c4c(F)cccc4F)c4ccc([nH]4)c(-c4c(F)cccc4F)c4nc(c(-c5c(F)cccc5F)c5ccc2[nH]5)C=C4)C=C3)cc1
REMARK SMILES IDX 25 1 24 2 1 3 2 4 3 6 4 7 5 8 6 9 16 10 7 11 8 12 17 13
REMARK SMILES IDX 18 14 22 15 19 16 21 17 23 18 20 19 9 20 10 21 11 22 15 23
REMARK SMILES IDX 12 24 14 25 13 26 26 27 27 28 28 29 29 30 30 32 31 33 32 34
REMARK SMILES IDX 84 35 33 36 83 37 34 38 35 39 36 40 77 41 37 42 82 43 76 44
REMARK SMILES IDX 78 45 38 46 81 47 75 48 74 49 39 51 65 52 48 53 64 54 49 55
REMARK SMILES IDX 52 56 63 57 79 58 50 59 51 60 62 62 80 63 53 64 40 65 41 66
REMARK SMILES IDX 46 67 42 68 43 69 45 70 47 71 44 72 66 73 67 74 72 75 68 76
REMARK SMILES IDX 69 77 71 78 73 79 70 80 54 81 55 82 60 83 56 84 57 85 59 86
REMARK SMILES IDX 61 87 58 88
REMARK H PARENT 24 5 28 31 78 50 52 61
REMARK Flexibility Score: inf
ROOT
ATOM      1  C   UNL A   1      33.600  29.056  25.480  1.00  0.00     0.117 C 
ENDROOT
BRANCH   1   2
ATOM      2  N   UNL A   1      32.387  29.246  24.705  1.00  0.00    -0.355 N 
ATOM      3  O   UNL A   1      33.412  29.166  22.642  1.00  0.00    -0.274 OA
ATOM      4  C   UNL A   1      32.408  29.014  23.334  1.00  0.00     0.230 C 
ATOM      5  H   UNL A   1      31.557  29.536  25.147  1.00  0.00     0.163 HD
BRANCH   4   6
ATOM      6  C   UNL A   1      31.101  28.523  22.728  1.00  0.00     0.178 C 
BRANCH   6   7
ATOM      7  S   UNL A   1      30.677  26.883  23.394  1.00  0.00    -0.076 SA
BRANCH   7   8
ATOM      8  C   UNL A   1      31.941  25.850  22.806  1.00  0.00     0.196 A 
ATOM      9  N   UNL A   1      32.575  26.034  21.668  1.00  0.00    -0.123 NA
ATOM     10  N   UNL A   1      32.316  24.637  23.344  1.00  0.00    -0.272 N 
ATOM     11  N   UNL A   1      33.346  24.917  21.422  1.00  0.00    -0.134 NA
ATOM     12  C   UNL A   1      33.155  24.061  22.407  1.00  0.00     0.142 A 
BRANCH  10  13
ATOM     13  C   UNL A   1      32.045  24.087  24.604  1.00  0.00     0.068 A 
ATOM     14  C   UNL A   1      30.939  23.230  24.710  1.00  0.00     0.028 A 
ATOM     15  C   UNL A   1      32.704  24.552  25.743  1.00  0.00     0.065 A 
ATOM     16  C   UNL A   1      30.505  22.818  25.968  1.00  0.00     0.002 A 
ATOM     17  C   UNL A   1      32.248  24.149  27.000  1.00  0.00     0.023 A 
ATOM     18  Cl  UNL A   1      34.065  25.606  25.666  1.00  0.00    -0.082 Cl
ATOM     19  C   UNL A   1      31.156  23.280  27.112  1.00  0.00     0.002 A 
ENDBRANCH  10  13
BRANCH  12  20
ATOM     20  C   UNL A   1      33.749  22.692  22.540  1.00  0.00     0.113 C 
BRANCH  20  21
ATOM     21  C   UNL A   1      34.821  22.578  23.598  1.00  0.00    -0.037 A 
ATOM     22  C   UNL A   1      34.705  21.625  24.615  1.00  0.00     0.024 A 
ATOM     23  C   UNL A   1      35.970  23.379  23.574  1.00  0.00     0.024 A 
ATOM     24  C   UNL A   1      35.737  21.496  25.532  1.00  0.00     0.111 A 
ATOM     25  C   UNL A   1      36.945  23.178  24.541  1.00  0.00     0.111 A 
ATOM     26  N   UNL A   1      36.858  22.248  25.513  1.00  0.00    -0.265 NA
ENDBRANCH  20  21
ENDBRANCH  12  20
ENDBRANCH   7   8
ENDBRANCH   6   7
ENDBRANCH   4   6
ENDBRANCH   1   2
BRANCH   1  27
ATOM     27  C   UNL A   1      33.706  29.690  26.859  1.00  0.00     0.042 C 
BRANCH  27  28
ATOM     28  C   UNL A   1      34.918  29.227  27.650  1.00  0.00     0.118 C 
BRANCH  28  29
ATOM     29  N   UNL A   1      35.326  30.112  28.757  1.00  0.00    -0.352 N 
ATOM     30  C   UNL A   1      36.498  30.029  29.516  1.00  0.00     0.251 C 
ATOM     31  H   UNL A   1      34.706  30.842  28.986  1.00  0.00     0.163 HD
ATOM     32  O   UNL A   1      36.608  30.559  30.597  1.00  0.00    -0.269 OA
BRANCH  30  33
ATOM     33  C   UNL A   1      37.615  29.265  28.922  1.00  0.00     0.039 A 
ATOM     34  C   UNL A   1      38.284  29.672  27.763  1.00  0.00     0.014 A 
ATOM     35  C   UNL A   1      38.094  28.229  29.704  1.00  0.00     0.014 A 
ATOM     36  C   UNL A   1      39.535  29.113  27.493  1.00  0.00     0.010 A 
ATOM     37  C   UNL A   1      39.409  27.888  29.577  1.00  0.00     0.010 A 
ATOM     38  C   UNL A   1      40.121  28.260  28.443  1.00  0.00    -0.014 A 
BRANCH  38  39
ATOM     39  C   UNL A   1      41.526  27.853  28.376  1.00  0.00     0.031 A 
ATOM     40  C   UNL A   1      41.761  26.586  27.632  1.00  0.00     0.074 A 
ATOM     41  C   UNL A   1      42.542  28.683  28.718  1.00  0.00     0.049 A 
ATOM     42  N   UNL A   1      42.118  25.446  28.122  1.00  0.00    -0.248 NA
ATOM     43  C   UNL A   1      41.423  26.528  26.199  1.00  0.00     0.031 C 
ATOM     44  C   UNL A   1      42.446  30.084  29.165  1.00  0.00     0.029 A 
ATOM     45  N   UNL A   1      43.892  28.496  28.640  1.00  0.00    -0.354 N 
ATOM     46  C   UNL A   1      42.311  24.607  27.026  1.00  0.00     0.074 A 
ATOM     47  C   UNL A   1      41.658  25.243  25.916  1.00  0.00     0.031 C 
ATOM     48  C   UNL A   1      43.652  30.683  29.076  1.00  0.00     0.029 A 
ATOM     49  C   UNL A   1      44.640  29.664  28.786  1.00  0.00     0.049 A 
ATOM     50  H   UNL A   1      44.302  27.614  28.493  1.00  0.00     0.167 HD
ATOM     51  C   UNL A   1      43.273  23.641  27.066  1.00  0.00     0.037 A 
ATOM     52  C   UNL A   1      45.986  29.794  28.727  1.00  0.00     0.037 A 
ATOM     53  C   UNL A   1      43.769  23.486  28.411  1.00  0.00     0.049 A 
ATOM     54  C   UNL A   1      46.562  28.464  29.003  1.00  0.00     0.074 A 
ATOM     55  C   UNL A   1      43.331  22.926  29.590  1.00  0.00     0.029 A 
ATOM     56  N   UNL A   1      44.771  24.365  28.720  1.00  0.00    -0.354 N 
ATOM     57  N   UNL A   1      46.472  27.875  30.163  1.00  0.00    -0.248 NA
ATOM     58  C   UNL A   1      46.944  27.606  27.889  1.00  0.00     0.031 C 
ATOM     59  C   UNL A   1      43.999  23.632  30.637  1.00  0.00     0.029 A 
ATOM     60  C   UNL A   1      44.861  24.567  30.070  1.00  0.00     0.049 A 
ATOM     61  H   UNL A   1      45.354  24.797  28.056  1.00  0.00     0.167 HD
ATOM     62  C   UNL A   1      46.346  26.538  29.849  1.00  0.00     0.074 A 
ATOM     63  C   UNL A   1      46.832  26.413  28.481  1.00  0.00     0.031 C 
ATOM     64  C   UNL A   1      45.547  25.724  30.596  1.00  0.00     0.037 A 
BRANCH  51  65
ATOM     65  C   UNL A   1      44.135  23.207  25.894  1.00  0.00     0.057 A 
ATOM     66  C   UNL A   1      44.254  21.830  25.614  1.00  0.00     0.134 A 
ATOM     67  C   UNL A   1      45.084  24.025  25.249  1.00  0.00     0.134 A 
ATOM     68  F   UNL A   1      43.421  20.940  26.173  1.00  0.00    -0.206 F 
ATOM     69  C   UNL A   1      45.282  21.307  24.816  1.00  0.00     0.040 A 
ATOM     70  C   UNL A   1      46.084  23.517  24.413  1.00  0.00     0.040 A 
ATOM     71  F   UNL A   1      45.170  25.341  25.471  1.00  0.00    -0.206 F 
ATOM     72  C   UNL A   1      46.207  22.152  24.219  1.00  0.00     0.006 A 
ENDBRANCH  51  65
BRANCH  52  73
ATOM     73  C   UNL A   1      46.827  30.935  28.316  1.00  0.00     0.057 A 
ATOM     74  C   UNL A   1      46.797  31.425  27.003  1.00  0.00     0.134 A 
ATOM     75  C   UNL A   1      47.434  31.760  29.276  1.00  0.00     0.134 A 
ATOM     76  F   UNL A   1      46.219  30.714  26.024  1.00  0.00    -0.206 F 
ATOM     77  C   UNL A   1      47.293  32.691  26.671  1.00  0.00     0.040 A 
ATOM     78  C   UNL A   1      47.935  33.028  28.957  1.00  0.00     0.040 A 
ATOM     79  F   UNL A   1      47.471  31.401  30.568  1.00  0.00    -0.206 F 
ATOM     80  C   UNL A   1      47.846  33.506  27.654  1.00  0.00     0.006 A 
ENDBRANCH  52  73
BRANCH  64  81
ATOM     81  C   UNL A   1      45.244  26.159  31.995  1.00  0.00     0.057 A 
ATOM     82  C   UNL A   1      44.083  26.838  32.390  1.00  0.00     0.134 A 
ATOM     83  C   UNL A   1      46.152  25.815  33.001  1.00  0.00     0.134 A 
ATOM     84  F   UNL A   1      43.126  27.149  31.507  1.00  0.00    -0.206 F 
ATOM     85  C   UNL A   1      43.856  27.189  33.724  1.00  0.00     0.040 A 
ATOM     86  C   UNL A   1      45.924  26.133  34.340  1.00  0.00     0.040 A 
ATOM     87  F   UNL A   1      47.267  25.132  32.697  1.00  0.00    -0.206 F 
ATOM     88  C   UNL A   1      44.778  26.832  34.705  1.00  0.00     0.006 A 
ENDBRANCH  64  81
ENDBRANCH  38  39
ENDBRANCH  30  33
ENDBRANCH  28  29
ENDBRANCH  27  28
ENDBRANCH   1  27
TORSDOF 15
ENDMDL
