MODEL 1
REMARK VINA RESULT:     -13.4      0.000      0.000
REMARK SMILES CC1(C)[C@H](O)CC[C@@]2(C)[C@H]3Cc4c(oc(C(=O)NCCCNC(=O)c5ccc(-c6c7nc(c(-c8c(F)cccc8F)c8ccc([nH]8)c(-c8c(F)cccc8F)c8nc(c(-c9c(F)cccc9F)c9ccc6[nH]9)C=C8)C=C7)cc5)cc4=O)O[C@@]3(C)CC[C@@H]12
REMARK SMILES IDX 20 1 19 2 18 3 16 4 17 5 15 7 1 8 2 9 3 10 4 11 87 12 6 13
REMARK SMILES IDX 8 14 86 15 7 16 9 17 10 18 85 19 83 20 11 21 84 22 82 23
REMARK SMILES IDX 12 24 13 25 80 26 14 27 79 28 81 29 5 30 21 32 22 33 23 34
REMARK SMILES IDX 24 36 25 37 26 38 78 39 27 40 77 41 28 42 29 43 30 44 71 45
REMARK SMILES IDX 31 46 76 47 70 48 72 49 32 50 75 51 69 52 68 53 33 55 59 56
REMARK SMILES IDX 42 57 58 58 43 59 46 60 57 61 73 62 44 63 45 64 56 66 74 67
REMARK SMILES IDX 47 68 34 69 35 70 40 71 36 72 37 73 39 74 41 75 38 76 60 77
REMARK SMILES IDX 61 78 66 79 62 80 63 81 65 82 67 83 64 84 48 85 49 86 54 87
REMARK SMILES IDX 50 88 51 89 53 90 55 91 52 92
REMARK H PARENT 18 6 5 31 22 35 72 54 46 65
REMARK Flexibility Score: inf
ROOT
ATOM      1  C   UNL A   1      37.450  19.593  24.987  1.00  0.00     0.042 C 
ENDROOT
BRANCH   1   2
ATOM      2  C   UNL A   1      36.198  20.497  25.001  1.00  0.00     0.118 C 
BRANCH   2   3
ATOM      3  N   UNL A   1      34.918  19.750  25.001  1.00  0.00    -0.349 N 
ATOM      4  C   UNL A   1      33.579  20.056  24.803  1.00  0.00     0.287 C 
ATOM      5  O   UNL A   1      32.793  19.111  24.726  1.00  0.00    -0.266 OA
ATOM      6  H   UNL A   1      35.052  18.793  25.191  1.00  0.00     0.163 HD
BRANCH   4   7
ATOM      7  C   UNL A   1      33.060  21.464  24.678  1.00  0.00     0.199 A 
ATOM      8  C   UNL A   1      31.403  30.519  26.404  1.00  0.00     0.014 C 
ATOM      9  C   UNL A   1      32.436  29.465  25.891  1.00  0.00    -0.006 C 
ATOM     10  C   UNL A   1      33.818  30.165  26.114  1.00  0.00     0.014 C 
ATOM     11  C   UNL A   1      32.449  28.291  27.074  1.00  0.00     0.120 C 
ATOM     12  C   UNL A   1      32.124  28.922  24.094  1.00  0.00     0.004 C 
ATOM     13  C   UNL A   1      31.177  27.515  26.978  1.00  0.00     0.033 C 
ATOM     14  C   UNL A   1      32.299  27.509  24.552  1.00  0.00    -0.022 C 
ATOM     15  C   UNL A   1      31.061  28.396  22.866  1.00  0.00     0.009 C 
ATOM     16  C   UNL A   1      30.935  27.553  25.506  1.00  0.00     0.010 C 
ATOM     17  C   UNL A   1      33.898  27.755  24.415  1.00  0.00     0.012 C 
ATOM     18  C   UNL A   1      32.340  26.097  23.979  1.00  0.00     0.044 C 
ATOM     19  C   UNL A   1      30.968  26.854  22.218  1.00  0.00     0.049 C 
ATOM     20  C   UNL A   1      32.177  25.874  22.493  1.00  0.00     0.113 C 
ATOM     21  C   UNL A   1      31.308  25.192  24.644  1.00  0.00     0.055 C 
ATOM     22  C   UNL A   1      33.278  26.310  21.512  1.00  0.00     0.057 C 
ATOM     23  O   UNL A   1      32.106  24.336  22.266  1.00  0.00    -0.458 OA
ATOM     24  C   UNL A   1      31.940  23.919  24.593  1.00  0.00     0.081 A 
ATOM     25  C   UNL A   1      32.348  23.460  23.418  1.00  0.00     0.292 A 
ATOM     26  C   UNL A   1      32.291  23.358  25.869  1.00  0.00     0.192 A 
ATOM     27  O   UNL A   1      33.027  22.194  23.420  1.00  0.00    -0.420 OA
ATOM     28  C   UNL A   1      32.578  21.974  25.811  1.00  0.00     0.105 A 
ATOM     29  O   UNL A   1      32.345  23.976  26.931  1.00  0.00    -0.289 OA
BRANCH  11  30
ATOM     30  O   UNL A   1      33.546  27.377  27.019  1.00  0.00    -0.393 OA
ATOM     31  H   UNL A   1      33.879  27.218  27.916  1.00  0.00     0.210 HD
ENDBRANCH  11  30
ENDBRANCH   4   7
ENDBRANCH   2   3
ENDBRANCH   1   2
BRANCH   1  32
ATOM     32  C   UNL A   1      38.701  20.249  25.553  1.00  0.00     0.118 C 
BRANCH  32  33
ATOM     33  N   UNL A   1      39.780  19.292  25.751  1.00  0.00    -0.352 N 
ATOM     34  C   UNL A   1      41.083  19.511  26.126  1.00  0.00     0.251 C 
ATOM     35  H   UNL A   1      39.540  18.349  25.595  1.00  0.00     0.163 HD
ATOM     36  O   UNL A   1      41.900  18.599  26.061  1.00  0.00    -0.269 OA
BRANCH  34  37
ATOM     37  C   UNL A   1      41.505  20.844  26.600  1.00  0.00     0.039 A 
ATOM     38  C   UNL A   1      42.010  21.766  25.677  1.00  0.00     0.014 A 
ATOM     39  C   UNL A   1      41.436  21.172  27.957  1.00  0.00     0.014 A 
ATOM     40  C   UNL A   1      42.406  23.033  26.110  1.00  0.00     0.010 A 
ATOM     41  C   UNL A   1      41.770  22.455  28.377  1.00  0.00     0.010 A 
ATOM     42  C   UNL A   1      42.273  23.390  27.461  1.00  0.00    -0.014 A 
BRANCH  42  43
ATOM     43  C   UNL A   1      42.721  24.714  27.949  1.00  0.00     0.031 A 
ATOM     44  C   UNL A   1      41.704  25.787  28.219  1.00  0.00     0.074 A 
ATOM     45  C   UNL A   1      44.033  24.963  28.113  1.00  0.00     0.049 A 
ATOM     46  N   UNL A   1      41.882  27.016  28.629  1.00  0.00    -0.248 NA
ATOM     47  C   UNL A   1      40.297  25.431  27.975  1.00  0.00     0.031 C 
ATOM     48  C   UNL A   1      45.114  24.008  27.866  1.00  0.00     0.029 A 
ATOM     49  N   UNL A   1      44.679  26.100  28.524  1.00  0.00    -0.354 N 
ATOM     50  C   UNL A   1      40.612  27.574  28.699  1.00  0.00     0.074 A 
ATOM     51  C   UNL A   1      39.683  26.578  28.214  1.00  0.00     0.031 C 
ATOM     52  C   UNL A   1      46.288  24.591  28.160  1.00  0.00     0.029 A 
ATOM     53  C   UNL A   1      46.044  25.967  28.581  1.00  0.00     0.049 A 
ATOM     54  H   UNL A   1      44.209  26.933  28.757  1.00  0.00     0.167 HD
ATOM     55  C   UNL A   1      40.247  28.798  29.157  1.00  0.00     0.037 A 
ATOM     56  C   UNL A   1      46.987  26.861  28.936  1.00  0.00     0.037 A 
ATOM     57  C   UNL A   1      41.178  29.793  29.617  1.00  0.00     0.049 A 
ATOM     58  C   UNL A   1      46.562  28.244  29.352  1.00  0.00     0.074 A 
ATOM     59  C   UNL A   1      40.918  31.057  30.116  1.00  0.00     0.029 A 
ATOM     60  N   UNL A   1      42.557  29.639  29.619  1.00  0.00    -0.354 N 
ATOM     61  N   UNL A   1      45.355  28.742  29.477  1.00  0.00    -0.248 NA
ATOM     62  C   UNL A   1      47.639  29.191  29.677  1.00  0.00     0.031 C 
ATOM     63  C   UNL A   1      42.143  31.688  30.365  1.00  0.00     0.029 A 
ATOM     64  C   UNL A   1      43.163  30.795  30.080  1.00  0.00     0.049 A 
ATOM     65  H   UNL A   1      43.034  28.825  29.335  1.00  0.00     0.167 HD
ATOM     66  C   UNL A   1      45.525  30.043  29.934  1.00  0.00     0.074 A 
ATOM     67  C   UNL A   1      46.952  30.251  30.076  1.00  0.00     0.031 C 
ATOM     68  C   UNL A   1      44.587  30.983  30.215  1.00  0.00     0.037 A 
BRANCH  55  69
ATOM     69  C   UNL A   1      38.777  29.110  29.156  1.00  0.00     0.057 A 
ATOM     70  C   UNL A   1      38.016  28.995  30.325  1.00  0.00     0.134 A 
ATOM     71  C   UNL A   1      38.118  29.556  28.000  1.00  0.00     0.134 A 
ATOM     72  F   UNL A   1      38.578  28.568  31.465  1.00  0.00    -0.206 F 
ATOM     73  C   UNL A   1      36.661  29.327  30.350  1.00  0.00     0.040 A 
ATOM     74  C   UNL A   1      36.771  29.925  28.021  1.00  0.00     0.040 A 
ATOM     75  F   UNL A   1      38.790  29.703  26.847  1.00  0.00    -0.206 F 
ATOM     76  C   UNL A   1      36.038  29.810  29.199  1.00  0.00     0.006 A 
ENDBRANCH  55  69
BRANCH  56  77
ATOM     77  C   UNL A   1      48.422  26.480  28.951  1.00  0.00     0.057 A 
ATOM     78  C   UNL A   1      49.021  25.900  30.076  1.00  0.00     0.134 A 
ATOM     79  C   UNL A   1      49.221  26.652  27.813  1.00  0.00     0.134 A 
ATOM     80  F   UNL A   1      48.314  25.712  31.200  1.00  0.00    -0.206 F 
ATOM     81  C   UNL A   1      50.359  25.500  30.066  1.00  0.00     0.040 A 
ATOM     82  C   UNL A   1      50.551  26.232  27.781  1.00  0.00     0.040 A 
ATOM     83  F   UNL A   1      48.700  27.187  26.699  1.00  0.00    -0.206 F 
ATOM     84  C   UNL A   1      51.124  25.655  28.912  1.00  0.00     0.006 A 
ENDBRANCH  56  77
BRANCH  68  85
ATOM     85  C   UNL A   1      45.080  32.302  30.741  1.00  0.00     0.057 A 
ATOM     86  C   UNL A   1      45.252  32.497  32.118  1.00  0.00     0.134 A 
ATOM     87  C   UNL A   1      45.374  33.378  29.894  1.00  0.00     0.134 A 
ATOM     88  F   UNL A   1      44.982  31.511  32.986  1.00  0.00    -0.206 F 
ATOM     89  C   UNL A   1      45.702  33.714  32.633  1.00  0.00     0.040 A 
ATOM     90  C   UNL A   1      45.856  34.590  30.395  1.00  0.00     0.040 A 
ATOM     91  F   UNL A   1      45.244  33.254  28.565  1.00  0.00    -0.206 F 
ATOM     92  C   UNL A   1      46.015  34.761  31.769  1.00  0.00     0.006 A 
ENDBRANCH  68  85
ENDBRANCH  42  43
ENDBRANCH  34  37
ENDBRANCH  32  33
ENDBRANCH   1  32
TORSDOF 11
ENDMDL
MODEL 2
REMARK VINA RESULT:     -13.4      0.396      5.980
REMARK SMILES CC1(C)[C@H](O)CC[C@@]2(C)[C@H]3Cc4c(oc(C(=O)NCCCNC(=O)c5ccc(-c6c7nc(c(-c8c(F)cccc8F)c8ccc([nH]8)c(-c8c(F)cccc8F)c8nc(c(-c9c(F)cccc9F)c9ccc6[nH]9)C=C8)C=C7)cc5)cc4=O)O[C@@]3(C)CC[C@@H]12
REMARK SMILES IDX 20 1 19 2 18 3 16 4 17 5 15 7 1 8 2 9 3 10 4 11 87 12 6 13
REMARK SMILES IDX 8 14 86 15 7 16 9 17 10 18 85 19 83 20 11 21 84 22 82 23
REMARK SMILES IDX 12 24 13 25 80 26 14 27 79 28 81 29 5 30 21 32 22 33 23 34
REMARK SMILES IDX 24 36 25 37 26 38 78 39 27 40 77 41 28 42 29 43 30 44 71 45
REMARK SMILES IDX 31 46 76 47 70 48 72 49 32 50 75 51 69 52 68 53 33 55 59 56
REMARK SMILES IDX 42 57 58 58 43 59 46 60 57 61 73 62 44 63 45 64 56 66 74 67
REMARK SMILES IDX 47 68 34 69 35 70 40 71 36 72 37 73 39 74 41 75 38 76 60 77
REMARK SMILES IDX 61 78 66 79 62 80 63 81 65 82 67 83 64 84 48 85 49 86 54 87
REMARK SMILES IDX 50 88 51 89 53 90 55 91 52 92
REMARK H PARENT 18 6 5 31 22 35 72 54 46 65
REMARK Flexibility Score: inf
ROOT
ATOM      1  C   UNL A   1      37.364  19.467  24.984  1.00  0.00     0.042 C 
ENDROOT
BRANCH   1   2
ATOM      2  C   UNL A   1      36.123  20.384  24.939  1.00  0.00     0.118 C 
BRANCH   2   3
ATOM      3  N   UNL A   1      34.834  19.656  24.996  1.00  0.00    -0.349 N 
ATOM      4  C   UNL A   1      33.493  19.977  24.839  1.00  0.00     0.287 C 
ATOM      5  O   UNL A   1      32.693  19.042  24.805  1.00  0.00    -0.266 OA
ATOM      6  H   UNL A   1      34.961  18.700  25.196  1.00  0.00     0.163 HD
BRANCH   4   7
ATOM      7  C   UNL A   1      32.989  21.389  24.709  1.00  0.00     0.199 A 
ATOM      8  C   UNL A   1      31.469  30.481  26.373  1.00  0.00     0.014 C 
ATOM      9  C   UNL A   1      32.481  29.409  25.854  1.00  0.00    -0.006 C 
ATOM     10  C   UNL A   1      33.874  30.095  26.047  1.00  0.00     0.014 C 
ATOM     11  C   UNL A   1      32.499  28.246  27.047  1.00  0.00     0.120 C 
ATOM     12  C   UNL A   1      32.131  28.853  24.067  1.00  0.00     0.004 C 
ATOM     13  C   UNL A   1      31.217  27.485  26.980  1.00  0.00     0.033 C 
ATOM     14  C   UNL A   1      32.297  27.442  24.536  1.00  0.00    -0.022 C 
ATOM     15  C   UNL A   1      31.042  28.327  22.862  1.00  0.00     0.009 C 
ATOM     16  C   UNL A   1      30.951  27.512  25.513  1.00  0.00     0.010 C 
ATOM     17  C   UNL A   1      33.897  27.668  24.370  1.00  0.00     0.012 C 
ATOM     18  C   UNL A   1      32.312  26.024  23.976  1.00  0.00     0.044 C 
ATOM     19  C   UNL A   1      30.920  26.780  22.231  1.00  0.00     0.049 C 
ATOM     20  C   UNL A   1      32.122  25.789  22.496  1.00  0.00     0.113 C 
ATOM     21  C   UNL A   1      31.281  25.138  24.668  1.00  0.00     0.055 C 
ATOM     22  C   UNL A   1      33.211  26.203  21.492  1.00  0.00     0.057 C 
ATOM     23  O   UNL A   1      32.029  24.250  22.285  1.00  0.00    -0.458 OA
ATOM     24  C   UNL A   1      31.896  23.858  24.618  1.00  0.00     0.081 A 
ATOM     25  C   UNL A   1      32.280  23.382  23.441  1.00  0.00     0.292 A 
ATOM     26  C   UNL A   1      32.262  23.304  25.894  1.00  0.00     0.192 A 
ATOM     27  O   UNL A   1      32.944  22.108  23.445  1.00  0.00    -0.420 OA
ATOM     28  C   UNL A   1      32.533  21.916  25.845  1.00  0.00     0.105 A 
ATOM     29  O   UNL A   1      32.342  23.932  26.949  1.00  0.00    -0.289 OA
BRANCH  11  30
ATOM     30  O   UNL A   1      33.585  27.319  26.983  1.00  0.00    -0.393 OA
ATOM     31  H   UNL A   1      34.286  27.601  27.591  1.00  0.00     0.210 HD
ENDBRANCH  11  30
ENDBRANCH   4   7
ENDBRANCH   2   3
ENDBRANCH   1   2
BRANCH   1  32
ATOM     32  C   UNL A   1      38.645  20.166  25.416  1.00  0.00     0.118 C 
BRANCH  32  33
ATOM     33  N   UNL A   1      39.721  19.224  25.683  1.00  0.00    -0.352 N 
ATOM     34  C   UNL A   1      41.009  19.463  26.096  1.00  0.00     0.251 C 
ATOM     35  H   UNL A   1      39.492  18.275  25.550  1.00  0.00     0.163 HD
ATOM     36  O   UNL A   1      41.833  18.555  26.090  1.00  0.00    -0.269 OA
BRANCH  34  37
ATOM     37  C   UNL A   1      41.407  20.815  26.540  1.00  0.00     0.039 A 
ATOM     38  C   UNL A   1      41.321  21.138  27.899  1.00  0.00     0.014 A 
ATOM     39  C   UNL A   1      41.830  21.772  25.614  1.00  0.00     0.014 A 
ATOM     40  C   UNL A   1      41.699  22.408  28.333  1.00  0.00     0.010 A 
ATOM     41  C   UNL A   1      42.268  23.016  26.056  1.00  0.00     0.010 A 
ATOM     42  C   UNL A   1      42.191  23.350  27.416  1.00  0.00    -0.014 A 
BRANCH  42  43
ATOM     43  C   UNL A   1      42.564  24.716  27.849  1.00  0.00     0.031 A 
ATOM     44  C   UNL A   1      44.016  25.087  27.962  1.00  0.00     0.074 A 
ATOM     45  C   UNL A   1      41.608  25.605  28.173  1.00  0.00     0.049 A 
ATOM     46  N   UNL A   1      44.558  26.215  28.339  1.00  0.00    -0.248 NA
ATOM     47  C   UNL A   1      44.988  24.035  27.621  1.00  0.00     0.031 C 
ATOM     48  C   UNL A   1      40.167  25.356  28.120  1.00  0.00     0.029 A 
ATOM     49  N   UNL A   1      41.707  26.899  28.615  1.00  0.00    -0.354 N 
ATOM     50  C   UNL A   1      45.931  26.012  28.273  1.00  0.00     0.074 A 
ATOM     51  C   UNL A   1      46.137  24.630  27.898  1.00  0.00     0.031 C 
ATOM     52  C   UNL A   1      39.516  26.472  28.487  1.00  0.00     0.029 A 
ATOM     53  C   UNL A   1      40.492  27.501  28.832  1.00  0.00     0.049 A 
ATOM     54  H   UNL A   1      42.567  27.353  28.763  1.00  0.00     0.167 HD
ATOM     55  C   UNL A   1      46.932  26.903  28.477  1.00  0.00     0.037 A 
ATOM     56  C   UNL A   1      40.207  28.745  29.260  1.00  0.00     0.037 A 
ATOM     57  C   UNL A   1      46.721  28.270  28.873  1.00  0.00     0.049 A 
ATOM     58  C   UNL A   1      41.339  29.688  29.569  1.00  0.00     0.074 A 
ATOM     59  C   UNL A   1      47.659  29.263  29.090  1.00  0.00     0.029 A 
ATOM     60  N   UNL A   1      45.478  28.833  29.126  1.00  0.00    -0.354 N 
ATOM     61  N   UNL A   1      42.632  29.507  29.441  1.00  0.00    -0.248 NA
ATOM     62  C   UNL A   1      40.966  31.014  30.083  1.00  0.00     0.031 C 
ATOM     63  C   UNL A   1      46.987  30.409  29.531  1.00  0.00     0.029 A 
ATOM     64  C   UNL A   1      45.626  30.149  29.529  1.00  0.00     0.049 A 
ATOM     65  H   UNL A   1      44.616  28.364  29.032  1.00  0.00     0.167 HD
ATOM     66  C   UNL A   1      43.224  30.707  29.818  1.00  0.00     0.074 A 
ATOM     67  C   UNL A   1      42.147  31.610  30.166  1.00  0.00     0.031 C 
ATOM     68  C   UNL A   1      44.540  31.034  29.870  1.00  0.00     0.037 A 
BRANCH  55  69
ATOM     69  C   UNL A   1      48.335  26.400  28.286  1.00  0.00     0.057 A 
ATOM     70  C   UNL A   1      49.011  25.742  29.320  1.00  0.00     0.134 A 
ATOM     71  C   UNL A   1      49.009  26.539  27.063  1.00  0.00     0.134 A 
ATOM     72  F   UNL A   1      48.431  25.580  30.519  1.00  0.00    -0.206 F 
ATOM     73  C   UNL A   1      50.296  25.228  29.142  1.00  0.00     0.040 A 
ATOM     74  C   UNL A   1      50.280  25.998  26.861  1.00  0.00     0.040 A 
ATOM     75  F   UNL A   1      48.415  27.146  26.024  1.00  0.00    -0.206 F 
ATOM     76  C   UNL A   1      50.928  25.341  27.904  1.00  0.00     0.006 A 
ENDBRANCH  55  69
BRANCH  56  77
ATOM     77  C   UNL A   1      38.798  29.194  29.395  1.00  0.00     0.057 A 
ATOM     78  C   UNL A   1      38.064  29.660  28.297  1.00  0.00     0.134 A 
ATOM     79  C   UNL A   1      38.138  29.124  30.628  1.00  0.00     0.134 A 
ATOM     80  F   UNL A   1      38.637  29.757  27.089  1.00  0.00    -0.206 F 
ATOM     81  C   UNL A   1      36.724  30.035  28.422  1.00  0.00     0.040 A 
ATOM     82  C   UNL A   1      36.793  29.470  30.760  1.00  0.00     0.040 A 
ATOM     83  F   UNL A   1      38.783  28.670  31.712  1.00  0.00    -0.206 F 
ATOM     84  C   UNL A   1      36.082  29.929  29.654  1.00  0.00     0.006 A 
ENDBRANCH  56  77
BRANCH  68  85
ATOM     85  C   UNL A   1      44.876  32.441  30.281  1.00  0.00     0.057 A 
ATOM     86  C   UNL A   1      45.115  32.750  31.626  1.00  0.00     0.134 A 
ATOM     87  C   UNL A   1      44.953  33.488  29.353  1.00  0.00     0.134 A 
ATOM     88  F   UNL A   1      45.049  31.797  32.568  1.00  0.00    -0.206 F 
ATOM     89  C   UNL A   1      45.422  34.049  32.034  1.00  0.00     0.040 A 
ATOM     90  C   UNL A   1      45.292  34.785  29.745  1.00  0.00     0.040 A 
ATOM     91  F   UNL A   1      44.749  33.258  28.048  1.00  0.00    -0.206 F 
ATOM     92  C   UNL A   1      45.521  35.069  31.090  1.00  0.00     0.006 A 
ENDBRANCH  68  85
ENDBRANCH  42  43
ENDBRANCH  34  37
ENDBRANCH  32  33
ENDBRANCH   1  32
TORSDOF 11
ENDMDL
MODEL 3
REMARK VINA RESULT:     -13.2      3.830      8.657
REMARK SMILES CC1(C)[C@H](O)CC[C@@]2(C)[C@H]3Cc4c(oc(C(=O)NCCCNC(=O)c5ccc(-c6c7nc(c(-c8c(F)cccc8F)c8ccc([nH]8)c(-c8c(F)cccc8F)c8nc(c(-c9c(F)cccc9F)c9ccc6[nH]9)C=C8)C=C7)cc5)cc4=O)O[C@@]3(C)CC[C@@H]12
REMARK SMILES IDX 20 1 19 2 18 3 16 4 17 5 15 7 1 8 2 9 3 10 4 11 87 12 6 13
REMARK SMILES IDX 8 14 86 15 7 16 9 17 10 18 85 19 83 20 11 21 84 22 82 23
REMARK SMILES IDX 12 24 13 25 80 26 14 27 79 28 81 29 5 30 21 32 22 33 23 34
REMARK SMILES IDX 24 36 25 37 26 38 78 39 27 40 77 41 28 42 29 43 30 44 71 45
REMARK SMILES IDX 31 46 76 47 70 48 72 49 32 50 75 51 69 52 68 53 33 55 59 56
REMARK SMILES IDX 42 57 58 58 43 59 46 60 57 61 73 62 44 63 45 64 56 66 74 67
REMARK SMILES IDX 47 68 34 69 35 70 40 71 36 72 37 73 39 74 41 75 38 76 60 77
REMARK SMILES IDX 61 78 66 79 62 80 63 81 65 82 67 83 64 84 48 85 49 86 54 87
REMARK SMILES IDX 50 88 51 89 53 90 55 91 52 92
REMARK H PARENT 18 6 5 31 22 35 72 54 46 65
REMARK Flexibility Score: inf
ROOT
ATOM      1  C   UNL A   1      31.122  31.594  25.818  1.00  0.00     0.042 C 
ENDROOT
BRANCH   1   2
ATOM      2  C   UNL A   1      31.307  30.166  25.262  1.00  0.00     0.118 C 
BRANCH   2   3
ATOM      3  N   UNL A   1      30.680  29.951  23.936  1.00  0.00    -0.349 N 
ATOM      4  C   UNL A   1      30.457  28.870  23.096  1.00  0.00     0.287 C 
ATOM      5  O   UNL A   1      29.744  29.062  22.112  1.00  0.00    -0.266 OA
ATOM      6  H   UNL A   1      30.335  30.790  23.553  1.00  0.00     0.163 HD
BRANCH   4   7
ATOM      7  C   UNL A   1      31.036  27.501  23.336  1.00  0.00     0.199 A 
ATOM      8  C   UNL A   1      37.162  20.522  24.558  1.00  0.00     0.014 C 
ATOM      9  C   UNL A   1      36.479  21.774  25.196  1.00  0.00    -0.006 C 
ATOM     10  C   UNL A   1      37.489  22.219  26.305  1.00  0.00     0.014 C 
ATOM     11  C   UNL A   1      36.667  22.973  24.054  1.00  0.00     0.120 C 
ATOM     12  C   UNL A   1      34.724  21.421  25.843  1.00  0.00     0.004 C 
ATOM     13  C   UNL A   1      35.741  22.690  22.919  1.00  0.00     0.033 C 
ATOM     14  C   UNL A   1      34.283  22.676  25.159  1.00  0.00    -0.022 C 
ATOM     15  C   UNL A   1      33.169  20.752  25.625  1.00  0.00     0.009 C 
ATOM     16  C   UNL A   1      34.594  22.067  23.641  1.00  0.00     0.010 C 
ATOM     17  C   UNL A   1      34.825  23.475  26.466  1.00  0.00     0.012 C 
ATOM     18  C   UNL A   1      33.034  23.535  24.997  1.00  0.00     0.044 C 
ATOM     19  C   UNL A   1      31.745  21.595  25.363  1.00  0.00     0.049 C 
ATOM     20  C   UNL A   1      31.747  23.143  25.684  1.00  0.00     0.113 C 
ATOM     21  C   UNL A   1      32.671  23.725  23.527  1.00  0.00     0.055 C 
ATOM     22  C   UNL A   1      31.618  23.236  27.213  1.00  0.00     0.057 C 
ATOM     23  O   UNL A   1      30.645  24.125  25.188  1.00  0.00    -0.458 OA
ATOM     24  C   UNL A   1      32.077  25.016  23.523  1.00  0.00     0.081 A 
ATOM     25  C   UNL A   1      31.059  25.248  24.340  1.00  0.00     0.292 A 
ATOM     26  C   UNL A   1      32.803  26.022  22.797  1.00  0.00     0.192 A 
ATOM     27  O   UNL A   1      30.522  26.581  24.340  1.00  0.00    -0.420 OA
ATOM     28  C   UNL A   1      32.030  27.173  22.512  1.00  0.00     0.105 A 
ATOM     29  O   UNL A   1      33.975  25.936  22.435  1.00  0.00    -0.289 OA
BRANCH  11  30
ATOM     30  O   UNL A   1      36.428  24.304  24.518  1.00  0.00    -0.393 OA
ATOM     31  H   UNL A   1      36.194  24.871  23.767  1.00  0.00     0.210 HD
ENDBRANCH  11  30
ENDBRANCH   4   7
ENDBRANCH   2   3
ENDBRANCH   1   2
BRANCH   1  32
ATOM     32  C   UNL A   1      32.107  31.972  26.915  1.00  0.00     0.118 C 
BRANCH  32  33
ATOM     33  N   UNL A   1      32.047  33.388  27.243  1.00  0.00    -0.352 N 
ATOM     34  C   UNL A   1      32.857  34.128  28.069  1.00  0.00     0.251 C 
ATOM     35  H   UNL A   1      31.320  33.890  26.807  1.00  0.00     0.163 HD
ATOM     36  O   UNL A   1      32.541  35.274  28.370  1.00  0.00    -0.269 OA
BRANCH  34  37
ATOM     37  C   UNL A   1      34.104  33.545  28.603  1.00  0.00     0.039 A 
ATOM     38  C   UNL A   1      35.313  33.804  27.946  1.00  0.00     0.014 A 
ATOM     39  C   UNL A   1      34.078  32.715  29.727  1.00  0.00     0.014 A 
ATOM     40  C   UNL A   1      36.500  33.264  28.443  1.00  0.00     0.010 A 
ATOM     41  C   UNL A   1      35.269  32.232  30.259  1.00  0.00     0.010 A 
ATOM     42  C   UNL A   1      36.487  32.488  29.613  1.00  0.00    -0.014 A 
BRANCH  42  43
ATOM     43  C   UNL A   1      37.729  31.875  30.137  1.00  0.00     0.031 A 
ATOM     44  C   UNL A   1      38.420  32.497  31.318  1.00  0.00     0.074 A 
ATOM     45  C   UNL A   1      38.251  30.792  29.535  1.00  0.00     0.049 A 
ATOM     46  N   UNL A   1      39.523  32.135  31.920  1.00  0.00    -0.248 NA
ATOM     47  C   UNL A   1      37.791  33.702  31.884  1.00  0.00     0.031 C 
ATOM     48  C   UNL A   1      37.681  30.111  28.373  1.00  0.00     0.029 A 
ATOM     49  N   UNL A   1      39.385  30.075  29.820  1.00  0.00    -0.354 N 
ATOM     50  C   UNL A   1      39.714  33.061  32.938  1.00  0.00     0.074 A 
ATOM     51  C   UNL A   1      38.660  34.044  32.821  1.00  0.00     0.031 C 
ATOM     52  C   UNL A   1      38.453  29.056  28.061  1.00  0.00     0.029 A 
ATOM     53  C   UNL A   1      39.587  29.009  28.979  1.00  0.00     0.049 A 
ATOM     54  H   UNL A   1      39.996  30.303  30.558  1.00  0.00     0.167 HD
ATOM     55  C   UNL A   1      40.666  33.075  33.904  1.00  0.00     0.037 A 
ATOM     56  C   UNL A   1      40.578  28.098  28.959  1.00  0.00     0.037 A 
ATOM     57  C   UNL A   1      41.726  32.107  34.001  1.00  0.00     0.049 A 
ATOM     58  C   UNL A   1      41.675  28.190  29.987  1.00  0.00     0.074 A 
ATOM     59  C   UNL A   1      42.731  32.016  34.947  1.00  0.00     0.029 A 
ATOM     60  N   UNL A   1      41.924  31.066  33.105  1.00  0.00    -0.354 N 
ATOM     61  N   UNL A   1      41.812  29.030  30.985  1.00  0.00    -0.248 NA
ATOM     62  C   UNL A   1      42.757  27.200  29.882  1.00  0.00     0.031 C 
ATOM     63  C   UNL A   1      43.571  30.955  34.589  1.00  0.00     0.029 A 
ATOM     64  C   UNL A   1      43.054  30.347  33.457  1.00  0.00     0.049 A 
ATOM     65  H   UNL A   1      41.345  30.867  32.333  1.00  0.00     0.167 HD
ATOM     66  C   UNL A   1      42.971  28.645  31.650  1.00  0.00     0.074 A 
ATOM     67  C   UNL A   1      43.488  27.489  30.948  1.00  0.00     0.031 C 
ATOM     68  C   UNL A   1      43.554  29.196  32.745  1.00  0.00     0.037 A 
BRANCH  55  69
ATOM     69  C   UNL A   1      40.592  34.189  34.910  1.00  0.00     0.057 A 
ATOM     70  C   UNL A   1      41.188  35.430  34.654  1.00  0.00     0.134 A 
ATOM     71  C   UNL A   1      39.901  34.045  36.122  1.00  0.00     0.134 A 
ATOM     72  F   UNL A   1      41.872  35.638  33.519  1.00  0.00    -0.206 F 
ATOM     73  C   UNL A   1      41.087  36.489  35.558  1.00  0.00     0.040 A 
ATOM     74  C   UNL A   1      39.763  35.107  37.018  1.00  0.00     0.040 A 
ATOM     75  F   UNL A   1      39.293  32.887  36.425  1.00  0.00    -0.206 F 
ATOM     76  C   UNL A   1      40.359  36.334  36.737  1.00  0.00     0.006 A 
ENDBRANCH  55  69
BRANCH  56  77
ATOM     77  C   UNL A   1      40.575  26.998  27.962  1.00  0.00     0.057 A 
ATOM     78  C   UNL A   1      41.282  27.092  26.757  1.00  0.00     0.134 A 
ATOM     79  C   UNL A   1      39.894  25.801  28.217  1.00  0.00     0.134 A 
ATOM     80  F   UNL A   1      41.951  28.213  26.447  1.00  0.00    -0.206 F 
ATOM     81  C   UNL A   1      41.314  26.035  25.845  1.00  0.00     0.040 A 
ATOM     82  C   UNL A   1      39.941  24.728  27.328  1.00  0.00     0.040 A 
ATOM     83  F   UNL A   1      39.214  25.644  29.362  1.00  0.00    -0.206 F 
ATOM     84  C   UNL A   1      40.652  24.844  26.135  1.00  0.00     0.006 A 
ENDBRANCH  56  77
BRANCH  68  85
ATOM     85  C   UNL A   1      44.793  28.524  33.267  1.00  0.00     0.057 A 
ATOM     86  C   UNL A   1      46.060  28.929  32.826  1.00  0.00     0.134 A 
ATOM     87  C   UNL A   1      44.736  27.476  34.194  1.00  0.00     0.134 A 
ATOM     88  F   UNL A   1      46.186  29.921  31.932  1.00  0.00    -0.206 F 
ATOM     89  C   UNL A   1      47.225  28.317  33.290  1.00  0.00     0.040 A 
ATOM     90  C   UNL A   1      45.897  26.878  34.691  1.00  0.00     0.040 A 
ATOM     91  F   UNL A   1      43.556  27.050  34.669  1.00  0.00    -0.206 F 
ATOM     92  C   UNL A   1      47.145  27.295  34.233  1.00  0.00     0.006 A 
ENDBRANCH  68  85
ENDBRANCH  42  43
ENDBRANCH  34  37
ENDBRANCH  32  33
ENDBRANCH   1  32
TORSDOF 11
ENDMDL
