MODEL 1
REMARK VINA RESULT:     -11.0      0.000      0.000
REMARK SMILES Cc1ccccc1[C@@H](C)NS(=O)(=O)CC(=O)NCCCNC(=O)c1ccc(-c2c3nc(c(-c4c(F)cccc4F)c4ccc([nH]4)c(-c4c(F)cccc4F)c4nc(c(-c5c(F)cccc5F)c5ccc2[nH]5)C=C4)C=C3)cc1
REMARK SMILES IDX 18 1 17 2 15 3 16 4 14 6 11 7 12 8 13 9 10 10 8 12 9 13 7 14
REMARK SMILES IDX 1 15 2 16 3 17 4 18 6 19 5 20 19 21 20 22 21 23 22 24 23 26
REMARK SMILES IDX 24 27 25 28 77 29 26 30 76 31 27 32 28 33 29 34 70 35 30 36
REMARK SMILES IDX 75 37 69 38 71 39 31 40 74 41 68 42 67 43 32 45 58 46 41 47
REMARK SMILES IDX 57 48 42 49 45 50 56 51 72 52 43 53 44 54 55 56 73 57 46 58
REMARK SMILES IDX 33 59 34 60 39 61 35 62 36 63 38 64 40 65 37 66 59 67 60 68
REMARK SMILES IDX 65 69 61 70 62 71 64 72 66 73 63 74 47 75 48 76 53 77 49 78
REMARK SMILES IDX 50 79 52 80 54 81 51 82
REMARK H PARENT 17 5 10 11 21 25 71 44 45 55
REMARK Flexibility Score: inf
ROOT
ATOM      1  C   UNL A   1      37.994  23.497  25.955  1.00  0.00     0.117 C 
ENDROOT
BRANCH   1   2
ATOM      2  N   UNL A   1      37.572  23.607  24.565  1.00  0.00    -0.355 N 
ATOM      3  C   UNL A   1      36.574  22.926  23.924  1.00  0.00     0.236 C 
ATOM      4  O   UNL A   1      36.518  23.012  22.696  1.00  0.00    -0.274 OA
ATOM      5  H   UNL A   1      38.070  24.255  24.016  1.00  0.00     0.163 HD
BRANCH   3   6
ATOM      6  C   UNL A   1      35.509  22.218  24.698  1.00  0.00     0.253 C 
BRANCH   6   7
ATOM      7  S   UNL A   1      34.200  23.263  25.278  1.00  0.00     0.221 S 
ATOM      8  O   UNL A   1      34.367  23.423  26.696  1.00  0.00    -0.212 OA
ATOM      9  O   UNL A   1      32.930  22.758  24.785  1.00  0.00    -0.212 OA
BRANCH   7  10
ATOM     10  N   UNL A   1      34.413  24.730  24.534  1.00  0.00    -0.208 NA
ATOM     11  H   UNL A   1      35.062  25.255  25.121  1.00  0.00     0.141 HD
BRANCH  10  12
ATOM     12  C   UNL A   1      33.287  25.633  24.257  1.00  0.00     0.096 C 
ATOM     13  C   UNL A   1      33.593  26.570  23.084  1.00  0.00     0.031 C 
BRANCH  12  14
ATOM     14  C   UNL A   1      32.927  26.487  25.476  1.00  0.00    -0.027 A 
ATOM     15  C   UNL A   1      30.538  25.530  25.691  1.00  0.00     0.044 C 
ATOM     16  C   UNL A   1      31.646  26.475  26.073  1.00  0.00    -0.046 A 
ATOM     17  C   UNL A   1      31.336  27.442  27.050  1.00  0.00     0.004 A 
ATOM     18  C   UNL A   1      32.279  28.375  27.475  1.00  0.00     0.000 A 
ATOM     19  C   UNL A   1      33.882  27.412  25.959  1.00  0.00     0.005 A 
ATOM     20  C   UNL A   1      33.560  28.346  26.944  1.00  0.00     0.000 A 
ENDBRANCH  12  14
ENDBRANCH  10  12
ENDBRANCH   7  10
ENDBRANCH   6   7
ENDBRANCH   3   6
ENDBRANCH   1   2
BRANCH   1  21
ATOM     21  C   UNL A   1      38.799  22.225  26.169  1.00  0.00     0.042 C 
BRANCH  21  22
ATOM     22  C   UNL A   1      40.286  22.441  26.304  1.00  0.00     0.118 C 
BRANCH  22  23
ATOM     23  N   UNL A   1      41.101  21.333  25.832  1.00  0.00    -0.352 N 
ATOM     24  C   UNL A   1      42.469  21.148  25.910  1.00  0.00     0.251 C 
ATOM     25  H   UNL A   1      40.604  20.605  25.393  1.00  0.00     0.163 HD
ATOM     26  O   UNL A   1      42.971  20.160  25.379  1.00  0.00    -0.269 OA
BRANCH  24  27
ATOM     27  C   UNL A   1      43.297  22.007  26.801  1.00  0.00     0.039 A 
ATOM     28  C   UNL A   1      43.024  21.899  28.169  1.00  0.00     0.014 A 
ATOM     29  C   UNL A   1      43.927  23.139  26.309  1.00  0.00     0.014 A 
ATOM     30  C   UNL A   1      43.018  23.048  28.943  1.00  0.00     0.010 A 
ATOM     31  C   UNL A   1      43.751  24.306  27.000  1.00  0.00     0.010 A 
ATOM     32  C   UNL A   1      43.232  24.255  28.292  1.00  0.00    -0.014 A 
BRANCH  32  33
ATOM     33  C   UNL A   1      43.030  25.550  28.892  1.00  0.00     0.031 A 
ATOM     34  C   UNL A   1      41.830  26.279  28.475  1.00  0.00     0.074 A 
ATOM     35  C   UNL A   1      43.841  25.927  29.902  1.00  0.00     0.049 A 
ATOM     36  N   UNL A   1      41.699  27.552  28.519  1.00  0.00    -0.248 NA
ATOM     37  C   UNL A   1      40.673  25.600  27.896  1.00  0.00     0.031 C 
ATOM     38  C   UNL A   1      43.675  27.028  30.840  1.00  0.00     0.029 A 
ATOM     39  N   UNL A   1      45.130  25.447  30.161  1.00  0.00    -0.354 N 
ATOM     40  C   UNL A   1      40.363  27.827  28.312  1.00  0.00     0.074 A 
ATOM     41  C   UNL A   1      39.805  26.607  27.793  1.00  0.00     0.031 C 
ATOM     42  C   UNL A   1      44.879  27.348  31.347  1.00  0.00     0.029 A 
ATOM     43  C   UNL A   1      45.869  26.549  30.640  1.00  0.00     0.049 A 
ATOM     44  H   UNL A   1      45.455  24.525  30.035  1.00  0.00     0.167 HD
ATOM     45  C   UNL A   1      39.875  29.006  28.790  1.00  0.00     0.037 A 
ATOM     46  C   UNL A   1      46.890  27.055  29.884  1.00  0.00     0.037 A 
ATOM     47  C   UNL A   1      40.974  29.788  29.367  1.00  0.00     0.049 A 
ATOM     48  C   UNL A   1      46.591  28.453  29.387  1.00  0.00     0.074 A 
ATOM     49  C   UNL A   1      41.430  29.915  30.670  1.00  0.00     0.029 A 
ATOM     50  N   UNL A   1      42.005  30.226  28.544  1.00  0.00    -0.354 N 
ATOM     51  N   UNL A   1      45.385  28.934  29.248  1.00  0.00    -0.248 NA
ATOM     52  C   UNL A   1      47.625  29.429  29.059  1.00  0.00     0.031 C 
ATOM     53  C   UNL A   1      42.775  30.363  30.618  1.00  0.00     0.029 A 
ATOM     54  C   UNL A   1      43.128  30.530  29.288  1.00  0.00     0.049 A 
ATOM     55  H   UNL A   1      41.943  30.307  27.564  1.00  0.00     0.167 HD
ATOM     56  C   UNL A   1      45.457  30.244  28.846  1.00  0.00     0.074 A 
ATOM     57  C   UNL A   1      46.882  30.505  28.747  1.00  0.00     0.031 C 
ATOM     58  C   UNL A   1      44.343  31.011  28.643  1.00  0.00     0.037 A 
BRANCH  45  59
ATOM     59  C   UNL A   1      38.412  29.313  29.040  1.00  0.00     0.057 A 
ATOM     60  C   UNL A   1      37.608  29.813  27.994  1.00  0.00     0.134 A 
ATOM     61  C   UNL A   1      37.736  29.194  30.268  1.00  0.00     0.134 A 
ATOM     62  F   UNL A   1      38.066  29.912  26.739  1.00  0.00    -0.206 F 
ATOM     63  C   UNL A   1      36.285  30.238  28.176  1.00  0.00     0.040 A 
ATOM     64  C   UNL A   1      36.423  29.649  30.473  1.00  0.00     0.040 A 
ATOM     65  F   UNL A   1      38.276  28.584  31.325  1.00  0.00    -0.206 F 
ATOM     66  C   UNL A   1      35.693  30.181  29.425  1.00  0.00     0.006 A 
ENDBRANCH  45  59
BRANCH  46  67
ATOM     67  C   UNL A   1      47.608  25.980  29.135  1.00  0.00     0.057 A 
ATOM     68  C   UNL A   1      47.341  25.865  27.756  1.00  0.00     0.134 A 
ATOM     69  C   UNL A   1      48.824  25.459  29.588  1.00  0.00     0.134 A 
ATOM     70  F   UNL A   1      46.181  26.321  27.256  1.00  0.00    -0.206 F 
ATOM     71  C   UNL A   1      48.312  25.435  26.846  1.00  0.00     0.040 A 
ATOM     72  C   UNL A   1      49.792  24.996  28.685  1.00  0.00     0.040 A 
ATOM     73  F   UNL A   1      49.153  25.518  30.886  1.00  0.00    -0.206 F 
ATOM     74  C   UNL A   1      49.563  25.046  27.310  1.00  0.00     0.006 A 
ENDBRANCH  46  67
BRANCH  58  75
ATOM     75  C   UNL A   1      44.292  32.336  27.909  1.00  0.00     0.057 A 
ATOM     76  C   UNL A   1      43.898  33.548  28.491  1.00  0.00     0.134 A 
ATOM     77  C   UNL A   1      44.806  32.452  26.593  1.00  0.00     0.134 A 
ATOM     78  F   UNL A   1      43.517  33.628  29.772  1.00  0.00    -0.206 F 
ATOM     79  C   UNL A   1      43.934  34.765  27.797  1.00  0.00     0.040 A 
ATOM     80  C   UNL A   1      44.918  33.672  25.921  1.00  0.00     0.040 A 
ATOM     81  F   UNL A   1      45.253  31.393  25.904  1.00  0.00    -0.206 F 
ATOM     82  C   UNL A   1      44.459  34.834  26.513  1.00  0.00     0.006 A 
ENDBRANCH  58  75
ENDBRANCH  32  33
ENDBRANCH  24  27
ENDBRANCH  22  23
ENDBRANCH  21  22
ENDBRANCH   1  21
TORSDOF 14
ENDMDL
MODEL 2
REMARK VINA RESULT:     -10.8      3.329      8.344
REMARK SMILES Cc1ccccc1[C@@H](C)NS(=O)(=O)CC(=O)NCCCNC(=O)c1ccc(-c2c3nc(c(-c4c(F)cccc4F)c4ccc([nH]4)c(-c4c(F)cccc4F)c4nc(c(-c5c(F)cccc5F)c5ccc2[nH]5)C=C4)C=C3)cc1
REMARK SMILES IDX 18 1 17 2 15 3 16 4 14 6 11 7 12 8 13 9 10 10 8 12 9 13 7 14
REMARK SMILES IDX 1 15 2 16 3 17 4 18 6 19 5 20 19 21 20 22 21 23 22 24 23 26
REMARK SMILES IDX 24 27 25 28 77 29 26 30 76 31 27 32 28 33 29 34 70 35 30 36
REMARK SMILES IDX 75 37 69 38 71 39 31 40 74 41 68 42 67 43 32 45 58 46 41 47
REMARK SMILES IDX 57 48 42 49 45 50 56 51 72 52 43 53 44 54 55 56 73 57 46 58
REMARK SMILES IDX 33 59 34 60 39 61 35 62 36 63 38 64 40 65 37 66 59 67 60 68
REMARK SMILES IDX 65 69 61 70 62 71 64 72 66 73 63 74 47 75 48 76 53 77 49 78
REMARK SMILES IDX 50 79 52 80 54 81 51 82
REMARK H PARENT 17 5 10 11 21 25 71 44 45 55
REMARK Flexibility Score: inf
ROOT
ATOM      1  C   UNL A   1      32.336  30.634  26.795  1.00  0.00     0.117 C 
ENDROOT
BRANCH   1   2
ATOM      2  N   UNL A   1      32.257  29.316  27.408  1.00  0.00    -0.355 N 
ATOM      3  C   UNL A   1      31.798  28.149  26.860  1.00  0.00     0.236 C 
ATOM      4  O   UNL A   1      31.618  27.192  27.616  1.00  0.00    -0.274 OA
ATOM      5  H   UNL A   1      32.576  29.256  28.338  1.00  0.00     0.163 HD
BRANCH   3   6
ATOM      6  C   UNL A   1      31.652  28.003  25.381  1.00  0.00     0.253 C 
BRANCH   6   7
ATOM      7  S   UNL A   1      33.139  27.536  24.536  1.00  0.00     0.221 S 
ATOM      8  O   UNL A   1      34.025  28.667  24.556  1.00  0.00    -0.212 OA
ATOM      9  O   UNL A   1      32.796  26.952  23.249  1.00  0.00    -0.212 OA
BRANCH   7  10
ATOM     10  N   UNL A   1      33.808  26.302  25.420  1.00  0.00    -0.208 NA
ATOM     11  H   UNL A   1      34.817  26.446  25.391  1.00  0.00     0.141 HD
BRANCH  10  12
ATOM     12  C   UNL A   1      33.584  24.890  25.078  1.00  0.00     0.096 C 
ATOM     13  C   UNL A   1      32.896  24.137  26.222  1.00  0.00     0.031 C 
BRANCH  12  14
ATOM     14  C   UNL A   1      34.893  24.170  24.745  1.00  0.00    -0.027 A 
ATOM     15  C   UNL A   1      33.928  22.944  22.687  1.00  0.00     0.044 C 
ATOM     16  C   UNL A   1      35.011  23.234  23.692  1.00  0.00    -0.046 A 
ATOM     17  C   UNL A   1      36.185  22.462  23.589  1.00  0.00     0.004 A 
ATOM     18  C   UNL A   1      37.250  22.636  24.470  1.00  0.00     0.000 A 
ATOM     19  C   UNL A   1      36.007  24.363  25.596  1.00  0.00     0.005 A 
ATOM     20  C   UNL A   1      37.169  23.603  25.461  1.00  0.00     0.000 A 
ENDBRANCH  12  14
ENDBRANCH  10  12
ENDBRANCH   7  10
ENDBRANCH   6   7
ENDBRANCH   3   6
ENDBRANCH   1   2
BRANCH   1  21
ATOM     21  C   UNL A   1      33.732  31.214  26.955  1.00  0.00     0.042 C 
BRANCH  21  22
ATOM     22  C   UNL A   1      34.490  30.697  28.153  1.00  0.00     0.118 C 
BRANCH  22  23
ATOM     23  N   UNL A   1      35.601  31.537  28.570  1.00  0.00    -0.352 N 
ATOM     24  C   UNL A   1      36.886  31.182  28.940  1.00  0.00     0.251 C 
ATOM     25  H   UNL A   1      35.412  32.503  28.591  1.00  0.00     0.163 HD
ATOM     26  O   UNL A   1      37.660  32.054  29.330  1.00  0.00    -0.269 OA
BRANCH  24  27
ATOM     27  C   UNL A   1      37.397  29.811  28.669  1.00  0.00     0.039 A 
ATOM     28  C   UNL A   1      37.476  28.963  29.780  1.00  0.00     0.014 A 
ATOM     29  C   UNL A   1      38.164  29.549  27.544  1.00  0.00     0.014 A 
ATOM     30  C   UNL A   1      38.574  28.128  29.908  1.00  0.00     0.010 A 
ATOM     31  C   UNL A   1      39.341  28.876  27.730  1.00  0.00     0.010 A 
ATOM     32  C   UNL A   1      39.565  28.226  28.941  1.00  0.00    -0.014 A 
BRANCH  32  33
ATOM     33  C   UNL A   1      40.865  27.611  29.042  1.00  0.00     0.031 A 
ATOM     34  C   UNL A   1      40.939  26.189  28.698  1.00  0.00     0.074 A 
ATOM     35  C   UNL A   1      41.936  28.400  29.268  1.00  0.00     0.049 A 
ATOM     36  N   UNL A   1      41.832  25.381  29.132  1.00  0.00    -0.248 NA
ATOM     37  C   UNL A   1      39.933  25.541  27.861  1.00  0.00     0.031 C 
ATOM     38  C   UNL A   1      43.348  28.077  29.132  1.00  0.00     0.029 A 
ATOM     39  N   UNL A   1      41.928  29.665  29.867  1.00  0.00    -0.354 N 
ATOM     40  C   UNL A   1      41.731  24.228  28.382  1.00  0.00     0.074 A 
ATOM     41  C   UNL A   1      40.459  24.324  27.716  1.00  0.00     0.031 C 
ATOM     42  C   UNL A   1      44.061  28.934  29.886  1.00  0.00     0.029 A 
ATOM     43  C   UNL A   1      43.109  29.741  30.636  1.00  0.00     0.049 A 
ATOM     44  H   UNL A   1      41.238  30.362  29.772  1.00  0.00     0.167 HD
ATOM     45  C   UNL A   1      42.834  23.433  28.285  1.00  0.00     0.037 A 
ATOM     46  C   UNL A   1      43.024  29.787  32.000  1.00  0.00     0.037 A 
ATOM     47  C   UNL A   1      43.902  23.981  29.126  1.00  0.00     0.049 A 
ATOM     48  C   UNL A   1      43.597  28.547  32.648  1.00  0.00     0.074 A 
ATOM     49  C   UNL A   1      44.974  24.810  28.832  1.00  0.00     0.029 A 
ATOM     50  N   UNL A   1      43.723  24.044  30.503  1.00  0.00    -0.354 N 
ATOM     51  N   UNL A   1      43.700  27.391  32.048  1.00  0.00    -0.248 NA
ATOM     52  C   UNL A   1      44.144  28.525  34.001  1.00  0.00     0.031 C 
ATOM     53  C   UNL A   1      45.389  25.431  30.038  1.00  0.00     0.029 A 
ATOM     54  C   UNL A   1      44.586  24.964  31.067  1.00  0.00     0.049 A 
ATOM     55  H   UNL A   1      43.069  23.506  31.008  1.00  0.00     0.167 HD
ATOM     56  C   UNL A   1      44.321  26.494  32.879  1.00  0.00     0.074 A 
ATOM     57  C   UNL A   1      44.581  27.256  34.088  1.00  0.00     0.031 C 
ATOM     58  C   UNL A   1      44.584  25.206  32.503  1.00  0.00     0.037 A 
BRANCH  45  59
ATOM     59  C   UNL A   1      43.068  22.385  27.216  1.00  0.00     0.057 A 
ATOM     60  C   UNL A   1      42.302  21.199  27.211  1.00  0.00     0.134 A 
ATOM     61  C   UNL A   1      44.040  22.436  26.201  1.00  0.00     0.134 A 
ATOM     62  F   UNL A   1      41.278  21.018  28.056  1.00  0.00    -0.206 F 
ATOM     63  C   UNL A   1      42.543  20.131  26.337  1.00  0.00     0.040 A 
ATOM     64  C   UNL A   1      44.316  21.360  25.342  1.00  0.00     0.040 A 
ATOM     65  F   UNL A   1      44.742  23.540  25.938  1.00  0.00    -0.206 F 
ATOM     66  C   UNL A   1      43.570  20.196  25.412  1.00  0.00     0.006 A 
ENDBRANCH  45  59
BRANCH  46  67
ATOM     67  C   UNL A   1      41.823  30.553  32.451  1.00  0.00     0.057 A 
ATOM     68  C   UNL A   1      40.731  29.810  32.944  1.00  0.00     0.134 A 
ATOM     69  C   UNL A   1      41.917  31.886  32.865  1.00  0.00     0.134 A 
ATOM     70  F   UNL A   1      40.564  28.532  32.567  1.00  0.00    -0.206 F 
ATOM     71  C   UNL A   1      39.890  30.304  33.946  1.00  0.00     0.040 A 
ATOM     72  C   UNL A   1      41.058  32.399  33.847  1.00  0.00     0.040 A 
ATOM     73  F   UNL A   1      42.919  32.666  32.437  1.00  0.00    -0.206 F 
ATOM     74  C   UNL A   1      40.087  31.589  34.437  1.00  0.00     0.006 A 
ENDBRANCH  46  67
BRANCH  58  75
ATOM     75  C   UNL A   1      44.963  24.066  33.427  1.00  0.00     0.057 A 
ATOM     76  C   UNL A   1      44.091  23.044  33.824  1.00  0.00     0.134 A 
ATOM     77  C   UNL A   1      46.310  23.880  33.829  1.00  0.00     0.134 A 
ATOM     78  F   UNL A   1      42.817  23.002  33.413  1.00  0.00    -0.206 F 
ATOM     79  C   UNL A   1      44.501  21.968  34.621  1.00  0.00     0.040 A 
ATOM     80  C   UNL A   1      46.745  22.771  34.558  1.00  0.00     0.040 A 
ATOM     81  F   UNL A   1      47.278  24.750  33.507  1.00  0.00    -0.206 F 
ATOM     82  C   UNL A   1      45.835  21.820  34.979  1.00  0.00     0.006 A 
ENDBRANCH  58  75
ENDBRANCH  32  33
ENDBRANCH  24  27
ENDBRANCH  22  23
ENDBRANCH  21  22
ENDBRANCH   1  21
TORSDOF 14
ENDMDL
MODEL 3
REMARK VINA RESULT:     -10.8      3.992      8.930
REMARK SMILES Cc1ccccc1[C@@H](C)NS(=O)(=O)CC(=O)NCCCNC(=O)c1ccc(-c2c3nc(c(-c4c(F)cccc4F)c4ccc([nH]4)c(-c4c(F)cccc4F)c4nc(c(-c5c(F)cccc5F)c5ccc2[nH]5)C=C4)C=C3)cc1
REMARK SMILES IDX 18 1 17 2 15 3 16 4 14 6 11 7 12 8 13 9 10 10 8 12 9 13 7 14
REMARK SMILES IDX 1 15 2 16 3 17 4 18 6 19 5 20 19 21 20 22 21 23 22 24 23 26
REMARK SMILES IDX 24 27 25 28 77 29 26 30 76 31 27 32 28 33 29 34 70 35 30 36
REMARK SMILES IDX 75 37 69 38 71 39 31 40 74 41 68 42 67 43 32 45 58 46 41 47
REMARK SMILES IDX 57 48 42 49 45 50 56 51 72 52 43 53 44 54 55 56 73 57 46 58
REMARK SMILES IDX 33 59 34 60 39 61 35 62 36 63 38 64 40 65 37 66 59 67 60 68
REMARK SMILES IDX 65 69 61 70 62 71 64 72 66 73 63 74 47 75 48 76 53 77 49 78
REMARK SMILES IDX 50 79 52 80 54 81 51 82
REMARK H PARENT 17 5 10 11 21 25 71 44 45 55
REMARK Flexibility Score: inf
ROOT
ATOM      1  C   UNL A   1      34.132  29.590  26.968  1.00  0.00     0.117 C 
ENDROOT
BRANCH   1   2
ATOM      2  N   UNL A   1      33.154  28.730  27.620  1.00  0.00    -0.355 N 
ATOM      3  C   UNL A   1      31.953  28.290  27.135  1.00  0.00     0.236 C 
ATOM      4  O   UNL A   1      31.180  27.745  27.926  1.00  0.00    -0.274 OA
ATOM      5  H   UNL A   1      33.388  28.427  28.527  1.00  0.00     0.163 HD
BRANCH   3   6
ATOM      6  C   UNL A   1      31.650  28.344  25.673  1.00  0.00     0.253 C 
BRANCH   6   7
ATOM      7  S   UNL A   1      32.437  27.080  24.710  1.00  0.00     0.221 S 
ATOM      8  O   UNL A   1      33.561  27.678  24.042  1.00  0.00    -0.212 OA
ATOM      9  O   UNL A   1      31.437  26.400  23.903  1.00  0.00    -0.212 OA
BRANCH   7  10
ATOM     10  N   UNL A   1      32.984  25.946  25.789  1.00  0.00    -0.208 NA
ATOM     11  H   UNL A   1      33.938  26.217  26.028  1.00  0.00     0.141 HD
BRANCH  10  12
ATOM     12  C   UNL A   1      33.034  24.515  25.456  1.00  0.00     0.096 C 
ATOM     13  C   UNL A   1      32.760  23.642  26.685  1.00  0.00     0.031 C 
BRANCH  12  14
ATOM     14  C   UNL A   1      34.391  24.113  24.871  1.00  0.00    -0.027 A 
ATOM     15  C   UNL A   1      33.428  23.454  22.567  1.00  0.00     0.044 C 
ATOM     16  C   UNL A   1      34.540  23.567  23.576  1.00  0.00    -0.046 A 
ATOM     17  C   UNL A   1      35.786  23.028  23.198  1.00  0.00     0.004 A 
ATOM     18  C   UNL A   1      36.885  23.067  24.054  1.00  0.00     0.000 A 
ATOM     19  C   UNL A   1      35.533  24.185  25.703  1.00  0.00     0.005 A 
ATOM     20  C   UNL A   1      36.764  23.666  25.299  1.00  0.00     0.000 A 
ENDBRANCH  12  14
ENDBRANCH  10  12
ENDBRANCH   7  10
ENDBRANCH   6   7
ENDBRANCH   3   6
ENDBRANCH   1   2
BRANCH   1  21
ATOM     21  C   UNL A   1      35.308  29.858  27.894  1.00  0.00     0.042 C 
BRANCH  21  22
ATOM     22  C   UNL A   1      35.755  31.299  27.935  1.00  0.00     0.118 C 
BRANCH  22  23
ATOM     23  N   UNL A   1      34.747  32.228  28.418  1.00  0.00    -0.352 N 
ATOM     24  C   UNL A   1      34.739  33.007  29.561  1.00  0.00     0.251 C 
ATOM     25  H   UNL A   1      33.950  32.317  27.846  1.00  0.00     0.163 HD
ATOM     26  O   UNL A   1      33.745  33.680  29.821  1.00  0.00    -0.269 OA
BRANCH  24  27
ATOM     27  C   UNL A   1      35.987  33.201  30.349  1.00  0.00     0.039 A 
ATOM     28  C   UNL A   1      37.016  33.890  29.694  1.00  0.00     0.014 A 
ATOM     29  C   UNL A   1      36.283  32.377  31.425  1.00  0.00     0.014 A 
ATOM     30  C   UNL A   1      38.321  33.454  29.855  1.00  0.00     0.010 A 
ATOM     31  C   UNL A   1      37.528  31.812  31.459  1.00  0.00     0.010 A 
ATOM     32  C   UNL A   1      38.522  32.314  30.621  1.00  0.00    -0.014 A 
BRANCH  32  33
ATOM     33  C   UNL A   1      39.769  31.595  30.701  1.00  0.00     0.031 A 
ATOM     34  C   UNL A   1      39.860  30.363  29.914  1.00  0.00     0.074 A 
ATOM     35  C   UNL A   1      40.809  32.175  31.335  1.00  0.00     0.049 A 
ATOM     36  N   UNL A   1      40.645  29.387  30.178  1.00  0.00    -0.248 NA
ATOM     37  C   UNL A   1      38.990  30.109  28.768  1.00  0.00     0.031 C 
ATOM     38  C   UNL A   1      42.215  31.799  31.310  1.00  0.00     0.029 A 
ATOM     39  N   UNL A   1      40.737  33.171  32.317  1.00  0.00    -0.354 N 
ATOM     40  C   UNL A   1      40.637  28.555  29.078  1.00  0.00     0.074 A 
ATOM     41  C   UNL A   1      39.498  28.968  28.302  1.00  0.00     0.031 C 
ATOM     42  C   UNL A   1      42.815  32.300  32.405  1.00  0.00     0.029 A 
ATOM     43  C   UNL A   1      41.775  32.893  33.232  1.00  0.00     0.049 A 
ATOM     44  H   UNL A   1      40.093  33.915  32.360  1.00  0.00     0.167 HD
ATOM     45  C   UNL A   1      41.718  27.747  28.883  1.00  0.00     0.037 A 
ATOM     46  C   UNL A   1      41.464  32.497  34.504  1.00  0.00     0.037 A 
ATOM     47  C   UNL A   1      42.646  27.900  30.009  1.00  0.00     0.049 A 
ATOM     48  C   UNL A   1      41.885  31.070  34.774  1.00  0.00     0.074 A 
ATOM     49  C   UNL A   1      43.774  28.688  30.172  1.00  0.00     0.029 A 
ATOM     50  N   UNL A   1      42.240  27.523  31.284  1.00  0.00    -0.354 N 
ATOM     51  N   UNL A   1      42.054  30.170  33.843  1.00  0.00    -0.248 NA
ATOM     52  C   UNL A   1      42.196  30.561  36.106  1.00  0.00     0.031 C 
ATOM     53  C   UNL A   1      43.999  28.843  31.565  1.00  0.00     0.029 A 
ATOM     54  C   UNL A   1      43.023  28.133  32.245  1.00  0.00     0.049 A 
ATOM     55  H   UNL A   1      41.497  26.906  31.475  1.00  0.00     0.167 HD
ATOM     56  C   UNL A   1      42.502  29.003  34.406  1.00  0.00     0.074 A 
ATOM     57  C   UNL A   1      42.577  29.303  35.825  1.00  0.00     0.031 C 
ATOM     58  C   UNL A   1      42.787  27.891  33.662  1.00  0.00     0.037 A 
BRANCH  45  59
ATOM     59  C   UNL A   1      42.098  27.091  27.572  1.00  0.00     0.057 A 
ATOM     60  C   UNL A   1      42.218  25.687  27.494  1.00  0.00     0.134 A 
ATOM     61  C   UNL A   1      42.405  27.753  26.369  1.00  0.00     0.134 A 
ATOM     62  F   UNL A   1      41.885  24.893  28.521  1.00  0.00    -0.206 F 
ATOM     63  C   UNL A   1      42.687  25.016  26.357  1.00  0.00     0.040 A 
ATOM     64  C   UNL A   1      42.909  27.098  25.234  1.00  0.00     0.040 A 
ATOM     65  F   UNL A   1      42.186  29.058  26.196  1.00  0.00    -0.206 F 
ATOM     66  C   UNL A   1      43.058  25.722  25.227  1.00  0.00     0.006 A 
ENDBRANCH  45  59
BRANCH  46  67
ATOM     67  C   UNL A   1      40.226  33.170  35.003  1.00  0.00     0.057 A 
ATOM     68  C   UNL A   1      39.058  32.386  35.094  1.00  0.00     0.134 A 
ATOM     69  C   UNL A   1      40.287  34.308  35.813  1.00  0.00     0.134 A 
ATOM     70  F   UNL A   1      38.921  31.293  34.325  1.00  0.00    -0.206 F 
ATOM     71  C   UNL A   1      38.089  32.611  36.077  1.00  0.00     0.040 A 
ATOM     72  C   UNL A   1      39.304  34.558  36.781  1.00  0.00     0.040 A 
ATOM     73  F   UNL A   1      41.358  35.112  35.783  1.00  0.00    -0.206 F 
ATOM     74  C   UNL A   1      38.240  33.674  36.959  1.00  0.00     0.006 A 
ENDBRANCH  46  67
BRANCH  58  75
ATOM     75  C   UNL A   1      42.974  26.484  34.194  1.00  0.00     0.057 A 
ATOM     76  C   UNL A   1      42.006  25.776  34.918  1.00  0.00     0.134 A 
ATOM     77  C   UNL A   1      44.120  25.727  33.843  1.00  0.00     0.134 A 
ATOM     78  F   UNL A   1      40.812  26.306  35.210  1.00  0.00    -0.206 F 
ATOM     79  C   UNL A   1      42.192  24.449  35.329  1.00  0.00     0.040 A 
ATOM     80  C   UNL A   1      44.280  24.381  34.182  1.00  0.00     0.040 A 
ATOM     81  F   UNL A   1      45.128  26.245  33.127  1.00  0.00    -0.206 F 
ATOM     82  C   UNL A   1      43.325  23.742  34.950  1.00  0.00     0.006 A 
ENDBRANCH  58  75
ENDBRANCH  32  33
ENDBRANCH  24  27
ENDBRANCH  22  23
ENDBRANCH  21  22
ENDBRANCH   1  21
TORSDOF 14
ENDMDL
