MODEL 1
REMARK VINA RESULT:      -9.6      0.000      0.000
REMARK SMILES CCCOCCO[C@H]1CC[C@@]([NH3+])(C(=O)NCCCNC(=O)c2ccc(-c3c4nc(c(-c5c(F)cccc5F)c5ccc([nH]5)c(-c5c(F)cccc5F)c5nc(c(-c6c(F)cccc6F)c6ccc3[nH]6)C=C5)C=C4)cc2)C1
REMARK SMILES IDX 13 1 14 2 15 3 11 5 8 6 9 7 76 8 10 9 7 10 6 11 5 12 4 13
REMARK SMILES IDX 3 14 2 15 1 16 12 17 16 21 17 22 18 23 19 24 20 25 21 27
REMARK SMILES IDX 22 28 23 29 75 30 24 31 74 32 25 33 26 34 27 35 68 36 28 37
REMARK SMILES IDX 73 38 67 39 69 40 29 41 72 42 66 43 65 44 30 46 56 47 39 48
REMARK SMILES IDX 55 49 40 50 43 51 54 52 70 53 41 54 42 55 53 57 71 58 44 59
REMARK SMILES IDX 31 60 32 61 37 62 33 63 34 64 36 65 38 66 35 67 57 68 58 69
REMARK SMILES IDX 63 70 59 71 60 72 62 73 64 74 61 75 45 76 46 77 51 78 47 79
REMARK SMILES IDX 48 80 50 81 52 82 49 83
REMARK H PARENT 15 4 12 18 12 19 12 20 19 26 69 45 43 56
REMARK Flexibility Score: inf
ROOT
ATOM      1  C   UNL A   1      31.930  29.362  23.916  1.00  0.00     0.281 C 
ATOM      2  O   UNL A   1      33.123  29.093  23.704  1.00  0.00    -0.268 OA
ATOM      3  N   UNL A   1      31.717  30.174  24.986  1.00  0.00    -0.351 N 
ATOM      4  H   UNL A   1      32.352  30.041  25.727  1.00  0.00     0.163 HD
ENDROOT
BRANCH   1   5
ATOM      5  C   UNL A   1      30.839  28.913  22.881  1.00  0.00     0.176 C 
ATOM      6  C   UNL A   1      30.172  26.615  23.400  1.00  0.00     0.125 C 
ATOM      7  C   UNL A   1      28.900  27.453  23.379  1.00  0.00     0.039 C 
ATOM      8  C   UNL A   1      31.101  27.424  22.497  1.00  0.00     0.111 C 
ATOM      9  C   UNL A   1      29.363  28.918  23.316  1.00  0.00     0.082 C 
BRANCH   6  10
ATOM     10  O   UNL A   1      30.615  26.565  24.743  1.00  0.00    -0.376 OA
BRANCH  10  11
ATOM     11  C   UNL A   1      31.870  25.938  24.988  1.00  0.00     0.189 C 
BRANCH  11  12
ATOM     12  C   UNL A   1      32.472  26.446  26.308  1.00  0.00     0.188 C 
BRANCH  12  13
ATOM     13  O   UNL A   1      31.785  27.560  26.887  1.00  0.00    -0.379 OA
BRANCH  13  14
ATOM     14  C   UNL A   1      32.597  28.471  27.617  1.00  0.00     0.160 C 
BRANCH  14  15
ATOM     15  C   UNL A   1      34.005  28.459  27.019  1.00  0.00     0.025 C 
ATOM     16  C   UNL A   1      34.797  29.691  27.419  1.00  0.00     0.006 C 
ENDBRANCH  14  15
ENDBRANCH  13  14
ENDBRANCH  12  13
ENDBRANCH  11  12
ENDBRANCH  10  11
ENDBRANCH   6  10
BRANCH   5  17
ATOM     17  N   UNL A   1      31.021  29.776  21.688  1.00  0.00    -0.345 N 
ATOM     18  H   UNL A   1      30.279  30.475  21.657  1.00  0.00     0.345 HD
ATOM     19  H   UNL A   1      30.983  29.202  20.845  1.00  0.00     0.345 HD
ATOM     20  H   UNL A   1      31.927  30.242  21.740  1.00  0.00     0.345 HD
ENDBRANCH   5  17
ENDBRANCH   1   5
BRANCH   3  21
ATOM     21  C   UNL A   1      30.723  31.199  25.228  1.00  0.00     0.118 C 
BRANCH  21  22
ATOM     22  C   UNL A   1      30.935  31.976  26.536  1.00  0.00     0.042 C 
BRANCH  22  23
ATOM     23  C   UNL A   1      32.345  32.519  26.805  1.00  0.00     0.118 C 
BRANCH  23  24
ATOM     24  N   UNL A   1      32.363  33.851  27.391  1.00  0.00    -0.352 N 
ATOM     25  C   UNL A   1      33.170  34.416  28.349  1.00  0.00     0.251 C 
ATOM     26  H   UNL A   1      31.672  34.457  27.036  1.00  0.00     0.163 HD
ATOM     27  O   UNL A   1      32.908  35.546  28.756  1.00  0.00    -0.269 OA
BRANCH  25  28
ATOM     28  C   UNL A   1      34.331  33.700  28.937  1.00  0.00     0.039 A 
ATOM     29  C   UNL A   1      35.616  34.093  28.543  1.00  0.00     0.014 A 
ATOM     30  C   UNL A   1      34.187  32.607  29.795  1.00  0.00     0.014 A 
ATOM     31  C   UNL A   1      36.746  33.445  29.056  1.00  0.00     0.010 A 
ATOM     32  C   UNL A   1      35.318  31.996  30.352  1.00  0.00     0.010 A 
ATOM     33  C   UNL A   1      36.611  32.412  29.997  1.00  0.00    -0.014 A 
BRANCH  33  34
ATOM     34  C   UNL A   1      37.809  31.785  30.627  1.00  0.00     0.031 A 
ATOM     35  C   UNL A   1      38.592  30.716  29.910  1.00  0.00     0.074 A 
ATOM     36  C   UNL A   1      38.170  32.142  31.878  1.00  0.00     0.049 A 
ATOM     37  N   UNL A   1      39.612  30.010  30.334  1.00  0.00    -0.248 NA
ATOM     38  C   UNL A   1      38.163  30.385  28.542  1.00  0.00     0.031 C 
ATOM     39  C   UNL A   1      37.489  33.142  32.701  1.00  0.00     0.029 A 
ATOM     40  N   UNL A   1      39.192  31.694  32.681  1.00  0.00    -0.354 N 
ATOM     41  C   UNL A   1      39.936  29.144  29.297  1.00  0.00     0.074 A 
ATOM     42  C   UNL A   1      38.980  29.386  28.236  1.00  0.00     0.031 C 
ATOM     43  C   UNL A   1      38.116  33.241  33.884  1.00  0.00     0.029 A 
ATOM     44  C   UNL A   1      39.216  32.282  33.924  1.00  0.00     0.049 A 
ATOM     45  H   UNL A   1      39.845  31.015  32.395  1.00  0.00     0.167 HD
ATOM     46  C   UNL A   1      40.946  28.242  29.226  1.00  0.00     0.037 A 
ATOM     47  C   UNL A   1      40.020  32.066  34.983  1.00  0.00     0.037 A 
ATOM     48  C   UNL A   1      41.913  28.014  30.268  1.00  0.00     0.049 A 
ATOM     49  C   UNL A   1      41.117  31.041  34.885  1.00  0.00     0.074 A 
ATOM     50  C   UNL A   1      43.003  27.159  30.260  1.00  0.00     0.029 A 
ATOM     51  N   UNL A   1      41.908  28.639  31.506  1.00  0.00    -0.354 N 
ATOM     52  N   UNL A   1      41.445  30.275  33.875  1.00  0.00    -0.248 NA
ATOM     53  C   UNL A   1      41.960  30.854  36.077  1.00  0.00     0.031 C 
ATOM     54  C   UNL A   1      43.627  27.230  31.510  1.00  0.00     0.029 A 
ATOM     55  C   UNL A   1      42.960  28.169  32.277  1.00  0.00     0.049 A 
ATOM     56  H   UNL A   1      41.254  29.316  31.795  1.00  0.00     0.167 HD
ATOM     57  C   UNL A   1      42.550  29.544  34.294  1.00  0.00     0.074 A 
ATOM     58  C   UNL A   1      42.845  29.966  35.647  1.00  0.00     0.031 C 
ATOM     59  C   UNL A   1      43.257  28.607  33.617  1.00  0.00     0.037 A 
BRANCH  46  60
ATOM     60  C   UNL A   1      41.065  27.423  27.972  1.00  0.00     0.057 A 
ATOM     61  C   UNL A   1      41.845  27.842  26.886  1.00  0.00     0.134 A 
ATOM     62  C   UNL A   1      40.447  26.168  27.875  1.00  0.00     0.134 A 
ATOM     63  F   UNL A   1      42.459  29.034  26.910  1.00  0.00    -0.206 F 
ATOM     64  C   UNL A   1      41.988  27.053  25.742  1.00  0.00     0.040 A 
ATOM     65  C   UNL A   1      40.607  25.359  26.749  1.00  0.00     0.040 A 
ATOM     66  F   UNL A   1      39.697  25.699  28.884  1.00  0.00    -0.206 F 
ATOM     67  C   UNL A   1      41.375  25.804  25.676  1.00  0.00     0.006 A 
ENDBRANCH  46  60
BRANCH  47  68
ATOM     68  C   UNL A   1      39.825  32.835  36.241  1.00  0.00     0.057 A 
ATOM     69  C   UNL A   1      40.592  33.971  36.523  1.00  0.00     0.134 A 
ATOM     70  C   UNL A   1      38.893  32.432  37.207  1.00  0.00     0.134 A 
ATOM     71  F   UNL A   1      41.516  34.395  35.648  1.00  0.00    -0.206 F 
ATOM     72  C   UNL A   1      40.462  34.664  37.728  1.00  0.00     0.040 A 
ATOM     73  C   UNL A   1      38.732  33.133  38.404  1.00  0.00     0.040 A 
ATOM     74  F   UNL A   1      38.123  31.355  36.998  1.00  0.00    -0.206 F 
ATOM     75  C   UNL A   1      39.525  34.246  38.671  1.00  0.00     0.006 A 
ENDBRANCH  47  68
BRANCH  59  76
ATOM     76  C   UNL A   1      44.449  28.007  34.305  1.00  0.00     0.057 A 
ATOM     77  C   UNL A   1      44.361  26.824  35.051  1.00  0.00     0.134 A 
ATOM     78  C   UNL A   1      45.713  28.600  34.186  1.00  0.00     0.134 A 
ATOM     79  F   UNL A   1      43.178  26.212  35.217  1.00  0.00    -0.206 F 
ATOM     80  C   UNL A   1      45.481  26.267  35.672  1.00  0.00     0.040 A 
ATOM     81  C   UNL A   1      46.844  28.038  34.777  1.00  0.00     0.040 A 
ATOM     82  F   UNL A   1      45.871  29.730  33.479  1.00  0.00    -0.206 F 
ATOM     83  C   UNL A   1      46.729  26.871  35.528  1.00  0.00     0.006 A 
ENDBRANCH  59  76
ENDBRANCH  33  34
ENDBRANCH  25  28
ENDBRANCH  23  24
ENDBRANCH  22  23
ENDBRANCH  21  22
ENDBRANCH   3  21
TORSDOF 17
ENDMDL
MODEL 2
REMARK VINA RESULT:      -9.4      5.766     10.414
REMARK SMILES CCCOCCO[C@H]1CC[C@@]([NH3+])(C(=O)NCCCNC(=O)c2ccc(-c3c4nc(c(-c5c(F)cccc5F)c5ccc([nH]5)c(-c5c(F)cccc5F)c5nc(c(-c6c(F)cccc6F)c6ccc3[nH]6)C=C5)C=C4)cc2)C1
REMARK SMILES IDX 13 1 14 2 15 3 11 5 8 6 9 7 76 8 10 9 7 10 6 11 5 12 4 13
REMARK SMILES IDX 3 14 2 15 1 16 12 17 16 21 17 22 18 23 19 24 20 25 21 27
REMARK SMILES IDX 22 28 23 29 75 30 24 31 74 32 25 33 26 34 27 35 68 36 28 37
REMARK SMILES IDX 73 38 67 39 69 40 29 41 72 42 66 43 65 44 30 46 56 47 39 48
REMARK SMILES IDX 55 49 40 50 43 51 54 52 70 53 41 54 42 55 53 57 71 58 44 59
REMARK SMILES IDX 31 60 32 61 37 62 33 63 34 64 36 65 38 66 35 67 57 68 58 69
REMARK SMILES IDX 63 70 59 71 60 72 62 73 64 74 61 75 45 76 46 77 51 78 47 79
REMARK SMILES IDX 48 80 50 81 52 82 49 83
REMARK H PARENT 15 4 12 18 12 19 12 20 19 26 69 45 43 56
REMARK Flexibility Score: inf
ROOT
ATOM      1  C   UNL A   1      35.557  22.244  25.934  1.00  0.00     0.281 C 
ATOM      2  O   UNL A   1      34.673  22.334  26.801  1.00  0.00    -0.268 OA
ATOM      3  N   UNL A   1      36.109  21.007  25.819  1.00  0.00    -0.351 N 
ATOM      4  H   UNL A   1      36.172  20.511  26.667  1.00  0.00     0.163 HD
ENDROOT
BRANCH   1   5
ATOM      5  C   UNL A   1      35.824  23.455  24.973  1.00  0.00     0.176 C 
ATOM      6  C   UNL A   1      33.988  23.586  23.358  1.00  0.00     0.125 C 
ATOM      7  C   UNL A   1      34.087  24.951  24.028  1.00  0.00     0.039 C 
ATOM      8  C   UNL A   1      35.405  23.044  23.527  1.00  0.00     0.111 C 
ATOM      9  C   UNL A   1      35.056  24.768  25.209  1.00  0.00     0.082 C 
BRANCH   6  10
ATOM     10  O   UNL A   1      33.023  22.839  24.075  1.00  0.00    -0.376 OA
BRANCH  10  11
ATOM     11  C   UNL A   1      32.522  21.661  23.452  1.00  0.00     0.189 C 
BRANCH  11  12
ATOM     12  C   UNL A   1      32.158  20.610  24.512  1.00  0.00     0.188 C 
BRANCH  12  13
ATOM     13  O   UNL A   1      33.253  19.798  24.948  1.00  0.00    -0.379 OA
BRANCH  13  14
ATOM     14  C   UNL A   1      32.903  18.663  25.730  1.00  0.00     0.160 C 
BRANCH  14  15
ATOM     15  C   UNL A   1      32.970  17.419  24.844  1.00  0.00     0.025 C 
ATOM     16  C   UNL A   1      34.147  17.471  23.887  1.00  0.00     0.006 C 
ENDBRANCH  14  15
ENDBRANCH  13  14
ENDBRANCH  12  13
ENDBRANCH  11  12
ENDBRANCH  10  11
ENDBRANCH   6  10
BRANCH   5  17
ATOM     17  N   UNL A   1      37.286  23.705  25.017  1.00  0.00    -0.345 N 
ATOM     18  H   UNL A   1      37.664  23.351  25.896  1.00  0.00     0.345 HD
ATOM     19  H   UNL A   1      37.461  24.708  24.951  1.00  0.00     0.345 HD
ATOM     20  H   UNL A   1      37.736  23.230  24.235  1.00  0.00     0.345 HD
ENDBRANCH   5  17
ENDBRANCH   1   5
BRANCH   3  21
ATOM     21  C   UNL A   1      36.622  20.289  24.669  1.00  0.00     0.118 C 
BRANCH  21  22
ATOM     22  C   UNL A   1      37.762  19.316  25.000  1.00  0.00     0.042 C 
BRANCH  22  23
ATOM     23  C   UNL A   1      38.998  19.898  25.698  1.00  0.00     0.118 C 
BRANCH  23  24
ATOM     24  N   UNL A   1      40.129  18.985  25.756  1.00  0.00    -0.352 N 
ATOM     25  C   UNL A   1      41.460  19.196  26.031  1.00  0.00     0.251 C 
ATOM     26  H   UNL A   1      39.900  18.046  25.564  1.00  0.00     0.163 HD
ATOM     27  O   UNL A   1      42.247  18.260  25.909  1.00  0.00    -0.269 OA
BRANCH  25  28
ATOM     28  C   UNL A   1      41.989  20.522  26.441  1.00  0.00     0.039 A 
ATOM     29  C   UNL A   1      42.379  21.414  25.435  1.00  0.00     0.014 A 
ATOM     30  C   UNL A   1      42.187  20.874  27.778  1.00  0.00     0.014 A 
ATOM     31  C   UNL A   1      42.896  22.674  25.764  1.00  0.00     0.010 A 
ATOM     32  C   UNL A   1      42.651  22.155  28.107  1.00  0.00     0.010 A 
ATOM     33  C   UNL A   1      43.002  23.074  27.105  1.00  0.00    -0.014 A 
BRANCH  33  34
ATOM     34  C   UNL A   1      43.454  24.450  27.463  1.00  0.00     0.031 A 
ATOM     35  C   UNL A   1      42.466  25.506  27.885  1.00  0.00     0.074 A 
ATOM     36  C   UNL A   1      44.761  24.772  27.359  1.00  0.00     0.049 A 
ATOM     37  N   UNL A   1      42.671  26.771  28.158  1.00  0.00    -0.248 NA
ATOM     38  C   UNL A   1      41.059  25.090  27.999  1.00  0.00     0.031 C 
ATOM     39  C   UNL A   1      45.825  23.859  26.938  1.00  0.00     0.029 A 
ATOM     40  N   UNL A   1      45.416  25.958  27.588  1.00  0.00    -0.354 N 
ATOM     41  C   UNL A   1      41.424  27.305  28.461  1.00  0.00     0.074 A 
ATOM     42  C   UNL A   1      40.461  26.235  28.299  1.00  0.00     0.031 C 
ATOM     43  C   UNL A   1      46.997  24.513  26.949  1.00  0.00     0.029 A 
ATOM     44  C   UNL A   1      46.767  25.902  27.336  1.00  0.00     0.049 A 
ATOM     45  H   UNL A   1      44.961  26.773  27.902  1.00  0.00     0.167 HD
ATOM     46  C   UNL A   1      41.110  28.564  28.853  1.00  0.00     0.037 A 
ATOM     47  C   UNL A   1      47.712  26.859  27.393  1.00  0.00     0.037 A 
ATOM     48  C   UNL A   1      42.066  29.625  29.036  1.00  0.00     0.049 A 
ATOM     49  C   UNL A   1      47.331  28.255  27.806  1.00  0.00     0.074 A 
ATOM     50  C   UNL A   1      41.843  30.917  29.485  1.00  0.00     0.029 A 
ATOM     51  N   UNL A   1      43.425  29.522  28.781  1.00  0.00    -0.354 N 
ATOM     52  N   UNL A   1      46.157  28.725  28.146  1.00  0.00    -0.248 NA
ATOM     53  C   UNL A   1      48.410  29.254  27.848  1.00  0.00     0.031 C 
ATOM     54  C   UNL A   1      43.058  31.610  29.451  1.00  0.00     0.029 A 
ATOM     55  C   UNL A   1      44.047  30.734  29.037  1.00  0.00     0.049 A 
ATOM     56  H   UNL A   1      43.880  28.709  28.464  1.00  0.00     0.167 HD
ATOM     57  C   UNL A   1      46.361  30.060  28.476  1.00  0.00     0.074 A 
ATOM     58  C   UNL A   1      47.774  30.322  28.307  1.00  0.00     0.031 C 
ATOM     59  C   UNL A   1      45.457  30.983  28.883  1.00  0.00     0.037 A 
BRANCH  46  60
ATOM     60  C   UNL A   1      39.663  28.875  29.113  1.00  0.00     0.057 A 
ATOM     61  C   UNL A   1      38.797  29.277  28.088  1.00  0.00     0.134 A 
ATOM     62  C   UNL A   1      39.113  28.703  30.391  1.00  0.00     0.134 A 
ATOM     63  F   UNL A   1      39.258  29.464  26.842  1.00  0.00    -0.206 F 
ATOM     64  C   UNL A   1      37.442  29.518  28.328  1.00  0.00     0.040 A 
ATOM     65  C   UNL A   1      37.755  28.914  30.637  1.00  0.00     0.040 A 
ATOM     66  F   UNL A   1      39.883  28.307  31.416  1.00  0.00    -0.206 F 
ATOM     67  C   UNL A   1      36.917  29.328  29.605  1.00  0.00     0.006 A 
ENDBRANCH  46  60
BRANCH  47  68
ATOM     68  C   UNL A   1      49.123  26.541  27.048  1.00  0.00     0.057 A 
ATOM     69  C   UNL A   1      49.577  26.601  25.725  1.00  0.00     0.134 A 
ATOM     70  C   UNL A   1      50.042  26.135  28.025  1.00  0.00     0.134 A 
ATOM     71  F   UNL A   1      48.741  26.961  24.740  1.00  0.00    -0.206 F 
ATOM     72  C   UNL A   1      50.882  26.244  25.380  1.00  0.00     0.040 A 
ATOM     73  C   UNL A   1      51.358  25.803  27.699  1.00  0.00     0.040 A 
ATOM     74  F   UNL A   1      49.673  26.060  29.312  1.00  0.00    -0.206 F 
ATOM     75  C   UNL A   1      51.778  25.847  26.372  1.00  0.00     0.006 A 
ENDBRANCH  47  68
BRANCH  59  76
ATOM     76  C   UNL A   1      45.972  32.353  29.223  1.00  0.00     0.057 A 
ATOM     77  C   UNL A   1      46.433  32.677  30.505  1.00  0.00     0.134 A 
ATOM     78  C   UNL A   1      46.046  33.349  28.241  1.00  0.00     0.134 A 
ATOM     79  F   UNL A   1      46.378  31.773  31.496  1.00  0.00    -0.206 F 
ATOM     80  C   UNL A   1      46.926  33.949  30.804  1.00  0.00     0.040 A 
ATOM     81  C   UNL A   1      46.563  34.614  28.519  1.00  0.00     0.040 A 
ATOM     82  F   UNL A   1      45.629  33.104  26.989  1.00  0.00    -0.206 F 
ATOM     83  C   UNL A   1      47.000  34.919  29.806  1.00  0.00     0.006 A 
ENDBRANCH  59  76
ENDBRANCH  33  34
ENDBRANCH  25  28
ENDBRANCH  23  24
ENDBRANCH  22  23
ENDBRANCH  21  22
ENDBRANCH   3  21
TORSDOF 17
ENDMDL
MODEL 3
REMARK VINA RESULT:      -9.3      3.690      7.773
REMARK SMILES CCCOCCO[C@H]1CC[C@@]([NH3+])(C(=O)NCCCNC(=O)c2ccc(-c3c4nc(c(-c5c(F)cccc5F)c5ccc([nH]5)c(-c5c(F)cccc5F)c5nc(c(-c6c(F)cccc6F)c6ccc3[nH]6)C=C5)C=C4)cc2)C1
REMARK SMILES IDX 13 1 14 2 15 3 11 5 8 6 9 7 76 8 10 9 7 10 6 11 5 12 4 13
REMARK SMILES IDX 3 14 2 15 1 16 12 17 16 21 17 22 18 23 19 24 20 25 21 27
REMARK SMILES IDX 22 28 23 29 75 30 24 31 74 32 25 33 26 34 27 35 68 36 28 37
REMARK SMILES IDX 73 38 67 39 69 40 29 41 72 42 66 43 65 44 30 46 56 47 39 48
REMARK SMILES IDX 55 49 40 50 43 51 54 52 70 53 41 54 42 55 53 57 71 58 44 59
REMARK SMILES IDX 31 60 32 61 37 62 33 63 34 64 36 65 38 66 35 67 57 68 58 69
REMARK SMILES IDX 63 70 59 71 60 72 62 73 64 74 61 75 45 76 46 77 51 78 47 79
REMARK SMILES IDX 48 80 50 81 52 82 49 83
REMARK H PARENT 15 4 12 18 12 19 12 20 19 26 69 45 43 56
REMARK Flexibility Score: inf
ROOT
ATOM      1  C   UNL A   1      33.611  26.577  22.925  1.00  0.00     0.281 C 
ATOM      2  O   UNL A   1      33.705  26.557  21.687  1.00  0.00    -0.268 OA
ATOM      3  N   UNL A   1      33.911  27.775  23.494  1.00  0.00    -0.351 N 
ATOM      4  H   UNL A   1      34.614  28.280  23.025  1.00  0.00     0.163 HD
ENDROOT
BRANCH   1   5
ATOM      5  C   UNL A   1      33.012  25.336  23.676  1.00  0.00     0.176 C 
ATOM      6  C   UNL A   1      30.601  25.674  23.939  1.00  0.00     0.125 C 
ATOM      7  C   UNL A   1      30.787  24.331  23.244  1.00  0.00     0.039 C 
ATOM      8  C   UNL A   1      31.926  25.837  24.678  1.00  0.00     0.111 C 
ATOM      9  C   UNL A   1      32.274  24.263  22.855  1.00  0.00     0.082 C 
BRANCH   6  10
ATOM     10  O   UNL A   1      30.412  26.644  22.925  1.00  0.00    -0.376 OA
BRANCH  10  11
ATOM     11  C   UNL A   1      29.500  27.701  23.203  1.00  0.00     0.189 C 
BRANCH  11  12
ATOM     12  C   UNL A   1      30.046  29.033  22.665  1.00  0.00     0.188 C 
BRANCH  12  13
ATOM     13  O   UNL A   1      29.448  29.473  21.441  1.00  0.00    -0.379 OA
BRANCH  13  14
ATOM     14  C   UNL A   1      28.204  30.149  21.574  1.00  0.00     0.160 C 
BRANCH  14  15
ATOM     15  C   UNL A   1      28.446  31.487  22.274  1.00  0.00     0.025 C 
ATOM     16  C   UNL A   1      27.640  31.607  23.555  1.00  0.00     0.006 C 
ENDBRANCH  14  15
ENDBRANCH  13  14
ENDBRANCH  12  13
ENDBRANCH  11  12
ENDBRANCH  10  11
ENDBRANCH   6  10
BRANCH   5  17
ATOM     17  N   UNL A   1      34.136  24.722  24.423  1.00  0.00    -0.345 N 
ATOM     18  H   UNL A   1      34.923  24.573  23.791  1.00  0.00     0.345 HD
ATOM     19  H   UNL A   1      33.837  23.826  24.811  1.00  0.00     0.345 HD
ATOM     20  H   UNL A   1      34.420  25.342  25.182  1.00  0.00     0.345 HD
ENDBRANCH   5  17
ENDBRANCH   1   5
BRANCH   3  21
ATOM     21  C   UNL A   1      33.379  28.440  24.666  1.00  0.00     0.118 C 
BRANCH  21  22
ATOM     22  C   UNL A   1      34.348  28.474  25.856  1.00  0.00     0.042 C 
BRANCH  22  23
ATOM     23  C   UNL A   1      33.734  28.639  27.253  1.00  0.00     0.118 C 
BRANCH  23  24
ATOM     24  N   UNL A   1      33.743  30.008  27.744  1.00  0.00    -0.352 N 
ATOM     25  C   UNL A   1      34.714  30.744  28.379  1.00  0.00     0.251 C 
ATOM     26  H   UNL A   1      32.900  30.496  27.594  1.00  0.00     0.163 HD
ATOM     27  O   UNL A   1      34.433  31.866  28.797  1.00  0.00    -0.269 OA
BRANCH  25  28
ATOM     28  C   UNL A   1      36.086  30.223  28.610  1.00  0.00     0.039 A 
ATOM     29  C   UNL A   1      37.011  30.318  27.563  1.00  0.00     0.014 A 
ATOM     30  C   UNL A   1      36.458  29.574  29.790  1.00  0.00     0.014 A 
ATOM     31  C   UNL A   1      38.315  29.832  27.721  1.00  0.00     0.010 A 
ATOM     32  C   UNL A   1      37.778  29.140  29.968  1.00  0.00     0.010 A 
ATOM     33  C   UNL A   1      38.726  29.271  28.940  1.00  0.00    -0.014 A 
BRANCH  33  34
ATOM     34  C   UNL A   1      40.139  28.845  29.153  1.00  0.00     0.031 A 
ATOM     35  C   UNL A   1      41.151  29.786  29.754  1.00  0.00     0.074 A 
ATOM     36  C   UNL A   1      40.534  27.617  28.755  1.00  0.00     0.049 A 
ATOM     37  N   UNL A   1      42.437  29.611  29.941  1.00  0.00    -0.248 NA
ATOM     38  C   UNL A   1      40.657  31.103  30.185  1.00  0.00     0.031 C 
ATOM     39  C   UNL A   1      39.670  26.612  28.135  1.00  0.00     0.029 A 
ATOM     40  N   UNL A   1      41.765  27.009  28.803  1.00  0.00    -0.354 N 
ATOM     41  C   UNL A   1      42.907  30.795  30.497  1.00  0.00     0.074 A 
ATOM     42  C   UNL A   1      41.776  31.696  30.580  1.00  0.00     0.031 C 
ATOM     43  C   UNL A   1      40.392  25.511  27.870  1.00  0.00     0.029 A 
ATOM     44  C   UNL A   1      41.779  25.744  28.261  1.00  0.00     0.049 A 
ATOM     45  H   UNL A   1      42.564  27.437  29.188  1.00  0.00     0.167 HD
ATOM     46  C   UNL A   1      44.160  31.100  30.914  1.00  0.00     0.037 A 
ATOM     47  C   UNL A   1      42.793  24.875  28.083  1.00  0.00     0.037 A 
ATOM     48  C   UNL A   1      45.283  30.200  30.855  1.00  0.00     0.049 A 
ATOM     49  C   UNL A   1      44.179  25.250  28.533  1.00  0.00     0.074 A 
ATOM     50  C   UNL A   1      46.576  30.405  31.306  1.00  0.00     0.029 A 
ATOM     51  N   UNL A   1      45.251  28.926  30.309  1.00  0.00    -0.354 N 
ATOM     52  N   UNL A   1      44.592  26.350  29.110  1.00  0.00    -0.248 NA
ATOM     53  C   UNL A   1      45.241  24.257  28.309  1.00  0.00     0.031 C 
ATOM     54  C   UNL A   1      47.338  29.276  30.988  1.00  0.00     0.029 A 
ATOM     55  C   UNL A   1      46.507  28.345  30.390  1.00  0.00     0.049 A 
ATOM     56  H   UNL A   1      44.453  28.497  29.922  1.00  0.00     0.167 HD
ATOM     57  C   UNL A   1      45.948  26.169  29.351  1.00  0.00     0.074 A 
ATOM     58  C   UNL A   1      46.287  24.847  28.868  1.00  0.00     0.031 C 
ATOM     59  C   UNL A   1      46.833  27.022  29.922  1.00  0.00     0.037 A 
BRANCH  46  60
ATOM     60  C   UNL A   1      44.395  32.473  31.478  1.00  0.00     0.057 A 
ATOM     61  C   UNL A   1      44.269  32.741  32.848  1.00  0.00     0.134 A 
ATOM     62  C   UNL A   1      44.818  33.523  30.653  1.00  0.00     0.134 A 
ATOM     63  F   UNL A   1      43.864  31.782  33.694  1.00  0.00    -0.206 F 
ATOM     64  C   UNL A   1      44.535  34.008  33.372  1.00  0.00     0.040 A 
ATOM     65  C   UNL A   1      45.113  34.786  31.169  1.00  0.00     0.040 A 
ATOM     66  F   UNL A   1      44.972  33.333  29.333  1.00  0.00    -0.206 F 
ATOM     67  C   UNL A   1      44.966  35.033  32.532  1.00  0.00     0.006 A 
ENDBRANCH  46  60
BRANCH  47  68
ATOM     68  C   UNL A   1      42.545  23.556  27.444  1.00  0.00     0.057 A 
ATOM     69  C   UNL A   1      42.669  23.385  26.061  1.00  0.00     0.134 A 
ATOM     70  C   UNL A   1      42.143  22.443  28.196  1.00  0.00     0.134 A 
ATOM     71  F   UNL A   1      43.028  24.418  25.283  1.00  0.00    -0.206 F 
ATOM     72  C   UNL A   1      42.378  22.168  25.443  1.00  0.00     0.040 A 
ATOM     73  C   UNL A   1      41.877  21.212  27.594  1.00  0.00     0.040 A 
ATOM     74  F   UNL A   1      42.009  22.537  29.527  1.00  0.00    -0.206 F 
ATOM     75  C   UNL A   1      41.984  21.075  26.213  1.00  0.00     0.006 A 
ENDBRANCH  47  68
BRANCH  59  76
ATOM     76  C   UNL A   1      48.243  26.538  30.104  1.00  0.00     0.057 A 
ATOM     77  C   UNL A   1      49.240  26.778  29.150  1.00  0.00     0.134 A 
ATOM     78  C   UNL A   1      48.617  25.858  31.271  1.00  0.00     0.134 A 
ATOM     79  F   UNL A   1      48.947  27.413  28.005  1.00  0.00    -0.206 F 
ATOM     80  C   UNL A   1      50.553  26.338  29.340  1.00  0.00     0.040 A 
ATOM     81  C   UNL A   1      49.930  25.439  31.484  1.00  0.00     0.040 A 
ATOM     82  F   UNL A   1      47.713  25.602  32.229  1.00  0.00    -0.206 F 
ATOM     83  C   UNL A   1      50.901  25.674  30.514  1.00  0.00     0.006 A 
ENDBRANCH  59  76
ENDBRANCH  33  34
ENDBRANCH  25  28
ENDBRANCH  23  24
ENDBRANCH  22  23
ENDBRANCH  21  22
ENDBRANCH   3  21
TORSDOF 17
ENDMDL
