MODEL 1
REMARK VINA RESULT:     -12.7      0.000      0.000
REMARK SMILES Cc1ccc(C)c(S(=O)(=O)N[C@H](CC2=c3ccccc3=NC2)C(=O)NCCCNC(=O)c2ccc(-c3c4nc(c(-c5c(F)cccc5F)c5ccc([nH]5)c(-c5c(F)cccc5F)c5nc(c(-c6c(F)cccc6F)c6ccc3[nH]6)C=C5)C=C4)cc2)c1
REMARK SMILES IDX 26 1 25 2 23 3 24 4 12 6 11 7 8 9 9 10 10 11 7 12 1 13 2 14
REMARK SMILES IDX 3 15 86 16 4 17 5 18 6 19 13 20 14 21 15 22 22 23 16 24
REMARK SMILES IDX 20 25 21 26 17 27 19 28 18 29 27 30 28 31 29 32 30 33 31 35
REMARK SMILES IDX 32 36 33 37 85 38 34 39 84 40 35 41 36 42 37 43 78 44 38 45
REMARK SMILES IDX 83 46 77 47 79 48 39 49 82 50 76 51 75 52 40 54 66 55 49 56
REMARK SMILES IDX 65 57 50 58 53 59 64 60 80 61 51 62 52 63 63 65 81 66 54 67
REMARK SMILES IDX 41 68 42 69 47 70 43 71 44 72 46 73 48 74 45 75 67 76 68 77
REMARK SMILES IDX 73 78 69 79 70 80 72 81 74 82 71 83 55 84 56 85 61 86 57 87
REMARK SMILES IDX 58 88 60 89 62 90 59 91
REMARK H PARENT 25 5 11 8 29 34 79 53 53 64
REMARK Flexibility Score: inf
ROOT
ATOM      1  C   UNL A   1      33.908  29.449  26.672  1.00  0.00     0.117 C 
ENDROOT
BRANCH   1   2
ATOM      2  N   UNL A   1      32.701  28.928  27.304  1.00  0.00    -0.355 N 
ATOM      3  C   UNL A   1      31.977  27.769  27.255  1.00  0.00     0.238 C 
ATOM      4  O   UNL A   1      30.991  27.720  27.999  1.00  0.00    -0.273 OA
ATOM      5  H   UNL A   1      32.303  29.579  27.926  1.00  0.00     0.163 HD
BRANCH   3   6
ATOM      6  C   UNL A   1      32.268  26.604  26.305  1.00  0.00     0.163 C 
BRANCH   6   7
ATOM      7  N   UNL A   1      31.874  25.310  26.921  1.00  0.00    -0.198 NA
ATOM      8  H   UNL A   1      32.735  24.778  27.047  1.00  0.00     0.142 HD
BRANCH   7   9
ATOM      9  S   UNL A   1      30.784  24.275  26.174  1.00  0.00     0.241 S 
ATOM     10  O   UNL A   1      30.197  24.979  25.044  1.00  0.00    -0.207 OA
ATOM     11  O   UNL A   1      30.001  23.752  27.252  1.00  0.00    -0.207 OA
BRANCH   9  12
ATOM     12  C   UNL A   1      31.796  22.953  25.557  1.00  0.00     0.085 A 
ATOM     13  C   UNL A   1      32.152  21.083  22.259  1.00  0.00     0.044 C 
ATOM     14  C   UNL A   1      32.348  21.486  23.690  1.00  0.00    -0.050 A 
ATOM     15  C   UNL A   1      33.170  20.750  24.541  1.00  0.00     0.004 A 
ATOM     16  C   UNL A   1      31.691  22.606  24.200  1.00  0.00     0.025 A 
ATOM     17  C   UNL A   1      33.337  21.136  25.877  1.00  0.00     0.005 A 
ATOM     18  C   UNL A   1      32.657  22.244  26.408  1.00  0.00    -0.031 A 
ATOM     19  C   UNL A   1      32.913  22.601  27.846  1.00  0.00     0.046 C 
ENDBRANCH   9  12
ENDBRANCH   7   9
ENDBRANCH   6   7
BRANCH   6  20
ATOM     20  C   UNL A   1      33.729  26.506  25.753  1.00  0.00     0.063 C 
BRANCH  20  21
ATOM     21  C   UNL A   1      34.150  25.435  24.773  1.00  0.00    -0.037 C 
ATOM     22  C   UNL A   1      35.053  24.454  24.870  1.00  0.00     0.001 A 
ATOM     23  C   UNL A   1      33.659  25.507  23.362  1.00  0.00     0.174 C 
ATOM     24  C   UNL A   1      35.949  23.955  25.868  1.00  0.00     0.010 A 
ATOM     25  C   UNL A   1      35.082  23.893  23.500  1.00  0.00     0.065 A 
ATOM     26  N   UNL A   1      34.345  24.455  22.595  1.00  0.00    -0.280 NA
ATOM     27  C   UNL A   1      36.770  22.935  25.555  1.00  0.00     0.001 A 
ATOM     28  C   UNL A   1      35.969  22.745  23.247  1.00  0.00     0.028 A 
ATOM     29  C   UNL A   1      36.754  22.310  24.242  1.00  0.00     0.002 A 
ENDBRANCH  20  21
ENDBRANCH   6  20
ENDBRANCH   3   6
ENDBRANCH   1   2
BRANCH   1  30
ATOM     30  C   UNL A   1      35.072  29.861  27.578  1.00  0.00     0.042 C 
BRANCH  30  31
ATOM     31  C   UNL A   1      35.400  31.338  27.676  1.00  0.00     0.118 C 
BRANCH  31  32
ATOM     32  N   UNL A   1      34.782  32.029  28.795  1.00  0.00    -0.352 N 
ATOM     33  C   UNL A   1      35.141  31.950  30.127  1.00  0.00     0.251 C 
ATOM     34  H   UNL A   1      34.022  32.616  28.581  1.00  0.00     0.163 HD
ATOM     35  O   UNL A   1      34.516  32.571  30.980  1.00  0.00    -0.269 OA
BRANCH  33  36
ATOM     36  C   UNL A   1      36.386  31.232  30.480  1.00  0.00     0.039 A 
ATOM     37  C   UNL A   1      37.592  31.863  30.169  1.00  0.00     0.014 A 
ATOM     38  C   UNL A   1      36.364  29.898  30.891  1.00  0.00     0.014 A 
ATOM     39  C   UNL A   1      38.745  31.098  30.077  1.00  0.00     0.010 A 
ATOM     40  C   UNL A   1      37.484  29.116  30.697  1.00  0.00     0.010 A 
ATOM     41  C   UNL A   1      38.662  29.712  30.253  1.00  0.00    -0.014 A 
BRANCH  41  42
ATOM     42  C   UNL A   1      39.878  28.920  30.190  1.00  0.00     0.031 A 
ATOM     43  C   UNL A   1      40.537  28.785  31.507  1.00  0.00     0.074 A 
ATOM     44  C   UNL A   1      40.300  28.220  29.122  1.00  0.00     0.049 A 
ATOM     45  N   UNL A   1      41.524  29.473  31.976  1.00  0.00    -0.248 NA
ATOM     46  C   UNL A   1      39.884  27.916  32.500  1.00  0.00     0.031 C 
ATOM     47  C   UNL A   1      39.575  27.919  27.888  1.00  0.00     0.029 A 
ATOM     48  N   UNL A   1      41.480  27.553  28.967  1.00  0.00    -0.354 N 
ATOM     49  C   UNL A   1      41.744  28.965  33.253  1.00  0.00     0.074 A 
ATOM     50  C   UNL A   1      40.555  28.240  33.604  1.00  0.00     0.031 C 
ATOM     51  C   UNL A   1      40.256  26.977  27.193  1.00  0.00     0.029 A 
ATOM     52  C   UNL A   1      41.522  26.714  27.862  1.00  0.00     0.049 A 
ATOM     53  H   UNL A   1      42.238  27.657  29.587  1.00  0.00     0.167 HD
ATOM     54  C   UNL A   1      43.000  28.886  33.773  1.00  0.00     0.037 A 
ATOM     55  C   UNL A   1      42.516  25.842  27.563  1.00  0.00     0.037 A 
ATOM     56  C   UNL A   1      43.933  29.633  32.965  1.00  0.00     0.049 A 
ATOM     57  C   UNL A   1      43.726  26.254  28.315  1.00  0.00     0.074 A 
ATOM     58  C   UNL A   1      44.180  30.955  32.670  1.00  0.00     0.029 A 
ATOM     59  N   UNL A   1      44.576  28.881  32.015  1.00  0.00    -0.354 N 
ATOM     60  N   UNL A   1      44.404  27.340  28.073  1.00  0.00    -0.248 NA
ATOM     61  C   UNL A   1      44.022  25.611  29.591  1.00  0.00     0.031 C 
ATOM     62  C   UNL A   1      44.762  30.962  31.366  1.00  0.00     0.029 A 
ATOM     63  C   UNL A   1      44.869  29.644  30.920  1.00  0.00     0.049 A 
ATOM     64  H   UNL A   1      44.796  27.927  32.111  1.00  0.00     0.167 HD
ATOM     65  C   UNL A   1      44.875  27.742  29.309  1.00  0.00     0.074 A 
ATOM     66  C   UNL A   1      44.768  26.563  30.158  1.00  0.00     0.031 C 
ATOM     67  C   UNL A   1      45.009  29.069  29.599  1.00  0.00     0.037 A 
BRANCH  54  68
ATOM     68  C   UNL A   1      43.494  27.763  34.670  1.00  0.00     0.057 A 
ATOM     69  C   UNL A   1      43.770  26.442  34.255  1.00  0.00     0.134 A 
ATOM     70  C   UNL A   1      44.024  28.103  35.931  1.00  0.00     0.134 A 
ATOM     71  F   UNL A   1      43.403  25.957  33.065  1.00  0.00    -0.206 F 
ATOM     72  C   UNL A   1      44.543  25.552  35.006  1.00  0.00     0.040 A 
ATOM     73  C   UNL A   1      44.843  27.236  36.665  1.00  0.00     0.040 A 
ATOM     74  F   UNL A   1      43.833  29.325  36.450  1.00  0.00    -0.206 F 
ATOM     75  C   UNL A   1      45.117  25.959  36.197  1.00  0.00     0.006 A 
ENDBRANCH  54  68
BRANCH  55  76
ATOM     76  C   UNL A   1      42.457  24.547  26.853  1.00  0.00     0.057 A 
ATOM     77  C   UNL A   1      42.056  23.375  27.513  1.00  0.00     0.134 A 
ATOM     78  C   UNL A   1      43.068  24.372  25.602  1.00  0.00     0.134 A 
ATOM     79  F   UNL A   1      41.532  23.424  28.748  1.00  0.00    -0.206 F 
ATOM     80  C   UNL A   1      42.271  22.102  26.976  1.00  0.00     0.040 A 
ATOM     81  C   UNL A   1      43.295  23.104  25.053  1.00  0.00     0.040 A 
ATOM     82  F   UNL A   1      43.522  25.429  24.911  1.00  0.00    -0.206 F 
ATOM     83  C   UNL A   1      42.908  21.961  25.747  1.00  0.00     0.006 A 
ENDBRANCH  55  76
BRANCH  67  84
ATOM     84  C   UNL A   1      45.104  30.012  28.439  1.00  0.00     0.057 A 
ATOM     85  C   UNL A   1      46.372  30.334  27.948  1.00  0.00     0.134 A 
ATOM     86  C   UNL A   1      44.008  30.660  27.855  1.00  0.00     0.134 A 
ATOM     87  F   UNL A   1      47.469  29.783  28.493  1.00  0.00    -0.206 F 
ATOM     88  C   UNL A   1      46.550  31.255  26.915  1.00  0.00     0.040 A 
ATOM     89  C   UNL A   1      44.167  31.557  26.794  1.00  0.00     0.040 A 
ATOM     90  F   UNL A   1      42.765  30.473  28.317  1.00  0.00    -0.206 F 
ATOM     91  C   UNL A   1      45.443  31.860  26.326  1.00  0.00     0.006 A 
ENDBRANCH  67  84
ENDBRANCH  41  42
ENDBRANCH  33  36
ENDBRANCH  31  32
ENDBRANCH  30  31
ENDBRANCH   1  30
TORSDOF 15
ENDMDL
MODEL 2
REMARK VINA RESULT:     -12.6      1.836      6.002
REMARK SMILES Cc1ccc(C)c(S(=O)(=O)N[C@H](CC2=c3ccccc3=NC2)C(=O)NCCCNC(=O)c2ccc(-c3c4nc(c(-c5c(F)cccc5F)c5ccc([nH]5)c(-c5c(F)cccc5F)c5nc(c(-c6c(F)cccc6F)c6ccc3[nH]6)C=C5)C=C4)cc2)c1
REMARK SMILES IDX 26 1 25 2 23 3 24 4 12 6 11 7 8 9 9 10 10 11 7 12 1 13 2 14
REMARK SMILES IDX 3 15 86 16 4 17 5 18 6 19 13 20 14 21 15 22 22 23 16 24
REMARK SMILES IDX 20 25 21 26 17 27 19 28 18 29 27 30 28 31 29 32 30 33 31 35
REMARK SMILES IDX 32 36 33 37 85 38 34 39 84 40 35 41 36 42 37 43 78 44 38 45
REMARK SMILES IDX 83 46 77 47 79 48 39 49 82 50 76 51 75 52 40 54 66 55 49 56
REMARK SMILES IDX 65 57 50 58 53 59 64 60 80 61 51 62 52 63 63 65 81 66 54 67
REMARK SMILES IDX 41 68 42 69 47 70 43 71 44 72 46 73 48 74 45 75 67 76 68 77
REMARK SMILES IDX 73 78 69 79 70 80 72 81 74 82 71 83 55 84 56 85 61 86 57 87
REMARK SMILES IDX 58 88 60 89 62 90 59 91
REMARK H PARENT 25 5 11 8 29 34 79 53 53 64
REMARK Flexibility Score: inf
ROOT
ATOM      1  C   UNL A   1      33.290  29.690  26.203  1.00  0.00     0.117 C 
ENDROOT
BRANCH   1   2
ATOM      2  N   UNL A   1      32.272  29.049  27.029  1.00  0.00    -0.355 N 
ATOM      3  C   UNL A   1      31.754  27.792  27.168  1.00  0.00     0.238 C 
ATOM      4  O   UNL A   1      30.886  27.661  28.038  1.00  0.00    -0.273 OA
ATOM      5  H   UNL A   1      31.847  29.688  27.646  1.00  0.00     0.163 HD
BRANCH   3   6
ATOM      6  C   UNL A   1      32.123  26.599  26.280  1.00  0.00     0.163 C 
BRANCH   6   7
ATOM      7  N   UNL A   1      31.740  25.319  26.932  1.00  0.00    -0.198 NA
ATOM      8  H   UNL A   1      32.607  24.805  27.086  1.00  0.00     0.142 HD
BRANCH   7   9
ATOM      9  S   UNL A   1      30.676  24.244  26.204  1.00  0.00     0.241 S 
ATOM     10  O   UNL A   1      30.025  24.933  25.100  1.00  0.00    -0.207 OA
ATOM     11  O   UNL A   1      29.949  23.675  27.297  1.00  0.00    -0.207 OA
BRANCH   9  12
ATOM     12  C   UNL A   1      31.728  22.976  25.541  1.00  0.00     0.085 A 
ATOM     13  C   UNL A   1      32.076  21.166  22.210  1.00  0.00     0.044 C 
ATOM     14  C   UNL A   1      32.293  21.560  23.640  1.00  0.00    -0.050 A 
ATOM     15  C   UNL A   1      33.168  20.849  24.459  1.00  0.00     0.004 A 
ATOM     16  C   UNL A   1      31.601  22.642  24.183  1.00  0.00     0.025 A 
ATOM     17  C   UNL A   1      33.354  21.225  25.795  1.00  0.00     0.005 A 
ATOM     18  C   UNL A   1      32.641  22.295  26.359  1.00  0.00    -0.031 A 
ATOM     19  C   UNL A   1      32.920  22.644  27.795  1.00  0.00     0.046 C 
ENDBRANCH   9  12
ENDBRANCH   7   9
ENDBRANCH   6   7
BRANCH   6  20
ATOM     20  C   UNL A   1      33.609  26.526  25.798  1.00  0.00     0.063 C 
BRANCH  20  21
ATOM     21  C   UNL A   1      34.087  25.481  24.815  1.00  0.00    -0.037 C 
ATOM     22  C   UNL A   1      35.025  24.535  24.919  1.00  0.00     0.001 A 
ATOM     23  C   UNL A   1      33.617  25.547  23.398  1.00  0.00     0.174 C 
ATOM     24  C   UNL A   1      35.924  24.061  25.927  1.00  0.00     0.010 A 
ATOM     25  C   UNL A   1      35.099  23.988  23.545  1.00  0.00     0.065 A 
ATOM     26  N   UNL A   1      34.355  24.530  22.633  1.00  0.00    -0.280 NA
ATOM     27  C   UNL A   1      36.788  23.076  25.618  1.00  0.00     0.001 A 
ATOM     28  C   UNL A   1      36.032  22.877  23.296  1.00  0.00     0.028 A 
ATOM     29  C   UNL A   1      36.818  22.463  24.299  1.00  0.00     0.002 A 
ENDBRANCH  20  21
ENDBRANCH   6  20
ENDBRANCH   3   6
ENDBRANCH   1   2
BRANCH   1  30
ATOM     30  C   UNL A   1      34.429  30.428  26.911  1.00  0.00     0.042 C 
BRANCH  30  31
ATOM     31  C   UNL A   1      35.441  29.595  27.674  1.00  0.00     0.118 C 
BRANCH  31  32
ATOM     32  N   UNL A   1      35.497  29.858  29.101  1.00  0.00    -0.352 N 
ATOM     33  C   UNL A   1      36.496  29.485  29.981  1.00  0.00     0.251 C 
ATOM     34  H   UNL A   1      34.740  30.356  29.485  1.00  0.00     0.163 HD
ATOM     35  O   UNL A   1      36.407  29.751  31.174  1.00  0.00    -0.269 OA
BRANCH  33  36
ATOM     36  C   UNL A   1      37.738  28.902  29.430  1.00  0.00     0.039 A 
ATOM     37  C   UNL A   1      38.360  27.903  30.182  1.00  0.00     0.014 A 
ATOM     38  C   UNL A   1      38.386  29.475  28.334  1.00  0.00     0.014 A 
ATOM     39  C   UNL A   1      39.700  27.627  29.956  1.00  0.00     0.010 A 
ATOM     40  C   UNL A   1      39.743  29.280  28.176  1.00  0.00     0.010 A 
ATOM     41  C   UNL A   1      40.404  28.385  29.014  1.00  0.00    -0.014 A 
BRANCH  41  42
ATOM     42  C   UNL A   1      41.798  28.069  28.756  1.00  0.00     0.031 A 
ATOM     43  C   UNL A   1      41.964  26.803  28.008  1.00  0.00     0.074 A 
ATOM     44  C   UNL A   1      42.841  28.886  28.988  1.00  0.00     0.049 A 
ATOM     45  N   UNL A   1      42.235  25.632  28.481  1.00  0.00    -0.248 NA
ATOM     46  C   UNL A   1      41.580  26.805  26.588  1.00  0.00     0.031 C 
ATOM     47  C   UNL A   1      42.822  30.305  29.340  1.00  0.00     0.029 A 
ATOM     48  N   UNL A   1      44.170  28.606  28.870  1.00  0.00    -0.354 N 
ATOM     49  C   UNL A   1      42.261  24.793  27.371  1.00  0.00     0.074 A 
ATOM     50  C   UNL A   1      41.586  25.500  26.319  1.00  0.00     0.031 C 
ATOM     51  C   UNL A   1      44.076  30.805  29.224  1.00  0.00     0.029 A 
ATOM     52  C   UNL A   1      44.997  29.719  28.928  1.00  0.00     0.049 A 
ATOM     53  H   UNL A   1      44.515  27.691  28.755  1.00  0.00     0.167 HD
ATOM     54  C   UNL A   1      43.127  23.745  27.301  1.00  0.00     0.037 A 
ATOM     55  C   UNL A   1      46.334  29.729  28.700  1.00  0.00     0.037 A 
ATOM     56  C   UNL A   1      43.736  23.501  28.586  1.00  0.00     0.049 A 
ATOM     57  C   UNL A   1      46.832  28.341  28.845  1.00  0.00     0.074 A 
ATOM     58  C   UNL A   1      43.338  23.039  29.820  1.00  0.00     0.029 A 
ATOM     59  N   UNL A   1      44.942  24.129  28.760  1.00  0.00    -0.354 N 
ATOM     60  N   UNL A   1      46.881  27.695  29.976  1.00  0.00    -0.248 NA
ATOM     61  C   UNL A   1      46.990  27.514  27.653  1.00  0.00     0.031 C 
ATOM     62  C   UNL A   1      44.215  23.651  30.767  1.00  0.00     0.029 A 
ATOM     63  C   UNL A   1      45.129  24.446  30.076  1.00  0.00     0.049 A 
ATOM     64  H   UNL A   1      45.583  24.323  28.039  1.00  0.00     0.167 HD
ATOM     65  C   UNL A   1      46.645  26.375  29.636  1.00  0.00     0.074 A 
ATOM     66  C   UNL A   1      46.900  26.300  28.204  1.00  0.00     0.031 C 
ATOM     67  C   UNL A   1      45.966  25.553  30.488  1.00  0.00     0.037 A 
BRANCH  54  68
ATOM     68  C   UNL A   1      43.813  23.275  26.028  1.00  0.00     0.057 A 
ATOM     69  C   UNL A   1      44.742  24.023  25.273  1.00  0.00     0.134 A 
ATOM     70  C   UNL A   1      43.789  21.898  25.728  1.00  0.00     0.134 A 
ATOM     71  F   UNL A   1      44.953  25.329  25.457  1.00  0.00    -0.206 F 
ATOM     72  C   UNL A   1      45.604  23.446  24.335  1.00  0.00     0.040 A 
ATOM     73  C   UNL A   1      44.684  21.304  24.829  1.00  0.00     0.040 A 
ATOM     74  F   UNL A   1      42.949  21.070  26.368  1.00  0.00    -0.206 F 
ATOM     75  C   UNL A   1      45.605  22.077  24.138  1.00  0.00     0.006 A 
ENDBRANCH  54  68
BRANCH  55  76
ATOM     76  C   UNL A   1      47.190  30.800  28.147  1.00  0.00     0.057 A 
ATOM     77  C   UNL A   1      48.215  31.377  28.913  1.00  0.00     0.134 A 
ATOM     78  C   UNL A   1      46.840  31.481  26.971  1.00  0.00     0.134 A 
ATOM     79  F   UNL A   1      48.574  30.851  30.094  1.00  0.00    -0.206 F 
ATOM     80  C   UNL A   1      48.838  32.575  28.548  1.00  0.00     0.040 A 
ATOM     81  C   UNL A   1      47.451  32.684  26.595  1.00  0.00     0.040 A 
ATOM     82  F   UNL A   1      45.845  31.029  26.193  1.00  0.00    -0.206 F 
ATOM     83  C   UNL A   1      48.446  33.242  27.392  1.00  0.00     0.006 A 
ENDBRANCH  55  76
BRANCH  67  84
ATOM     84  C   UNL A   1      45.923  25.956  31.931  1.00  0.00     0.057 A 
ATOM     85  C   UNL A   1      44.807  26.661  32.390  1.00  0.00     0.134 A 
ATOM     86  C   UNL A   1      46.966  25.743  32.842  1.00  0.00     0.134 A 
ATOM     87  F   UNL A   1      43.791  26.938  31.556  1.00  0.00    -0.206 F 
ATOM     88  C   UNL A   1      44.721  27.130  33.702  1.00  0.00     0.040 A 
ATOM     89  C   UNL A   1      46.878  26.175  34.169  1.00  0.00     0.040 A 
ATOM     90  F   UNL A   1      48.106  25.149  32.465  1.00  0.00    -0.206 F 
ATOM     91  C   UNL A   1      45.755  26.875  34.600  1.00  0.00     0.006 A 
ENDBRANCH  67  84
ENDBRANCH  41  42
ENDBRANCH  33  36
ENDBRANCH  31  32
ENDBRANCH  30  31
ENDBRANCH   1  30
TORSDOF 15
ENDMDL
MODEL 3
REMARK VINA RESULT:     -12.2      2.991      7.800
REMARK SMILES Cc1ccc(C)c(S(=O)(=O)N[C@H](CC2=c3ccccc3=NC2)C(=O)NCCCNC(=O)c2ccc(-c3c4nc(c(-c5c(F)cccc5F)c5ccc([nH]5)c(-c5c(F)cccc5F)c5nc(c(-c6c(F)cccc6F)c6ccc3[nH]6)C=C5)C=C4)cc2)c1
REMARK SMILES IDX 26 1 25 2 23 3 24 4 12 6 11 7 8 9 9 10 10 11 7 12 1 13 2 14
REMARK SMILES IDX 3 15 86 16 4 17 5 18 6 19 13 20 14 21 15 22 22 23 16 24
REMARK SMILES IDX 20 25 21 26 17 27 19 28 18 29 27 30 28 31 29 32 30 33 31 35
REMARK SMILES IDX 32 36 33 37 85 38 34 39 84 40 35 41 36 42 37 43 78 44 38 45
REMARK SMILES IDX 83 46 77 47 79 48 39 49 82 50 76 51 75 52 40 54 66 55 49 56
REMARK SMILES IDX 65 57 50 58 53 59 64 60 80 61 51 62 52 63 63 65 81 66 54 67
REMARK SMILES IDX 41 68 42 69 47 70 43 71 44 72 46 73 48 74 45 75 67 76 68 77
REMARK SMILES IDX 73 78 69 79 70 80 72 81 74 82 71 83 55 84 56 85 61 86 57 87
REMARK SMILES IDX 58 88 60 89 62 90 59 91
REMARK H PARENT 25 5 11 8 29 34 79 53 53 64
REMARK Flexibility Score: inf
ROOT
ATOM      1  C   UNL A   1      37.425  23.588  25.777  1.00  0.00     0.117 C 
ENDROOT
BRANCH   1   2
ATOM      2  N   UNL A   1      37.143  23.235  24.389  1.00  0.00    -0.355 N 
ATOM      3  C   UNL A   1      36.104  23.395  23.516  1.00  0.00     0.238 C 
ATOM      4  O   UNL A   1      36.286  22.953  22.376  1.00  0.00    -0.273 OA
ATOM      5  H   UNL A   1      37.897  22.756  23.973  1.00  0.00     0.163 HD
BRANCH   3   6
ATOM      6  C   UNL A   1      34.746  24.001  23.886  1.00  0.00     0.163 C 
BRANCH   6   7
ATOM      7  N   UNL A   1      34.349  25.045  22.906  1.00  0.00    -0.198 NA
ATOM      8  H   UNL A   1      34.316  25.924  23.421  1.00  0.00     0.142 HD
BRANCH   7   9
ATOM      9  S   UNL A   1      32.911  24.945  22.046  1.00  0.00     0.241 S 
ATOM     10  O   UNL A   1      32.270  23.684  22.386  1.00  0.00    -0.207 OA
ATOM     11  O   UNL A   1      33.278  25.290  20.706  1.00  0.00    -0.207 OA
BRANCH   9  12
ATOM     12  C   UNL A   1      31.928  26.275  22.692  1.00  0.00     0.085 A 
ATOM     13  C   UNL A   1      28.335  26.704  23.877  1.00  0.00     0.044 C 
ATOM     14  C   UNL A   1      29.753  27.017  23.503  1.00  0.00    -0.050 A 
ATOM     15  C   UNL A   1      30.228  28.328  23.508  1.00  0.00     0.004 A 
ATOM     16  C   UNL A   1      30.622  25.994  23.123  1.00  0.00     0.025 A 
ATOM     17  C   UNL A   1      31.552  28.604  23.150  1.00  0.00     0.005 A 
ATOM     18  C   UNL A   1      32.426  27.585  22.738  1.00  0.00    -0.031 A 
ATOM     19  C   UNL A   1      33.839  27.969  22.393  1.00  0.00     0.046 C 
ENDBRANCH   9  12
ENDBRANCH   7   9
ENDBRANCH   6   7
BRANCH   6  20
ATOM     20  C   UNL A   1      34.608  24.559  25.341  1.00  0.00     0.063 C 
BRANCH  20  21
ATOM     21  C   UNL A   1      33.388  25.327  25.797  1.00  0.00    -0.037 C 
ATOM     22  C   UNL A   1      33.223  26.616  26.110  1.00  0.00     0.001 A 
ATOM     23  C   UNL A   1      32.148  24.575  26.160  1.00  0.00     0.174 C 
ATOM     24  C   UNL A   1      34.029  27.799  26.126  1.00  0.00     0.010 A 
ATOM     25  C   UNL A   1      31.840  26.655  26.638  1.00  0.00     0.065 A 
ATOM     26  N   UNL A   1      31.188  25.538  26.720  1.00  0.00    -0.280 NA
ATOM     27  C   UNL A   1      33.489  28.949  26.571  1.00  0.00     0.001 A 
ATOM     28  C   UNL A   1      31.301  27.959  27.058  1.00  0.00     0.028 A 
ATOM     29  C   UNL A   1      32.105  29.030  27.012  1.00  0.00     0.002 A 
ENDBRANCH  20  21
ENDBRANCH   6  20
ENDBRANCH   3   6
ENDBRANCH   1   2
BRANCH   1  30
ATOM     30  C   UNL A   1      38.539  22.825  26.500  1.00  0.00     0.042 C 
BRANCH  30  31
ATOM     31  C   UNL A   1      39.814  23.579  26.822  1.00  0.00     0.118 C 
BRANCH  31  32
ATOM     32  N   UNL A   1      41.020  23.017  26.238  1.00  0.00    -0.352 N 
ATOM     33  C   UNL A   1      42.194  23.684  25.943  1.00  0.00     0.251 C 
ATOM     34  H   UNL A   1      40.999  22.056  26.029  1.00  0.00     0.163 HD
ATOM     35  O   UNL A   1      43.135  23.091  25.426  1.00  0.00    -0.269 OA
BRANCH  33  36
ATOM     36  C   UNL A   1      42.347  25.080  26.405  1.00  0.00     0.039 A 
ATOM     37  C   UNL A   1      42.866  25.271  27.687  1.00  0.00     0.014 A 
ATOM     38  C   UNL A   1      41.791  26.146  25.695  1.00  0.00     0.014 A 
ATOM     39  C   UNL A   1      42.642  26.480  28.329  1.00  0.00     0.010 A 
ATOM     40  C   UNL A   1      41.475  27.310  26.367  1.00  0.00     0.010 A 
ATOM     41  C   UNL A   1      41.868  27.458  27.694  1.00  0.00    -0.014 A 
BRANCH  41  42
ATOM     42  C   UNL A   1      41.666  28.735  28.356  1.00  0.00     0.031 A 
ATOM     43  C   UNL A   1      42.791  29.671  28.139  1.00  0.00     0.074 A 
ATOM     44  C   UNL A   1      40.530  29.135  28.954  1.00  0.00     0.049 A 
ATOM     45  N   UNL A   1      43.787  29.911  28.925  1.00  0.00    -0.248 NA
ATOM     46  C   UNL A   1      42.931  30.256  26.796  1.00  0.00     0.031 C 
ATOM     47  C   UNL A   1      39.210  28.507  28.909  1.00  0.00     0.029 A 
ATOM     48  N   UNL A   1      40.317  30.269  29.682  1.00  0.00    -0.354 N 
ATOM     49  C   UNL A   1      44.564  30.845  28.247  1.00  0.00     0.074 A 
ATOM     50  C   UNL A   1      44.148  30.791  26.875  1.00  0.00     0.031 C 
ATOM     51  C   UNL A   1      38.295  29.364  29.422  1.00  0.00     0.029 A 
ATOM     52  C   UNL A   1      38.981  30.532  29.954  1.00  0.00     0.049 A 
ATOM     53  H   UNL A   1      41.049  30.851  29.989  1.00  0.00     0.167 HD
ATOM     54  C   UNL A   1      45.234  31.823  28.918  1.00  0.00     0.037 A 
ATOM     55  C   UNL A   1      38.495  31.657  30.534  1.00  0.00     0.037 A 
ATOM     56  C   UNL A   1      45.241  31.555  30.336  1.00  0.00     0.049 A 
ATOM     57  C   UNL A   1      39.614  32.327  31.239  1.00  0.00     0.074 A 
ATOM     58  C   UNL A   1      45.811  30.635  31.187  1.00  0.00     0.029 A 
ATOM     59  N   UNL A   1      44.223  32.164  31.023  1.00  0.00    -0.354 N 
ATOM     60  N   UNL A   1      40.196  31.852  32.304  1.00  0.00    -0.248 NA
ATOM     61  C   UNL A   1      40.333  33.404  30.569  1.00  0.00     0.031 C 
ATOM     62  C   UNL A   1      44.923  30.532  32.301  1.00  0.00     0.029 A 
ATOM     63  C   UNL A   1      43.856  31.408  32.101  1.00  0.00     0.049 A 
ATOM     64  H   UNL A   1      43.815  33.024  30.775  1.00  0.00     0.167 HD
ATOM     65  C   UNL A   1      41.514  32.256  32.192  1.00  0.00     0.074 A 
ATOM     66  C   UNL A   1      41.497  33.342  31.222  1.00  0.00     0.031 C 
ATOM     67  C   UNL A   1      42.522  31.463  32.659  1.00  0.00     0.037 A 
BRANCH  54  68
ATOM     68  C   UNL A   1      45.432  33.241  28.407  1.00  0.00     0.057 A 
ATOM     69  C   UNL A   1      46.653  33.789  27.959  1.00  0.00     0.134 A 
ATOM     70  C   UNL A   1      44.290  33.983  28.044  1.00  0.00     0.134 A 
ATOM     71  F   UNL A   1      47.836  33.198  28.153  1.00  0.00    -0.206 F 
ATOM     72  C   UNL A   1      46.730  34.948  27.180  1.00  0.00     0.040 A 
ATOM     73  C   UNL A   1      44.353  35.114  27.220  1.00  0.00     0.040 A 
ATOM     74  F   UNL A   1      43.063  33.579  28.408  1.00  0.00    -0.206 F 
ATOM     75  C   UNL A   1      45.576  35.593  26.774  1.00  0.00     0.006 A 
ENDBRANCH  54  68
BRANCH  55  76
ATOM     76  C   UNL A   1      37.191  32.328  30.349  1.00  0.00     0.057 A 
ATOM     77  C   UNL A   1      36.080  31.983  31.135  1.00  0.00     0.134 A 
ATOM     78  C   UNL A   1      36.925  33.106  29.212  1.00  0.00     0.134 A 
ATOM     79  F   UNL A   1      36.212  31.178  32.200  1.00  0.00    -0.206 F 
ATOM     80  C   UNL A   1      34.778  32.367  30.799  1.00  0.00     0.040 A 
ATOM     81  C   UNL A   1      35.626  33.493  28.860  1.00  0.00     0.040 A 
ATOM     82  F   UNL A   1      37.916  33.453  28.377  1.00  0.00    -0.206 F 
ATOM     83  C   UNL A   1      34.544  33.112  29.648  1.00  0.00     0.006 A 
ENDBRANCH  55  76
BRANCH  67  84
ATOM     84  C   UNL A   1      42.157  30.436  33.688  1.00  0.00     0.057 A 
ATOM     85  C   UNL A   1      42.266  30.782  35.038  1.00  0.00     0.134 A 
ATOM     86  C   UNL A   1      41.785  29.118  33.392  1.00  0.00     0.134 A 
ATOM     87  F   UNL A   1      42.662  32.016  35.391  1.00  0.00    -0.206 F 
ATOM     88  C   UNL A   1      42.010  29.863  36.056  1.00  0.00     0.040 A 
ATOM     89  C   UNL A   1      41.490  28.197  34.402  1.00  0.00     0.040 A 
ATOM     90  F   UNL A   1      41.735  28.679  32.128  1.00  0.00    -0.206 F 
ATOM     91  C   UNL A   1      41.608  28.568  35.738  1.00  0.00     0.006 A 
ENDBRANCH  67  84
ENDBRANCH  41  42
ENDBRANCH  33  36
ENDBRANCH  31  32
ENDBRANCH  30  31
ENDBRANCH   1  30
TORSDOF 15
ENDMDL
