MODEL 1
REMARK VINA RESULT:     -11.5      0.000      0.000
REMARK SMILES CC(C)(CC(=O)NCCCNC(=O)c1ccc(-c2c3nc(c(-c4c(F)cccc4F)c4ccc([nH]4)c(-c4c(F)cccc4F)c4nc(c(-c5c(F)cccc5F)c5ccc2[nH]5)C=C4)C=C3)cc1)Cc1nc([C@@]2(C)CCCO2)no1
REMARK SMILES IDX 8 1 7 2 5 3 6 4 4 6 2 7 1 8 3 9 68 10 69 11 70 12 79 13
REMARK SMILES IDX 71 14 78 15 72 16 73 17 74 18 77 19 75 20 76 21 9 22 10 23
REMARK SMILES IDX 11 24 12 25 13 27 14 28 15 29 67 30 16 31 66 32 17 33 18 34
REMARK SMILES IDX 19 35 60 36 20 37 65 38 59 39 61 40 21 41 64 42 58 43 57 44
REMARK SMILES IDX 22 46 48 47 31 48 47 49 32 50 35 51 46 52 62 53 33 54 34 55
REMARK SMILES IDX 45 57 63 58 36 59 23 60 24 61 29 62 25 63 26 64 28 65 30 66
REMARK SMILES IDX 27 67 49 68 50 69 55 70 51 71 52 72 54 73 56 74 53 75 37 76
REMARK SMILES IDX 38 77 43 78 39 79 40 80 42 81 44 82 41 83
REMARK H PARENT 7 5 11 26 61 45 35 56
REMARK Flexibility Score: inf
ROOT
ATOM      1  C   UNL A   1      37.479  20.764  24.736  1.00  0.00     0.117 C 
ENDROOT
BRANCH   1   2
ATOM      2  N   UNL A   1      37.833  21.938  25.511  1.00  0.00    -0.356 N 
ATOM      3  C   UNL A   1      37.344  23.203  25.504  1.00  0.00     0.220 C 
ATOM      4  O   UNL A   1      37.714  23.961  26.403  1.00  0.00    -0.275 OA
ATOM      5  H   UNL A   1      38.559  21.790  26.159  1.00  0.00     0.163 HD
BRANCH   3   6
ATOM      6  C   UNL A   1      36.348  23.672  24.463  1.00  0.00     0.107 C 
BRANCH   6   7
ATOM      7  C   UNL A   1      34.833  23.739  24.817  1.00  0.00    -0.018 C 
ATOM      8  C   UNL A   1      34.375  25.174  25.124  1.00  0.00     0.012 C 
ATOM      9  C   UNL A   1      34.079  23.349  23.512  1.00  0.00     0.012 C 
BRANCH   7  10
ATOM     10  C   UNL A   1      34.352  22.743  25.913  1.00  0.00     0.107 C 
BRANCH  10  11
ATOM     11  C   UNL A   1      33.657  21.499  25.482  1.00  0.00     0.227 A 
ATOM     12  N   UNL A   1      34.185  20.395  25.013  1.00  0.00    -0.193 NA
ATOM     13  O   UNL A   1      32.295  21.464  25.518  1.00  0.00    -0.339 OA
ATOM     14  C   UNL A   1      33.086  19.593  24.807  1.00  0.00     0.203 A 
ATOM     15  N   UNL A   1      31.915  20.187  25.096  1.00  0.00    -0.059 NA
BRANCH  14  16
ATOM     16  C   UNL A   1      33.196  18.164  24.330  1.00  0.00     0.128 C 
ATOM     17  C   UNL A   1      32.582  17.997  22.927  1.00  0.00     0.051 C 
ATOM     18  C   UNL A   1      34.649  17.662  24.340  1.00  0.00     0.046 C 
ATOM     19  O   UNL A   1      32.467  17.246  25.194  1.00  0.00    -0.367 OA
ATOM     20  C   UNL A   1      34.498  16.181  24.595  1.00  0.00     0.032 C 
ATOM     21  C   UNL A   1      33.314  16.143  25.534  1.00  0.00     0.161 C 
ENDBRANCH  14  16
ENDBRANCH  10  11
ENDBRANCH   7  10
ENDBRANCH   6   7
ENDBRANCH   3   6
ENDBRANCH   1   2
BRANCH   1  22
ATOM     22  C   UNL A   1      38.415  19.585  24.978  1.00  0.00     0.042 C 
BRANCH  22  23
ATOM     23  C   UNL A   1      39.357  19.745  26.163  1.00  0.00     0.118 C 
BRANCH  23  24
ATOM     24  N   UNL A   1      40.620  19.058  25.958  1.00  0.00    -0.352 N 
ATOM     25  C   UNL A   1      41.900  19.551  25.982  1.00  0.00     0.251 C 
ATOM     26  H   UNL A   1      40.548  18.094  25.773  1.00  0.00     0.163 HD
ATOM     27  O   UNL A   1      42.824  18.847  25.565  1.00  0.00    -0.269 OA
BRANCH  25  28
ATOM     28  C   UNL A   1      42.197  20.915  26.483  1.00  0.00     0.039 A 
ATOM     29  C   UNL A   1      42.145  21.149  27.861  1.00  0.00     0.014 A 
ATOM     30  C   UNL A   1      42.459  21.978  25.615  1.00  0.00     0.014 A 
ATOM     31  C   UNL A   1      42.397  22.429  28.367  1.00  0.00     0.010 A 
ATOM     32  C   UNL A   1      42.789  23.235  26.122  1.00  0.00     0.010 A 
ATOM     33  C   UNL A   1      42.741  23.480  27.503  1.00  0.00    -0.014 A 
BRANCH  33  34
ATOM     34  C   UNL A   1      42.997  24.852  28.016  1.00  0.00     0.031 A 
ATOM     35  C   UNL A   1      44.399  25.271  28.377  1.00  0.00     0.074 A 
ATOM     36  C   UNL A   1      41.975  25.713  28.194  1.00  0.00     0.049 A 
ATOM     37  N   UNL A   1      44.819  26.387  28.916  1.00  0.00    -0.248 NA
ATOM     38  C   UNL A   1      45.469  24.293  28.115  1.00  0.00     0.031 C 
ATOM     39  C   UNL A   1      40.569  25.430  27.907  1.00  0.00     0.029 A 
ATOM     40  N   UNL A   1      41.965  27.002  28.669  1.00  0.00    -0.354 N 
ATOM     41  C   UNL A   1      46.193  26.242  29.069  1.00  0.00     0.074 A 
ATOM     42  C   UNL A   1      46.530  24.910  28.615  1.00  0.00     0.031 C 
ATOM     43  C   UNL A   1      39.835  26.520  28.189  1.00  0.00     0.029 A 
ATOM     44  C   UNL A   1      40.713  27.563  28.713  1.00  0.00     0.049 A 
ATOM     45  H   UNL A   1      42.779  27.478  28.952  1.00  0.00     0.167 HD
ATOM     46  C   UNL A   1      47.098  27.141  29.522  1.00  0.00     0.037 A 
ATOM     47  C   UNL A   1      40.315  28.779  29.135  1.00  0.00     0.037 A 
ATOM     48  C   UNL A   1      46.773  28.476  29.949  1.00  0.00     0.049 A 
ATOM     49  C   UNL A   1      41.339  29.752  29.654  1.00  0.00     0.074 A 
ATOM     50  C   UNL A   1      47.625  29.468  30.403  1.00  0.00     0.029 A 
ATOM     51  N   UNL A   1      45.494  29.008  29.965  1.00  0.00    -0.354 N 
ATOM     52  N   UNL A   1      42.637  29.609  29.762  1.00  0.00    -0.248 NA
ATOM     53  C   UNL A   1      40.839  31.060  30.107  1.00  0.00     0.031 C 
ATOM     54  C   UNL A   1      46.857  30.594  30.716  1.00  0.00     0.029 A 
ATOM     55  C   UNL A   1      45.532  30.314  30.424  1.00  0.00     0.049 A 
ATOM     56  H   UNL A   1      44.678  28.529  29.690  1.00  0.00     0.167 HD
ATOM     57  C   UNL A   1      43.112  30.815  30.261  1.00  0.00     0.074 A 
ATOM     58  C   UNL A   1      41.966  31.683  30.427  1.00  0.00     0.031 C 
ATOM     59  C   UNL A   1      44.385  31.173  30.557  1.00  0.00     0.037 A 
BRANCH  46  60
ATOM     60  C   UNL A   1      48.535  26.714  29.562  1.00  0.00     0.057 A 
ATOM     61  C   UNL A   1      49.400  26.949  28.485  1.00  0.00     0.134 A 
ATOM     62  C   UNL A   1      49.072  26.100  30.700  1.00  0.00     0.134 A 
ATOM     63  F   UNL A   1      48.944  27.523  27.361  1.00  0.00    -0.206 F 
ATOM     64  C   UNL A   1      50.741  26.570  28.529  1.00  0.00     0.040 A 
ATOM     65  C   UNL A   1      50.419  25.738  30.766  1.00  0.00     0.040 A 
ATOM     66  F   UNL A   1      48.301  25.851  31.769  1.00  0.00    -0.206 F 
ATOM     67  C   UNL A   1      51.257  25.968  29.676  1.00  0.00     0.006 A 
ENDBRANCH  46  60
BRANCH  47  68
ATOM     68  C   UNL A   1      38.883  29.165  29.072  1.00  0.00     0.057 A 
ATOM     69  C   UNL A   1      38.060  29.062  30.200  1.00  0.00     0.134 A 
ATOM     70  C   UNL A   1      38.295  29.608  27.882  1.00  0.00     0.134 A 
ATOM     71  F   UNL A   1      38.562  28.623  31.364  1.00  0.00    -0.206 F 
ATOM     72  C   UNL A   1      36.698  29.362  30.142  1.00  0.00     0.040 A 
ATOM     73  C   UNL A   1      36.939  29.933  27.815  1.00  0.00     0.040 A 
ATOM     74  F   UNL A   1      39.030  29.730  26.767  1.00  0.00    -0.206 F 
ATOM     75  C   UNL A   1      36.135  29.802  28.946  1.00  0.00     0.006 A 
ENDBRANCH  47  68
BRANCH  59  76
ATOM     76  C   UNL A   1      44.611  32.573  31.037  1.00  0.00     0.057 A 
ATOM     77  C   UNL A   1      44.622  32.896  32.400  1.00  0.00     0.134 A 
ATOM     78  C   UNL A   1      44.862  33.606  30.124  1.00  0.00     0.134 A 
ATOM     79  F   UNL A   1      44.375  31.955  33.323  1.00  0.00    -0.206 F 
ATOM     80  C   UNL A   1      44.855  34.201  32.837  1.00  0.00     0.040 A 
ATOM     81  C   UNL A   1      45.118  34.909  30.549  1.00  0.00     0.040 A 
ATOM     82  F   UNL A   1      44.873  33.361  28.805  1.00  0.00    -0.206 F 
ATOM     83  C   UNL A   1      45.111  35.210  31.910  1.00  0.00     0.006 A 
ENDBRANCH  59  76
ENDBRANCH  33  34
ENDBRANCH  25  28
ENDBRANCH  23  24
ENDBRANCH  22  23
ENDBRANCH   1  22
TORSDOF 14
ENDMDL
MODEL 2
REMARK VINA RESULT:     -11.5      5.426     10.164
REMARK SMILES CC(C)(CC(=O)NCCCNC(=O)c1ccc(-c2c3nc(c(-c4c(F)cccc4F)c4ccc([nH]4)c(-c4c(F)cccc4F)c4nc(c(-c5c(F)cccc5F)c5ccc2[nH]5)C=C4)C=C3)cc1)Cc1nc([C@@]2(C)CCCO2)no1
REMARK SMILES IDX 8 1 7 2 5 3 6 4 4 6 2 7 1 8 3 9 68 10 69 11 70 12 79 13
REMARK SMILES IDX 71 14 78 15 72 16 73 17 74 18 77 19 75 20 76 21 9 22 10 23
REMARK SMILES IDX 11 24 12 25 13 27 14 28 15 29 67 30 16 31 66 32 17 33 18 34
REMARK SMILES IDX 19 35 60 36 20 37 65 38 59 39 61 40 21 41 64 42 58 43 57 44
REMARK SMILES IDX 22 46 48 47 31 48 47 49 32 50 35 51 46 52 62 53 33 54 34 55
REMARK SMILES IDX 45 57 63 58 36 59 23 60 24 61 29 62 25 63 26 64 28 65 30 66
REMARK SMILES IDX 27 67 49 68 50 69 55 70 51 71 52 72 54 73 56 74 53 75 37 76
REMARK SMILES IDX 38 77 43 78 39 79 40 80 42 81 44 82 41 83
REMARK H PARENT 7 5 11 26 61 45 35 56
REMARK Flexibility Score: inf
ROOT
ATOM      1  C   UNL A   1      31.639  30.658  26.871  1.00  0.00     0.117 C 
ENDROOT
BRANCH   1   2
ATOM      2  N   UNL A   1      33.022  30.303  27.129  1.00  0.00    -0.356 N 
ATOM      3  C   UNL A   1      33.659  29.107  27.125  1.00  0.00     0.220 C 
ATOM      4  O   UNL A   1      34.889  29.117  27.206  1.00  0.00    -0.275 OA
ATOM      5  H   UNL A   1      33.601  31.068  27.347  1.00  0.00     0.163 HD
BRANCH   3   6
ATOM      6  C   UNL A   1      32.908  27.798  26.986  1.00  0.00     0.107 C 
BRANCH   6   7
ATOM      7  C   UNL A   1      32.977  27.006  25.647  1.00  0.00    -0.018 C 
ATOM      8  C   UNL A   1      34.071  25.925  25.671  1.00  0.00     0.012 C 
ATOM      9  C   UNL A   1      31.638  26.217  25.556  1.00  0.00     0.012 C 
BRANCH   7  10
ATOM     10  C   UNL A   1      33.064  27.871  24.355  1.00  0.00     0.107 C 
BRANCH  10  11
ATOM     11  C   UNL A   1      31.811  28.131  23.594  1.00  0.00     0.227 A 
ATOM     12  N   UNL A   1      30.863  28.997  23.861  1.00  0.00    -0.193 NA
ATOM     13  O   UNL A   1      31.543  27.372  22.494  1.00  0.00    -0.339 OA
ATOM     14  C   UNL A   1      29.979  28.813  22.823  1.00  0.00     0.203 A 
ATOM     15  N   UNL A   1      30.339  27.843  21.964  1.00  0.00    -0.059 NA
BRANCH  14  16
ATOM     16  C   UNL A   1      28.734  29.653  22.652  1.00  0.00     0.128 C 
ATOM     17  C   UNL A   1      27.473  28.866  23.052  1.00  0.00     0.051 C 
ATOM     18  C   UNL A   1      28.815  30.970  23.441  1.00  0.00     0.046 C 
ATOM     19  O   UNL A   1      28.533  30.048  21.265  1.00  0.00    -0.367 OA
ATOM     20  C   UNL A   1      27.976  31.915  22.613  1.00  0.00     0.032 C 
ATOM     21  C   UNL A   1      28.280  31.456  21.206  1.00  0.00     0.161 C 
ENDBRANCH  14  16
ENDBRANCH  10  11
ENDBRANCH   7  10
ENDBRANCH   6   7
ENDBRANCH   3   6
ENDBRANCH   1   2
BRANCH   1  22
ATOM     22  C   UNL A   1      31.401  32.165  26.869  1.00  0.00     0.042 C 
BRANCH  22  23
ATOM     23  C   UNL A   1      32.663  33.015  26.825  1.00  0.00     0.118 C 
BRANCH  23  24
ATOM     24  N   UNL A   1      32.530  34.238  27.598  1.00  0.00    -0.352 N 
ATOM     25  C   UNL A   1      33.180  34.627  28.741  1.00  0.00     0.251 C 
ATOM     26  H   UNL A   1      31.874  34.884  27.250  1.00  0.00     0.163 HD
ATOM     27  O   UNL A   1      32.765  35.607  29.365  1.00  0.00    -0.269 OA
BRANCH  25  28
ATOM     28  C   UNL A   1      34.361  33.889  29.252  1.00  0.00     0.039 A 
ATOM     29  C   UNL A   1      34.152  32.763  30.055  1.00  0.00     0.014 A 
ATOM     30  C   UNL A   1      35.665  34.325  29.006  1.00  0.00     0.014 A 
ATOM     31  C   UNL A   1      35.243  32.056  30.573  1.00  0.00     0.010 A 
ATOM     32  C   UNL A   1      36.753  33.576  29.455  1.00  0.00     0.010 A 
ATOM     33  C   UNL A   1      36.555  32.444  30.261  1.00  0.00    -0.014 A 
BRANCH  33  34
ATOM     34  C   UNL A   1      37.730  31.718  30.813  1.00  0.00     0.031 A 
ATOM     35  C   UNL A   1      38.233  32.044  32.195  1.00  0.00     0.074 A 
ATOM     36  C   UNL A   1      38.368  30.794  30.068  1.00  0.00     0.049 A 
ATOM     37  N   UNL A   1      39.287  31.587  32.823  1.00  0.00    -0.248 NA
ATOM     38  C   UNL A   1      37.459  33.032  32.964  1.00  0.00     0.031 C 
ATOM     39  C   UNL A   1      38.001  30.398  28.708  1.00  0.00     0.029 A 
ATOM     40  N   UNL A   1      39.471  30.026  30.351  1.00  0.00    -0.354 N 
ATOM     41  C   UNL A   1      39.309  32.238  34.051  1.00  0.00     0.074 A 
ATOM     42  C   UNL A   1      38.194  33.160  34.059  1.00  0.00     0.031 C 
ATOM     43  C   UNL A   1      38.847  29.445  28.284  1.00  0.00     0.029 A 
ATOM     44  C   UNL A   1      39.839  29.190  29.325  1.00  0.00     0.049 A 
ATOM     45  H   UNL A   1      39.952  30.069  31.209  1.00  0.00     0.167 HD
ATOM     46  C   UNL A   1      40.162  32.069  35.088  1.00  0.00     0.037 A 
ATOM     47  C   UNL A   1      40.865  28.322  29.231  1.00  0.00     0.037 A 
ATOM     48  C   UNL A   1      41.255  31.134  35.096  1.00  0.00     0.049 A 
ATOM     49  C   UNL A   1      41.811  28.168  30.390  1.00  0.00     0.074 A 
ATOM     50  C   UNL A   1      42.162  30.875  36.109  1.00  0.00     0.029 A 
ATOM     51  N   UNL A   1      41.585  30.299  34.041  1.00  0.00    -0.354 N 
ATOM     52  N   UNL A   1      41.799  28.769  31.555  1.00  0.00    -0.248 NA
ATOM     53  C   UNL A   1      42.915  27.210  30.222  1.00  0.00     0.031 C 
ATOM     54  C   UNL A   1      43.055  29.897  35.659  1.00  0.00     0.029 A 
ATOM     55  C   UNL A   1      42.682  29.524  34.378  1.00  0.00     0.049 A 
ATOM     56  H   UNL A   1      41.109  30.260  33.179  1.00  0.00     0.167 HD
ATOM     57  C   UNL A   1      42.867  28.239  32.267  1.00  0.00     0.074 A 
ATOM     58  C   UNL A   1      43.502  27.263  31.410  1.00  0.00     0.031 C 
ATOM     59  C   UNL A   1      43.285  28.537  33.522  1.00  0.00     0.037 A 
BRANCH  46  60
ATOM     60  C   UNL A   1      39.935  32.904  36.313  1.00  0.00     0.057 A 
ATOM     61  C   UNL A   1      38.984  32.546  37.277  1.00  0.00     0.134 A 
ATOM     62  C   UNL A   1      40.698  34.053  36.554  1.00  0.00     0.134 A 
ATOM     63  F   UNL A   1      38.212  31.463  37.100  1.00  0.00    -0.206 F 
ATOM     64  C   UNL A   1      38.785  33.311  38.427  1.00  0.00     0.040 A 
ATOM     65  C   UNL A   1      40.526  34.814  37.711  1.00  0.00     0.040 A 
ATOM     66  F   UNL A   1      41.629  34.449  35.673  1.00  0.00    -0.206 F 
ATOM     67  C   UNL A   1      39.563  34.446  38.650  1.00  0.00     0.006 A 
ENDBRANCH  46  60
BRANCH  47  68
ATOM     68  C   UNL A   1      41.050  27.509  28.003  1.00  0.00     0.057 A 
ATOM     69  C   UNL A   1      41.793  27.999  26.921  1.00  0.00     0.134 A 
ATOM     70  C   UNL A   1      40.464  26.246  27.864  1.00  0.00     0.134 A 
ATOM     71  F   UNL A   1      42.360  29.213  26.988  1.00  0.00    -0.206 F 
ATOM     72  C   UNL A   1      41.925  27.274  25.736  1.00  0.00     0.040 A 
ATOM     73  C   UNL A   1      40.608  25.500  26.693  1.00  0.00     0.040 A 
ATOM     74  F   UNL A   1      39.743  25.720  28.865  1.00  0.00    -0.206 F 
ATOM     75  C   UNL A   1      41.333  26.018  25.622  1.00  0.00     0.006 A 
ENDBRANCH  47  68
BRANCH  59  76
ATOM     76  C   UNL A   1      44.449  27.761  34.059  1.00  0.00     0.057 A 
ATOM     77  C   UNL A   1      44.286  26.518  34.683  1.00  0.00     0.134 A 
ATOM     78  C   UNL A   1      45.755  28.248  33.915  1.00  0.00     0.134 A 
ATOM     79  F   UNL A   1      43.060  26.005  34.863  1.00  0.00    -0.206 F 
ATOM     80  C   UNL A   1      45.379  25.794  35.160  1.00  0.00     0.040 A 
ATOM     81  C   UNL A   1      46.857  27.524  34.368  1.00  0.00     0.040 A 
ATOM     82  F   UNL A   1      45.979  29.430  33.320  1.00  0.00    -0.206 F 
ATOM     83  C   UNL A   1      46.670  26.295  34.997  1.00  0.00     0.006 A 
ENDBRANCH  59  76
ENDBRANCH  33  34
ENDBRANCH  25  28
ENDBRANCH  23  24
ENDBRANCH  22  23
ENDBRANCH   1  22
TORSDOF 14
ENDMDL
MODEL 3
REMARK VINA RESULT:     -11.4      5.749     10.171
REMARK SMILES CC(C)(CC(=O)NCCCNC(=O)c1ccc(-c2c3nc(c(-c4c(F)cccc4F)c4ccc([nH]4)c(-c4c(F)cccc4F)c4nc(c(-c5c(F)cccc5F)c5ccc2[nH]5)C=C4)C=C3)cc1)Cc1nc([C@@]2(C)CCCO2)no1
REMARK SMILES IDX 8 1 7 2 5 3 6 4 4 6 2 7 1 8 3 9 68 10 69 11 70 12 79 13
REMARK SMILES IDX 71 14 78 15 72 16 73 17 74 18 77 19 75 20 76 21 9 22 10 23
REMARK SMILES IDX 11 24 12 25 13 27 14 28 15 29 67 30 16 31 66 32 17 33 18 34
REMARK SMILES IDX 19 35 60 36 20 37 65 38 59 39 61 40 21 41 64 42 58 43 57 44
REMARK SMILES IDX 22 46 48 47 31 48 47 49 32 50 35 51 46 52 62 53 33 54 34 55
REMARK SMILES IDX 45 57 63 58 36 59 23 60 24 61 29 62 25 63 26 64 28 65 30 66
REMARK SMILES IDX 27 67 49 68 50 69 55 70 51 71 52 72 54 73 56 74 53 75 37 76
REMARK SMILES IDX 38 77 43 78 39 79 40 80 42 81 44 82 41 83
REMARK H PARENT 7 5 11 26 61 45 35 56
REMARK Flexibility Score: inf
ROOT
ATOM      1  C   UNL A   1      31.773  30.733  26.758  1.00  0.00     0.117 C 
ENDROOT
BRANCH   1   2
ATOM      2  N   UNL A   1      33.141  30.339  27.040  1.00  0.00    -0.356 N 
ATOM      3  C   UNL A   1      33.737  29.122  27.081  1.00  0.00     0.220 C 
ATOM      4  O   UNL A   1      34.965  29.093  27.174  1.00  0.00    -0.275 OA
ATOM      5  H   UNL A   1      33.744  31.091  27.239  1.00  0.00     0.163 HD
BRANCH   3   6
ATOM      6  C   UNL A   1      32.943  27.836  26.977  1.00  0.00     0.107 C 
BRANCH   6   7
ATOM      7  C   UNL A   1      32.965  27.019  25.652  1.00  0.00    -0.018 C 
ATOM      8  C   UNL A   1      34.032  25.912  25.674  1.00  0.00     0.012 C 
ATOM      9  C   UNL A   1      31.605  26.263  25.601  1.00  0.00     0.012 C 
BRANCH   7  10
ATOM     10  C   UNL A   1      33.047  27.859  24.343  1.00  0.00     0.107 C 
BRANCH  10  11
ATOM     11  C   UNL A   1      31.788  28.126  23.595  1.00  0.00     0.227 A 
ATOM     12  N   UNL A   1      30.870  29.028  23.845  1.00  0.00    -0.193 NA
ATOM     13  O   UNL A   1      31.479  27.334  22.529  1.00  0.00    -0.339 OA
ATOM     14  C   UNL A   1      29.962  28.831  22.830  1.00  0.00     0.203 A 
ATOM     15  N   UNL A   1      30.279  27.819  22.002  1.00  0.00    -0.059 NA
BRANCH  14  16
ATOM     16  C   UNL A   1      28.738  29.698  22.649  1.00  0.00     0.128 C 
ATOM     17  C   UNL A   1      27.456  28.938  23.034  1.00  0.00     0.051 C 
ATOM     18  C   UNL A   1      28.840  31.011  23.442  1.00  0.00     0.046 C 
ATOM     19  O   UNL A   1      28.560  30.101  21.262  1.00  0.00    -0.367 OA
ATOM     20  C   UNL A   1      28.031  31.977  22.609  1.00  0.00     0.032 C 
ATOM     21  C   UNL A   1      28.338  31.514  21.204  1.00  0.00     0.161 C 
ENDBRANCH  14  16
ENDBRANCH  10  11
ENDBRANCH   7  10
ENDBRANCH   6   7
ENDBRANCH   3   6
ENDBRANCH   1   2
BRANCH   1  22
ATOM     22  C   UNL A   1      31.548  32.237  26.877  1.00  0.00     0.042 C 
BRANCH  22  23
ATOM     23  C   UNL A   1      32.815  33.064  27.044  1.00  0.00     0.118 C 
BRANCH  23  24
ATOM     24  N   UNL A   1      32.548  34.369  27.623  1.00  0.00    -0.352 N 
ATOM     25  C   UNL A   1      33.050  34.942  28.764  1.00  0.00     0.251 C 
ATOM     26  H   UNL A   1      31.909  34.927  27.123  1.00  0.00     0.163 HD
ATOM     27  O   UNL A   1      32.529  35.971  29.200  1.00  0.00    -0.269 OA
BRANCH  25  28
ATOM     28  C   UNL A   1      34.195  34.344  29.492  1.00  0.00     0.039 A 
ATOM     29  C   UNL A   1      35.490  34.581  29.017  1.00  0.00     0.014 A 
ATOM     30  C   UNL A   1      34.011  33.502  30.592  1.00  0.00     0.014 A 
ATOM     31  C   UNL A   1      36.592  34.014  29.666  1.00  0.00     0.010 A 
ATOM     32  C   UNL A   1      35.112  33.002  31.287  1.00  0.00     0.010 A 
ATOM     33  C   UNL A   1      36.415  33.235  30.820  1.00  0.00    -0.014 A 
BRANCH  33  34
ATOM     34  C   UNL A   1      37.570  32.609  31.517  1.00  0.00     0.031 A 
ATOM     35  C   UNL A   1      38.274  31.431  30.895  1.00  0.00     0.074 A 
ATOM     36  C   UNL A   1      37.966  33.067  32.721  1.00  0.00     0.049 A 
ATOM     37  N   UNL A   1      39.243  30.694  31.377  1.00  0.00    -0.248 NA
ATOM     38  C   UNL A   1      37.813  31.015  29.560  1.00  0.00     0.031 C 
ATOM     39  C   UNL A   1      37.360  34.184  33.446  1.00  0.00     0.029 A 
ATOM     40  N   UNL A   1      38.975  32.640  33.551  1.00  0.00    -0.354 N 
ATOM     41  C   UNL A   1      39.497  29.724  30.415  1.00  0.00     0.074 A 
ATOM     42  C   UNL A   1      38.546  29.932  29.344  1.00  0.00     0.031 C 
ATOM     43  C   UNL A   1      38.021  34.369  34.601  1.00  0.00     0.029 A 
ATOM     44  C   UNL A   1      39.072  33.362  34.715  1.00  0.00     0.049 A 
ATOM     45  H   UNL A   1      39.571  31.889  33.331  1.00  0.00     0.167 HD
ATOM     46  C   UNL A   1      40.449  28.761  30.409  1.00  0.00     0.037 A 
ATOM     47  C   UNL A   1      39.910  33.222  35.761  1.00  0.00     0.037 A 
ATOM     48  C   UNL A   1      41.414  28.567  31.457  1.00  0.00     0.049 A 
ATOM     49  C   UNL A   1      40.945  32.131  35.738  1.00  0.00     0.074 A 
ATOM     50  C   UNL A   1      42.432  27.632  31.530  1.00  0.00     0.029 A 
ATOM     51  N   UNL A   1      41.486  29.328  32.613  1.00  0.00    -0.354 N 
ATOM     52  N   UNL A   1      41.191  31.243  34.807  1.00  0.00    -0.248 NA
ATOM     53  C   UNL A   1      41.823  32.026  36.914  1.00  0.00     0.031 C 
ATOM     54  C   UNL A   1      43.107  27.813  32.742  1.00  0.00     0.029 A 
ATOM     55  C   UNL A   1      42.529  28.883  33.407  1.00  0.00     0.049 A 
ATOM     56  H   UNL A   1      40.884  30.075  32.837  1.00  0.00     0.167 HD
ATOM     57  C   UNL A   1      42.270  30.498  35.267  1.00  0.00     0.074 A 
ATOM     58  C   UNL A   1      42.638  31.043  36.556  1.00  0.00     0.031 C 
ATOM     59  C   UNL A   1      42.899  29.454  34.675  1.00  0.00     0.037 A 
BRANCH  46  60
ATOM     60  C   UNL A   1      40.504  27.853  29.217  1.00  0.00     0.057 A 
ATOM     61  C   UNL A   1      39.692  26.715  29.125  1.00  0.00     0.134 A 
ATOM     62  C   UNL A   1      41.344  28.137  28.133  1.00  0.00     0.134 A 
ATOM     63  F   UNL A   1      38.873  26.382  30.134  1.00  0.00    -0.206 F 
ATOM     64  C   UNL A   1      39.728  25.880  28.008  1.00  0.00     0.040 A 
ATOM     65  C   UNL A   1      41.372  27.323  26.999  1.00  0.00     0.040 A 
ATOM     66  F   UNL A   1      42.143  29.213  28.154  1.00  0.00    -0.206 F 
ATOM     67  C   UNL A   1      40.565  26.188  26.937  1.00  0.00     0.006 A 
ENDBRANCH  46  60
BRANCH  47  68
ATOM     68  C   UNL A   1      39.826  34.148  36.919  1.00  0.00     0.057 A 
ATOM     69  C   UNL A   1      39.058  33.824  38.044  1.00  0.00     0.134 A 
ATOM     70  C   UNL A   1      40.476  35.387  36.916  1.00  0.00     0.134 A 
ATOM     71  F   UNL A   1      38.394  32.660  38.096  1.00  0.00    -0.206 F 
ATOM     72  C   UNL A   1      38.919  34.710  39.114  1.00  0.00     0.040 A 
ATOM     73  C   UNL A   1      40.365  36.272  37.989  1.00  0.00     0.040 A 
ATOM     74  F   UNL A   1      41.229  35.754  35.868  1.00  0.00    -0.206 F 
ATOM     75  C   UNL A   1      39.577  35.938  39.088  1.00  0.00     0.006 A 
ENDBRANCH  47  68
BRANCH  59  76
ATOM     76  C   UNL A   1      44.080  28.870  35.388  1.00  0.00     0.057 A 
ATOM     77  C   UNL A   1      43.944  27.838  36.323  1.00  0.00     0.134 A 
ATOM     78  C   UNL A   1      45.376  29.321  35.103  1.00  0.00     0.134 A 
ATOM     79  F   UNL A   1      42.729  27.371  36.648  1.00  0.00    -0.206 F 
ATOM     80  C   UNL A   1      45.054  27.286  36.966  1.00  0.00     0.040 A 
ATOM     81  C   UNL A   1      46.494  28.764  35.722  1.00  0.00     0.040 A 
ATOM     82  F   UNL A   1      45.575  30.304  34.211  1.00  0.00    -0.206 F 
ATOM     83  C   UNL A   1      46.334  27.746  36.660  1.00  0.00     0.006 A 
ENDBRANCH  59  76
ENDBRANCH  33  34
ENDBRANCH  25  28
ENDBRANCH  23  24
ENDBRANCH  22  23
ENDBRANCH   1  22
TORSDOF 14
ENDMDL
