MODEL 1
REMARK VINA RESULT:     -13.5      0.000      0.000
REMARK SMILES CCCN1C(=O)c2ccc(C(=O)Nc3ccc(OCC(=O)NCCCNC(=O)c4ccc(-c5c6nc(c(-c7c(F)cccc7F)c7ccc([nH]7)c(-c7c(F)cccc7F)c7nc(c(-c8c(F)cccc8F)c8ccc5[nH]8)C=C7)C=C6)cc4)cc3C)cc2C1=O
REMARK SMILES IDX 20 1 21 2 22 3 19 5 18 6 17 7 14 8 15 9 84 10 16 11 83 12
REMARK SMILES IDX 85 13 13 14 11 15 12 16 10 18 4 19 5 20 88 21 6 22 7 23
REMARK SMILES IDX 87 24 89 25 8 26 86 27 9 28 3 29 2 30 1 31 23 32 24 33 25 34
REMARK SMILES IDX 26 35 27 36 28 38 29 39 30 40 82 41 31 42 81 43 32 44 33 45
REMARK SMILES IDX 34 46 75 47 35 48 80 49 74 50 76 51 36 52 79 53 73 54 72 55
REMARK SMILES IDX 37 57 63 58 46 59 62 60 47 61 50 62 61 63 77 64 48 65 49 66
REMARK SMILES IDX 60 68 78 69 51 70 38 71 39 72 44 73 40 74 41 75 43 76 45 77
REMARK SMILES IDX 42 78 64 79 65 80 70 81 66 82 67 83 69 84 71 85 68 86 52 87
REMARK SMILES IDX 53 88 58 89 54 90 55 91 57 92 59 93 56 94
REMARK H PARENT 22 4 13 17 26 37 76 56 50 67
REMARK Flexibility Score: inf
ROOT
ATOM      1  C   UNL A   1      39.684  21.685  26.419  1.00  0.00     0.257 C 
ATOM      2  O   UNL A   1      39.661  22.832  26.869  1.00  0.00    -0.271 OA
ATOM      3  N   UNL A   1      40.830  20.951  26.547  1.00  0.00    -0.353 N 
ATOM      4  H   UNL A   1      41.588  21.407  26.979  1.00  0.00     0.163 HD
ENDROOT
BRANCH   1   5
ATOM      5  C   UNL A   1      38.455  21.064  25.739  1.00  0.00     0.329 C 
BRANCH   5   6
ATOM      6  O   UNL A   1      37.619  21.969  25.032  1.00  0.00    -0.484 OA
BRANCH   6   7
ATOM      7  C   UNL A   1      36.287  21.978  25.342  1.00  0.00     0.120 A 
ATOM      8  C   UNL A   1      33.650  22.124  26.297  1.00  0.00     0.044 A 
ATOM      9  C   UNL A   1      34.536  23.189  26.495  1.00  0.00     0.030 A 
ATOM     10  C   UNL A   1      34.032  21.041  25.487  1.00  0.00    -0.024 A 
ATOM     11  C   UNL A   1      35.853  23.104  26.039  1.00  0.00     0.048 A 
ATOM     12  C   UNL A   1      35.362  20.983  25.024  1.00  0.00     0.052 A 
ATOM     13  C   UNL A   1      33.071  19.991  24.996  1.00  0.00     0.047 C 
BRANCH   8  14
ATOM     14  N   UNL A   1      32.446  22.190  27.019  1.00  0.00    -0.322 N 
ATOM     15  C   UNL A   1      31.343  22.999  26.818  1.00  0.00     0.255 C 
ATOM     16  O   UNL A   1      30.410  22.960  27.620  1.00  0.00    -0.269 OA
ATOM     17  H   UNL A   1      32.379  21.569  27.780  1.00  0.00     0.170 HD
BRANCH  15  18
ATOM     18  C   UNL A   1      31.209  23.872  25.616  1.00  0.00     0.041 A 
ATOM     19  N   UNL A   1      31.520  27.745  23.172  1.00  0.00    -0.274 N 
ATOM     20  C   UNL A   1      31.391  26.593  22.455  1.00  0.00     0.261 C 
ATOM     21  C   UNL A   1      31.407  27.507  24.523  1.00  0.00     0.261 C 
ATOM     22  O   UNL A   1      31.329  26.397  21.254  1.00  0.00    -0.269 OA
ATOM     23  C   UNL A   1      31.277  25.509  23.411  1.00  0.00     0.053 A 
ATOM     24  C   UNL A   1      31.306  26.054  24.678  1.00  0.00     0.054 A 
ATOM     25  O   UNL A   1      31.341  28.286  25.443  1.00  0.00    -0.269 OA
ATOM     26  C   UNL A   1      31.139  24.157  23.185  1.00  0.00     0.015 A 
ATOM     27  C   UNL A   1      31.262  25.264  25.808  1.00  0.00     0.028 A 
ATOM     28  C   UNL A   1      31.066  23.339  24.311  1.00  0.00     0.015 A 
BRANCH  19  29
ATOM     29  C   UNL A   1      31.519  29.075  22.595  1.00  0.00     0.129 C 
BRANCH  29  30
ATOM     30  C   UNL A   1      30.168  29.586  22.090  1.00  0.00     0.019 C 
ATOM     31  C   UNL A   1      29.210  29.947  23.211  1.00  0.00     0.006 C 
ENDBRANCH  29  30
ENDBRANCH  19  29
ENDBRANCH  15  18
ENDBRANCH   8  14
ENDBRANCH   6   7
ENDBRANCH   5   6
ENDBRANCH   1   5
BRANCH   3  32
ATOM     32  C   UNL A   1      41.070  19.585  26.123  1.00  0.00     0.117 C 
BRANCH  32  33
ATOM     33  C   UNL A   1      42.510  19.152  26.345  1.00  0.00     0.042 C 
BRANCH  33  34
ATOM     34  C   UNL A   1      43.362  19.218  25.091  1.00  0.00     0.118 C 
BRANCH  34  35
ATOM     35  N   UNL A   1      44.685  19.801  25.288  1.00  0.00    -0.352 N 
ATOM     36  C   UNL A   1      45.087  21.121  25.390  1.00  0.00     0.251 C 
ATOM     37  H   UNL A   1      45.414  19.144  25.362  1.00  0.00     0.163 HD
ATOM     38  O   UNL A   1      46.289  21.363  25.481  1.00  0.00    -0.269 OA
BRANCH  36  39
ATOM     39  C   UNL A   1      44.103  22.215  25.600  1.00  0.00     0.039 A 
ATOM     40  C   UNL A   1      44.175  23.307  24.717  1.00  0.00     0.014 A 
ATOM     41  C   UNL A   1      43.437  22.355  26.806  1.00  0.00     0.014 A 
ATOM     42  C   UNL A   1      43.905  24.582  25.192  1.00  0.00     0.010 A 
ATOM     43  C   UNL A   1      43.348  23.607  27.343  1.00  0.00     0.010 A 
ATOM     44  C   UNL A   1      43.643  24.712  26.547  1.00  0.00    -0.014 A 
BRANCH  44  45
ATOM     45  C   UNL A   1      43.584  25.960  27.268  1.00  0.00     0.031 A 
ATOM     46  C   UNL A   1      42.274  26.618  27.360  1.00  0.00     0.074 A 
ATOM     47  C   UNL A   1      44.651  26.289  28.026  1.00  0.00     0.049 A 
ATOM     48  N   UNL A   1      42.101  27.830  27.737  1.00  0.00    -0.248 NA
ATOM     49  C   UNL A   1      41.025  25.947  26.995  1.00  0.00     0.031 C 
ATOM     50  C   UNL A   1      44.710  27.222  29.139  1.00  0.00     0.029 A 
ATOM     51  N   UNL A   1      45.987  25.909  27.828  1.00  0.00    -0.354 N 
ATOM     52  C   UNL A   1      40.752  28.012  27.944  1.00  0.00     0.074 A 
ATOM     53  C   UNL A   1      40.116  26.845  27.386  1.00  0.00     0.031 C 
ATOM     54  C   UNL A   1      45.993  27.566  29.347  1.00  0.00     0.029 A 
ATOM     55  C   UNL A   1      46.768  27.010  28.260  1.00  0.00     0.049 A 
ATOM     56  H   UNL A   1      46.316  25.055  27.464  1.00  0.00     0.167 HD
ATOM     57  C   UNL A   1      40.353  29.073  28.698  1.00  0.00     0.037 A 
ATOM     58  C   UNL A   1      47.470  27.762  27.357  1.00  0.00     0.037 A 
ATOM     59  C   UNL A   1      41.516  29.842  29.130  1.00  0.00     0.049 A 
ATOM     60  C   UNL A   1      46.927  29.176  27.225  1.00  0.00     0.074 A 
ATOM     61  C   UNL A   1      42.260  29.844  30.294  1.00  0.00     0.029 A 
ATOM     62  N   UNL A   1      42.295  30.472  28.183  1.00  0.00    -0.354 N 
ATOM     63  N   UNL A   1      45.777  29.563  27.710  1.00  0.00    -0.248 NA
ATOM     64  C   UNL A   1      47.607  30.253  26.511  1.00  0.00     0.031 C 
ATOM     65  C   UNL A   1      43.523  30.437  30.018  1.00  0.00     0.029 A 
ATOM     66  C   UNL A   1      43.515  30.854  28.698  1.00  0.00     0.049 A 
ATOM     67  H   UNL A   1      42.013  30.631  27.253  1.00  0.00     0.167 HD
ATOM     68  C   UNL A   1      45.560  30.877  27.416  1.00  0.00     0.074 A 
ATOM     69  C   UNL A   1      46.720  31.258  26.628  1.00  0.00     0.031 C 
ATOM     70  C   UNL A   1      44.448  31.550  27.831  1.00  0.00     0.037 A 
BRANCH  57  71
ATOM     71  C   UNL A   1      38.973  29.275  29.263  1.00  0.00     0.057 A 
ATOM     72  C   UNL A   1      37.924  29.714  28.429  1.00  0.00     0.134 A 
ATOM     73  C   UNL A   1      38.602  29.058  30.600  1.00  0.00     0.134 A 
ATOM     74  F   UNL A   1      38.097  29.910  27.116  1.00  0.00    -0.206 F 
ATOM     75  C   UNL A   1      36.633  29.978  28.896  1.00  0.00     0.040 A 
ATOM     76  C   UNL A   1      37.318  29.351  31.089  1.00  0.00     0.040 A 
ATOM     77  F   UNL A   1      39.444  28.507  31.484  1.00  0.00    -0.206 F 
ATOM     78  C   UNL A   1      36.329  29.816  30.236  1.00  0.00     0.006 A 
ENDBRANCH  57  71
BRANCH  58  79
ATOM     79  C   UNL A   1      47.992  26.906  26.252  1.00  0.00     0.057 A 
ATOM     80  C   UNL A   1      47.324  26.985  25.011  1.00  0.00     0.134 A 
ATOM     81  C   UNL A   1      49.337  26.533  26.229  1.00  0.00     0.134 A 
ATOM     82  F   UNL A   1      46.020  27.306  24.966  1.00  0.00    -0.206 F 
ATOM     83  C   UNL A   1      48.020  26.932  23.802  1.00  0.00     0.040 A 
ATOM     84  C   UNL A   1      50.035  26.442  25.020  1.00  0.00     0.040 A 
ATOM     85  F   UNL A   1      50.031  26.408  27.370  1.00  0.00    -0.206 F 
ATOM     86  C   UNL A   1      49.394  26.715  23.810  1.00  0.00     0.006 A 
ENDBRANCH  58  79
BRANCH  70  87
ATOM     87  C   UNL A   1      44.143  32.968  27.452  1.00  0.00     0.057 A 
ATOM     88  C   UNL A   1      44.108  34.003  28.388  1.00  0.00     0.134 A 
ATOM     89  C   UNL A   1      43.770  33.315  26.136  1.00  0.00     0.134 A 
ATOM     90  F   UNL A   1      44.350  33.769  29.686  1.00  0.00    -0.206 F 
ATOM     91  C   UNL A   1      43.803  35.318  28.023  1.00  0.00     0.040 A 
ATOM     92  C   UNL A   1      43.397  34.607  25.773  1.00  0.00     0.040 A 
ATOM     93  F   UNL A   1      43.778  32.423  25.133  1.00  0.00    -0.206 F 
ATOM     94  C   UNL A   1      43.440  35.622  26.714  1.00  0.00     0.006 A 
ENDBRANCH  70  87
ENDBRANCH  44  45
ENDBRANCH  36  39
ENDBRANCH  34  35
ENDBRANCH  33  34
ENDBRANCH  32  33
ENDBRANCH   3  32
TORSDOF 16
ENDMDL
MODEL 2
REMARK VINA RESULT:     -13.1      4.696     10.677
REMARK SMILES CCCN1C(=O)c2ccc(C(=O)Nc3ccc(OCC(=O)NCCCNC(=O)c4ccc(-c5c6nc(c(-c7c(F)cccc7F)c7ccc([nH]7)c(-c7c(F)cccc7F)c7nc(c(-c8c(F)cccc8F)c8ccc5[nH]8)C=C7)C=C6)cc4)cc3C)cc2C1=O
REMARK SMILES IDX 20 1 21 2 22 3 19 5 18 6 17 7 14 8 15 9 84 10 16 11 83 12
REMARK SMILES IDX 85 13 13 14 11 15 12 16 10 18 4 19 5 20 88 21 6 22 7 23
REMARK SMILES IDX 87 24 89 25 8 26 86 27 9 28 3 29 2 30 1 31 23 32 24 33 25 34
REMARK SMILES IDX 26 35 27 36 28 38 29 39 30 40 82 41 31 42 81 43 32 44 33 45
REMARK SMILES IDX 34 46 75 47 35 48 80 49 74 50 76 51 36 52 79 53 73 54 72 55
REMARK SMILES IDX 37 57 63 58 46 59 62 60 47 61 50 62 61 63 77 64 48 65 49 66
REMARK SMILES IDX 60 68 78 69 51 70 38 71 39 72 44 73 40 74 41 75 43 76 45 77
REMARK SMILES IDX 42 78 64 79 65 80 70 81 66 82 67 83 69 84 71 85 68 86 52 87
REMARK SMILES IDX 53 88 58 89 54 90 55 91 57 92 59 93 56 94
REMARK H PARENT 22 4 13 17 26 37 76 56 50 67
REMARK Flexibility Score: inf
ROOT
ATOM      1  C   UNL A   1      34.782  33.058  27.963  1.00  0.00     0.257 C 
ATOM      2  O   UNL A   1      35.851  32.890  27.373  1.00  0.00    -0.271 OA
ATOM      3  N   UNL A   1      34.248  34.316  28.012  1.00  0.00    -0.353 N 
ATOM      4  H   UNL A   1      34.778  35.026  27.583  1.00  0.00     0.163 HD
ENDROOT
BRANCH   1   5
ATOM      5  C   UNL A   1      34.034  31.889  28.620  1.00  0.00     0.329 C 
BRANCH   5   6
ATOM      6  O   UNL A   1      34.243  30.614  28.028  1.00  0.00    -0.484 OA
BRANCH   6   7
ATOM      7  C   UNL A   1      33.563  30.330  26.876  1.00  0.00     0.120 A 
ATOM      8  C   UNL A   1      31.893  29.654  24.721  1.00  0.00     0.044 A 
ATOM      9  C   UNL A   1      31.405  30.426  25.782  1.00  0.00     0.030 A 
ATOM     10  C   UNL A   1      33.262  29.343  24.658  1.00  0.00    -0.024 A 
ATOM     11  C   UNL A   1      32.231  30.741  26.862  1.00  0.00     0.048 A 
ATOM     12  C   UNL A   1      34.081  29.684  25.753  1.00  0.00     0.052 A 
ATOM     13  C   UNL A   1      33.926  28.759  23.439  1.00  0.00     0.047 C 
BRANCH   8  14
ATOM     14  N   UNL A   1      30.926  29.167  23.825  1.00  0.00    -0.322 N 
ATOM     15  C   UNL A   1      30.641  27.864  23.461  1.00  0.00     0.255 C 
ATOM     16  O   UNL A   1      29.800  27.649  22.589  1.00  0.00    -0.269 OA
ATOM     17  H   UNL A   1      30.370  29.855  23.393  1.00  0.00     0.170 HD
BRANCH  15  18
ATOM     18  C   UNL A   1      31.268  26.695  24.145  1.00  0.00     0.041 A 
ATOM     19  N   UNL A   1      34.239  23.239  24.695  1.00  0.00    -0.274 N 
ATOM     20  C   UNL A   1      33.589  23.655  25.818  1.00  0.00     0.261 C 
ATOM     21  C   UNL A   1      33.765  23.885  23.576  1.00  0.00     0.261 C 
ATOM     22  O   UNL A   1      33.643  23.260  26.970  1.00  0.00    -0.269 OA
ATOM     23  C   UNL A   1      32.687  24.717  25.418  1.00  0.00     0.053 A 
ATOM     24  C   UNL A   1      32.801  24.880  24.053  1.00  0.00     0.054 A 
ATOM     25  O   UNL A   1      34.004  23.689  22.409  1.00  0.00    -0.269 OA
ATOM     26  C   UNL A   1      31.822  25.464  26.187  1.00  0.00     0.015 A 
ATOM     27  C   UNL A   1      32.095  25.855  23.378  1.00  0.00     0.028 A 
ATOM     28  C   UNL A   1      31.078  26.439  25.525  1.00  0.00     0.015 A 
BRANCH  19  29
ATOM     29  C   UNL A   1      35.127  22.095  24.637  1.00  0.00     0.129 C 
BRANCH  29  30
ATOM     30  C   UNL A   1      36.600  22.402  24.360  1.00  0.00     0.019 C 
ATOM     31  C   UNL A   1      37.184  23.431  25.312  1.00  0.00     0.006 C 
ENDBRANCH  29  30
ENDBRANCH  19  29
ENDBRANCH  15  18
ENDBRANCH   8  14
ENDBRANCH   6   7
ENDBRANCH   5   6
ENDBRANCH   1   5
BRANCH   3  32
ATOM     32  C   UNL A   1      32.998  34.735  28.617  1.00  0.00     0.117 C 
BRANCH  32  33
ATOM     33  C   UNL A   1      33.175  35.913  29.560  1.00  0.00     0.042 C 
BRANCH  33  34
ATOM     34  C   UNL A   1      32.635  35.658  30.955  1.00  0.00     0.118 C 
BRANCH  34  35
ATOM     35  N   UNL A   1      33.548  36.025  32.033  1.00  0.00    -0.352 N 
ATOM     36  C   UNL A   1      34.562  35.309  32.644  1.00  0.00     0.251 C 
ATOM     37  H   UNL A   1      33.421  36.935  32.384  1.00  0.00     0.163 HD
ATOM     38  O   UNL A   1      35.148  35.819  33.597  1.00  0.00    -0.269 OA
BRANCH  36  39
ATOM     39  C   UNL A   1      35.085  34.050  32.052  1.00  0.00     0.039 A 
ATOM     40  C   UNL A   1      35.074  32.912  32.878  1.00  0.00     0.014 A 
ATOM     41  C   UNL A   1      35.895  34.072  30.930  1.00  0.00     0.014 A 
ATOM     42  C   UNL A   1      36.106  31.990  32.775  1.00  0.00     0.010 A 
ATOM     43  C   UNL A   1      37.012  33.286  30.935  1.00  0.00     0.010 A 
ATOM     44  C   UNL A   1      37.138  32.288  31.900  1.00  0.00    -0.014 A 
BRANCH  44  45
ATOM     45  C   UNL A   1      38.400  31.593  31.832  1.00  0.00     0.031 A 
ATOM     46  C   UNL A   1      38.451  30.375  31.013  1.00  0.00     0.074 A 
ATOM     47  C   UNL A   1      39.491  32.245  32.288  1.00  0.00     0.049 A 
ATOM     48  N   UNL A   1      39.404  29.520  31.052  1.00  0.00    -0.248 NA
ATOM     49  C   UNL A   1      37.384  30.003  30.083  1.00  0.00     0.031 C 
ATOM     50  C   UNL A   1      40.888  31.987  31.977  1.00  0.00     0.029 A 
ATOM     51  N   UNL A   1      39.540  33.239  33.277  1.00  0.00    -0.354 N 
ATOM     52  C   UNL A   1      39.239  28.665  29.985  1.00  0.00     0.074 A 
ATOM     53  C   UNL A   1      37.925  28.949  29.465  1.00  0.00     0.031 C 
ATOM     54  C   UNL A   1      41.654  32.562  32.921  1.00  0.00     0.029 A 
ATOM     55  C   UNL A   1      40.768  33.045  33.956  1.00  0.00     0.049 A 
ATOM     56  H   UNL A   1      38.861  33.929  33.461  1.00  0.00     0.167 HD
ATOM     57  C   UNL A   1      40.305  27.919  29.586  1.00  0.00     0.037 A 
ATOM     58  C   UNL A   1      40.784  32.594  35.248  1.00  0.00     0.037 A 
ATOM     59  C   UNL A   1      41.453  28.193  30.443  1.00  0.00     0.049 A 
ATOM     60  C   UNL A   1      41.369  31.197  35.374  1.00  0.00     0.074 A 
ATOM     61  C   UNL A   1      42.542  29.034  30.316  1.00  0.00     0.029 A 
ATOM     62  N   UNL A   1      41.388  27.860  31.780  1.00  0.00    -0.354 N 
ATOM     63  N   UNL A   1      41.594  30.408  34.358  1.00  0.00    -0.248 NA
ATOM     64  C   UNL A   1      41.713  30.563  36.644  1.00  0.00     0.031 C 
ATOM     65  C   UNL A   1      43.097  29.247  31.607  1.00  0.00     0.029 A 
ATOM     66  C   UNL A   1      42.381  28.479  32.508  1.00  0.00     0.049 A 
ATOM     67  H   UNL A   1      40.714  27.255  32.167  1.00  0.00     0.167 HD
ATOM     68  C   UNL A   1      42.104  29.218  34.790  1.00  0.00     0.074 A 
ATOM     69  C   UNL A   1      42.124  29.348  36.237  1.00  0.00     0.031 C 
ATOM     70  C   UNL A   1      42.462  28.218  33.934  1.00  0.00     0.037 A 
BRANCH  57  71
ATOM     71  C   UNL A   1      40.403  27.157  28.292  1.00  0.00     0.057 A 
ATOM     72  C   UNL A   1      39.755  25.913  28.152  1.00  0.00     0.134 A 
ATOM     73  C   UNL A   1      41.107  27.579  27.151  1.00  0.00     0.134 A 
ATOM     74  F   UNL A   1      38.994  25.397  29.125  1.00  0.00    -0.206 F 
ATOM     75  C   UNL A   1      39.851  25.123  27.002  1.00  0.00     0.040 A 
ATOM     76  C   UNL A   1      41.238  26.781  26.002  1.00  0.00     0.040 A 
ATOM     77  F   UNL A   1      41.656  28.797  27.073  1.00  0.00    -0.206 F 
ATOM     78  C   UNL A   1      40.611  25.546  25.926  1.00  0.00     0.006 A 
ENDBRANCH  57  71
BRANCH  58  79
ATOM     79  C   UNL A   1      39.623  33.141  36.011  1.00  0.00     0.057 A 
ATOM     80  C   UNL A   1      38.552  32.259  36.268  1.00  0.00     0.134 A 
ATOM     81  C   UNL A   1      39.806  34.198  36.905  1.00  0.00     0.134 A 
ATOM     82  F   UNL A   1      38.301  31.241  35.428  1.00  0.00    -0.206 F 
ATOM     83  C   UNL A   1      37.857  32.286  37.478  1.00  0.00     0.040 A 
ATOM     84  C   UNL A   1      39.089  34.254  38.104  1.00  0.00     0.040 A 
ATOM     85  F   UNL A   1      40.784  35.095  36.712  1.00  0.00    -0.206 F 
ATOM     86  C   UNL A   1      38.166  33.256  38.425  1.00  0.00     0.006 A 
ENDBRANCH  58  79
BRANCH  70  87
ATOM     87  C   UNL A   1      42.945  26.872  34.383  1.00  0.00     0.057 A 
ATOM     88  C   UNL A   1      42.090  25.911  34.927  1.00  0.00     0.134 A 
ATOM     89  C   UNL A   1      44.317  26.541  34.376  1.00  0.00     0.134 A 
ATOM     90  F   UNL A   1      40.779  26.157  35.073  1.00  0.00    -0.206 F 
ATOM     91  C   UNL A   1      42.558  24.667  35.359  1.00  0.00     0.040 A 
ATOM     92  C   UNL A   1      44.804  25.332  34.868  1.00  0.00     0.040 A 
ATOM     93  F   UNL A   1      45.246  27.363  33.866  1.00  0.00    -0.206 F 
ATOM     94  C   UNL A   1      43.918  24.376  35.336  1.00  0.00     0.006 A 
ENDBRANCH  70  87
ENDBRANCH  44  45
ENDBRANCH  36  39
ENDBRANCH  34  35
ENDBRANCH  33  34
ENDBRANCH  32  33
ENDBRANCH   3  32
TORSDOF 16
ENDMDL
MODEL 3
REMARK VINA RESULT:     -13.1      4.665     10.741
REMARK SMILES CCCN1C(=O)c2ccc(C(=O)Nc3ccc(OCC(=O)NCCCNC(=O)c4ccc(-c5c6nc(c(-c7c(F)cccc7F)c7ccc([nH]7)c(-c7c(F)cccc7F)c7nc(c(-c8c(F)cccc8F)c8ccc5[nH]8)C=C7)C=C6)cc4)cc3C)cc2C1=O
REMARK SMILES IDX 20 1 21 2 22 3 19 5 18 6 17 7 14 8 15 9 84 10 16 11 83 12
REMARK SMILES IDX 85 13 13 14 11 15 12 16 10 18 4 19 5 20 88 21 6 22 7 23
REMARK SMILES IDX 87 24 89 25 8 26 86 27 9 28 3 29 2 30 1 31 23 32 24 33 25 34
REMARK SMILES IDX 26 35 27 36 28 38 29 39 30 40 82 41 31 42 81 43 32 44 33 45
REMARK SMILES IDX 34 46 75 47 35 48 80 49 74 50 76 51 36 52 79 53 73 54 72 55
REMARK SMILES IDX 37 57 63 58 46 59 62 60 47 61 50 62 61 63 77 64 48 65 49 66
REMARK SMILES IDX 60 68 78 69 51 70 38 71 39 72 44 73 40 74 41 75 43 76 45 77
REMARK SMILES IDX 42 78 64 79 65 80 70 81 66 82 67 83 69 84 71 85 68 86 52 87
REMARK SMILES IDX 53 88 58 89 54 90 55 91 57 92 59 93 56 94
REMARK H PARENT 22 4 13 17 26 37 76 56 50 67
REMARK Flexibility Score: inf
ROOT
ATOM      1  C   UNL A   1      32.143  32.431  26.912  1.00  0.00     0.257 C 
ATOM      2  O   UNL A   1      31.038  32.263  26.391  1.00  0.00    -0.271 OA
ATOM      3  N   UNL A   1      32.489  33.687  27.327  1.00  0.00    -0.353 N 
ATOM      4  H   UNL A   1      31.827  34.395  27.157  1.00  0.00     0.163 HD
ENDROOT
BRANCH   1   5
ATOM      5  C   UNL A   1      33.120  31.265  27.118  1.00  0.00     0.329 C 
BRANCH   5   6
ATOM      6  O   UNL A   1      32.525  29.989  27.304  1.00  0.00    -0.484 OA
BRANCH   6   7
ATOM      7  C   UNL A   1      32.516  29.130  26.238  1.00  0.00     0.120 A 
ATOM      8  C   UNL A   1      32.661  27.629  23.869  1.00  0.00     0.044 A 
ATOM      9  C   UNL A   1      33.774  28.346  24.324  1.00  0.00     0.030 A 
ATOM     10  C   UNL A   1      31.515  27.536  24.677  1.00  0.00    -0.024 A 
ATOM     11  C   UNL A   1      33.692  29.110  25.490  1.00  0.00     0.048 A 
ATOM     12  C   UNL A   1      31.459  28.303  25.858  1.00  0.00     0.052 A 
ATOM     13  C   UNL A   1      30.384  26.580  24.406  1.00  0.00     0.047 C 
BRANCH   8  14
ATOM     14  N   UNL A   1      32.757  27.119  22.563  1.00  0.00    -0.322 N 
ATOM     15  C   UNL A   1      33.191  25.879  22.133  1.00  0.00     0.255 C 
ATOM     16  O   UNL A   1      33.276  25.652  20.927  1.00  0.00    -0.269 OA
ATOM     17  H   UNL A   1      32.474  27.736  21.850  1.00  0.00     0.170 HD
BRANCH  15  18
ATOM     18  C   UNL A   1      33.493  24.771  23.086  1.00  0.00     0.041 A 
ATOM     19  N   UNL A   1      33.675  20.431  24.572  1.00  0.00    -0.274 N 
ATOM     20  C   UNL A   1      34.482  21.320  25.217  1.00  0.00     0.261 C 
ATOM     21  C   UNL A   1      32.862  21.066  23.661  1.00  0.00     0.261 C 
ATOM     22  O   UNL A   1      35.256  21.174  26.148  1.00  0.00    -0.269 OA
ATOM     23  C   UNL A   1      34.246  22.620  24.619  1.00  0.00     0.053 A 
ATOM     24  C   UNL A   1      33.272  22.473  23.653  1.00  0.00     0.054 A 
ATOM     25  O   UNL A   1      31.944  20.632  23.009  1.00  0.00    -0.269 OA
ATOM     26  C   UNL A   1      34.825  23.835  24.914  1.00  0.00     0.015 A 
ATOM     27  C   UNL A   1      32.861  23.533  22.872  1.00  0.00     0.028 A 
ATOM     28  C   UNL A   1      34.407  24.927  24.157  1.00  0.00     0.015 A 
BRANCH  19  29
ATOM     29  C   UNL A   1      33.503  19.046  24.962  1.00  0.00     0.129 C 
BRANCH  29  30
ATOM     30  C   UNL A   1      34.401  18.032  24.250  1.00  0.00     0.019 C 
ATOM     31  C   UNL A   1      33.694  17.299  23.123  1.00  0.00     0.006 C 
ENDBRANCH  29  30
ENDBRANCH  19  29
ENDBRANCH  15  18
ENDBRANCH   8  14
ENDBRANCH   6   7
ENDBRANCH   5   6
ENDBRANCH   1   5
BRANCH   3  32
ATOM     32  C   UNL A   1      33.712  34.106  27.986  1.00  0.00     0.117 C 
BRANCH  32  33
ATOM     33  C   UNL A   1      33.563  35.443  28.691  1.00  0.00     0.042 C 
BRANCH  33  34
ATOM     34  C   UNL A   1      32.891  35.340  30.049  1.00  0.00     0.118 C 
BRANCH  34  35
ATOM     35  N   UNL A   1      33.653  35.929  31.146  1.00  0.00    -0.352 N 
ATOM     36  C   UNL A   1      34.481  35.347  32.089  1.00  0.00     0.251 C 
ATOM     37  H   UNL A   1      33.561  36.905  31.228  1.00  0.00     0.163 HD
ATOM     38  O   UNL A   1      34.956  36.059  32.972  1.00  0.00    -0.269 OA
BRANCH  36  39
ATOM     39  C   UNL A   1      34.966  33.950  31.936  1.00  0.00     0.039 A 
ATOM     40  C   UNL A   1      35.241  33.245  33.120  1.00  0.00     0.014 A 
ATOM     41  C   UNL A   1      35.496  33.507  30.736  1.00  0.00     0.014 A 
ATOM     42  C   UNL A   1      36.301  32.349  33.144  1.00  0.00     0.010 A 
ATOM     43  C   UNL A   1      36.650  32.778  30.782  1.00  0.00     0.010 A 
ATOM     44  C   UNL A   1      37.078  32.254  32.001  1.00  0.00    -0.014 A 
BRANCH  44  45
ATOM     45  C   UNL A   1      38.348  31.577  31.911  1.00  0.00     0.031 A 
ATOM     46  C   UNL A   1      38.394  30.343  31.116  1.00  0.00     0.074 A 
ATOM     47  C   UNL A   1      39.442  32.255  32.320  1.00  0.00     0.049 A 
ATOM     48  N   UNL A   1      39.361  29.503  31.144  1.00  0.00    -0.248 NA
ATOM     49  C   UNL A   1      37.306  29.935  30.225  1.00  0.00     0.031 C 
ATOM     50  C   UNL A   1      40.833  32.011  31.975  1.00  0.00     0.029 A 
ATOM     51  N   UNL A   1      39.503  33.270  33.287  1.00  0.00    -0.354 N 
ATOM     52  C   UNL A   1      39.178  28.624  30.100  1.00  0.00     0.074 A 
ATOM     53  C   UNL A   1      37.845  28.877  29.613  1.00  0.00     0.031 C 
ATOM     54  C   UNL A   1      41.617  32.617  32.883  1.00  0.00     0.029 A 
ATOM     55  C   UNL A   1      40.754  33.109  33.934  1.00  0.00     0.049 A 
ATOM     56  H   UNL A   1      38.820  33.954  33.477  1.00  0.00     0.167 HD
ATOM     57  C   UNL A   1      40.243  27.886  29.685  1.00  0.00     0.037 A 
ATOM     58  C   UNL A   1      40.814  32.685  35.234  1.00  0.00     0.037 A 
ATOM     59  C   UNL A   1      41.412  28.194  30.503  1.00  0.00     0.049 A 
ATOM     60  C   UNL A   1      41.424  31.300  35.371  1.00  0.00     0.074 A 
ATOM     61  C   UNL A   1      42.483  29.049  30.326  1.00  0.00     0.029 A 
ATOM     62  N   UNL A   1      41.390  27.889  31.847  1.00  0.00    -0.354 N 
ATOM     63  N   UNL A   1      41.632  30.493  34.365  1.00  0.00    -0.248 NA
ATOM     64  C   UNL A   1      41.815  30.698  36.643  1.00  0.00     0.031 C 
ATOM     65  C   UNL A   1      43.072  29.298  31.596  1.00  0.00     0.029 A 
ATOM     66  C   UNL A   1      42.395  28.537  32.533  1.00  0.00     0.049 A 
ATOM     67  H   UNL A   1      40.737  27.282  32.266  1.00  0.00     0.167 HD
ATOM     68  C   UNL A   1      42.173  29.321  34.806  1.00  0.00     0.074 A 
ATOM     69  C   UNL A   1      42.233  29.481  36.249  1.00  0.00     0.031 C 
ATOM     70  C   UNL A   1      42.521  28.308  33.961  1.00  0.00     0.037 A 
BRANCH  57  71
ATOM     71  C   UNL A   1      40.316  27.098  28.405  1.00  0.00     0.057 A 
ATOM     72  C   UNL A   1      39.663  25.852  28.302  1.00  0.00     0.134 A 
ATOM     73  C   UNL A   1      40.998  27.496  27.243  1.00  0.00     0.134 A 
ATOM     74  F   UNL A   1      38.921  25.357  29.299  1.00  0.00    -0.206 F 
ATOM     75  C   UNL A   1      39.736  25.040  27.166  1.00  0.00     0.040 A 
ATOM     76  C   UNL A   1      41.106  26.676  26.107  1.00  0.00     0.040 A 
ATOM     77  F   UNL A   1      41.547  28.712  27.130  1.00  0.00    -0.206 F 
ATOM     78  C   UNL A   1      40.476  25.441  26.068  1.00  0.00     0.006 A 
ENDBRANCH  57  71
BRANCH  58  79
ATOM     79  C   UNL A   1      39.668  33.231  36.019  1.00  0.00     0.057 A 
ATOM     80  C   UNL A   1      38.625  32.335  36.336  1.00  0.00     0.134 A 
ATOM     81  C   UNL A   1      39.858  34.317  36.876  1.00  0.00     0.134 A 
ATOM     82  F   UNL A   1      38.368  31.288  35.534  1.00  0.00    -0.206 F 
ATOM     83  C   UNL A   1      37.969  32.383  37.568  1.00  0.00     0.040 A 
ATOM     84  C   UNL A   1      39.179  34.393  38.096  1.00  0.00     0.040 A 
ATOM     85  F   UNL A   1      40.810  35.227  36.625  1.00  0.00    -0.206 F 
ATOM     86  C   UNL A   1      38.289  33.387  38.476  1.00  0.00     0.006 A 
ENDBRANCH  58  79
BRANCH  70  87
ATOM     87  C   UNL A   1      43.038  26.979  34.423  1.00  0.00     0.057 A 
ATOM     88  C   UNL A   1      44.384  26.622  34.326  1.00  0.00     0.134 A 
ATOM     89  C   UNL A   1      42.166  25.971  34.888  1.00  0.00     0.134 A 
ATOM     90  F   UNL A   1      45.286  27.468  33.807  1.00  0.00    -0.206 F 
ATOM     91  C   UNL A   1      44.848  25.371  34.743  1.00  0.00     0.040 A 
ATOM     92  C   UNL A   1      42.606  24.697  35.242  1.00  0.00     0.040 A 
ATOM     93  F   UNL A   1      40.851  26.182  35.049  1.00  0.00    -0.206 F 
ATOM     94  C   UNL A   1      43.958  24.402  35.197  1.00  0.00     0.006 A 
ENDBRANCH  70  87
ENDBRANCH  44  45
ENDBRANCH  36  39
ENDBRANCH  34  35
ENDBRANCH  33  34
ENDBRANCH  32  33
ENDBRANCH   3  32
TORSDOF 16
ENDMDL
