MODEL 1
REMARK VINA RESULT:     -10.7      0.000      0.000
REMARK SMILES C[NH2+][C@@](C)(CC[N@@H+](C)C1CCC(C)(C)CC1)C(=O)NCCCNC(=O)c1ccc(-c2c3nc(c(-c4c(F)cccc4F)c4ccc([nH]4)c(-c4c(F)cccc4F)c4nc(c(-c5c(F)cccc5F)c5ccc2[nH]5)C=C4)C=C3)cc1
REMARK SMILES IDX 20 1 19 2 17 3 18 4 3 6 4 7 2 8 1 9 5 12 6 13 7 14 8 15 9 17
REMARK SMILES IDX 10 18 16 19 11 20 15 21 12 22 13 23 14 24 21 25 22 26 23 27
REMARK SMILES IDX 24 28 25 30 26 31 27 32 79 33 28 34 78 35 29 36 30 37 31 38
REMARK SMILES IDX 72 39 32 40 77 41 71 42 73 43 33 44 76 45 70 46 69 47 34 49
REMARK SMILES IDX 60 50 43 51 59 52 44 53 47 54 58 55 74 56 45 57 46 58 57 60
REMARK SMILES IDX 75 61 48 62 35 63 36 64 41 65 37 66 38 67 40 68 42 69 39 70
REMARK SMILES IDX 61 71 62 72 67 73 63 74 64 75 66 76 68 77 65 78 49 79 50 80
REMARK SMILES IDX 55 81 51 82 52 83 54 84 56 85 53 86
REMARK H PARENT 19 5 2 10 2 11 7 16 23 29 73 48 47 59
REMARK Flexibility Score: inf
ROOT
ATOM      1  C   UNL A   1      36.319  20.674  24.634  1.00  0.00     0.118 C 
ENDROOT
BRANCH   1   2
ATOM      2  N   UNL A   1      35.389  20.891  25.731  1.00  0.00    -0.351 N 
ATOM      3  C   UNL A   1      34.596  21.994  25.829  1.00  0.00     0.281 C 
ATOM      4  O   UNL A   1      35.179  22.837  26.485  1.00  0.00    -0.268 OA
ATOM      5  H   UNL A   1      35.329  20.208  26.437  1.00  0.00     0.163 HD
BRANCH   3   6
ATOM      6  C   UNL A   1      33.240  22.179  25.053  1.00  0.00     0.177 C 
ATOM      7  C   UNL A   1      32.533  20.814  24.995  1.00  0.00     0.090 C 
BRANCH   6   8
ATOM      8  N   UNL A   1      32.247  23.137  25.595  1.00  0.00    -0.336 N 
ATOM      9  C   UNL A   1      31.875  23.223  26.990  1.00  0.00     0.331 C 
ATOM     10  H   UNL A   1      32.594  24.063  25.345  1.00  0.00     0.346 HD
ATOM     11  H   UNL A   1      31.386  22.769  25.191  1.00  0.00     0.346 HD
ENDBRANCH   6   8
BRANCH   6  12
ATOM     12  C   UNL A   1      33.629  22.847  23.692  1.00  0.00     0.140 C 
BRANCH  12  13
ATOM     13  C   UNL A   1      34.350  24.289  23.629  1.00  0.00     0.269 C 
BRANCH  13  14
ATOM     14  N   UNL A   1      33.764  25.615  23.255  1.00  0.00    -0.335 N 
ATOM     15  C   UNL A   1      32.988  25.543  22.024  1.00  0.00     0.332 C 
ATOM     16  H   UNL A   1      34.611  26.162  23.098  1.00  0.00     0.348 HD
BRANCH  14  17
ATOM     17  C   UNL A   1      33.116  26.452  24.296  1.00  0.00     0.183 C 
ATOM     18  C   UNL A   1      33.642  26.431  25.731  1.00  0.00     0.065 C 
ATOM     19  C   UNL A   1      31.588  26.654  24.481  1.00  0.00     0.065 C 
ATOM     20  C   UNL A   1      33.691  27.887  26.202  1.00  0.00     0.012 C 
ATOM     21  C   UNL A   1      31.333  28.061  25.133  1.00  0.00     0.012 C 
ATOM     22  C   UNL A   1      32.299  28.533  26.279  1.00  0.00    -0.035 C 
ATOM     23  C   UNL A   1      32.484  30.072  26.212  1.00  0.00     0.011 C 
ATOM     24  C   UNL A   1      31.738  28.191  27.669  1.00  0.00     0.011 C 
ENDBRANCH  14  17
ENDBRANCH  13  14
ENDBRANCH  12  13
ENDBRANCH   6  12
ENDBRANCH   3   6
ENDBRANCH   1   2
BRANCH   1  25
ATOM     25  C   UNL A   1      37.544  19.774  24.882  1.00  0.00     0.042 C 
BRANCH  25  26
ATOM     26  C   UNL A   1      38.698  20.314  25.730  1.00  0.00     0.118 C 
BRANCH  26  27
ATOM     27  N   UNL A   1      39.822  19.399  25.819  1.00  0.00    -0.352 N 
ATOM     28  C   UNL A   1      41.150  19.614  26.074  1.00  0.00     0.251 C 
ATOM     29  H   UNL A   1      39.586  18.455  25.667  1.00  0.00     0.163 HD
ATOM     30  O   UNL A   1      41.949  18.698  25.873  1.00  0.00    -0.269 OA
BRANCH  28  31
ATOM     31  C   UNL A   1      41.660  20.913  26.572  1.00  0.00     0.039 A 
ATOM     32  C   UNL A   1      41.576  21.172  27.945  1.00  0.00     0.014 A 
ATOM     33  C   UNL A   1      42.099  21.923  25.711  1.00  0.00     0.014 A 
ATOM     34  C   UNL A   1      41.950  22.421  28.452  1.00  0.00     0.010 A 
ATOM     35  C   UNL A   1      42.545  23.144  26.227  1.00  0.00     0.010 A 
ATOM     36  C   UNL A   1      42.450  23.418  27.600  1.00  0.00    -0.014 A 
BRANCH  36  37
ATOM     37  C   UNL A   1      42.816  24.760  28.130  1.00  0.00     0.031 A 
ATOM     38  C   UNL A   1      41.758  25.817  28.326  1.00  0.00     0.074 A 
ATOM     39  C   UNL A   1      44.101  25.044  28.418  1.00  0.00     0.049 A 
ATOM     40  N   UNL A   1      41.884  27.047  28.757  1.00  0.00    -0.248 NA
ATOM     41  C   UNL A   1      40.381  25.448  27.966  1.00  0.00     0.031 C 
ATOM     42  C   UNL A   1      45.230  24.131  28.234  1.00  0.00     0.029 A 
ATOM     43  N   UNL A   1      44.675  26.185  28.924  1.00  0.00    -0.354 N 
ATOM     44  C   UNL A   1      40.609  27.599  28.708  1.00  0.00     0.074 A 
ATOM     45  C   UNL A   1      39.737  26.591  28.144  1.00  0.00     0.031 C 
ATOM     46  C   UNL A   1      46.356  24.738  28.642  1.00  0.00     0.029 A 
ATOM     47  C   UNL A   1      46.036  26.091  29.087  1.00  0.00     0.049 A 
ATOM     48  H   UNL A   1      44.160  26.993  29.148  1.00  0.00     0.167 HD
ATOM     49  C   UNL A   1      40.191  28.821  29.119  1.00  0.00     0.037 A 
ATOM     50  C   UNL A   1      46.927  26.992  29.544  1.00  0.00     0.037 A 
ATOM     51  C   UNL A   1      41.054  29.820  29.696  1.00  0.00     0.049 A 
ATOM     52  C   UNL A   1      46.442  28.340  30.005  1.00  0.00     0.074 A 
ATOM     53  C   UNL A   1      40.724  31.076  30.175  1.00  0.00     0.029 A 
ATOM     54  N   UNL A   1      42.422  29.673  29.873  1.00  0.00    -0.354 N 
ATOM     55  N   UNL A   1      45.224  28.826  30.003  1.00  0.00    -0.248 NA
ATOM     56  C   UNL A   1      47.453  29.256  30.549  1.00  0.00     0.031 C 
ATOM     57  C   UNL A   1      41.897  31.704  30.606  1.00  0.00     0.029 A 
ATOM     58  C   UNL A   1      42.951  30.818  30.447  1.00  0.00     0.049 A 
ATOM     59  H   UNL A   1      42.941  28.873  29.627  1.00  0.00     0.167 HD
ATOM     60  C   UNL A   1      45.317  30.088  30.578  1.00  0.00     0.074 A 
ATOM     61  C   UNL A   1      46.708  30.287  30.926  1.00  0.00     0.031 C 
ATOM     62  C   UNL A   1      44.337  30.999  30.800  1.00  0.00     0.037 A 
BRANCH  49  63
ATOM     63  C   UNL A   1      38.730  29.139  28.962  1.00  0.00     0.057 A 
ATOM     64  C   UNL A   1      38.192  29.558  27.736  1.00  0.00     0.134 A 
ATOM     65  C   UNL A   1      37.846  29.017  30.042  1.00  0.00     0.134 A 
ATOM     66  F   UNL A   1      38.984  29.707  26.663  1.00  0.00    -0.206 F 
ATOM     67  C   UNL A   1      36.841  29.881  27.601  1.00  0.00     0.040 A 
ATOM     68  C   UNL A   1      36.485  29.306  29.910  1.00  0.00     0.040 A 
ATOM     69  F   UNL A   1      38.287  28.611  31.242  1.00  0.00    -0.206 F 
ATOM     70  C   UNL A   1      35.982  29.750  28.689  1.00  0.00     0.006 A 
ENDBRANCH  49  63
BRANCH  50  71
ATOM     71  C   UNL A   1      48.367  26.637  29.621  1.00  0.00     0.057 A 
ATOM     72  C   UNL A   1      49.256  26.987  28.599  1.00  0.00     0.134 A 
ATOM     73  C   UNL A   1      48.888  25.939  30.718  1.00  0.00     0.134 A 
ATOM     74  F   UNL A   1      48.815  27.640  27.514  1.00  0.00    -0.206 F 
ATOM     75  C   UNL A   1      50.608  26.639  28.653  1.00  0.00     0.040 A 
ATOM     76  C   UNL A   1      50.241  25.607  30.798  1.00  0.00     0.040 A 
ATOM     77  F   UNL A   1      48.090  25.583  31.735  1.00  0.00    -0.206 F 
ATOM     78  C   UNL A   1      51.104  25.951  29.758  1.00  0.00     0.006 A 
ENDBRANCH  50  71
BRANCH  62  79
ATOM     79  C   UNL A   1      44.725  32.269  31.500  1.00  0.00     0.057 A 
ATOM     80  C   UNL A   1      45.127  33.415  30.801  1.00  0.00     0.134 A 
ATOM     81  C   UNL A   1      44.671  32.352  32.898  1.00  0.00     0.134 A 
ATOM     82  F   UNL A   1      45.211  33.400  29.462  1.00  0.00    -0.206 F 
ATOM     83  C   UNL A   1      45.491  34.586  31.468  1.00  0.00     0.040 A 
ATOM     84  C   UNL A   1      45.003  33.526  33.575  1.00  0.00     0.040 A 
ATOM     85  F   UNL A   1      44.285  31.295  33.629  1.00  0.00    -0.206 F 
ATOM     86  C   UNL A   1      45.424  34.646  32.858  1.00  0.00     0.006 A 
ENDBRANCH  62  79
ENDBRANCH  36  37
ENDBRANCH  28  31
ENDBRANCH  26  27
ENDBRANCH  25  26
ENDBRANCH   1  25
TORSDOF 15
ENDMDL
MODEL 2
REMARK VINA RESULT:     -10.6      2.514      7.621
REMARK SMILES C[NH2+][C@@](C)(CC[N@@H+](C)C1CCC(C)(C)CC1)C(=O)NCCCNC(=O)c1ccc(-c2c3nc(c(-c4c(F)cccc4F)c4ccc([nH]4)c(-c4c(F)cccc4F)c4nc(c(-c5c(F)cccc5F)c5ccc2[nH]5)C=C4)C=C3)cc1
REMARK SMILES IDX 20 1 19 2 17 3 18 4 3 6 4 7 2 8 1 9 5 12 6 13 7 14 8 15 9 17
REMARK SMILES IDX 10 18 16 19 11 20 15 21 12 22 13 23 14 24 21 25 22 26 23 27
REMARK SMILES IDX 24 28 25 30 26 31 27 32 79 33 28 34 78 35 29 36 30 37 31 38
REMARK SMILES IDX 72 39 32 40 77 41 71 42 73 43 33 44 76 45 70 46 69 47 34 49
REMARK SMILES IDX 60 50 43 51 59 52 44 53 47 54 58 55 74 56 45 57 46 58 57 60
REMARK SMILES IDX 75 61 48 62 35 63 36 64 41 65 37 66 38 67 40 68 42 69 39 70
REMARK SMILES IDX 61 71 62 72 67 73 63 74 64 75 66 76 68 77 65 78 49 79 50 80
REMARK SMILES IDX 55 81 51 82 52 83 54 84 56 85 53 86
REMARK H PARENT 19 5 2 10 2 11 7 16 23 29 73 48 47 59
REMARK Flexibility Score: inf
ROOT
ATOM      1  C   UNL A   1      31.889  29.326  25.464  1.00  0.00     0.118 C 
ENDROOT
BRANCH   1   2
ATOM      2  N   UNL A   1      31.584  29.365  24.042  1.00  0.00    -0.351 N 
ATOM      3  C   UNL A   1      32.130  28.503  23.140  1.00  0.00     0.281 C 
ATOM      4  O   UNL A   1      33.140  29.005  22.683  1.00  0.00    -0.268 OA
ATOM      5  H   UNL A   1      30.953  30.047  23.716  1.00  0.00     0.163 HD
BRANCH   3   6
ATOM      6  C   UNL A   1      31.614  27.037  22.893  1.00  0.00     0.177 C 
ATOM      7  C   UNL A   1      30.163  26.952  23.398  1.00  0.00     0.090 C 
BRANCH   6   8
ATOM      8  N   UNL A   1      31.600  26.524  21.503  1.00  0.00    -0.336 N 
ATOM      9  C   UNL A   1      32.689  25.791  20.894  1.00  0.00     0.331 C 
ATOM     10  H   UNL A   1      30.789  25.909  21.445  1.00  0.00     0.346 HD
ATOM     11  H   UNL A   1      31.641  27.396  20.976  1.00  0.00     0.346 HD
ENDBRANCH   6   8
BRANCH   6  12
ATOM     12  C   UNL A   1      32.671  26.106  23.576  1.00  0.00     0.140 C 
BRANCH  12  13
ATOM     13  C   UNL A   1      32.244  24.739  24.318  1.00  0.00     0.269 C 
BRANCH  13  14
ATOM     14  N   UNL A   1      32.789  23.357  24.124  1.00  0.00    -0.335 N 
ATOM     15  C   UNL A   1      32.305  22.745  22.895  1.00  0.00     0.332 C 
ATOM     16  H   UNL A   1      32.388  22.879  24.931  1.00  0.00     0.348 HD
BRANCH  14  17
ATOM     17  C   UNL A   1      34.230  23.096  24.370  1.00  0.00     0.183 C 
ATOM     18  C   UNL A   1      34.789  23.169  25.790  1.00  0.00     0.065 C 
ATOM     19  C   UNL A   1      35.409  23.602  23.497  1.00  0.00     0.065 C 
ATOM     20  C   UNL A   1      35.702  21.953  25.966  1.00  0.00     0.012 C 
ATOM     21  C   UNL A   1      36.608  22.593  23.621  1.00  0.00     0.012 C 
ATOM     22  C   UNL A   1      36.924  21.988  25.036  1.00  0.00    -0.035 C 
ATOM     23  C   UNL A   1      37.448  20.535  24.883  1.00  0.00     0.011 C 
ATOM     24  C   UNL A   1      38.005  22.799  25.770  1.00  0.00     0.011 C 
ENDBRANCH  14  17
ENDBRANCH  13  14
ENDBRANCH  12  13
ENDBRANCH   6  12
ENDBRANCH   3   6
ENDBRANCH   1   2
BRANCH   1  25
ATOM     25  C   UNL A   1      33.243  28.741  25.905  1.00  0.00     0.042 C 
BRANCH  25  26
ATOM     26  C   UNL A   1      33.620  28.787  27.388  1.00  0.00     0.118 C 
BRANCH  26  27
ATOM     27  N   UNL A   1      33.724  30.137  27.911  1.00  0.00    -0.352 N 
ATOM     28  C   UNL A   1      34.747  30.789  28.546  1.00  0.00     0.251 C 
ATOM     29  H   UNL A   1      32.912  30.681  27.787  1.00  0.00     0.163 HD
ATOM     30  O   UNL A   1      34.514  31.867  29.097  1.00  0.00    -0.269 OA
BRANCH  28  31
ATOM     31  C   UNL A   1      36.122  30.238  28.602  1.00  0.00     0.039 A 
ATOM     32  C   UNL A   1      36.580  29.731  29.823  1.00  0.00     0.014 A 
ATOM     33  C   UNL A   1      37.004  30.322  27.522  1.00  0.00     0.014 A 
ATOM     34  C   UNL A   1      37.901  29.293  29.955  1.00  0.00     0.010 A 
ATOM     35  C   UNL A   1      38.302  29.813  27.632  1.00  0.00     0.010 A 
ATOM     36  C   UNL A   1      38.775  29.317  28.856  1.00  0.00    -0.014 A 
BRANCH  36  37
ATOM     37  C   UNL A   1      40.193  28.885  29.001  1.00  0.00     0.031 A 
ATOM     38  C   UNL A   1      41.220  29.822  29.583  1.00  0.00     0.074 A 
ATOM     39  C   UNL A   1      40.568  27.658  28.590  1.00  0.00     0.049 A 
ATOM     40  N   UNL A   1      42.503  29.635  29.770  1.00  0.00    -0.248 NA
ATOM     41  C   UNL A   1      40.747  31.155  29.985  1.00  0.00     0.031 C 
ATOM     42  C   UNL A   1      39.687  26.668  27.969  1.00  0.00     0.029 A 
ATOM     43  N   UNL A   1      41.791  27.035  28.632  1.00  0.00    -0.354 N 
ATOM     44  C   UNL A   1      42.988  30.826  30.298  1.00  0.00     0.074 A 
ATOM     45  C   UNL A   1      41.875  31.750  30.340  1.00  0.00     0.031 C 
ATOM     46  C   UNL A   1      40.392  25.556  27.707  1.00  0.00     0.029 A 
ATOM     47  C   UNL A   1      41.779  25.762  28.114  1.00  0.00     0.049 A 
ATOM     48  H   UNL A   1      42.600  27.460  28.997  1.00  0.00     0.167 HD
ATOM     49  C   UNL A   1      44.236  31.119  30.737  1.00  0.00     0.037 A 
ATOM     50  C   UNL A   1      42.772  24.862  27.981  1.00  0.00     0.037 A 
ATOM     51  C   UNL A   1      45.342  30.195  30.712  1.00  0.00     0.049 A 
ATOM     52  C   UNL A   1      44.149  25.203  28.483  1.00  0.00     0.074 A 
ATOM     53  C   UNL A   1      46.637  30.384  31.162  1.00  0.00     0.029 A 
ATOM     54  N   UNL A   1      45.279  28.905  30.208  1.00  0.00    -0.354 N 
ATOM     55  N   UNL A   1      44.578  26.314  29.030  1.00  0.00    -0.248 NA
ATOM     56  C   UNL A   1      45.174  24.158  28.365  1.00  0.00     0.031 C 
ATOM     57  C   UNL A   1      47.368  29.222  30.895  1.00  0.00     0.029 A 
ATOM     58  C   UNL A   1      46.514  28.289  30.330  1.00  0.00     0.049 A 
ATOM     59  H   UNL A   1      44.475  28.488  29.821  1.00  0.00     0.167 HD
ATOM     60  C   UNL A   1      45.910  26.090  29.354  1.00  0.00     0.074 A 
ATOM     61  C   UNL A   1      46.214  24.733  28.952  1.00  0.00     0.031 C 
ATOM     62  C   UNL A   1      46.801  26.931  29.936  1.00  0.00     0.037 A 
BRANCH  49  63
ATOM     63  C   UNL A   1      44.467  32.499  31.286  1.00  0.00     0.057 A 
ATOM     64  C   UNL A   1      44.885  33.560  30.469  1.00  0.00     0.134 A 
ATOM     65  C   UNL A   1      44.261  32.779  32.643  1.00  0.00     0.134 A 
ATOM     66  F   UNL A   1      45.111  33.361  29.161  1.00  0.00    -0.206 F 
ATOM     67  C   UNL A   1      45.126  34.834  30.988  1.00  0.00     0.040 A 
ATOM     68  C   UNL A   1      44.468  34.057  33.168  1.00  0.00     0.040 A 
ATOM     69  F   UNL A   1      43.852  31.816  33.483  1.00  0.00    -0.206 F 
ATOM     70  C   UNL A   1      44.913  35.086  32.340  1.00  0.00     0.006 A 
ENDBRANCH  49  63
BRANCH  50  71
ATOM     71  C   UNL A   1      42.493  23.535  27.376  1.00  0.00     0.057 A 
ATOM     72  C   UNL A   1      42.090  22.449  28.163  1.00  0.00     0.134 A 
ATOM     73  C   UNL A   1      42.622  23.319  25.998  1.00  0.00     0.134 A 
ATOM     74  F   UNL A   1      41.966  22.588  29.491  1.00  0.00    -0.206 F 
ATOM     75  C   UNL A   1      41.846  21.191  27.607  1.00  0.00     0.040 A 
ATOM     76  C   UNL A   1      42.356  22.074  25.425  1.00  0.00     0.040 A 
ATOM     77  F   UNL A   1      42.994  24.320  25.188  1.00  0.00    -0.206 F 
ATOM     78  C   UNL A   1      41.974  21.004  26.232  1.00  0.00     0.006 A 
ENDBRANCH  50  71
BRANCH  62  79
ATOM     79  C   UNL A   1      48.171  26.391  30.224  1.00  0.00     0.057 A 
ATOM     80  C   UNL A   1      49.221  26.486  29.301  1.00  0.00     0.134 A 
ATOM     81  C   UNL A   1      48.449  25.785  31.457  1.00  0.00     0.134 A 
ATOM     82  F   UNL A   1      49.020  27.044  28.097  1.00  0.00    -0.206 F 
ATOM     83  C   UNL A   1      50.488  25.971  29.582  1.00  0.00     0.040 A 
ATOM     84  C   UNL A   1      49.720  25.293  31.761  1.00  0.00     0.040 A 
ATOM     85  F   UNL A   1      47.493  25.669  32.391  1.00  0.00    -0.206 F 
ATOM     86  C   UNL A   1      50.742  25.378  30.816  1.00  0.00     0.006 A 
ENDBRANCH  62  79
ENDBRANCH  36  37
ENDBRANCH  28  31
ENDBRANCH  26  27
ENDBRANCH  25  26
ENDBRANCH   1  25
TORSDOF 15
ENDMDL
MODEL 3
REMARK VINA RESULT:     -10.6      1.008      6.368
REMARK SMILES C[NH2+][C@@](C)(CC[N@@H+](C)C1CCC(C)(C)CC1)C(=O)NCCCNC(=O)c1ccc(-c2c3nc(c(-c4c(F)cccc4F)c4ccc([nH]4)c(-c4c(F)cccc4F)c4nc(c(-c5c(F)cccc5F)c5ccc2[nH]5)C=C4)C=C3)cc1
REMARK SMILES IDX 20 1 19 2 17 3 18 4 3 6 4 7 2 8 1 9 5 12 6 13 7 14 8 15 9 17
REMARK SMILES IDX 10 18 16 19 11 20 15 21 12 22 13 23 14 24 21 25 22 26 23 27
REMARK SMILES IDX 24 28 25 30 26 31 27 32 79 33 28 34 78 35 29 36 30 37 31 38
REMARK SMILES IDX 72 39 32 40 77 41 71 42 73 43 33 44 76 45 70 46 69 47 34 49
REMARK SMILES IDX 60 50 43 51 59 52 44 53 47 54 58 55 74 56 45 57 46 58 57 60
REMARK SMILES IDX 75 61 48 62 35 63 36 64 41 65 37 66 38 67 40 68 42 69 39 70
REMARK SMILES IDX 61 71 62 72 67 73 63 74 64 75 66 76 68 77 65 78 49 79 50 80
REMARK SMILES IDX 55 81 51 82 52 83 54 84 56 85 53 86
REMARK H PARENT 19 5 2 10 2 11 7 16 23 29 73 48 47 59
REMARK Flexibility Score: inf
ROOT
ATOM      1  C   UNL A   1      38.086  22.635  25.503  1.00  0.00     0.118 C 
ENDROOT
BRANCH   1   2
ATOM      2  N   UNL A   1      37.281  23.506  24.659  1.00  0.00    -0.351 N 
ATOM      3  C   UNL A   1      36.272  23.049  23.866  1.00  0.00     0.281 C 
ATOM      4  O   UNL A   1      36.722  22.808  22.762  1.00  0.00    -0.268 OA
ATOM      5  H   UNL A   1      37.476  24.471  24.660  1.00  0.00     0.163 HD
BRANCH   3   6
ATOM      6  C   UNL A   1      34.822  22.725  24.382  1.00  0.00     0.177 C 
ATOM      7  C   UNL A   1      34.766  21.231  24.743  1.00  0.00     0.090 C 
BRANCH   6   8
ATOM      8  N   UNL A   1      34.320  23.457  25.569  1.00  0.00    -0.336 N 
ATOM      9  C   UNL A   1      34.414  22.969  26.928  1.00  0.00     0.331 C 
ATOM     10  H   UNL A   1      34.806  24.354  25.565  1.00  0.00     0.346 HD
ATOM     11  H   UNL A   1      33.313  23.402  25.417  1.00  0.00     0.346 HD
ENDBRANCH   6   8
BRANCH   6  12
ATOM     12  C   UNL A   1      33.860  23.231  23.256  1.00  0.00     0.140 C 
BRANCH  12  13
ATOM     13  C   UNL A   1      33.806  24.783  22.818  1.00  0.00     0.269 C 
BRANCH  13  14
ATOM     14  N   UNL A   1      32.663  25.746  22.914  1.00  0.00    -0.335 N 
ATOM     15  C   UNL A   1      31.374  25.079  22.798  1.00  0.00     0.332 C 
ATOM     16  H   UNL A   1      32.830  26.323  22.089  1.00  0.00     0.348 HD
BRANCH  14  17
ATOM     17  C   UNL A   1      32.676  26.798  23.962  1.00  0.00     0.183 C 
ATOM     18  C   UNL A   1      31.709  27.978  23.873  1.00  0.00     0.065 C 
ATOM     19  C   UNL A   1      33.941  27.422  24.610  1.00  0.00     0.065 C 
ATOM     20  C   UNL A   1      31.133  28.181  25.277  1.00  0.00     0.012 C 
ATOM     21  C   UNL A   1      33.589  27.898  26.065  1.00  0.00     0.012 C 
ATOM     22  C   UNL A   1      32.200  28.593  26.302  1.00  0.00    -0.035 C 
ATOM     23  C   UNL A   1      31.666  28.237  27.715  1.00  0.00     0.011 C 
ATOM     24  C   UNL A   1      32.313  30.125  26.220  1.00  0.00     0.011 C 
ENDBRANCH  14  17
ENDBRANCH  13  14
ENDBRANCH  12  13
ENDBRANCH   6  12
ENDBRANCH   3   6
ENDBRANCH   1   2
BRANCH   1  25
ATOM     25  C   UNL A   1      38.474  21.247  24.960  1.00  0.00     0.042 C 
BRANCH  25  26
ATOM     26  C   UNL A   1      38.497  20.058  25.924  1.00  0.00     0.118 C 
BRANCH  26  27
ATOM     27  N   UNL A   1      39.704  19.258  25.819  1.00  0.00    -0.352 N 
ATOM     28  C   UNL A   1      41.026  19.587  25.955  1.00  0.00     0.251 C 
ATOM     29  H   UNL A   1      39.542  18.309  25.611  1.00  0.00     0.163 HD
ATOM     30  O   UNL A   1      41.880  18.774  25.596  1.00  0.00    -0.269 OA
BRANCH  28  31
ATOM     31  C   UNL A   1      41.465  20.889  26.509  1.00  0.00     0.039 A 
ATOM     32  C   UNL A   1      41.237  21.139  27.867  1.00  0.00     0.014 A 
ATOM     33  C   UNL A   1      41.977  21.909  25.703  1.00  0.00     0.014 A 
ATOM     34  C   UNL A   1      41.540  22.389  28.416  1.00  0.00     0.010 A 
ATOM     35  C   UNL A   1      42.351  23.132  26.267  1.00  0.00     0.010 A 
ATOM     36  C   UNL A   1      42.112  23.397  27.624  1.00  0.00    -0.014 A 
BRANCH  36  37
ATOM     37  C   UNL A   1      42.403  24.741  28.195  1.00  0.00     0.031 A 
ATOM     38  C   UNL A   1      43.796  25.087  28.659  1.00  0.00     0.074 A 
ATOM     39  C   UNL A   1      41.415  25.649  28.320  1.00  0.00     0.049 A 
ATOM     40  N   UNL A   1      44.239  26.195  29.201  1.00  0.00    -0.248 NA
ATOM     41  C   UNL A   1      44.818  24.041  28.519  1.00  0.00     0.031 C 
ATOM     42  C   UNL A   1      40.016  25.431  27.953  1.00  0.00     0.029 A 
ATOM     43  N   UNL A   1      41.438  26.938  28.794  1.00  0.00    -0.354 N 
ATOM     44  C   UNL A   1      45.583  25.972  29.474  1.00  0.00     0.074 A 
ATOM     45  C   UNL A   1      45.867  24.604  29.100  1.00  0.00     0.031 C 
ATOM     46  C   UNL A   1      39.319  26.553  28.194  1.00  0.00     0.029 A 
ATOM     47  C   UNL A   1      40.212  27.559  28.760  1.00  0.00     0.049 A 
ATOM     48  H   UNL A   1      42.254  27.375  29.127  1.00  0.00     0.167 HD
ATOM     49  C   UNL A   1      46.509  26.833  29.964  1.00  0.00     0.037 A 
ATOM     50  C   UNL A   1      39.849  28.798  29.140  1.00  0.00     0.037 A 
ATOM     51  C   UNL A   1      46.233  28.201  30.322  1.00  0.00     0.049 A 
ATOM     52  C   UNL A   1      40.893  29.742  29.673  1.00  0.00     0.074 A 
ATOM     53  C   UNL A   1      47.107  29.164  30.795  1.00  0.00     0.029 A 
ATOM     54  N   UNL A   1      44.985  28.801  30.242  1.00  0.00    -0.354 N 
ATOM     55  N   UNL A   1      42.171  29.534  29.873  1.00  0.00    -0.248 NA
ATOM     56  C   UNL A   1      40.445  31.099  30.014  1.00  0.00     0.031 C 
ATOM     57  C   UNL A   1      46.380  30.334  31.039  1.00  0.00     0.029 A 
ATOM     58  C   UNL A   1      45.064  30.118  30.664  1.00  0.00     0.049 A 
ATOM     59  H   UNL A   1      44.163  28.356  29.931  1.00  0.00     0.167 HD
ATOM     60  C   UNL A   1      42.687  30.741  30.329  1.00  0.00     0.074 A 
ATOM     61  C   UNL A   1      41.586  31.679  30.363  1.00  0.00     0.031 C 
ATOM     62  C   UNL A   1      43.961  31.045  30.683  1.00  0.00     0.037 A 
BRANCH  49  63
ATOM     63  C   UNL A   1      47.909  26.315  30.136  1.00  0.00     0.057 A 
ATOM     64  C   UNL A   1      48.846  26.357  29.093  1.00  0.00     0.134 A 
ATOM     65  C   UNL A   1      48.334  25.777  31.357  1.00  0.00     0.134 A 
ATOM     66  F   UNL A   1      48.504  26.849  27.893  1.00  0.00    -0.206 F 
ATOM     67  C   UNL A   1      50.137  25.848  29.246  1.00  0.00     0.040 A 
ATOM     68  C   UNL A   1      49.634  25.295  31.533  1.00  0.00     0.040 A 
ATOM     69  F   UNL A   1      47.497  25.714  32.403  1.00  0.00    -0.206 F 
ATOM     70  C   UNL A   1      50.535  25.320  30.471  1.00  0.00     0.006 A 
ENDBRANCH  49  63
BRANCH  50  71
ATOM     71  C   UNL A   1      38.436  29.232  28.998  1.00  0.00     0.057 A 
ATOM     72  C   UNL A   1      37.555  29.205  30.086  1.00  0.00     0.134 A 
ATOM     73  C   UNL A   1      37.932  29.685  27.772  1.00  0.00     0.134 A 
ATOM     74  F   UNL A   1      37.974  28.765  31.282  1.00  0.00    -0.206 F 
ATOM     75  C   UNL A   1      36.219  29.590  29.957  1.00  0.00     0.040 A 
ATOM     76  C   UNL A   1      36.605  30.098  27.635  1.00  0.00     0.040 A 
ATOM     77  F   UNL A   1      38.726  29.745  26.694  1.00  0.00    -0.206 F 
ATOM     78  C   UNL A   1      35.743  30.043  28.729  1.00  0.00     0.006 A 
ENDBRANCH  50  71
BRANCH  62  79
ATOM     79  C   UNL A   1      44.242  32.464  31.085  1.00  0.00     0.057 A 
ATOM     80  C   UNL A   1      44.608  33.446  30.154  1.00  0.00     0.134 A 
ATOM     81  C   UNL A   1      44.120  32.859  32.424  1.00  0.00     0.134 A 
ATOM     82  F   UNL A   1      44.753  33.133  28.857  1.00  0.00    -0.206 F 
ATOM     83  C   UNL A   1      44.872  34.759  30.546  1.00  0.00     0.040 A 
ATOM     84  C   UNL A   1      44.353  34.176  32.824  1.00  0.00     0.040 A 
ATOM     85  F   UNL A   1      43.764  31.972  33.367  1.00  0.00    -0.206 F 
ATOM     86  C   UNL A   1      44.740  35.129  31.883  1.00  0.00     0.006 A 
ENDBRANCH  62  79
ENDBRANCH  36  37
ENDBRANCH  28  31
ENDBRANCH  26  27
ENDBRANCH  25  26
ENDBRANCH   1  25
TORSDOF 15
ENDMDL
