MODEL 1
REMARK VINA RESULT:     -11.6      0.000      0.000
REMARK SMILES C[C@](NC(=O)Cc1cccc(F)c1F)(C(=O)NCCCNC(=O)c1ccc(-c2c3nc(c(-c4c(F)cccc4F)c4ccc([nH]4)c(-c4c(F)cccc4F)c4nc(c(-c5c(F)cccc5F)c5ccc2[nH]5)C=C4)C=C3)cc1)C1CC1
REMARK SMILES IDX 18 1 17 2 15 3 16 4 2 6 1 7 78 8 79 9 80 10 3 11 4 12 5 14
REMARK SMILES IDX 6 15 7 16 8 17 13 18 9 19 11 20 14 21 10 22 12 23 19 24
REMARK SMILES IDX 20 25 21 26 22 27 23 29 24 30 25 31 77 32 26 33 76 34 27 35
REMARK SMILES IDX 28 36 29 37 70 38 30 39 75 40 69 41 71 42 31 43 74 44 68 45
REMARK SMILES IDX 67 46 32 48 58 49 41 50 57 51 42 52 45 53 56 54 72 55 43 56
REMARK SMILES IDX 44 57 55 59 73 60 46 61 33 62 34 63 39 64 35 65 36 66 38 67
REMARK SMILES IDX 40 68 37 69 59 70 60 71 65 72 61 73 62 74 64 75 66 76 63 77
REMARK SMILES IDX 47 78 48 79 53 80 49 81 50 82 52 83 54 84 51 85
REMARK H PARENT 17 5 3 13 21 28 71 47 45 58
REMARK Flexibility Score: inf
ROOT
ATOM      1  C   UNL A   1      36.407  20.677  25.007  1.00  0.00     0.117 C 
ENDROOT
BRANCH   1   2
ATOM      2  N   UNL A   1      35.248  19.805  25.075  1.00  0.00    -0.354 N 
ATOM      3  C   UNL A   1      33.911  20.094  25.037  1.00  0.00     0.245 C 
ATOM      4  O   UNL A   1      33.167  19.121  24.866  1.00  0.00    -0.272 OA
ATOM      5  H   UNL A   1      35.459  18.847  25.163  1.00  0.00     0.163 HD
BRANCH   3   6
ATOM      6  C   UNL A   1      33.357  21.592  25.058  1.00  0.00     0.119 C 
ATOM      7  C   UNL A   1      31.837  21.419  25.113  1.00  0.00     0.046 C 
BRANCH   6   8
ATOM      8  C   UNL A   1      33.917  22.296  26.306  1.00  0.00     0.024 C 
ATOM      9  C   UNL A   1      33.104  22.941  27.410  1.00  0.00     0.007 C 
ATOM     10  C   UNL A   1      33.847  21.671  27.690  1.00  0.00     0.007 C 
ENDBRANCH   6   8
BRANCH   6  11
ATOM     11  N   UNL A   1      33.894  22.254  23.848  1.00  0.00    -0.341 N 
ATOM     12  C   UNL A   1      33.716  23.421  23.181  1.00  0.00     0.225 C 
ATOM     13  H   UNL A   1      34.567  21.689  23.404  1.00  0.00     0.164 HD
ATOM     14  O   UNL A   1      34.428  23.593  22.184  1.00  0.00    -0.275 OA
BRANCH  12  15
ATOM     15  C   UNL A   1      32.744  24.507  23.601  1.00  0.00     0.138 C 
BRANCH  15  16
ATOM     16  C   UNL A   1      33.306  25.822  24.080  1.00  0.00     0.000 A 
ATOM     17  C   UNL A   1      33.428  26.026  25.467  1.00  0.00     0.007 A 
ATOM     18  C   UNL A   1      33.644  26.874  23.230  1.00  0.00     0.162 A 
ATOM     19  C   UNL A   1      33.724  27.290  25.982  1.00  0.00     0.004 A 
ATOM     20  C   UNL A   1      33.890  28.143  23.743  1.00  0.00     0.159 A 
ATOM     21  F   UNL A   1      33.673  26.694  21.904  1.00  0.00    -0.203 F 
ATOM     22  C   UNL A   1      33.910  28.365  25.114  1.00  0.00     0.042 A 
ATOM     23  F   UNL A   1      34.053  29.180  22.908  1.00  0.00    -0.204 F 
ENDBRANCH  15  16
ENDBRANCH  12  15
ENDBRANCH   6  11
ENDBRANCH   3   6
ENDBRANCH   1   2
BRANCH   1  24
ATOM     24  C   UNL A   1      37.703  19.919  24.774  1.00  0.00     0.042 C 
BRANCH  24  25
ATOM     25  C   UNL A   1      38.823  20.316  25.723  1.00  0.00     0.118 C 
BRANCH  25  26
ATOM     26  N   UNL A   1      39.919  19.355  25.754  1.00  0.00    -0.352 N 
ATOM     27  C   UNL A   1      41.240  19.539  26.091  1.00  0.00     0.251 C 
ATOM     28  H   UNL A   1      39.678  18.436  25.495  1.00  0.00     0.163 HD
ATOM     29  O   UNL A   1      42.047  18.627  25.933  1.00  0.00    -0.269 OA
BRANCH  27  30
ATOM     30  C   UNL A   1      41.701  20.845  26.611  1.00  0.00     0.039 A 
ATOM     31  C   UNL A   1      42.197  21.795  25.715  1.00  0.00     0.014 A 
ATOM     32  C   UNL A   1      41.635  21.142  27.974  1.00  0.00     0.014 A 
ATOM     33  C   UNL A   1      42.548  23.067  26.173  1.00  0.00     0.010 A 
ATOM     34  C   UNL A   1      41.889  22.436  28.414  1.00  0.00     0.010 A 
ATOM     35  C   UNL A   1      42.354  23.414  27.520  1.00  0.00    -0.014 A 
BRANCH  35  36
ATOM     36  C   UNL A   1      42.639  24.783  28.023  1.00  0.00     0.031 A 
ATOM     37  C   UNL A   1      44.033  25.152  28.455  1.00  0.00     0.074 A 
ATOM     38  C   UNL A   1      41.634  25.671  28.162  1.00  0.00     0.049 A 
ATOM     39  N   UNL A   1      44.465  26.256  29.009  1.00  0.00    -0.248 NA
ATOM     40  C   UNL A   1      45.076  24.130  28.267  1.00  0.00     0.031 C 
ATOM     41  C   UNL A   1      40.231  25.426  27.825  1.00  0.00     0.029 A 
ATOM     42  N   UNL A   1      41.640  26.959  28.639  1.00  0.00    -0.354 N 
ATOM     43  C   UNL A   1      45.817  26.053  29.253  1.00  0.00     0.074 A 
ATOM     44  C   UNL A   1      46.122  24.701  28.843  1.00  0.00     0.031 C 
ATOM     45  C   UNL A   1      39.517  26.533  28.081  1.00  0.00     0.029 A 
ATOM     46  C   UNL A   1      40.398  27.550  28.642  1.00  0.00     0.049 A 
ATOM     47  H   UNL A   1      42.455  27.416  28.948  1.00  0.00     0.167 HD
ATOM     48  C   UNL A   1      46.729  26.922  29.749  1.00  0.00     0.037 A 
ATOM     49  C   UNL A   1      40.014  28.771  29.064  1.00  0.00     0.037 A 
ATOM     50  C   UNL A   1      46.429  28.276  30.133  1.00  0.00     0.049 A 
ATOM     51  C   UNL A   1      41.042  29.712  29.626  1.00  0.00     0.074 A 
ATOM     52  C   UNL A   1      47.295  29.255  30.590  1.00  0.00     0.029 A 
ATOM     53  N   UNL A   1      45.163  28.842  30.107  1.00  0.00    -0.354 N 
ATOM     54  N   UNL A   1      42.331  29.531  29.788  1.00  0.00    -0.248 NA
ATOM     55  C   UNL A   1      40.564  31.032  30.061  1.00  0.00     0.031 C 
ATOM     56  C   UNL A   1      46.544  30.396  30.891  1.00  0.00     0.029 A 
ATOM     57  C   UNL A   1      45.220  30.148  30.565  1.00  0.00     0.049 A 
ATOM     58  H   UNL A   1      44.345  28.383  29.807  1.00  0.00     0.167 HD
ATOM     59  C   UNL A   1      42.821  30.721  30.311  1.00  0.00     0.074 A 
ATOM     60  C   UNL A   1      41.694  31.621  30.426  1.00  0.00     0.031 C 
ATOM     61  C   UNL A   1      44.091  31.038  30.665  1.00  0.00     0.037 A 
BRANCH  48  62
ATOM     62  C   UNL A   1      48.141  26.432  29.901  1.00  0.00     0.057 A 
ATOM     63  C   UNL A   1      48.596  25.836  31.086  1.00  0.00     0.134 A 
ATOM     64  C   UNL A   1      49.050  26.530  28.840  1.00  0.00     0.134 A 
ATOM     65  F   UNL A   1      47.781  25.722  32.146  1.00  0.00    -0.206 F 
ATOM     66  C   UNL A   1      49.910  25.386  31.221  1.00  0.00     0.040 A 
ATOM     67  C   UNL A   1      50.358  26.054  28.952  1.00  0.00     0.040 A 
ATOM     68  F   UNL A   1      48.681  27.081  27.674  1.00  0.00    -0.206 F 
ATOM     69  C   UNL A   1      50.794  25.487  30.149  1.00  0.00     0.006 A 
ENDBRANCH  48  62
BRANCH  49  70
ATOM     70  C   UNL A   1      38.590  29.182  28.956  1.00  0.00     0.057 A 
ATOM     71  C   UNL A   1      37.730  29.107  30.059  1.00  0.00     0.134 A 
ATOM     72  C   UNL A   1      38.049  29.644  27.751  1.00  0.00     0.134 A 
ATOM     73  F   UNL A   1      38.184  28.654  31.237  1.00  0.00    -0.206 F 
ATOM     74  C   UNL A   1      36.382  29.452  29.962  1.00  0.00     0.040 A 
ATOM     75  C   UNL A   1      36.708  30.021  27.646  1.00  0.00     0.040 A 
ATOM     76  F   UNL A   1      38.819  29.747  26.657  1.00  0.00    -0.206 F 
ATOM     77  C   UNL A   1      35.868  29.915  28.753  1.00  0.00     0.006 A 
ENDBRANCH  49  70
BRANCH  61  78
ATOM     78  C   UNL A   1      44.339  32.430  31.169  1.00  0.00     0.057 A 
ATOM     79  C   UNL A   1      44.301  32.745  32.534  1.00  0.00     0.134 A 
ATOM     80  C   UNL A   1      44.660  33.462  30.278  1.00  0.00     0.134 A 
ATOM     81  F   UNL A   1      43.987  31.806  33.439  1.00  0.00    -0.206 F 
ATOM     82  C   UNL A   1      44.548  34.041  32.990  1.00  0.00     0.040 A 
ATOM     83  C   UNL A   1      44.940  34.754  30.724  1.00  0.00     0.040 A 
ATOM     84  F   UNL A   1      44.724  33.228  28.958  1.00  0.00    -0.206 F 
ATOM     85  C   UNL A   1      44.877  35.048  32.085  1.00  0.00     0.006 A 
ENDBRANCH  61  78
ENDBRANCH  35  36
ENDBRANCH  27  30
ENDBRANCH  25  26
ENDBRANCH  24  25
ENDBRANCH   1  24
TORSDOF 14
ENDMDL
MODEL 2
REMARK VINA RESULT:     -11.6      4.593      9.315
REMARK SMILES C[C@](NC(=O)Cc1cccc(F)c1F)(C(=O)NCCCNC(=O)c1ccc(-c2c3nc(c(-c4c(F)cccc4F)c4ccc([nH]4)c(-c4c(F)cccc4F)c4nc(c(-c5c(F)cccc5F)c5ccc2[nH]5)C=C4)C=C3)cc1)C1CC1
REMARK SMILES IDX 18 1 17 2 15 3 16 4 2 6 1 7 78 8 79 9 80 10 3 11 4 12 5 14
REMARK SMILES IDX 6 15 7 16 8 17 13 18 9 19 11 20 14 21 10 22 12 23 19 24
REMARK SMILES IDX 20 25 21 26 22 27 23 29 24 30 25 31 77 32 26 33 76 34 27 35
REMARK SMILES IDX 28 36 29 37 70 38 30 39 75 40 69 41 71 42 31 43 74 44 68 45
REMARK SMILES IDX 67 46 32 48 58 49 41 50 57 51 42 52 45 53 56 54 72 55 43 56
REMARK SMILES IDX 44 57 55 59 73 60 46 61 33 62 34 63 39 64 35 65 36 66 38 67
REMARK SMILES IDX 40 68 37 69 59 70 60 71 65 72 61 73 62 74 64 75 66 76 63 77
REMARK SMILES IDX 47 78 48 79 53 80 49 81 50 82 52 83 54 84 51 85
REMARK H PARENT 17 5 3 13 21 28 71 47 45 58
REMARK Flexibility Score: inf
ROOT
ATOM      1  C   UNL A   1      31.479  30.727  25.780  1.00  0.00     0.117 C 
ENDROOT
BRANCH   1   2
ATOM      2  N   UNL A   1      30.611  30.612  24.622  1.00  0.00    -0.354 N 
ATOM      3  C   UNL A   1      30.386  29.561  23.776  1.00  0.00     0.245 C 
ATOM      4  O   UNL A   1      29.406  29.684  23.031  1.00  0.00    -0.272 OA
ATOM      5  H   UNL A   1      30.098  31.426  24.411  1.00  0.00     0.163 HD
BRANCH   3   6
ATOM      6  C   UNL A   1      31.232  28.207  23.847  1.00  0.00     0.119 C 
ATOM      7  C   UNL A   1      30.478  27.255  22.915  1.00  0.00     0.046 C 
BRANCH   6   8
ATOM      8  C   UNL A   1      32.660  28.505  23.359  1.00  0.00     0.024 C 
ATOM      9  C   UNL A   1      33.945  28.144  24.075  1.00  0.00     0.007 C 
ATOM     10  C   UNL A   1      33.576  27.420  22.818  1.00  0.00     0.007 C 
ENDBRANCH   6   8
BRANCH   6  11
ATOM     11  N   UNL A   1      31.279  27.819  25.274  1.00  0.00    -0.341 N 
ATOM     12  C   UNL A   1      31.241  26.676  26.004  1.00  0.00     0.225 C 
ATOM     13  H   UNL A   1      31.362  28.609  25.855  1.00  0.00     0.164 HD
ATOM     14  O   UNL A   1      31.349  26.809  27.229  1.00  0.00    -0.275 OA
BRANCH  12  15
ATOM     15  C   UNL A   1      31.110  25.286  25.411  1.00  0.00     0.138 C 
BRANCH  15  16
ATOM     16  C   UNL A   1      32.339  24.645  24.819  1.00  0.00     0.000 A 
ATOM     17  C   UNL A   1      33.563  24.802  25.497  1.00  0.00     0.007 A 
ATOM     18  C   UNL A   1      32.347  23.967  23.601  1.00  0.00     0.162 A 
ATOM     19  C   UNL A   1      34.768  24.432  24.895  1.00  0.00     0.004 A 
ATOM     20  C   UNL A   1      33.549  23.644  22.981  1.00  0.00     0.159 A 
ATOM     21  F   UNL A   1      31.198  23.674  22.978  1.00  0.00    -0.203 F 
ATOM     22  C   UNL A   1      34.763  23.893  23.610  1.00  0.00     0.042 A 
ATOM     23  F   UNL A   1      33.546  23.140  21.738  1.00  0.00    -0.204 F 
ENDBRANCH  15  16
ENDBRANCH  12  15
ENDBRANCH   6  11
ENDBRANCH   3   6
ENDBRANCH   1   2
BRANCH   1  24
ATOM     24  C   UNL A   1      31.275  32.024  26.544  1.00  0.00     0.042 C 
BRANCH  24  25
ATOM     25  C   UNL A   1      32.541  32.551  27.202  1.00  0.00     0.118 C 
BRANCH  25  26
ATOM     26  N   UNL A   1      32.444  33.950  27.601  1.00  0.00    -0.352 N 
ATOM     27  C   UNL A   1      33.173  34.652  28.532  1.00  0.00     0.251 C 
ATOM     28  H   UNL A   1      31.752  34.472  27.132  1.00  0.00     0.163 HD
ATOM     29  O   UNL A   1      32.856  35.804  28.820  1.00  0.00    -0.269 OA
BRANCH  27  30
ATOM     30  C   UNL A   1      34.318  34.013  29.217  1.00  0.00     0.039 A 
ATOM     31  C   UNL A   1      34.069  33.088  30.236  1.00  0.00     0.014 A 
ATOM     32  C   UNL A   1      35.632  34.310  28.854  1.00  0.00     0.014 A 
ATOM     33  C   UNL A   1      35.132  32.404  30.828  1.00  0.00     0.010 A 
ATOM     34  C   UNL A   1      36.681  33.558  29.372  1.00  0.00     0.010 A 
ATOM     35  C   UNL A   1      36.445  32.600  30.370  1.00  0.00    -0.014 A 
BRANCH  35  36
ATOM     36  C   UNL A   1      37.588  31.828  30.923  1.00  0.00     0.031 A 
ATOM     37  C   UNL A   1      38.100  32.126  32.307  1.00  0.00     0.074 A 
ATOM     38  C   UNL A   1      38.214  30.912  30.157  1.00  0.00     0.049 A 
ATOM     39  N   UNL A   1      39.141  31.635  32.930  1.00  0.00    -0.248 NA
ATOM     40  C   UNL A   1      37.360  33.135  33.082  1.00  0.00     0.031 C 
ATOM     41  C   UNL A   1      37.849  30.561  28.784  1.00  0.00     0.029 A 
ATOM     42  N   UNL A   1      39.302  30.118  30.423  1.00  0.00    -0.354 N 
ATOM     43  C   UNL A   1      39.191  32.287  34.155  1.00  0.00     0.074 A 
ATOM     44  C   UNL A   1      38.114  33.252  34.165  1.00  0.00     0.031 C 
ATOM     45  C   UNL A   1      38.680  29.605  28.337  1.00  0.00     0.029 A 
ATOM     46  C   UNL A   1      39.665  29.309  29.372  1.00  0.00     0.049 A 
ATOM     47  H   UNL A   1      39.778  30.125  31.285  1.00  0.00     0.167 HD
ATOM     48  C   UNL A   1      40.040  32.084  35.190  1.00  0.00     0.037 A 
ATOM     49  C   UNL A   1      40.684  28.436  29.252  1.00  0.00     0.037 A 
ATOM     50  C   UNL A   1      41.095  31.106  35.189  1.00  0.00     0.049 A 
ATOM     51  C   UNL A   1      41.623  28.240  30.409  1.00  0.00     0.074 A 
ATOM     52  C   UNL A   1      41.972  30.781  36.210  1.00  0.00     0.029 A 
ATOM     53  N   UNL A   1      41.420  30.296  34.111  1.00  0.00    -0.354 N 
ATOM     54  N   UNL A   1      41.618  28.816  31.588  1.00  0.00    -0.248 NA
ATOM     55  C   UNL A   1      42.711  27.269  30.223  1.00  0.00     0.031 C 
ATOM     56  C   UNL A   1      42.860  29.813  35.732  1.00  0.00     0.029 A 
ATOM     57  C   UNL A   1      42.500  29.491  34.433  1.00  0.00     0.049 A 
ATOM     58  H   UNL A   1      40.952  30.293  33.244  1.00  0.00     0.167 HD
ATOM     59  C   UNL A   1      42.676  28.254  32.292  1.00  0.00     0.074 A 
ATOM     60  C   UNL A   1      43.292  27.283  31.414  1.00  0.00     0.031 C 
ATOM     61  C   UNL A   1      43.098  28.520  33.553  1.00  0.00     0.037 A 
BRANCH  48  62
ATOM     62  C   UNL A   1      39.858  32.938  36.413  1.00  0.00     0.057 A 
ATOM     63  C   UNL A   1      40.608  34.103  36.623  1.00  0.00     0.134 A 
ATOM     64  C   UNL A   1      38.898  32.607  37.379  1.00  0.00     0.134 A 
ATOM     65  F   UNL A   1      41.552  34.471  35.743  1.00  0.00    -0.206 F 
ATOM     66  C   UNL A   1      40.436  34.889  37.763  1.00  0.00     0.040 A 
ATOM     67  C   UNL A   1      38.694  33.404  38.507  1.00  0.00     0.040 A 
ATOM     68  F   UNL A   1      38.139  31.511  37.239  1.00  0.00    -0.206 F 
ATOM     69  C   UNL A   1      39.470  34.544  38.706  1.00  0.00     0.006 A 
ENDBRANCH  48  62
BRANCH  49  70
ATOM     70  C   UNL A   1      40.863  27.666  27.993  1.00  0.00     0.057 A 
ATOM     71  C   UNL A   1      40.286  26.401  27.832  1.00  0.00     0.134 A 
ATOM     72  C   UNL A   1      41.625  28.166  26.931  1.00  0.00     0.134 A 
ATOM     73  F   UNL A   1      39.561  25.859  28.822  1.00  0.00    -0.206 F 
ATOM     74  C   UNL A   1      40.480  25.650  26.672  1.00  0.00     0.040 A 
ATOM     75  C   UNL A   1      41.803  27.438  25.752  1.00  0.00     0.040 A 
ATOM     76  F   UNL A   1      42.200  29.375  27.017  1.00  0.00    -0.206 F 
ATOM     77  C   UNL A   1      41.236  26.171  25.625  1.00  0.00     0.006 A 
ENDBRANCH  49  70
BRANCH  61  78
ATOM     78  C   UNL A   1      44.257  27.720  34.074  1.00  0.00     0.057 A 
ATOM     79  C   UNL A   1      45.576  28.183  33.997  1.00  0.00     0.134 A 
ATOM     80  C   UNL A   1      44.042  26.485  34.700  1.00  0.00     0.134 A 
ATOM     81  F   UNL A   1      45.852  29.352  33.398  1.00  0.00    -0.206 F 
ATOM     82  C   UNL A   1      46.643  27.436  34.500  1.00  0.00     0.040 A 
ATOM     83  C   UNL A   1      45.096  25.743  35.236  1.00  0.00     0.040 A 
ATOM     84  F   UNL A   1      42.802  25.986  34.818  1.00  0.00    -0.206 F 
ATOM     85  C   UNL A   1      46.403  26.216  35.129  1.00  0.00     0.006 A 
ENDBRANCH  61  78
ENDBRANCH  35  36
ENDBRANCH  27  30
ENDBRANCH  25  26
ENDBRANCH  24  25
ENDBRANCH   1  24
TORSDOF 14
ENDMDL
MODEL 3
REMARK VINA RESULT:     -11.4      1.142      2.289
REMARK SMILES C[C@](NC(=O)Cc1cccc(F)c1F)(C(=O)NCCCNC(=O)c1ccc(-c2c3nc(c(-c4c(F)cccc4F)c4ccc([nH]4)c(-c4c(F)cccc4F)c4nc(c(-c5c(F)cccc5F)c5ccc2[nH]5)C=C4)C=C3)cc1)C1CC1
REMARK SMILES IDX 18 1 17 2 15 3 16 4 2 6 1 7 78 8 79 9 80 10 3 11 4 12 5 14
REMARK SMILES IDX 6 15 7 16 8 17 13 18 9 19 11 20 14 21 10 22 12 23 19 24
REMARK SMILES IDX 20 25 21 26 22 27 23 29 24 30 25 31 77 32 26 33 76 34 27 35
REMARK SMILES IDX 28 36 29 37 70 38 30 39 75 40 69 41 71 42 31 43 74 44 68 45
REMARK SMILES IDX 67 46 32 48 58 49 41 50 57 51 42 52 45 53 56 54 72 55 43 56
REMARK SMILES IDX 44 57 55 59 73 60 46 61 33 62 34 63 39 64 35 65 36 66 38 67
REMARK SMILES IDX 40 68 37 69 59 70 60 71 65 72 61 73 62 74 64 75 66 76 63 77
REMARK SMILES IDX 47 78 48 79 53 80 49 81 50 82 52 83 54 84 51 85
REMARK H PARENT 17 5 3 13 21 28 71 47 45 58
REMARK Flexibility Score: inf
ROOT
ATOM      1  C   UNL A   1      36.428  21.003  24.702  1.00  0.00     0.117 C 
ENDROOT
BRANCH   1   2
ATOM      2  N   UNL A   1      35.527  20.740  25.810  1.00  0.00    -0.354 N 
ATOM      3  C   UNL A   1      34.366  21.361  26.182  1.00  0.00     0.245 C 
ATOM      4  O   UNL A   1      33.691  20.756  27.023  1.00  0.00    -0.272 OA
ATOM      5  H   UNL A   1      35.796  19.990  26.389  1.00  0.00     0.163 HD
BRANCH   3   6
ATOM      6  C   UNL A   1      33.841  22.693  25.473  1.00  0.00     0.119 C 
ATOM      7  C   UNL A   1      35.026  23.657  25.584  1.00  0.00     0.046 C 
BRANCH   6   8
ATOM      8  C   UNL A   1      33.489  22.355  24.014  1.00  0.00     0.024 C 
ATOM      9  C   UNL A   1      32.380  22.980  23.193  1.00  0.00     0.007 C 
ATOM     10  C   UNL A   1      33.807  23.297  22.863  1.00  0.00     0.007 C 
ENDBRANCH   6   8
BRANCH   6  11
ATOM     11  N   UNL A   1      32.609  23.090  26.188  1.00  0.00    -0.341 N 
ATOM     12  C   UNL A   1      31.974  24.239  26.529  1.00  0.00     0.225 C 
ATOM     13  H   UNL A   1      32.113  22.302  26.506  1.00  0.00     0.164 HD
ATOM     14  O   UNL A   1      30.898  24.110  27.127  1.00  0.00    -0.275 OA
BRANCH  12  15
ATOM     15  C   UNL A   1      32.480  25.629  26.195  1.00  0.00     0.138 C 
BRANCH  15  16
ATOM     16  C   UNL A   1      32.068  26.241  24.880  1.00  0.00     0.000 A 
ATOM     17  C   UNL A   1      30.694  26.428  24.636  1.00  0.00     0.007 A 
ATOM     18  C   UNL A   1      32.965  26.566  23.863  1.00  0.00     0.162 A 
ATOM     19  C   UNL A   1      30.234  26.775  23.364  1.00  0.00     0.004 A 
ATOM     20  C   UNL A   1      32.504  26.864  22.585  1.00  0.00     0.159 A 
ATOM     21  F   UNL A   1      34.284  26.534  24.084  1.00  0.00    -0.203 F 
ATOM     22  C   UNL A   1      31.142  26.948  22.321  1.00  0.00     0.042 A 
ATOM     23  F   UNL A   1      33.378  27.014  21.578  1.00  0.00    -0.204 F 
ENDBRANCH  15  16
ENDBRANCH  12  15
ENDBRANCH   6  11
ENDBRANCH   3   6
ENDBRANCH   1   2
BRANCH   1  24
ATOM     24  C   UNL A   1      37.612  20.051  24.666  1.00  0.00     0.042 C 
BRANCH  24  25
ATOM     25  C   UNL A   1      38.706  20.396  25.665  1.00  0.00     0.118 C 
BRANCH  25  26
ATOM     26  N   UNL A   1      39.782  19.414  25.703  1.00  0.00    -0.352 N 
ATOM     27  C   UNL A   1      41.100  19.568  26.065  1.00  0.00     0.251 C 
ATOM     28  H   UNL A   1      39.528  18.503  25.427  1.00  0.00     0.163 HD
ATOM     29  O   UNL A   1      41.892  18.641  25.909  1.00  0.00    -0.269 OA
BRANCH  27  30
ATOM     30  C   UNL A   1      41.577  20.857  26.610  1.00  0.00     0.039 A 
ATOM     31  C   UNL A   1      42.106  21.810  25.734  1.00  0.00     0.014 A 
ATOM     32  C   UNL A   1      41.494  21.138  27.975  1.00  0.00     0.014 A 
ATOM     33  C   UNL A   1      42.474  23.068  26.215  1.00  0.00     0.010 A 
ATOM     34  C   UNL A   1      41.765  22.422  28.436  1.00  0.00     0.010 A 
ATOM     35  C   UNL A   1      42.263  23.402  27.563  1.00  0.00    -0.014 A 
BRANCH  35  36
ATOM     36  C   UNL A   1      42.566  24.759  28.088  1.00  0.00     0.031 A 
ATOM     37  C   UNL A   1      43.965  25.103  28.525  1.00  0.00     0.074 A 
ATOM     38  C   UNL A   1      41.573  25.657  28.244  1.00  0.00     0.049 A 
ATOM     39  N   UNL A   1      44.411  26.192  29.097  1.00  0.00    -0.248 NA
ATOM     40  C   UNL A   1      44.995  24.071  28.318  1.00  0.00     0.031 C 
ATOM     41  C   UNL A   1      40.166  25.434  27.905  1.00  0.00     0.029 A 
ATOM     42  N   UNL A   1      41.594  26.936  28.742  1.00  0.00    -0.354 N 
ATOM     43  C   UNL A   1      45.761  25.969  29.335  1.00  0.00     0.074 A 
ATOM     44  C   UNL A   1      46.049  24.619  28.902  1.00  0.00     0.031 C 
ATOM     45  C   UNL A   1      39.466  26.546  28.180  1.00  0.00     0.029 A 
ATOM     46  C   UNL A   1      40.360  27.543  28.758  1.00  0.00     0.049 A 
ATOM     47  H   UNL A   1      42.416  27.378  29.058  1.00  0.00     0.167 HD
ATOM     48  C   UNL A   1      46.685  26.818  29.844  1.00  0.00     0.037 A 
ATOM     49  C   UNL A   1      39.991  28.760  29.200  1.00  0.00     0.037 A 
ATOM     50  C   UNL A   1      46.402  28.168  30.251  1.00  0.00     0.049 A 
ATOM     51  C   UNL A   1      41.032  29.679  29.777  1.00  0.00     0.074 A 
ATOM     52  C   UNL A   1      47.280  29.129  30.723  1.00  0.00     0.029 A 
ATOM     53  N   UNL A   1      45.143  28.751  30.237  1.00  0.00    -0.354 N 
ATOM     54  N   UNL A   1      42.319  29.479  29.934  1.00  0.00    -0.248 NA
ATOM     55  C   UNL A   1      40.571  30.998  30.234  1.00  0.00     0.031 C 
ATOM     56  C   UNL A   1      46.544  30.274  31.045  1.00  0.00     0.029 A 
ATOM     57  C   UNL A   1      45.216  30.048  30.717  1.00  0.00     0.049 A 
ATOM     58  H   UNL A   1      44.318  28.307  29.930  1.00  0.00     0.167 HD
ATOM     59  C   UNL A   1      42.825  30.654  30.476  1.00  0.00     0.074 A 
ATOM     60  C   UNL A   1      41.709  31.567  30.607  1.00  0.00     0.031 C 
ATOM     61  C   UNL A   1      44.099  30.950  30.833  1.00  0.00     0.037 A 
BRANCH  48  62
ATOM     62  C   UNL A   1      48.090  26.308  29.987  1.00  0.00     0.057 A 
ATOM     63  C   UNL A   1      49.033  26.433  28.956  1.00  0.00     0.134 A 
ATOM     64  C   UNL A   1      48.517  25.711  31.180  1.00  0.00     0.134 A 
ATOM     65  F   UNL A   1      48.687  26.984  27.782  1.00  0.00    -0.206 F 
ATOM     66  C   UNL A   1      50.336  25.955  29.095  1.00  0.00     0.040 A 
ATOM     67  C   UNL A   1      49.828  25.258  31.342  1.00  0.00     0.040 A 
ATOM     68  F   UNL A   1      47.672  25.565  32.211  1.00  0.00    -0.206 F 
ATOM     69  C   UNL A   1      50.740  25.371  30.294  1.00  0.00     0.006 A 
ENDBRANCH  48  62
BRANCH  49  70
ATOM     70  C   UNL A   1      38.573  29.191  29.102  1.00  0.00     0.057 A 
ATOM     71  C   UNL A   1      38.048  29.683  27.900  1.00  0.00     0.134 A 
ATOM     72  C   UNL A   1      37.712  29.138  30.205  1.00  0.00     0.134 A 
ATOM     73  F   UNL A   1      38.828  29.777  26.813  1.00  0.00    -0.206 F 
ATOM     74  C   UNL A   1      36.730  30.129  27.804  1.00  0.00     0.040 A 
ATOM     75  C   UNL A   1      36.381  29.554  30.115  1.00  0.00     0.040 A 
ATOM     76  F   UNL A   1      38.149  28.672  31.384  1.00  0.00    -0.206 F 
ATOM     77  C   UNL A   1      35.890  30.060  28.914  1.00  0.00     0.006 A 
ENDBRANCH  49  70
BRANCH  61  78
ATOM     78  C   UNL A   1      44.364  32.330  31.360  1.00  0.00     0.057 A 
ATOM     79  C   UNL A   1      44.659  33.406  30.514  1.00  0.00     0.134 A 
ATOM     80  C   UNL A   1      44.282  32.594  32.734  1.00  0.00     0.134 A 
ATOM     81  F   UNL A   1      44.764  33.220  29.189  1.00  0.00    -0.206 F 
ATOM     82  C   UNL A   1      44.888  34.689  31.016  1.00  0.00     0.040 A 
ATOM     83  C   UNL A   1      44.478  33.877  33.246  1.00  0.00     0.040 A 
ATOM     84  F   UNL A   1      43.994  31.611  33.601  1.00  0.00    -0.206 F 
ATOM     85  C   UNL A   1      44.789  34.928  32.386  1.00  0.00     0.006 A 
ENDBRANCH  61  78
ENDBRANCH  35  36
ENDBRANCH  27  30
ENDBRANCH  25  26
ENDBRANCH  24  25
ENDBRANCH   1  24
TORSDOF 14
ENDMDL
