MODEL 1
REMARK VINA RESULT:     -11.6      0.000      0.000
REMARK SMILES O=C(Cc1cccn1-c1ccccc1F)NCCCNC(=O)c1ccc(-c2c3nc(c(-c4c(F)cccc4F)c4ccc([nH]4)c(-c4c(F)cccc4F)c4nc(c(-c5c(F)cccc5F)c5ccc2[nH]5)C=C4)C=C3)cc1
REMARK SMILES IDX 18 1 17 2 16 3 1 4 2 5 3 7 4 8 5 9 8 10 6 11 7 12 9 13 10 14
REMARK SMILES IDX 14 15 11 16 13 17 15 18 12 19 19 20 20 21 21 22 22 24 23 25
REMARK SMILES IDX 24 26 76 27 25 28 75 29 26 30 27 31 28 32 69 33 29 34 74 35
REMARK SMILES IDX 68 36 70 37 30 38 73 39 67 40 66 41 31 43 57 44 40 45 56 46
REMARK SMILES IDX 41 47 44 48 55 49 71 50 42 51 43 52 54 54 72 55 45 56 32 57
REMARK SMILES IDX 33 58 38 59 34 60 35 61 37 62 39 63 36 64 58 65 59 66 64 67
REMARK SMILES IDX 60 68 61 69 63 70 65 71 62 72 46 73 47 74 52 75 48 76 49 77
REMARK SMILES IDX 51 78 53 79 50 80
REMARK H PARENT 16 6 20 23 70 42 44 53
REMARK Flexibility Score: inf
ROOT
ATOM      1  C   UNL A   1      33.340  28.406  27.085  1.00  0.00     0.042 C 
ENDROOT
BRANCH   1   2
ATOM      2  C   UNL A   1      32.543  28.584  25.792  1.00  0.00     0.117 C 
BRANCH   2   3
ATOM      3  N   UNL A   1      32.718  27.489  24.854  1.00  0.00    -0.356 N 
ATOM      4  O   UNL A   1      33.019  28.817  23.012  1.00  0.00    -0.275 OA
ATOM      5  C   UNL A   1      33.022  27.699  23.523  1.00  0.00     0.225 C 
ATOM      6  H   UNL A   1      32.617  26.566  25.179  1.00  0.00     0.163 HD
BRANCH   5   7
ATOM      7  C   UNL A   1      33.286  26.441  22.703  1.00  0.00     0.154 C 
BRANCH   7   8
ATOM      8  C   UNL A   1      32.474  25.243  23.139  1.00  0.00     0.032 A 
ATOM      9  C   UNL A   1      31.106  25.020  23.061  1.00  0.00     0.024 A 
ATOM     10  N   UNL A   1      33.050  24.084  23.663  1.00  0.00    -0.318 N 
ATOM     11  C   UNL A   1      30.857  23.676  23.403  1.00  0.00     0.020 A 
ATOM     12  C   UNL A   1      32.069  23.112  23.720  1.00  0.00     0.091 A 
BRANCH  10  13
ATOM     13  C   UNL A   1      34.396  23.862  24.052  1.00  0.00     0.081 A 
ATOM     14  C   UNL A   1      35.268  23.194  23.181  1.00  0.00     0.030 A 
ATOM     15  C   UNL A   1      34.846  24.233  25.320  1.00  0.00     0.147 A 
ATOM     16  C   UNL A   1      36.590  22.955  23.566  1.00  0.00     0.002 A 
ATOM     17  C   UNL A   1      36.159  23.978  25.709  1.00  0.00     0.041 A 
ATOM     18  F   UNL A   1      34.012  24.748  26.234  1.00  0.00    -0.205 F 
ATOM     19  C   UNL A   1      37.036  23.347  24.828  1.00  0.00     0.003 A 
ENDBRANCH  10  13
ENDBRANCH   7   8
ENDBRANCH   5   7
ENDBRANCH   2   3
ENDBRANCH   1   2
BRANCH   1  20
ATOM     20  C   UNL A   1      34.836  28.643  26.900  1.00  0.00     0.118 C 
BRANCH  20  21
ATOM     21  N   UNL A   1      35.203  30.032  27.134  1.00  0.00    -0.352 N 
ATOM     22  C   UNL A   1      36.282  30.569  27.795  1.00  0.00     0.251 C 
ATOM     23  H   UNL A   1      34.578  30.693  26.757  1.00  0.00     0.163 HD
ATOM     24  O   UNL A   1      36.226  31.734  28.168  1.00  0.00    -0.269 OA
BRANCH  22  25
ATOM     25  C   UNL A   1      37.505  29.780  28.067  1.00  0.00     0.039 A 
ATOM     26  C   UNL A   1      38.492  29.731  27.070  1.00  0.00     0.014 A 
ATOM     27  C   UNL A   1      37.647  29.013  29.226  1.00  0.00     0.014 A 
ATOM     28  C   UNL A   1      39.636  28.962  27.259  1.00  0.00     0.010 A 
ATOM     29  C   UNL A   1      38.803  28.279  29.441  1.00  0.00     0.010 A 
ATOM     30  C   UNL A   1      39.796  28.261  28.458  1.00  0.00    -0.014 A 
BRANCH  30  31
ATOM     31  C   UNL A   1      41.080  27.604  28.764  1.00  0.00     0.031 A 
ATOM     32  C   UNL A   1      41.072  26.119  28.321  1.00  0.00     0.074 A 
ATOM     33  C   UNL A   1      42.033  28.414  29.323  1.00  0.00     0.049 A 
ATOM     34  N   UNL A   1      41.815  25.123  28.698  1.00  0.00    -0.248 NA
ATOM     35  C   UNL A   1      40.051  25.660  27.334  1.00  0.00     0.031 C 
ATOM     36  C   UNL A   1      41.844  29.853  29.626  1.00  0.00     0.029 A 
ATOM     37  N   UNL A   1      43.336  28.228  29.737  1.00  0.00    -0.354 N 
ATOM     38  C   UNL A   1      41.500  24.007  27.883  1.00  0.00     0.074 A 
ATOM     39  C   UNL A   1      40.340  24.373  27.133  1.00  0.00     0.031 C 
ATOM     40  C   UNL A   1      42.929  30.369  30.241  1.00  0.00     0.029 A 
ATOM     41  C   UNL A   1      43.937  29.341  30.392  1.00  0.00     0.049 A 
ATOM     42  H   UNL A   1      43.817  27.383  29.591  1.00  0.00     0.167 HD
ATOM     43  C   UNL A   1      42.294  22.896  27.795  1.00  0.00     0.037 A 
ATOM     44  C   UNL A   1      45.134  29.402  31.057  1.00  0.00     0.037 A 
ATOM     45  C   UNL A   1      43.397  23.029  28.684  1.00  0.00     0.049 A 
ATOM     46  C   UNL A   1      45.775  28.106  30.795  1.00  0.00     0.074 A 
ATOM     47  C   UNL A   1      43.482  22.978  30.050  1.00  0.00     0.029 A 
ATOM     48  N   UNL A   1      44.521  23.634  28.181  1.00  0.00    -0.354 N 
ATOM     49  N   UNL A   1      46.276  27.739  29.654  1.00  0.00    -0.248 NA
ATOM     50  C   UNL A   1      45.732  27.088  31.852  1.00  0.00     0.031 C 
ATOM     51  C   UNL A   1      44.392  24.012  30.347  1.00  0.00     0.029 A 
ATOM     52  C   UNL A   1      45.003  24.455  29.168  1.00  0.00     0.049 A 
ATOM     53  H   UNL A   1      44.907  23.503  27.286  1.00  0.00     0.167 HD
ATOM     54  C   UNL A   1      46.286  26.370  29.770  1.00  0.00     0.074 A 
ATOM     55  C   UNL A   1      46.257  26.067  31.184  1.00  0.00     0.031 C 
ATOM     56  C   UNL A   1      45.783  25.602  28.772  1.00  0.00     0.037 A 
BRANCH  43  57
ATOM     57  C   UNL A   1      42.346  21.741  26.833  1.00  0.00     0.057 A 
ATOM     58  C   UNL A   1      43.238  21.658  25.761  1.00  0.00     0.134 A 
ATOM     59  C   UNL A   1      41.732  20.520  27.214  1.00  0.00     0.134 A 
ATOM     60  F   UNL A   1      43.891  22.739  25.314  1.00  0.00    -0.206 F 
ATOM     61  C   UNL A   1      43.566  20.429  25.166  1.00  0.00     0.040 A 
ATOM     62  C   UNL A   1      42.086  19.288  26.660  1.00  0.00     0.040 A 
ATOM     63  F   UNL A   1      40.819  20.483  28.199  1.00  0.00    -0.206 F 
ATOM     64  C   UNL A   1      43.025  19.237  25.643  1.00  0.00     0.006 A 
ENDBRANCH  43  57
BRANCH  44  65
ATOM     65  C   UNL A   1      45.838  30.320  32.037  1.00  0.00     0.057 A 
ATOM     66  C   UNL A   1      47.042  30.978  31.653  1.00  0.00     0.134 A 
ATOM     67  C   UNL A   1      45.495  30.529  33.375  1.00  0.00     0.134 A 
ATOM     68  F   UNL A   1      47.436  31.045  30.374  1.00  0.00    -0.206 F 
ATOM     69  C   UNL A   1      47.922  31.596  32.548  1.00  0.00     0.040 A 
ATOM     70  C   UNL A   1      46.348  31.197  34.281  1.00  0.00     0.040 A 
ATOM     71  F   UNL A   1      44.323  30.117  33.869  1.00  0.00    -0.206 F 
ATOM     72  C   UNL A   1      47.588  31.685  33.882  1.00  0.00     0.006 A 
ENDBRANCH  44  65
BRANCH  56  73
ATOM     73  C   UNL A   1      45.800  26.230  27.395  1.00  0.00     0.057 A 
ATOM     74  C   UNL A   1      44.662  26.678  26.708  1.00  0.00     0.134 A 
ATOM     75  C   UNL A   1      47.020  26.459  26.751  1.00  0.00     0.134 A 
ATOM     76  F   UNL A   1      43.448  26.539  27.232  1.00  0.00    -0.206 F 
ATOM     77  C   UNL A   1      44.719  27.296  25.451  1.00  0.00     0.040 A 
ATOM     78  C   UNL A   1      47.100  27.083  25.498  1.00  0.00     0.040 A 
ATOM     79  F   UNL A   1      48.167  26.065  27.325  1.00  0.00    -0.206 F 
ATOM     80  C   UNL A   1      45.947  27.501  24.840  1.00  0.00     0.006 A 
ENDBRANCH  56  73
ENDBRANCH  30  31
ENDBRANCH  22  25
ENDBRANCH  20  21
ENDBRANCH   1  20
TORSDOF 12
ENDMDL
MODEL 2
REMARK VINA RESULT:     -11.3      1.236      2.313
REMARK SMILES O=C(Cc1cccn1-c1ccccc1F)NCCCNC(=O)c1ccc(-c2c3nc(c(-c4c(F)cccc4F)c4ccc([nH]4)c(-c4c(F)cccc4F)c4nc(c(-c5c(F)cccc5F)c5ccc2[nH]5)C=C4)C=C3)cc1
REMARK SMILES IDX 18 1 17 2 16 3 1 4 2 5 3 7 4 8 5 9 8 10 6 11 7 12 9 13 10 14
REMARK SMILES IDX 14 15 11 16 13 17 15 18 12 19 19 20 20 21 21 22 22 24 23 25
REMARK SMILES IDX 24 26 76 27 25 28 75 29 26 30 27 31 28 32 69 33 29 34 74 35
REMARK SMILES IDX 68 36 70 37 30 38 73 39 67 40 66 41 31 43 57 44 40 45 56 46
REMARK SMILES IDX 41 47 44 48 55 49 71 50 42 51 43 52 54 54 72 55 45 56 32 57
REMARK SMILES IDX 33 58 38 59 34 60 35 61 37 62 39 63 36 64 58 65 59 66 64 67
REMARK SMILES IDX 60 68 61 69 63 70 65 71 62 72 46 73 47 74 52 75 48 76 49 77
REMARK SMILES IDX 51 78 53 79 50 80
REMARK H PARENT 16 6 20 23 70 42 44 53
REMARK Flexibility Score: inf
ROOT
ATOM      1  C   UNL A   1      33.866  28.404  25.422  1.00  0.00     0.042 C 
ENDROOT
BRANCH   1   2
ATOM      2  C   UNL A   1      33.027  27.126  25.408  1.00  0.00     0.117 C 
BRANCH   2   3
ATOM      3  N   UNL A   1      33.749  25.960  25.886  1.00  0.00    -0.356 N 
ATOM      4  O   UNL A   1      31.882  24.734  26.396  1.00  0.00    -0.275 OA
ATOM      5  C   UNL A   1      33.104  24.804  26.282  1.00  0.00     0.225 C 
ATOM      6  H   UNL A   1      34.732  25.995  25.929  1.00  0.00     0.163 HD
BRANCH   5   7
ATOM      7  C   UNL A   1      34.015  23.636  26.645  1.00  0.00     0.154 C 
BRANCH   7   8
ATOM      8  C   UNL A   1      35.237  23.514  25.765  1.00  0.00     0.032 A 
ATOM      9  C   UNL A   1      36.527  23.987  25.965  1.00  0.00     0.024 A 
ATOM     10  N   UNL A   1      35.244  22.796  24.568  1.00  0.00    -0.318 N 
ATOM     11  C   UNL A   1      37.357  23.443  24.965  1.00  0.00     0.020 A 
ATOM     12  C   UNL A   1      36.557  22.679  24.152  1.00  0.00     0.091 A 
BRANCH  10  13
ATOM     13  C   UNL A   1      34.147  22.231  23.869  1.00  0.00     0.081 A 
ATOM     14  C   UNL A   1      33.559  22.942  22.812  1.00  0.00     0.030 A 
ATOM     15  C   UNL A   1      33.596  21.012  24.263  1.00  0.00     0.147 A 
ATOM     16  C   UNL A   1      32.465  22.400  22.131  1.00  0.00     0.002 A 
ATOM     17  C   UNL A   1      32.495  20.481  23.595  1.00  0.00     0.041 A 
ATOM     18  F   UNL A   1      34.036  20.366  25.352  1.00  0.00    -0.205 F 
ATOM     19  C   UNL A   1      31.934  21.170  22.521  1.00  0.00     0.003 A 
ENDBRANCH  10  13
ENDBRANCH   7   8
ENDBRANCH   5   7
ENDBRANCH   2   3
ENDBRANCH   1   2
BRANCH   1  20
ATOM     20  C   UNL A   1      34.737  28.531  26.668  1.00  0.00     0.118 C 
BRANCH  20  21
ATOM     21  N   UNL A   1      35.043  29.919  26.983  1.00  0.00    -0.352 N 
ATOM     22  C   UNL A   1      36.071  30.460  27.719  1.00  0.00     0.251 C 
ATOM     23  H   UNL A   1      34.412  30.576  26.610  1.00  0.00     0.163 HD
ATOM     24  O   UNL A   1      35.956  31.603  28.143  1.00  0.00    -0.269 OA
BRANCH  22  25
ATOM     25  C   UNL A   1      37.309  29.701  28.009  1.00  0.00     0.039 A 
ATOM     26  C   UNL A   1      38.307  29.667  27.023  1.00  0.00     0.014 A 
ATOM     27  C   UNL A   1      37.456  28.946  29.176  1.00  0.00     0.014 A 
ATOM     28  C   UNL A   1      39.466  28.925  27.229  1.00  0.00     0.010 A 
ATOM     29  C   UNL A   1      38.626  28.241  29.408  1.00  0.00     0.010 A 
ATOM     30  C   UNL A   1      39.630  28.238  28.435  1.00  0.00    -0.014 A 
BRANCH  30  31
ATOM     31  C   UNL A   1      40.925  27.613  28.759  1.00  0.00     0.031 A 
ATOM     32  C   UNL A   1      40.958  26.127  28.321  1.00  0.00     0.074 A 
ATOM     33  C   UNL A   1      41.851  28.447  29.327  1.00  0.00     0.049 A 
ATOM     34  N   UNL A   1      41.720  25.150  28.710  1.00  0.00    -0.248 NA
ATOM     35  C   UNL A   1      39.961  25.641  27.322  1.00  0.00     0.031 C 
ATOM     36  C   UNL A   1      41.624  29.882  29.624  1.00  0.00     0.029 A 
ATOM     37  N   UNL A   1      43.153  28.294  29.759  1.00  0.00    -0.354 N 
ATOM     38  C   UNL A   1      41.443  24.025  27.895  1.00  0.00     0.074 A 
ATOM     39  C   UNL A   1      40.284  24.360  27.129  1.00  0.00     0.031 C 
ATOM     40  C   UNL A   1      42.689  30.426  30.251  1.00  0.00     0.029 A 
ATOM     41  C   UNL A   1      43.719  29.422  30.417  1.00  0.00     0.049 A 
ATOM     42  H   UNL A   1      43.657  27.460  29.622  1.00  0.00     0.167 HD
ATOM     43  C   UNL A   1      42.264  22.933  27.821  1.00  0.00     0.037 A 
ATOM     44  C   UNL A   1      44.906  29.514  31.097  1.00  0.00     0.037 A 
ATOM     45  C   UNL A   1      43.352  23.094  28.723  1.00  0.00     0.049 A 
ATOM     46  C   UNL A   1      45.581  28.233  30.848  1.00  0.00     0.074 A 
ATOM     47  C   UNL A   1      43.421  23.050  30.090  1.00  0.00     0.029 A 
ATOM     48  N   UNL A   1      44.468  23.725  28.232  1.00  0.00    -0.354 N 
ATOM     49  N   UNL A   1      46.105  27.875  29.713  1.00  0.00    -0.248 NA
ATOM     50  C   UNL A   1      45.549  27.217  31.907  1.00  0.00     0.031 C 
ATOM     51  C   UNL A   1      44.303  24.106  30.395  1.00  0.00     0.029 A 
ATOM     52  C   UNL A   1      44.917  24.560  29.222  1.00  0.00     0.049 A 
ATOM     53  H   UNL A   1      44.867  23.601  27.342  1.00  0.00     0.167 HD
ATOM     54  C   UNL A   1      46.146  26.507  29.834  1.00  0.00     0.074 A 
ATOM     55  C   UNL A   1      46.107  26.208  31.249  1.00  0.00     0.031 C 
ATOM     56  C   UNL A   1      45.675  25.724  28.833  1.00  0.00     0.037 A 
BRANCH  43  57
ATOM     57  C   UNL A   1      42.356  21.776  26.863  1.00  0.00     0.057 A 
ATOM     58  C   UNL A   1      43.273  21.705  25.812  1.00  0.00     0.134 A 
ATOM     59  C   UNL A   1      41.753  20.547  27.233  1.00  0.00     0.134 A 
ATOM     60  F   UNL A   1      43.918  22.795  25.376  1.00  0.00    -0.206 F 
ATOM     61  C   UNL A   1      43.634  20.480  25.226  1.00  0.00     0.040 A 
ATOM     62  C   UNL A   1      42.138  19.319  26.690  1.00  0.00     0.040 A 
ATOM     63  F   UNL A   1      40.819  20.497  28.197  1.00  0.00    -0.206 F 
ATOM     64  C   UNL A   1      43.101  19.281  25.695  1.00  0.00     0.006 A 
ENDBRANCH  43  57
BRANCH  44  65
ATOM     65  C   UNL A   1      45.575  30.452  32.083  1.00  0.00     0.057 A 
ATOM     66  C   UNL A   1      44.894  30.830  33.277  1.00  0.00     0.134 A 
ATOM     67  C   UNL A   1      46.793  31.112  31.908  1.00  0.00     0.134 A 
ATOM     68  F   UNL A   1      43.804  30.179  33.707  1.00  0.00    -0.206 F 
ATOM     69  C   UNL A   1      45.273  31.898  34.095  1.00  0.00     0.040 A 
ATOM     70  C   UNL A   1      47.218  32.158  32.757  1.00  0.00     0.040 A 
ATOM     71  F   UNL A   1      47.637  30.774  30.928  1.00  0.00    -0.206 F 
ATOM     72  C   UNL A   1      46.434  32.590  33.821  1.00  0.00     0.006 A 
ENDBRANCH  44  65
BRANCH  56  73
ATOM     73  C   UNL A   1      45.694  26.349  27.454  1.00  0.00     0.057 A 
ATOM     74  C   UNL A   1      44.555  26.779  26.756  1.00  0.00     0.134 A 
ATOM     75  C   UNL A   1      46.916  26.593  26.819  1.00  0.00     0.134 A 
ATOM     76  F   UNL A   1      43.339  26.623  27.271  1.00  0.00    -0.206 F 
ATOM     77  C   UNL A   1      44.614  27.394  25.498  1.00  0.00     0.040 A 
ATOM     78  C   UNL A   1      46.997  27.215  25.565  1.00  0.00     0.040 A 
ATOM     79  F   UNL A   1      48.063  26.218  27.404  1.00  0.00    -0.206 F 
ATOM     80  C   UNL A   1      45.843  27.615  24.896  1.00  0.00     0.006 A 
ENDBRANCH  56  73
ENDBRANCH  30  31
ENDBRANCH  22  25
ENDBRANCH  20  21
ENDBRANCH   1  20
TORSDOF 12
ENDMDL
MODEL 3
REMARK VINA RESULT:     -11.2      1.904      2.417
REMARK SMILES O=C(Cc1cccn1-c1ccccc1F)NCCCNC(=O)c1ccc(-c2c3nc(c(-c4c(F)cccc4F)c4ccc([nH]4)c(-c4c(F)cccc4F)c4nc(c(-c5c(F)cccc5F)c5ccc2[nH]5)C=C4)C=C3)cc1
REMARK SMILES IDX 18 1 17 2 16 3 1 4 2 5 3 7 4 8 5 9 8 10 6 11 7 12 9 13 10 14
REMARK SMILES IDX 14 15 11 16 13 17 15 18 12 19 19 20 20 21 21 22 22 24 23 25
REMARK SMILES IDX 24 26 76 27 25 28 75 29 26 30 27 31 28 32 69 33 29 34 74 35
REMARK SMILES IDX 68 36 70 37 30 38 73 39 67 40 66 41 31 43 57 44 40 45 56 46
REMARK SMILES IDX 41 47 44 48 55 49 71 50 42 51 43 52 54 54 72 55 45 56 32 57
REMARK SMILES IDX 33 58 38 59 34 60 35 61 37 62 39 63 36 64 58 65 59 66 64 67
REMARK SMILES IDX 60 68 61 69 63 70 65 71 62 72 46 73 47 74 52 75 48 76 49 77
REMARK SMILES IDX 51 78 53 79 50 80
REMARK H PARENT 16 6 20 23 70 42 44 53
REMARK Flexibility Score: inf
ROOT
ATOM      1  C   UNL A   1      33.966  28.476  25.814  1.00  0.00     0.042 C 
ENDROOT
BRANCH   1   2
ATOM      2  C   UNL A   1      32.759  27.551  25.969  1.00  0.00     0.117 C 
BRANCH   2   3
ATOM      3  N   UNL A   1      33.118  26.146  26.053  1.00  0.00    -0.356 N 
ATOM      4  O   UNL A   1      31.098  25.447  26.876  1.00  0.00    -0.275 OA
ATOM      5  C   UNL A   1      32.215  25.176  26.439  1.00  0.00     0.225 C 
ATOM      6  H   UNL A   1      34.037  25.877  25.826  1.00  0.00     0.163 HD
BRANCH   5   7
ATOM      7  C   UNL A   1      32.721  23.739  26.362  1.00  0.00     0.154 C 
BRANCH   7   8
ATOM      8  C   UNL A   1      32.548  23.100  25.003  1.00  0.00     0.032 A 
ATOM      9  C   UNL A   1      31.398  22.917  24.247  1.00  0.00     0.024 A 
ATOM     10  N   UNL A   1      33.619  22.628  24.243  1.00  0.00    -0.318 N 
ATOM     11  C   UNL A   1      31.778  22.463  22.968  1.00  0.00     0.020 A 
ATOM     12  C   UNL A   1      33.146  22.341  22.977  1.00  0.00     0.091 A 
BRANCH  10  13
ATOM     13  C   UNL A   1      34.977  22.477  24.625  1.00  0.00     0.081 A 
ATOM     14  C   UNL A   1      35.459  21.208  24.980  1.00  0.00     0.030 A 
ATOM     15  C   UNL A   1      35.822  23.583  24.725  1.00  0.00     0.147 A 
ATOM     16  C   UNL A   1      36.791  21.055  25.375  1.00  0.00     0.002 A 
ATOM     17  C   UNL A   1      37.144  23.431  25.137  1.00  0.00     0.041 A 
ATOM     18  F   UNL A   1      35.368  24.828  24.531  1.00  0.00    -0.205 F 
ATOM     19  C   UNL A   1      37.634  22.165  25.453  1.00  0.00     0.003 A 
ENDBRANCH  10  13
ENDBRANCH   7   8
ENDBRANCH   5   7
ENDBRANCH   2   3
ENDBRANCH   1   2
BRANCH   1  20
ATOM     20  C   UNL A   1      34.678  28.752  27.135  1.00  0.00     0.118 C 
BRANCH  20  21
ATOM     21  N   UNL A   1      35.154  30.125  27.224  1.00  0.00    -0.352 N 
ATOM     22  C   UNL A   1      36.267  30.644  27.841  1.00  0.00     0.251 C 
ATOM     23  H   UNL A   1      34.587  30.789  26.770  1.00  0.00     0.163 HD
ATOM     24  O   UNL A   1      36.302  31.843  28.087  1.00  0.00    -0.269 OA
BRANCH  22  25
ATOM     25  C   UNL A   1      37.422  29.795  28.215  1.00  0.00     0.039 A 
ATOM     26  C   UNL A   1      38.527  29.768  27.351  1.00  0.00     0.014 A 
ATOM     27  C   UNL A   1      37.390  28.955  29.332  1.00  0.00     0.014 A 
ATOM     28  C   UNL A   1      39.614  28.947  27.634  1.00  0.00     0.010 A 
ATOM     29  C   UNL A   1      38.487  28.168  29.644  1.00  0.00     0.010 A 
ATOM     30  C   UNL A   1      39.597  28.171  28.795  1.00  0.00    -0.014 A 
BRANCH  30  31
ATOM     31  C   UNL A   1      40.811  27.449  29.220  1.00  0.00     0.031 A 
ATOM     32  C   UNL A   1      41.087  26.227  28.307  1.00  0.00     0.074 A 
ATOM     33  C   UNL A   1      41.480  28.001  30.280  1.00  0.00     0.049 A 
ATOM     34  N   UNL A   1      41.802  25.164  28.515  1.00  0.00    -0.248 NA
ATOM     35  C   UNL A   1      40.433  26.159  26.966  1.00  0.00     0.031 C 
ATOM     36  C   UNL A   1      41.059  29.230  30.994  1.00  0.00     0.029 A 
ATOM     37  N   UNL A   1      42.630  27.679  30.970  1.00  0.00    -0.354 N 
ATOM     38  C   UNL A   1      41.848  24.421  27.309  1.00  0.00     0.074 A 
ATOM     39  C   UNL A   1      40.906  25.034  26.425  1.00  0.00     0.031 C 
ATOM     40  C   UNL A   1      41.870  29.488  32.042  1.00  0.00     0.029 A 
ATOM     41  C   UNL A   1      42.903  28.477  32.117  1.00  0.00     0.049 A 
ATOM     42  H   UNL A   1      43.223  26.946  30.689  1.00  0.00     0.167 HD
ATOM     43  C   UNL A   1      42.751  23.420  27.080  1.00  0.00     0.037 A 
ATOM     44  C   UNL A   1      43.857  28.294  33.084  1.00  0.00     0.037 A 
ATOM     45  C   UNL A   1      43.546  23.221  28.243  1.00  0.00     0.049 A 
ATOM     46  C   UNL A   1      44.683  27.183  32.590  1.00  0.00     0.074 A 
ATOM     47  C   UNL A   1      43.257  22.676  29.465  1.00  0.00     0.029 A 
ATOM     48  N   UNL A   1      44.692  23.970  28.338  1.00  0.00    -0.354 N 
ATOM     49  N   UNL A   1      45.516  27.258  31.595  1.00  0.00    -0.248 NA
ATOM     50  C   UNL A   1      44.462  25.849  33.164  1.00  0.00     0.031 C 
ATOM     51  C   UNL A   1      43.932  23.532  30.358  1.00  0.00     0.029 A 
ATOM     52  C   UNL A   1      44.791  24.375  29.644  1.00  0.00     0.049 A 
ATOM     53  H   UNL A   1      45.321  24.175  27.610  1.00  0.00     0.167 HD
ATOM     54  C   UNL A   1      45.642  25.941  31.226  1.00  0.00     0.074 A 
ATOM     55  C   UNL A   1      45.259  25.143  32.370  1.00  0.00     0.031 C 
ATOM     56  C   UNL A   1      45.520  25.588  29.922  1.00  0.00     0.037 A 
BRANCH  43  57
ATOM     57  C   UNL A   1      43.191  22.694  25.837  1.00  0.00     0.057 A 
ATOM     58  C   UNL A   1      43.853  23.307  24.770  1.00  0.00     0.134 A 
ATOM     59  C   UNL A   1      43.276  21.279  25.878  1.00  0.00     0.134 A 
ATOM     60  F   UNL A   1      43.857  24.639  24.625  1.00  0.00    -0.206 F 
ATOM     61  C   UNL A   1      44.622  22.569  23.855  1.00  0.00     0.040 A 
ATOM     62  C   UNL A   1      44.076  20.541  25.003  1.00  0.00     0.040 A 
ATOM     63  F   UNL A   1      42.640  20.576  26.829  1.00  0.00    -0.206 F 
ATOM     64  C   UNL A   1      44.772  21.191  23.996  1.00  0.00     0.006 A 
ENDBRANCH  43  57
BRANCH  44  65
ATOM     65  C   UNL A   1      44.159  28.793  34.484  1.00  0.00     0.057 A 
ATOM     66  C   UNL A   1      43.148  28.748  35.487  1.00  0.00     0.134 A 
ATOM     67  C   UNL A   1      45.331  29.424  34.907  1.00  0.00     0.134 A 
ATOM     68  F   UNL A   1      42.028  28.029  35.332  1.00  0.00    -0.206 F 
ATOM     69  C   UNL A   1      43.211  29.439  36.701  1.00  0.00     0.040 A 
ATOM     70  C   UNL A   1      45.431  30.083  36.152  1.00  0.00     0.040 A 
ATOM     71  F   UNL A   1      46.436  29.424  34.154  1.00  0.00    -0.206 F 
ATOM     72  C   UNL A   1      44.354  30.138  37.029  1.00  0.00     0.006 A 
ENDBRANCH  44  65
BRANCH  56  73
ATOM     73  C   UNL A   1      45.847  26.676  28.920  1.00  0.00     0.057 A 
ATOM     74  C   UNL A   1      44.897  27.354  28.140  1.00  0.00     0.134 A 
ATOM     75  C   UNL A   1      47.167  27.112  28.775  1.00  0.00     0.134 A 
ATOM     76  F   UNL A   1      43.606  27.044  28.213  1.00  0.00    -0.206 F 
ATOM     77  C   UNL A   1      45.231  28.387  27.254  1.00  0.00     0.040 A 
ATOM     78  C   UNL A   1      47.521  28.149  27.900  1.00  0.00     0.040 A 
ATOM     79  F   UNL A   1      48.149  26.525  29.475  1.00  0.00    -0.206 F 
ATOM     80  C   UNL A   1      46.553  28.789  27.132  1.00  0.00     0.006 A 
ENDBRANCH  56  73
ENDBRANCH  30  31
ENDBRANCH  22  25
ENDBRANCH  20  21
ENDBRANCH   1  20
TORSDOF 12
ENDMDL
