MODEL 1
REMARK VINA RESULT:      -9.5      0.000      0.000
REMARK SMILES CN(CC(=O)NCCCNC(=O)c1ccc(-c2c3nc(c(-c4c(F)cccc4F)c4ccc([nH]4)c(-c4c(F)cccc4F)c4nc(c(-c5c(F)cccc5F)c5ccc2[nH]5)C=C4)C=C3)cc1)C(=O)c1ccccn1
REMARK SMILES IDX 7 1 6 2 4 3 5 4 3 6 2 7 1 8 67 9 68 10 69 11 70 12 74 13
REMARK SMILES IDX 71 14 73 15 72 16 8 17 9 18 10 19 11 20 12 22 13 23 14 24
REMARK SMILES IDX 66 25 15 26 65 27 16 28 17 29 18 30 59 31 19 32 64 33 58 34
REMARK SMILES IDX 60 35 20 36 63 37 57 38 56 39 21 41 47 42 30 43 46 44 31 45
REMARK SMILES IDX 34 46 45 47 61 48 32 49 33 50 44 52 62 53 35 54 22 55 23 56
REMARK SMILES IDX 28 57 24 58 25 59 27 60 29 61 26 62 48 63 49 64 54 65 50 66
REMARK SMILES IDX 51 67 53 68 55 69 52 70 36 71 37 72 42 73 38 74 39 75 41 76
REMARK SMILES IDX 43 77 40 78
REMARK H PARENT 6 5 10 21 60 40 34 51
REMARK Flexibility Score: inf
ROOT
ATOM      1  C   UNL A   1      34.880  35.427  32.941  1.00  0.00     0.117 C 
ENDROOT
BRANCH   1   2
ATOM      2  N   UNL A   1      34.826  34.891  34.287  1.00  0.00    -0.354 N 
ATOM      3  C   UNL A   1      35.595  33.936  34.881  1.00  0.00     0.239 C 
ATOM      4  O   UNL A   1      35.540  33.864  36.113  1.00  0.00    -0.273 OA
ATOM      5  H   UNL A   1      34.124  35.276  34.860  1.00  0.00     0.163 HD
BRANCH   3   6
ATOM      6  C   UNL A   1      36.590  33.065  34.092  1.00  0.00     0.219 C 
BRANCH   6   7
ATOM      7  N   UNL A   1      37.824  32.694  34.797  1.00  0.00    -0.331 N 
ATOM      8  C   UNL A   1      38.644  33.758  35.351  1.00  0.00     0.147 C 
BRANCH   7   9
ATOM      9  C   UNL A   1      38.099  31.399  35.271  1.00  0.00     0.272 C 
ATOM     10  O   UNL A   1      37.798  31.047  36.411  1.00  0.00    -0.267 OA
BRANCH   9  11
ATOM     11  C   UNL A   1      38.758  30.405  34.377  1.00  0.00     0.128 A 
ATOM     12  C   UNL A   1      40.137  30.246  34.397  1.00  0.00     0.034 A 
ATOM     13  N   UNL A   1      37.924  29.665  33.601  1.00  0.00    -0.251 NA
ATOM     14  C   UNL A   1      40.701  29.311  33.535  1.00  0.00     0.004 A 
ATOM     15  C   UNL A   1      38.502  28.736  32.810  1.00  0.00     0.112 A 
ATOM     16  C   UNL A   1      39.871  28.535  32.731  1.00  0.00     0.020 A 
ENDBRANCH   9  11
ENDBRANCH   7   9
ENDBRANCH   6   7
ENDBRANCH   3   6
ENDBRANCH   1   2
BRANCH   1  17
ATOM     17  C   UNL A   1      33.510  35.755  32.356  1.00  0.00     0.042 C 
BRANCH  17  18
ATOM     18  C   UNL A   1      33.542  36.464  31.004  1.00  0.00     0.118 C 
BRANCH  18  19
ATOM     19  N   UNL A   1      32.828  35.741  29.961  1.00  0.00    -0.352 N 
ATOM     20  C   UNL A   1      33.214  34.689  29.172  1.00  0.00     0.251 C 
ATOM     21  H   UNL A   1      31.912  36.062  29.793  1.00  0.00     0.163 HD
ATOM     22  O   UNL A   1      32.492  34.351  28.228  1.00  0.00    -0.269 OA
BRANCH  20  23
ATOM     23  C   UNL A   1      34.479  33.961  29.413  1.00  0.00     0.039 A 
ATOM     24  C   UNL A   1      35.595  34.275  28.629  1.00  0.00     0.014 A 
ATOM     25  C   UNL A   1      34.567  32.946  30.367  1.00  0.00     0.014 A 
ATOM     26  C   UNL A   1      36.812  33.625  28.852  1.00  0.00     0.010 A 
ATOM     27  C   UNL A   1      35.798  32.350  30.639  1.00  0.00     0.010 A 
ATOM     28  C   UNL A   1      36.934  32.686  29.888  1.00  0.00    -0.014 A 
BRANCH  28  29
ATOM     29  C   UNL A   1      38.243  32.060  30.214  1.00  0.00     0.031 A 
ATOM     30  C   UNL A   1      39.248  32.790  31.062  1.00  0.00     0.074 A 
ATOM     31  C   UNL A   1      38.557  30.862  29.680  1.00  0.00     0.049 A 
ATOM     32  N   UNL A   1      40.474  32.448  31.371  1.00  0.00    -0.248 NA
ATOM     33  C   UNL A   1      38.828  34.085  31.618  1.00  0.00     0.031 C 
ATOM     34  C   UNL A   1      37.689  30.071  28.808  1.00  0.00     0.029 A 
ATOM     35  N   UNL A   1      39.703  30.111  29.778  1.00  0.00    -0.354 N 
ATOM     36  C   UNL A   1      40.977  33.492  32.138  1.00  0.00     0.074 A 
ATOM     37  C   UNL A   1      39.940  34.498  32.211  1.00  0.00     0.031 C 
ATOM     38  C   UNL A   1      38.325  28.941  28.462  1.00  0.00     0.029 A 
ATOM     39  C   UNL A   1      39.660  28.946  29.051  1.00  0.00     0.049 A 
ATOM     40  H   UNL A   1      40.479  30.381  30.319  1.00  0.00     0.167 HD
ATOM     41  C   UNL A   1      42.185  33.593  32.742  1.00  0.00     0.037 A 
ATOM     42  C   UNL A   1      40.597  27.998  28.862  1.00  0.00     0.037 A 
ATOM     43  C   UNL A   1      43.208  32.581  32.685  1.00  0.00     0.049 A 
ATOM     44  C   UNL A   1      41.937  28.143  29.529  1.00  0.00     0.074 A 
ATOM     45  C   UNL A   1      44.441  32.566  33.314  1.00  0.00     0.029 A 
ATOM     46  N   UNL A   1      43.120  31.407  31.951  1.00  0.00    -0.354 N 
ATOM     47  N   UNL A   1      42.374  29.103  30.307  1.00  0.00    -0.248 NA
ATOM     48  C   UNL A   1      42.914  27.069  29.294  1.00  0.00     0.031 C 
ATOM     49  C   UNL A   1      45.118  31.407  32.922  1.00  0.00     0.029 A 
ATOM     50  C   UNL A   1      44.287  30.673  32.092  1.00  0.00     0.049 A 
ATOM     51  H   UNL A   1      42.344  31.136  31.409  1.00  0.00     0.167 HD
ATOM     52  C   UNL A   1      43.660  28.736  30.679  1.00  0.00     0.074 A 
ATOM     53  C   UNL A   1      43.930  27.460  30.051  1.00  0.00     0.031 C 
ATOM     54  C   UNL A   1      44.540  29.398  31.470  1.00  0.00     0.037 A 
BRANCH  41  55
ATOM     55  C   UNL A   1      42.471  34.846  33.518  1.00  0.00     0.057 A 
ATOM     56  C   UNL A   1      42.924  36.016  32.895  1.00  0.00     0.134 A 
ATOM     57  C   UNL A   1      42.247  34.897  34.901  1.00  0.00     0.134 A 
ATOM     58  F   UNL A   1      43.167  36.033  31.575  1.00  0.00    -0.206 F 
ATOM     59  C   UNL A   1      43.170  37.184  33.621  1.00  0.00     0.040 A 
ATOM     60  C   UNL A   1      42.462  36.067  35.632  1.00  0.00     0.040 A 
ATOM     61  F   UNL A   1      41.805  33.816  35.561  1.00  0.00    -0.206 F 
ATOM     62  C   UNL A   1      42.932  37.212  34.993  1.00  0.00     0.006 A 
ENDBRANCH  41  55
BRANCH  42  63
ATOM     63  C   UNL A   1      40.300  26.818  28.010  1.00  0.00     0.057 A 
ATOM     64  C   UNL A   1      39.496  25.772  28.478  1.00  0.00     0.134 A 
ATOM     65  C   UNL A   1      40.818  26.701  26.714  1.00  0.00     0.134 A 
ATOM     66  F   UNL A   1      38.986  25.817  29.719  1.00  0.00    -0.206 F 
ATOM     67  C   UNL A   1      39.236  24.644  27.700  1.00  0.00     0.040 A 
ATOM     68  C   UNL A   1      40.544  25.591  25.914  1.00  0.00     0.040 A 
ATOM     69  F   UNL A   1      41.590  27.672  26.204  1.00  0.00    -0.206 F 
ATOM     70  C   UNL A   1      39.756  24.555  26.410  1.00  0.00     0.006 A 
ENDBRANCH  42  63
BRANCH  54  71
ATOM     71  C   UNL A   1      45.861  28.738  31.736  1.00  0.00     0.057 A 
ATOM     72  C   UNL A   1      46.044  27.846  32.799  1.00  0.00     0.134 A 
ATOM     73  C   UNL A   1      46.953  28.967  30.888  1.00  0.00     0.134 A 
ATOM     74  F   UNL A   1      45.044  27.593  33.656  1.00  0.00    -0.206 F 
ATOM     75  C   UNL A   1      47.273  27.220  33.022  1.00  0.00     0.040 A 
ATOM     76  C   UNL A   1      48.176  28.326  31.084  1.00  0.00     0.040 A 
ATOM     77  F   UNL A   1      46.842  29.804  29.845  1.00  0.00    -0.206 F 
ATOM     78  C   UNL A   1      48.340  27.454  32.158  1.00  0.00     0.006 A 
ENDBRANCH  54  71
ENDBRANCH  28  29
ENDBRANCH  20  23
ENDBRANCH  18  19
ENDBRANCH  17  18
ENDBRANCH   1  17
TORSDOF 13
ENDMDL
MODEL 2
REMARK VINA RESULT:      -9.2      5.881     11.237
REMARK SMILES CN(CC(=O)NCCCNC(=O)c1ccc(-c2c3nc(c(-c4c(F)cccc4F)c4ccc([nH]4)c(-c4c(F)cccc4F)c4nc(c(-c5c(F)cccc5F)c5ccc2[nH]5)C=C4)C=C3)cc1)C(=O)c1ccccn1
REMARK SMILES IDX 7 1 6 2 4 3 5 4 3 6 2 7 1 8 67 9 68 10 69 11 70 12 74 13
REMARK SMILES IDX 71 14 73 15 72 16 8 17 9 18 10 19 11 20 12 22 13 23 14 24
REMARK SMILES IDX 66 25 15 26 65 27 16 28 17 29 18 30 59 31 19 32 64 33 58 34
REMARK SMILES IDX 60 35 20 36 63 37 57 38 56 39 21 41 47 42 30 43 46 44 31 45
REMARK SMILES IDX 34 46 45 47 61 48 32 49 33 50 44 52 62 53 35 54 22 55 23 56
REMARK SMILES IDX 28 57 24 58 25 59 27 60 29 61 26 62 48 63 49 64 54 65 50 66
REMARK SMILES IDX 51 67 53 68 55 69 52 70 36 71 37 72 42 73 38 74 39 75 41 76
REMARK SMILES IDX 43 77 40 78
REMARK H PARENT 6 5 10 21 60 40 34 51
REMARK Flexibility Score: inf
ROOT
ATOM      1  C   UNL A   1      36.566  20.529  24.979  1.00  0.00     0.117 C 
ENDROOT
BRANCH   1   2
ATOM      2  N   UNL A   1      35.337  19.761  25.007  1.00  0.00    -0.354 N 
ATOM      3  C   UNL A   1      34.041  20.178  24.930  1.00  0.00     0.239 C 
ATOM      4  O   UNL A   1      33.193  19.314  24.684  1.00  0.00    -0.273 OA
ATOM      5  H   UNL A   1      35.457  18.788  25.094  1.00  0.00     0.163 HD
BRANCH   3   6
ATOM      6  C   UNL A   1      33.644  21.663  25.011  1.00  0.00     0.219 C 
BRANCH   6   7
ATOM      7  N   UNL A   1      33.491  22.361  23.728  1.00  0.00    -0.331 N 
ATOM      8  C   UNL A   1      32.190  22.330  23.080  1.00  0.00     0.147 C 
BRANCH   7   9
ATOM      9  C   UNL A   1      34.389  23.331  23.248  1.00  0.00     0.272 C 
ATOM     10  O   UNL A   1      35.499  23.029  22.809  1.00  0.00    -0.267 OA
BRANCH   9  11
ATOM     11  C   UNL A   1      33.999  24.770  23.248  1.00  0.00     0.128 A 
ATOM     12  C   UNL A   1      34.039  25.510  24.421  1.00  0.00     0.034 A 
ATOM     13  N   UNL A   1      33.653  25.287  22.041  1.00  0.00    -0.251 NA
ATOM     14  C   UNL A   1      33.655  26.846  24.366  1.00  0.00     0.004 A 
ATOM     15  C   UNL A   1      33.329  26.597  22.016  1.00  0.00     0.112 A 
ATOM     16  C   UNL A   1      33.300  27.405  23.142  1.00  0.00     0.020 A 
ENDBRANCH   9  11
ENDBRANCH   7   9
ENDBRANCH   6   7
ENDBRANCH   3   6
ENDBRANCH   1   2
BRANCH   1  17
ATOM     17  C   UNL A   1      37.821  19.672  24.852  1.00  0.00     0.042 C 
BRANCH  17  18
ATOM     18  C   UNL A   1      38.977  20.088  25.758  1.00  0.00     0.118 C 
BRANCH  18  19
ATOM     19  N   UNL A   1      40.061  19.115  25.788  1.00  0.00    -0.352 N 
ATOM     20  C   UNL A   1      41.409  19.277  25.973  1.00  0.00     0.251 C 
ATOM     21  H   UNL A   1      39.777  18.181  25.654  1.00  0.00     0.163 HD
ATOM     22  O   UNL A   1      42.160  18.315  25.785  1.00  0.00    -0.269 OA
BRANCH  20  23
ATOM     23  C   UNL A   1      41.986  20.579  26.374  1.00  0.00     0.039 A 
ATOM     24  C   UNL A   1      42.382  21.475  25.375  1.00  0.00     0.014 A 
ATOM     25  C   UNL A   1      42.183  20.907  27.716  1.00  0.00     0.014 A 
ATOM     26  C   UNL A   1      42.903  22.725  25.723  1.00  0.00     0.010 A 
ATOM     27  C   UNL A   1      42.635  22.180  28.064  1.00  0.00     0.010 A 
ATOM     28  C   UNL A   1      42.996  23.104  27.071  1.00  0.00    -0.014 A 
BRANCH  28  29
ATOM     29  C   UNL A   1      43.447  24.465  27.462  1.00  0.00     0.031 A 
ATOM     30  C   UNL A   1      42.449  25.509  27.882  1.00  0.00     0.074 A 
ATOM     31  C   UNL A   1      44.753  24.785  27.366  1.00  0.00     0.049 A 
ATOM     32  N   UNL A   1      42.642  26.773  28.164  1.00  0.00    -0.248 NA
ATOM     33  C   UNL A   1      41.044  25.082  27.974  1.00  0.00     0.031 C 
ATOM     34  C   UNL A   1      45.816  23.878  26.932  1.00  0.00     0.029 A 
ATOM     35  N   UNL A   1      45.406  25.969  27.608  1.00  0.00    -0.354 N 
ATOM     36  C   UNL A   1      41.386  27.295  28.447  1.00  0.00     0.074 A 
ATOM     37  C   UNL A   1      40.433  26.223  28.261  1.00  0.00     0.031 C 
ATOM     38  C   UNL A   1      46.988  24.532  26.952  1.00  0.00     0.029 A 
ATOM     39  C   UNL A   1      46.756  25.914  27.357  1.00  0.00     0.049 A 
ATOM     40  H   UNL A   1      44.950  26.779  27.932  1.00  0.00     0.167 HD
ATOM     41  C   UNL A   1      41.060  28.548  28.845  1.00  0.00     0.037 A 
ATOM     42  C   UNL A   1      47.698  26.874  27.426  1.00  0.00     0.037 A 
ATOM     43  C   UNL A   1      42.013  29.608  29.050  1.00  0.00     0.049 A 
ATOM     44  C   UNL A   1      47.307  28.261  27.853  1.00  0.00     0.074 A 
ATOM     45  C   UNL A   1      41.786  30.894  29.511  1.00  0.00     0.029 A 
ATOM     46  N   UNL A   1      43.374  29.509  28.801  1.00  0.00    -0.354 N 
ATOM     47  N   UNL A   1      46.126  28.722  28.184  1.00  0.00    -0.248 NA
ATOM     48  C   UNL A   1      48.382  29.262  27.920  1.00  0.00     0.031 C 
ATOM     49  C   UNL A   1      43.001  31.586  29.494  1.00  0.00     0.029 A 
ATOM     50  C   UNL A   1      43.995  30.717  29.075  1.00  0.00     0.049 A 
ATOM     51  H   UNL A   1      43.831  28.699  28.477  1.00  0.00     0.167 HD
ATOM     52  C   UNL A   1      46.319  30.054  28.527  1.00  0.00     0.074 A 
ATOM     53  C   UNL A   1      47.733  30.324  28.376  1.00  0.00     0.031 C 
ATOM     54  C   UNL A   1      45.406  30.971  28.931  1.00  0.00     0.037 A 
BRANCH  41  55
ATOM     55  C   UNL A   1      39.608  28.845  29.084  1.00  0.00     0.057 A 
ATOM     56  C   UNL A   1      39.021  28.700  30.348  1.00  0.00     0.134 A 
ATOM     57  C   UNL A   1      38.796  29.326  28.048  1.00  0.00     0.134 A 
ATOM     58  F   UNL A   1      39.740  28.237  31.382  1.00  0.00    -0.206 F 
ATOM     59  C   UNL A   1      37.674  28.995  30.568  1.00  0.00     0.040 A 
ATOM     60  C   UNL A   1      37.455  29.651  28.262  1.00  0.00     0.040 A 
ATOM     61  F   UNL A   1      39.294  29.497  26.814  1.00  0.00    -0.206 F 
ATOM     62  C   UNL A   1      36.889  29.480  29.524  1.00  0.00     0.006 A 
ENDBRANCH  41  55
BRANCH  42  63
ATOM     63  C   UNL A   1      49.110  26.555  27.091  1.00  0.00     0.057 A 
ATOM     64  C   UNL A   1      49.574  26.628  25.773  1.00  0.00     0.134 A 
ATOM     65  C   UNL A   1      50.024  26.159  28.075  1.00  0.00     0.134 A 
ATOM     66  F   UNL A   1      48.741  26.983  24.783  1.00  0.00    -0.206 F 
ATOM     67  C   UNL A   1      50.889  26.300  25.441  1.00  0.00     0.040 A 
ATOM     68  C   UNL A   1      51.350  25.854  27.762  1.00  0.00     0.040 A 
ATOM     69  F   UNL A   1      49.644  26.074  29.358  1.00  0.00    -0.206 F 
ATOM     70  C   UNL A   1      51.783  25.917  26.439  1.00  0.00     0.006 A 
ENDBRANCH  42  63
BRANCH  54  71
ATOM     71  C   UNL A   1      45.911  32.341  29.277  1.00  0.00     0.057 A 
ATOM     72  C   UNL A   1      46.370  32.660  30.561  1.00  0.00     0.134 A 
ATOM     73  C   UNL A   1      45.978  33.342  28.299  1.00  0.00     0.134 A 
ATOM     74  F   UNL A   1      46.320  31.752  31.547  1.00  0.00    -0.206 F 
ATOM     75  C   UNL A   1      46.859  33.932  30.865  1.00  0.00     0.040 A 
ATOM     76  C   UNL A   1      46.490  34.608  28.584  1.00  0.00     0.040 A 
ATOM     77  F   UNL A   1      45.562  33.099  27.047  1.00  0.00    -0.206 F 
ATOM     78  C   UNL A   1      46.927  34.907  29.872  1.00  0.00     0.006 A 
ENDBRANCH  54  71
ENDBRANCH  28  29
ENDBRANCH  20  23
ENDBRANCH  18  19
ENDBRANCH  17  18
ENDBRANCH   1  17
TORSDOF 13
ENDMDL
MODEL 3
REMARK VINA RESULT:      -9.2      5.998     11.478
REMARK SMILES CN(CC(=O)NCCCNC(=O)c1ccc(-c2c3nc(c(-c4c(F)cccc4F)c4ccc([nH]4)c(-c4c(F)cccc4F)c4nc(c(-c5c(F)cccc5F)c5ccc2[nH]5)C=C4)C=C3)cc1)C(=O)c1ccccn1
REMARK SMILES IDX 7 1 6 2 4 3 5 4 3 6 2 7 1 8 67 9 68 10 69 11 70 12 74 13
REMARK SMILES IDX 71 14 73 15 72 16 8 17 9 18 10 19 11 20 12 22 13 23 14 24
REMARK SMILES IDX 66 25 15 26 65 27 16 28 17 29 18 30 59 31 19 32 64 33 58 34
REMARK SMILES IDX 60 35 20 36 63 37 57 38 56 39 21 41 47 42 30 43 46 44 31 45
REMARK SMILES IDX 34 46 45 47 61 48 32 49 33 50 44 52 62 53 35 54 22 55 23 56
REMARK SMILES IDX 28 57 24 58 25 59 27 60 29 61 26 62 48 63 49 64 54 65 50 66
REMARK SMILES IDX 51 67 53 68 55 69 52 70 36 71 37 72 42 73 38 74 39 75 41 76
REMARK SMILES IDX 43 77 40 78
REMARK H PARENT 6 5 10 21 60 40 34 51
REMARK Flexibility Score: inf
ROOT
ATOM      1  C   UNL A   1      37.272  21.079  24.664  1.00  0.00     0.117 C 
ENDROOT
BRANCH   1   2
ATOM      2  N   UNL A   1      36.473  21.374  25.837  1.00  0.00    -0.354 N 
ATOM      3  C   UNL A   1      35.134  21.601  25.952  1.00  0.00     0.239 C 
ATOM      4  O   UNL A   1      34.656  21.541  27.089  1.00  0.00    -0.273 OA
ATOM      5  H   UNL A   1      36.977  21.417  26.682  1.00  0.00     0.163 HD
BRANCH   3   6
ATOM      6  C   UNL A   1      34.220  21.793  24.728  1.00  0.00     0.219 C 
BRANCH   6   7
ATOM      7  N   UNL A   1      32.954  21.050  24.745  1.00  0.00    -0.331 N 
ATOM      8  C   UNL A   1      31.786  21.696  25.320  1.00  0.00     0.147 C 
BRANCH   7   9
ATOM      9  C   UNL A   1      32.698  19.916  23.954  1.00  0.00     0.272 C 
ATOM     10  O   UNL A   1      32.143  19.998  22.858  1.00  0.00    -0.267 OA
BRANCH   9  11
ATOM     11  C   UNL A   1      33.116  18.567  24.432  1.00  0.00     0.128 A 
ATOM     12  C   UNL A   1      34.419  18.126  24.242  1.00  0.00     0.034 A 
ATOM     13  N   UNL A   1      32.164  17.848  25.080  1.00  0.00    -0.251 NA
ATOM     14  C   UNL A   1      34.753  16.855  24.697  1.00  0.00     0.004 A 
ATOM     15  C   UNL A   1      32.536  16.638  25.549  1.00  0.00     0.112 A 
ATOM     16  C   UNL A   1      33.799  16.098  25.370  1.00  0.00     0.020 A 
ENDBRANCH   9  11
ENDBRANCH   7   9
ENDBRANCH   6   7
ENDBRANCH   3   6
ENDBRANCH   1   2
BRANCH   1  17
ATOM     17  C   UNL A   1      38.215  19.895  24.846  1.00  0.00     0.042 C 
BRANCH  17  18
ATOM     18  C   UNL A   1      39.128  19.982  26.067  1.00  0.00     0.118 C 
BRANCH  18  19
ATOM     19  N   UNL A   1      40.314  19.144  25.958  1.00  0.00    -0.352 N 
ATOM     20  C   UNL A   1      41.646  19.458  26.025  1.00  0.00     0.251 C 
ATOM     21  H   UNL A   1      40.128  18.188  25.812  1.00  0.00     0.163 HD
ATOM     22  O   UNL A   1      42.481  18.598  25.730  1.00  0.00    -0.269 OA
BRANCH  20  23
ATOM     23  C   UNL A   1      42.105  20.806  26.425  1.00  0.00     0.039 A 
ATOM     24  C   UNL A   1      42.456  21.721  25.425  1.00  0.00     0.014 A 
ATOM     25  C   UNL A   1      42.238  21.164  27.768  1.00  0.00     0.014 A 
ATOM     26  C   UNL A   1      42.865  23.012  25.771  1.00  0.00     0.010 A 
ATOM     27  C   UNL A   1      42.576  22.473  28.111  1.00  0.00     0.010 A 
ATOM     28  C   UNL A   1      42.889  23.412  27.116  1.00  0.00    -0.014 A 
BRANCH  28  29
ATOM     29  C   UNL A   1      43.219  24.809  27.502  1.00  0.00     0.031 A 
ATOM     30  C   UNL A   1      44.653  25.247  27.632  1.00  0.00     0.074 A 
ATOM     31  C   UNL A   1      42.225  25.665  27.812  1.00  0.00     0.049 A 
ATOM     32  N   UNL A   1      45.134  26.390  28.050  1.00  0.00    -0.248 NA
ATOM     33  C   UNL A   1      45.681  24.260  27.267  1.00  0.00     0.031 C 
ATOM     34  C   UNL A   1      40.796  25.353  27.768  1.00  0.00     0.029 A 
ATOM     35  N   UNL A   1      42.267  26.968  28.244  1.00  0.00    -0.354 N 
ATOM     36  C   UNL A   1      46.517  26.256  28.016  1.00  0.00     0.074 A 
ATOM     37  C   UNL A   1      46.797  24.905  27.579  1.00  0.00     0.031 C 
ATOM     38  C   UNL A   1      40.097  26.436  28.142  1.00  0.00     0.029 A 
ATOM     39  C   UNL A   1      41.027  27.504  28.495  1.00  0.00     0.049 A 
ATOM     40  H   UNL A   1      43.105  27.470  28.362  1.00  0.00     0.167 HD
ATOM     41  C   UNL A   1      47.465  27.179  28.304  1.00  0.00     0.037 A 
ATOM     42  C   UNL A   1      40.677  28.713  28.974  1.00  0.00     0.037 A 
ATOM     43  C   UNL A   1      47.183  28.529  28.719  1.00  0.00     0.049 A 
ATOM     44  C   UNL A   1      41.750  29.714  29.303  1.00  0.00     0.074 A 
ATOM     45  C   UNL A   1      48.076  29.555  28.974  1.00  0.00     0.029 A 
ATOM     46  N   UNL A   1      45.914  29.039  28.945  1.00  0.00    -0.354 N 
ATOM     47  N   UNL A   1      43.051  29.595  29.200  1.00  0.00    -0.248 NA
ATOM     48  C   UNL A   1      41.304  31.020  29.811  1.00  0.00     0.031 C 
ATOM     49  C   UNL A   1      47.350  30.671  29.403  1.00  0.00     0.029 A 
ATOM     50  C   UNL A   1      46.001  30.358  29.362  1.00  0.00     0.049 A 
ATOM     51  H   UNL A   1      45.074  28.537  28.829  1.00  0.00     0.167 HD
ATOM     52  C   UNL A   1      43.578  30.816  29.601  1.00  0.00     0.074 A 
ATOM     53  C   UNL A   1      42.455  31.666  29.936  1.00  0.00     0.031 C 
ATOM     54  C   UNL A   1      44.876  31.198  29.683  1.00  0.00     0.037 A 
BRANCH  41  55
ATOM     55  C   UNL A   1      48.902  26.760  28.183  1.00  0.00     0.057 A 
ATOM     56  C   UNL A   1      49.610  26.222  29.265  1.00  0.00     0.134 A 
ATOM     57  C   UNL A   1      49.573  26.853  26.956  1.00  0.00     0.134 A 
ATOM     58  F   UNL A   1      49.030  26.113  30.470  1.00  0.00    -0.206 F 
ATOM     59  C   UNL A   1      50.941  25.818  29.140  1.00  0.00     0.040 A 
ATOM     60  C   UNL A   1      50.894  26.426  26.812  1.00  0.00     0.040 A 
ATOM     61  F   UNL A   1      48.953  27.351  25.875  1.00  0.00    -0.206 F 
ATOM     62  C   UNL A   1      51.584  25.912  27.908  1.00  0.00     0.006 A 
ENDBRANCH  41  55
BRANCH  42  63
ATOM     63  C   UNL A   1      39.243  29.051  29.164  1.00  0.00     0.057 A 
ATOM     64  C   UNL A   1      38.624  28.902  30.410  1.00  0.00     0.134 A 
ATOM     65  C   UNL A   1      38.455  29.519  28.105  1.00  0.00     0.134 A 
ATOM     66  F   UNL A   1      39.323  28.440  31.459  1.00  0.00    -0.206 F 
ATOM     67  C   UNL A   1      37.271  29.186  30.594  1.00  0.00     0.040 A 
ATOM     68  C   UNL A   1      37.106  29.832  28.281  1.00  0.00     0.040 A 
ATOM     69  F   UNL A   1      38.988  29.690  26.887  1.00  0.00    -0.206 F 
ATOM     70  C   UNL A   1      36.509  29.658  29.528  1.00  0.00     0.006 A 
ENDBRANCH  42  63
BRANCH  54  71
ATOM     71  C   UNL A   1      45.154  32.608  30.114  1.00  0.00     0.057 A 
ATOM     72  C   UNL A   1      45.387  32.942  31.454  1.00  0.00     0.134 A 
ATOM     73  C   UNL A   1      45.231  33.639  29.168  1.00  0.00     0.134 A 
ATOM     74  F   UNL A   1      45.315  32.005  32.412  1.00  0.00    -0.206 F 
ATOM     75  C   UNL A   1      45.667  34.254  31.839  1.00  0.00     0.040 A 
ATOM     76  C   UNL A   1      45.537  34.948  29.538  1.00  0.00     0.040 A 
ATOM     77  F   UNL A   1      45.026  33.385  27.866  1.00  0.00    -0.206 F 
ATOM     78  C   UNL A   1      45.751  35.260  30.878  1.00  0.00     0.006 A 
ENDBRANCH  54  71
ENDBRANCH  28  29
ENDBRANCH  20  23
ENDBRANCH  18  19
ENDBRANCH  17  18
ENDBRANCH   1  17
TORSDOF 13
ENDMDL
