MODEL 1
REMARK VINA RESULT:     -11.5      0.000      0.000
REMARK SMILES CC(C)[C@@H](NS(=O)(=O)c1ccc(Cl)c([N+](=O)[O-])c1)C(=O)NCCCNC(=O)c1ccc(-c2c3nc(c(-c4c(F)cccc4F)c4ccc([nH]4)c(-c4c(F)cccc4F)c4nc(c(-c5c(F)cccc5F)c5ccc2[nH]5)C=C4)C=C3)cc1
REMARK SMILES IDX 22 1 21 2 19 3 20 4 4 6 2 7 1 8 3 9 5 10 6 12 7 13 8 14 9 15
REMARK SMILES IDX 10 16 18 17 11 18 14 19 12 20 13 21 15 22 16 23 17 24 23 25
REMARK SMILES IDX 24 26 25 27 26 28 27 30 28 31 29 32 81 33 30 34 80 35 31 36
REMARK SMILES IDX 32 37 33 38 74 39 34 40 79 41 73 42 75 43 35 44 78 45 72 46
REMARK SMILES IDX 71 47 36 49 62 50 45 51 61 52 46 53 49 54 60 55 76 56 47 57
REMARK SMILES IDX 48 58 59 60 77 61 50 62 37 63 38 64 43 65 39 66 40 67 42 68
REMARK SMILES IDX 44 69 41 70 63 71 64 72 69 73 65 74 66 75 68 76 70 77 67 78
REMARK SMILES IDX 51 79 52 80 57 81 53 82 54 83 56 84 58 85 55 86
REMARK H PARENT 21 5 5 11 25 29 75 48 49 59
REMARK Flexibility Score: inf
ROOT
ATOM      1  C   UNL A   1      36.188  20.725  25.174  1.00  0.00     0.117 C 
ENDROOT
BRANCH   1   2
ATOM      2  N   UNL A   1      34.970  19.935  25.236  1.00  0.00    -0.355 N 
ATOM      3  C   UNL A   1      33.667  20.338  25.306  1.00  0.00     0.238 C 
ATOM      4  O   UNL A   1      32.817  19.488  25.585  1.00  0.00    -0.273 OA
ATOM      5  H   UNL A   1      35.103  18.959  25.225  1.00  0.00     0.163 HD
BRANCH   3   6
ATOM      6  C   UNL A   1      33.279  21.799  25.042  1.00  0.00     0.161 C 
BRANCH   6   7
ATOM      7  C   UNL A   1      33.289  22.058  23.513  1.00  0.00     0.010 C 
ATOM      8  C   UNL A   1      31.894  22.326  22.945  1.00  0.00     0.009 C 
ATOM      9  C   UNL A   1      34.197  23.255  23.171  1.00  0.00     0.009 C 
ENDBRANCH   6   7
BRANCH   6  10
ATOM     10  N   UNL A   1      31.963  22.070  25.678  1.00  0.00    -0.198 NA
ATOM     11  H   UNL A   1      31.705  21.222  26.182  1.00  0.00     0.142 HD
BRANCH  10  12
ATOM     12  S   UNL A   1      31.767  23.348  26.758  1.00  0.00     0.241 S 
ATOM     13  O   UNL A   1      30.379  23.379  27.165  1.00  0.00    -0.207 OA
ATOM     14  O   UNL A   1      32.833  23.197  27.719  1.00  0.00    -0.207 OA
BRANCH  12  15
ATOM     15  C   UNL A   1      32.106  24.828  25.825  1.00  0.00     0.089 A 
ATOM     16  C   UNL A   1      33.340  25.454  25.988  1.00  0.00     0.024 A 
ATOM     17  C   UNL A   1      31.185  25.341  24.905  1.00  0.00     0.109 A 
ATOM     18  C   UNL A   1      33.579  26.691  25.388  1.00  0.00     0.029 A 
ATOM     19  C   UNL A   1      31.464  26.555  24.229  1.00  0.00     0.289 A 
ATOM     20  C   UNL A   1      32.639  27.266  24.523  1.00  0.00     0.118 A 
ATOM     21  Cl  UNL A   1      33.053  28.842  23.949  1.00  0.00    -0.077 Cl
BRANCH  19  22
ATOM     22  N   UNL A   1      30.502  27.001  23.205  1.00  0.00     0.064 N 
ATOM     23  O   UNL A   1      29.349  27.247  23.589  1.00  0.00    -0.258 OA
ATOM     24  O   UNL A   1      30.866  27.104  22.031  1.00  0.00    -0.258 OA
ENDBRANCH  19  22
ENDBRANCH  12  15
ENDBRANCH  10  12
ENDBRANCH   6  10
ENDBRANCH   3   6
ENDBRANCH   1   2
BRANCH   1  25
ATOM     25  C   UNL A   1      37.392  19.821  24.956  1.00  0.00     0.042 C 
BRANCH  25  26
ATOM     26  C   UNL A   1      38.669  20.392  25.552  1.00  0.00     0.118 C 
BRANCH  26  27
ATOM     27  N   UNL A   1      39.705  19.381  25.699  1.00  0.00    -0.352 N 
ATOM     28  C   UNL A   1      41.017  19.537  26.068  1.00  0.00     0.251 C 
ATOM     29  H   UNL A   1      39.427  18.457  25.506  1.00  0.00     0.163 HD
ATOM     30  O   UNL A   1      41.809  18.612  25.930  1.00  0.00    -0.269 OA
BRANCH  28  31
ATOM     31  C   UNL A   1      41.470  20.835  26.606  1.00  0.00     0.039 A 
ATOM     32  C   UNL A   1      42.041  21.764  25.736  1.00  0.00     0.014 A 
ATOM     33  C   UNL A   1      41.314  21.136  27.962  1.00  0.00     0.014 A 
ATOM     34  C   UNL A   1      42.404  23.022  26.217  1.00  0.00     0.010 A 
ATOM     35  C   UNL A   1      41.589  22.418  28.419  1.00  0.00     0.010 A 
ATOM     36  C   UNL A   1      42.146  23.371  27.553  1.00  0.00    -0.014 A 
BRANCH  36  37
ATOM     37  C   UNL A   1      42.464  24.725  28.067  1.00  0.00     0.031 A 
ATOM     38  C   UNL A   1      43.874  25.069  28.460  1.00  0.00     0.074 A 
ATOM     39  C   UNL A   1      41.475  25.624  28.232  1.00  0.00     0.049 A 
ATOM     40  N   UNL A   1      44.340  26.175  28.980  1.00  0.00    -0.248 NA
ATOM     41  C   UNL A   1      44.889  24.021  28.269  1.00  0.00     0.031 C 
ATOM     42  C   UNL A   1      40.061  25.395  27.926  1.00  0.00     0.029 A 
ATOM     43  N   UNL A   1      41.507  26.911  28.703  1.00  0.00    -0.354 N 
ATOM     44  C   UNL A   1      45.696  25.953  29.183  1.00  0.00     0.074 A 
ATOM     45  C   UNL A   1      45.964  24.585  28.796  1.00  0.00     0.031 C 
ATOM     46  C   UNL A   1      39.368  26.515  28.184  1.00  0.00     0.029 A 
ATOM     47  C   UNL A   1      40.278  27.524  28.715  1.00  0.00     0.049 A 
ATOM     48  H   UNL A   1      42.333  27.355  29.003  1.00  0.00     0.167 HD
ATOM     49  C   UNL A   1      46.639  26.819  29.623  1.00  0.00     0.037 A 
ATOM     50  C   UNL A   1      39.925  28.760  29.115  1.00  0.00     0.037 A 
ATOM     51  C   UNL A   1      46.370  28.182  29.997  1.00  0.00     0.049 A 
ATOM     52  C   UNL A   1      40.984  29.691  29.638  1.00  0.00     0.074 A 
ATOM     53  C   UNL A   1      47.260  29.154  30.418  1.00  0.00     0.029 A 
ATOM     54  N   UNL A   1      45.111  28.764  30.003  1.00  0.00    -0.354 N 
ATOM     55  N   UNL A   1      42.274  29.490  29.765  1.00  0.00    -0.248 NA
ATOM     56  C   UNL A   1      40.538  31.022  30.070  1.00  0.00     0.031 C 
ATOM     57  C   UNL A   1      46.534  30.308  30.728  1.00  0.00     0.029 A 
ATOM     58  C   UNL A   1      45.197  30.075  30.443  1.00  0.00     0.049 A 
ATOM     59  H   UNL A   1      44.279  28.314  29.733  1.00  0.00     0.167 HD
ATOM     60  C   UNL A   1      42.798  30.678  30.257  1.00  0.00     0.074 A 
ATOM     61  C   UNL A   1      41.688  31.598  30.394  1.00  0.00     0.031 C 
ATOM     62  C   UNL A   1      44.082  30.981  30.567  1.00  0.00     0.037 A 
BRANCH  49  63
ATOM     63  C   UNL A   1      48.050  26.309  29.724  1.00  0.00     0.057 A 
ATOM     64  C   UNL A   1      48.546  25.734  30.902  1.00  0.00     0.134 A 
ATOM     65  C   UNL A   1      48.917  26.377  28.627  1.00  0.00     0.134 A 
ATOM     66  F   UNL A   1      47.772  25.648  31.996  1.00  0.00    -0.206 F 
ATOM     67  C   UNL A   1      49.863  25.280  30.998  1.00  0.00     0.040 A 
ATOM     68  C   UNL A   1      50.226  25.897  28.699  1.00  0.00     0.040 A 
ATOM     69  F   UNL A   1      48.508  26.908  27.466  1.00  0.00    -0.206 F 
ATOM     70  C   UNL A   1      50.706  25.355  29.891  1.00  0.00     0.006 A 
ENDBRANCH  49  63
BRANCH  50  71
ATOM     71  C   UNL A   1      38.510  29.201  29.012  1.00  0.00     0.057 A 
ATOM     72  C   UNL A   1      37.995  29.689  27.805  1.00  0.00     0.134 A 
ATOM     73  C   UNL A   1      37.645  29.160  30.112  1.00  0.00     0.134 A 
ATOM     74  F   UNL A   1      38.779  29.771  26.720  1.00  0.00    -0.206 F 
ATOM     75  C   UNL A   1      36.679  30.141  27.701  1.00  0.00     0.040 A 
ATOM     76  C   UNL A   1      36.318  29.582  30.014  1.00  0.00     0.040 A 
ATOM     77  F   UNL A   1      38.073  28.694  31.294  1.00  0.00    -0.206 F 
ATOM     78  C   UNL A   1      35.834  30.083  28.808  1.00  0.00     0.006 A 
ENDBRANCH  50  71
BRANCH  62  79
ATOM     79  C   UNL A   1      44.364  32.378  31.041  1.00  0.00     0.057 A 
ATOM     80  C   UNL A   1      44.629  33.426  30.150  1.00  0.00     0.134 A 
ATOM     81  C   UNL A   1      44.334  32.684  32.408  1.00  0.00     0.134 A 
ATOM     82  F   UNL A   1      44.687  33.199  28.829  1.00  0.00    -0.206 F 
ATOM     83  C   UNL A   1      44.880  34.722  30.603  1.00  0.00     0.040 A 
ATOM     84  C   UNL A   1      44.550  33.982  32.871  1.00  0.00     0.040 A 
ATOM     85  F   UNL A   1      44.076  31.729  33.315  1.00  0.00    -0.206 F 
ATOM     86  C   UNL A   1      44.833  35.005  31.968  1.00  0.00     0.006 A 
ENDBRANCH  62  79
ENDBRANCH  36  37
ENDBRANCH  28  31
ENDBRANCH  26  27
ENDBRANCH  25  26
ENDBRANCH   1  25
TORSDOF 15
ENDMDL
MODEL 2
REMARK VINA RESULT:     -11.5      0.450      6.257
REMARK SMILES CC(C)[C@@H](NS(=O)(=O)c1ccc(Cl)c([N+](=O)[O-])c1)C(=O)NCCCNC(=O)c1ccc(-c2c3nc(c(-c4c(F)cccc4F)c4ccc([nH]4)c(-c4c(F)cccc4F)c4nc(c(-c5c(F)cccc5F)c5ccc2[nH]5)C=C4)C=C3)cc1
REMARK SMILES IDX 22 1 21 2 19 3 20 4 4 6 2 7 1 8 3 9 5 10 6 12 7 13 8 14 9 15
REMARK SMILES IDX 10 16 18 17 11 18 14 19 12 20 13 21 15 22 16 23 17 24 23 25
REMARK SMILES IDX 24 26 25 27 26 28 27 30 28 31 29 32 81 33 30 34 80 35 31 36
REMARK SMILES IDX 32 37 33 38 74 39 34 40 79 41 73 42 75 43 35 44 78 45 72 46
REMARK SMILES IDX 71 47 36 49 62 50 45 51 61 52 46 53 49 54 60 55 76 56 47 57
REMARK SMILES IDX 48 58 59 60 77 61 50 62 37 63 38 64 43 65 39 66 40 67 42 68
REMARK SMILES IDX 44 69 41 70 63 71 64 72 69 73 65 74 66 75 68 76 70 77 67 78
REMARK SMILES IDX 51 79 52 80 57 81 53 82 54 83 56 84 58 85 55 86
REMARK H PARENT 21 5 5 11 25 29 75 48 49 59
REMARK Flexibility Score: inf
ROOT
ATOM      1  C   UNL A   1      36.027  20.892  25.429  1.00  0.00     0.117 C 
ENDROOT
BRANCH   1   2
ATOM      2  N   UNL A   1      34.883  20.004  25.310  1.00  0.00    -0.355 N 
ATOM      3  C   UNL A   1      33.550  20.295  25.260  1.00  0.00     0.238 C 
ATOM      4  O   UNL A   1      32.753  19.362  25.394  1.00  0.00    -0.273 OA
ATOM      5  H   UNL A   1      35.102  19.045  25.257  1.00  0.00     0.163 HD
BRANCH   3   6
ATOM      6  C   UNL A   1      33.065  21.734  25.042  1.00  0.00     0.161 C 
BRANCH   6   7
ATOM      7  C   UNL A   1      32.949  22.005  23.520  1.00  0.00     0.010 C 
ATOM      8  C   UNL A   1      31.583  22.561  23.116  1.00  0.00     0.009 C 
ATOM      9  C   UNL A   1      34.037  22.993  23.059  1.00  0.00     0.009 C 
ENDBRANCH   6   7
BRANCH   6  10
ATOM     10  N   UNL A   1      31.786  21.928  25.775  1.00  0.00    -0.198 NA
ATOM     11  H   UNL A   1      31.591  21.049  26.253  1.00  0.00     0.142 HD
BRANCH  10  12
ATOM     12  S   UNL A   1      31.620  23.146  26.926  1.00  0.00     0.241 S 
ATOM     13  O   UNL A   1      30.214  23.277  27.239  1.00  0.00    -0.207 OA
ATOM     14  O   UNL A   1      32.596  22.839  27.944  1.00  0.00    -0.207 OA
BRANCH  12  15
ATOM     15  C   UNL A   1      32.153  24.646  26.124  1.00  0.00     0.089 A 
ATOM     16  C   UNL A   1      33.507  24.972  26.144  1.00  0.00     0.024 A 
ATOM     17  C   UNL A   1      31.252  25.471  25.441  1.00  0.00     0.109 A 
ATOM     18  C   UNL A   1      33.935  26.208  25.657  1.00  0.00     0.029 A 
ATOM     19  C   UNL A   1      31.702  26.688  24.871  1.00  0.00     0.289 A 
ATOM     20  C   UNL A   1      33.038  27.088  25.038  1.00  0.00     0.118 A 
ATOM     21  Cl  UNL A   1      33.715  28.611  24.586  1.00  0.00    -0.077 Cl
BRANCH  19  22
ATOM     22  N   UNL A   1      30.732  27.472  24.085  1.00  0.00     0.064 N 
ATOM     23  O   UNL A   1      30.057  26.853  23.249  1.00  0.00    -0.258 OA
ATOM     24  O   UNL A   1      30.631  28.686  24.278  1.00  0.00    -0.258 OA
ENDBRANCH  19  22
ENDBRANCH  12  15
ENDBRANCH  10  12
ENDBRANCH   6  10
ENDBRANCH   3   6
ENDBRANCH   1   2
BRANCH   1  25
ATOM     25  C   UNL A   1      37.268  20.234  24.845  1.00  0.00     0.042 C 
BRANCH  25  26
ATOM     26  C   UNL A   1      38.549  20.695  25.522  1.00  0.00     0.118 C 
BRANCH  26  27
ATOM     27  N   UNL A   1      39.528  19.623  25.631  1.00  0.00    -0.352 N 
ATOM     28  C   UNL A   1      40.848  19.694  25.994  1.00  0.00     0.251 C 
ATOM     29  H   UNL A   1      39.196  18.722  25.414  1.00  0.00     0.163 HD
ATOM     30  O   UNL A   1      41.586  18.730  25.822  1.00  0.00    -0.269 OA
BRANCH  28  31
ATOM     31  C   UNL A   1      41.378  20.947  26.566  1.00  0.00     0.039 A 
ATOM     32  C   UNL A   1      41.956  21.887  25.712  1.00  0.00     0.014 A 
ATOM     33  C   UNL A   1      41.287  21.198  27.938  1.00  0.00     0.014 A 
ATOM     34  C   UNL A   1      42.391  23.108  26.228  1.00  0.00     0.010 A 
ATOM     35  C   UNL A   1      41.634  22.447  28.435  1.00  0.00     0.010 A 
ATOM     36  C   UNL A   1      42.200  23.411  27.587  1.00  0.00    -0.014 A 
BRANCH  36  37
ATOM     37  C   UNL A   1      42.596  24.728  28.142  1.00  0.00     0.031 A 
ATOM     38  C   UNL A   1      41.565  25.803  28.337  1.00  0.00     0.074 A 
ATOM     39  C   UNL A   1      43.892  24.972  28.417  1.00  0.00     0.049 A 
ATOM     40  N   UNL A   1      41.722  27.033  28.755  1.00  0.00    -0.248 NA
ATOM     41  C   UNL A   1      40.177  25.460  27.990  1.00  0.00     0.031 C 
ATOM     42  C   UNL A   1      44.991  24.022  28.231  1.00  0.00     0.029 A 
ATOM     43  N   UNL A   1      44.505  26.095  28.907  1.00  0.00    -0.354 N 
ATOM     44  C   UNL A   1      40.459  27.609  28.715  1.00  0.00     0.074 A 
ATOM     45  C   UNL A   1      39.559  26.618  28.166  1.00  0.00     0.031 C 
ATOM     46  C   UNL A   1      46.137  24.592  28.636  1.00  0.00     0.029 A 
ATOM     47  C   UNL A   1      45.862  25.958  29.065  1.00  0.00     0.049 A 
ATOM     48  H   UNL A   1      44.018  26.923  29.126  1.00  0.00     0.167 HD
ATOM     49  C   UNL A   1      40.076  28.841  29.125  1.00  0.00     0.037 A 
ATOM     50  C   UNL A   1      46.781  26.839  29.503  1.00  0.00     0.037 A 
ATOM     51  C   UNL A   1      40.973  29.820  29.680  1.00  0.00     0.049 A 
ATOM     52  C   UNL A   1      46.338  28.216  29.915  1.00  0.00     0.074 A 
ATOM     53  C   UNL A   1      40.681  31.083  30.164  1.00  0.00     0.029 A 
ATOM     54  N   UNL A   1      42.343  29.646  29.818  1.00  0.00    -0.354 N 
ATOM     55  N   UNL A   1      45.130  28.727  29.932  1.00  0.00    -0.248 NA
ATOM     56  C   UNL A   1      47.386  29.137  30.374  1.00  0.00     0.031 C 
ATOM     57  C   UNL A   1      41.880  31.693  30.545  1.00  0.00     0.029 A 
ATOM     58  C   UNL A   1      42.914  30.789  30.355  1.00  0.00     0.049 A 
ATOM     59  H   UNL A   1      42.837  28.832  29.570  1.00  0.00     0.167 HD
ATOM     60  C   UNL A   1      45.268  30.014  30.435  1.00  0.00     0.074 A 
ATOM     61  C   UNL A   1      46.676  30.201  30.721  1.00  0.00     0.031 C 
ATOM     62  C   UNL A   1      44.316  30.956  30.642  1.00  0.00     0.037 A 
BRANCH  49  63
ATOM     63  C   UNL A   1      38.622  29.194  28.984  1.00  0.00     0.057 A 
ATOM     64  C   UNL A   1      37.732  29.108  30.064  1.00  0.00     0.134 A 
ATOM     65  C   UNL A   1      38.108  29.641  27.760  1.00  0.00     0.134 A 
ATOM     66  F   UNL A   1      38.155  28.675  31.262  1.00  0.00    -0.206 F 
ATOM     67  C   UNL A   1      36.378  29.418  29.923  1.00  0.00     0.040 A 
ATOM     68  C   UNL A   1      36.763  29.986  27.616  1.00  0.00     0.040 A 
ATOM     69  F   UNL A   1      38.903  29.755  26.687  1.00  0.00    -0.206 F 
ATOM     70  C   UNL A   1      35.891  29.864  28.697  1.00  0.00     0.006 A 
ENDBRANCH  49  63
BRANCH  50  71
ATOM     71  C   UNL A   1      48.209  26.440  29.600  1.00  0.00     0.057 A 
ATOM     72  C   UNL A   1      48.703  25.809  30.748  1.00  0.00     0.134 A 
ATOM     73  C   UNL A   1      49.114  26.689  28.562  1.00  0.00     0.134 A 
ATOM     74  F   UNL A   1      47.889  25.560  31.784  1.00  0.00    -0.206 F 
ATOM     75  C   UNL A   1      50.048  25.460  30.870  1.00  0.00     0.040 A 
ATOM     76  C   UNL A   1      50.458  26.319  28.659  1.00  0.00     0.040 A 
ATOM     77  F   UNL A   1      48.703  27.281  27.431  1.00  0.00    -0.206 F 
ATOM     78  C   UNL A   1      50.929  25.711  29.820  1.00  0.00     0.006 A 
ENDBRANCH  50  71
BRANCH  62  79
ATOM     79  C   UNL A   1      44.757  32.258  31.248  1.00  0.00     0.057 A 
ATOM     80  C   UNL A   1      44.819  32.450  32.633  1.00  0.00     0.134 A 
ATOM     81  C   UNL A   1      45.160  33.321  30.429  1.00  0.00     0.134 A 
ATOM     82  F   UNL A   1      44.434  31.477  33.474  1.00  0.00    -0.206 F 
ATOM     83  C   UNL A   1      45.240  33.662  33.184  1.00  0.00     0.040 A 
ATOM     84  C   UNL A   1      45.614  34.526  30.968  1.00  0.00     0.040 A 
ATOM     85  F   UNL A   1      45.136  33.202  29.093  1.00  0.00    -0.206 F 
ATOM     86  C   UNL A   1      45.647  34.702  32.349  1.00  0.00     0.006 A 
ENDBRANCH  62  79
ENDBRANCH  36  37
ENDBRANCH  28  31
ENDBRANCH  26  27
ENDBRANCH  25  26
ENDBRANCH   1  25
TORSDOF 15
ENDMDL
MODEL 3
REMARK VINA RESULT:     -11.4      3.667      8.503
REMARK SMILES CC(C)[C@@H](NS(=O)(=O)c1ccc(Cl)c([N+](=O)[O-])c1)C(=O)NCCCNC(=O)c1ccc(-c2c3nc(c(-c4c(F)cccc4F)c4ccc([nH]4)c(-c4c(F)cccc4F)c4nc(c(-c5c(F)cccc5F)c5ccc2[nH]5)C=C4)C=C3)cc1
REMARK SMILES IDX 22 1 21 2 19 3 20 4 4 6 2 7 1 8 3 9 5 10 6 12 7 13 8 14 9 15
REMARK SMILES IDX 10 16 18 17 11 18 14 19 12 20 13 21 15 22 16 23 17 24 23 25
REMARK SMILES IDX 24 26 25 27 26 28 27 30 28 31 29 32 81 33 30 34 80 35 31 36
REMARK SMILES IDX 32 37 33 38 74 39 34 40 79 41 73 42 75 43 35 44 78 45 72 46
REMARK SMILES IDX 71 47 36 49 62 50 45 51 61 52 46 53 49 54 60 55 76 56 47 57
REMARK SMILES IDX 48 58 59 60 77 61 50 62 37 63 38 64 43 65 39 66 40 67 42 68
REMARK SMILES IDX 44 69 41 70 63 71 64 72 69 73 65 74 66 75 68 76 70 77 67 78
REMARK SMILES IDX 51 79 52 80 57 81 53 82 54 83 56 84 58 85 55 86
REMARK H PARENT 21 5 5 11 25 29 75 48 49 59
REMARK Flexibility Score: inf
ROOT
ATOM      1  C   UNL A   1      31.312  30.203  25.247  1.00  0.00     0.117 C 
ENDROOT
BRANCH   1   2
ATOM      2  N   UNL A   1      30.633  30.133  23.964  1.00  0.00    -0.355 N 
ATOM      3  C   UNL A   1      30.629  29.139  23.029  1.00  0.00     0.238 C 
ATOM      4  O   UNL A   1      30.169  29.400  21.914  1.00  0.00    -0.273 OA
ATOM      5  H   UNL A   1      30.092  30.923  23.734  1.00  0.00     0.163 HD
BRANCH   3   6
ATOM      6  C   UNL A   1      31.179  27.744  23.358  1.00  0.00     0.161 C 
BRANCH   6   7
ATOM      7  C   UNL A   1      30.124  26.966  24.188  1.00  0.00     0.010 C 
ATOM      8  C   UNL A   1      29.657  25.681  23.503  1.00  0.00     0.009 C 
ATOM      9  C   UNL A   1      30.683  26.608  25.578  1.00  0.00     0.009 C 
ENDBRANCH   6   7
BRANCH   6  10
ATOM     10  N   UNL A   1      31.553  27.062  22.092  1.00  0.00    -0.198 NA
ATOM     11  H   UNL A   1      31.427  27.746  21.347  1.00  0.00     0.142 HD
BRANCH  10  12
ATOM     12  S   UNL A   1      33.089  26.403  21.881  1.00  0.00     0.241 S 
ATOM     13  O   UNL A   1      33.045  25.526  20.732  1.00  0.00    -0.207 OA
ATOM     14  O   UNL A   1      33.993  27.526  21.940  1.00  0.00    -0.207 OA
BRANCH  12  15
ATOM     15  C   UNL A   1      33.392  25.408  23.329  1.00  0.00     0.089 A 
ATOM     16  C   UNL A   1      34.073  25.977  24.402  1.00  0.00     0.024 A 
ATOM     17  C   UNL A   1      32.923  24.093  23.425  1.00  0.00     0.109 A 
ATOM     18  C   UNL A   1      34.456  25.186  25.485  1.00  0.00     0.029 A 
ATOM     19  C   UNL A   1      33.239  23.313  24.565  1.00  0.00     0.289 A 
ATOM     20  C   UNL A   1      34.065  23.843  25.569  1.00  0.00     0.118 A 
ATOM     21  Cl  UNL A   1      34.710  22.985  26.924  1.00  0.00    -0.077 Cl
BRANCH  19  22
ATOM     22  N   UNL A   1      32.643  21.967  24.656  1.00  0.00     0.064 N 
ATOM     23  O   UNL A   1      33.241  21.049  24.075  1.00  0.00    -0.258 OA
ATOM     24  O   UNL A   1      31.593  21.808  25.283  1.00  0.00    -0.258 OA
ENDBRANCH  19  22
ENDBRANCH  12  15
ENDBRANCH  10  12
ENDBRANCH   6  10
ENDBRANCH   3   6
ENDBRANCH   1   2
BRANCH   1  25
ATOM     25  C   UNL A   1      31.069  31.557  25.899  1.00  0.00     0.042 C 
BRANCH  25  26
ATOM     26  C   UNL A   1      32.188  31.961  26.845  1.00  0.00     0.118 C 
BRANCH  26  27
ATOM     27  N   UNL A   1      32.128  33.372  27.193  1.00  0.00    -0.352 N 
ATOM     28  C   UNL A   1      32.943  34.089  28.032  1.00  0.00     0.251 C 
ATOM     29  H   UNL A   1      31.403  33.884  26.768  1.00  0.00     0.163 HD
ATOM     30  O   UNL A   1      32.622  35.218  28.384  1.00  0.00    -0.269 OA
BRANCH  28  31
ATOM     31  C   UNL A   1      34.193  33.479  28.526  1.00  0.00     0.039 A 
ATOM     32  C   UNL A   1      35.409  33.899  27.985  1.00  0.00     0.014 A 
ATOM     33  C   UNL A   1      34.162  32.509  29.532  1.00  0.00     0.014 A 
ATOM     34  C   UNL A   1      36.601  33.386  28.496  1.00  0.00     0.010 A 
ATOM     35  C   UNL A   1      35.350  32.070  30.102  1.00  0.00     0.010 A 
ATOM     36  C   UNL A   1      36.581  32.496  29.583  1.00  0.00    -0.014 A 
BRANCH  36  37
ATOM     37  C   UNL A   1      37.839  31.989  30.183  1.00  0.00     0.031 A 
ATOM     38  C   UNL A   1      38.498  30.760  29.623  1.00  0.00     0.074 A 
ATOM     39  C   UNL A   1      38.356  32.604  31.265  1.00  0.00     0.049 A 
ATOM     40  N   UNL A   1      39.567  30.133  30.042  1.00  0.00    -0.248 NA
ATOM     41  C   UNL A   1      37.856  30.138  28.455  1.00  0.00     0.031 C 
ATOM     42  C   UNL A   1      37.785  33.780  31.924  1.00  0.00     0.029 A 
ATOM     43  N   UNL A   1      39.475  32.321  32.003  1.00  0.00    -0.354 N 
ATOM     44  C   UNL A   1      39.719  29.042  29.194  1.00  0.00     0.074 A 
ATOM     45  C   UNL A   1      38.596  29.053  28.284  1.00  0.00     0.031 C 
ATOM     46  C   UNL A   1      38.577  34.138  32.947  1.00  0.00     0.029 A 
ATOM     47  C   UNL A   1      39.683  33.192  33.044  1.00  0.00     0.049 A 
ATOM     48  H   UNL A   1      40.074  31.564  31.806  1.00  0.00     0.167 HD
ATOM     49  C   UNL A   1      40.720  28.130  29.159  1.00  0.00     0.037 A 
ATOM     50  C   UNL A   1      40.656  33.221  33.974  1.00  0.00     0.037 A 
ATOM     51  C   UNL A   1      41.841  28.129  30.061  1.00  0.00     0.049 A 
ATOM     52  C   UNL A   1      41.735  32.174  33.939  1.00  0.00     0.074 A 
ATOM     53  C   UNL A   1      42.929  27.274  30.085  1.00  0.00     0.029 A 
ATOM     54  N   UNL A   1      42.013  29.024  31.107  1.00  0.00    -0.354 N 
ATOM     55  N   UNL A   1      41.902  31.185  33.093  1.00  0.00    -0.248 NA
ATOM     56  C   UNL A   1      42.762  32.249  34.985  1.00  0.00     0.031 C 
ATOM     57  C   UNL A   1      43.732  27.619  31.176  1.00  0.00     0.029 A 
ATOM     58  C   UNL A   1      43.177  28.727  31.798  1.00  0.00     0.049 A 
ATOM     59  H   UNL A   1      41.400  29.762  31.326  1.00  0.00     0.167 HD
ATOM     60  C   UNL A   1      43.071  30.544  33.483  1.00  0.00     0.074 A 
ATOM     61  C   UNL A   1      43.576  31.262  34.634  1.00  0.00     0.031 C 
ATOM     62  C   UNL A   1      43.671  29.458  32.938  1.00  0.00     0.037 A 
BRANCH  49  63
ATOM     63  C   UNL A   1      40.639  27.059  28.108  1.00  0.00     0.057 A 
ATOM     64  C   UNL A   1      39.877  25.896  28.294  1.00  0.00     0.134 A 
ATOM     65  C   UNL A   1      41.315  27.197  26.889  1.00  0.00     0.134 A 
ATOM     66  F   UNL A   1      39.213  25.695  29.442  1.00  0.00    -0.206 F 
ATOM     67  C   UNL A   1      39.821  24.895  27.323  1.00  0.00     0.040 A 
ATOM     68  C   UNL A   1      41.240  26.217  25.897  1.00  0.00     0.040 A 
ATOM     69  F   UNL A   1      42.057  28.286  26.641  1.00  0.00    -0.206 F 
ATOM     70  C   UNL A   1      40.500  25.057  26.117  1.00  0.00     0.006 A 
ENDBRANCH  49  63
BRANCH  50  71
ATOM     71  C   UNL A   1      40.672  34.293  35.003  1.00  0.00     0.057 A 
ATOM     72  C   UNL A   1      41.294  35.522  34.751  1.00  0.00     0.134 A 
ATOM     73  C   UNL A   1      40.082  34.114  36.260  1.00  0.00     0.134 A 
ATOM     74  F   UNL A   1      41.892  35.747  33.573  1.00  0.00    -0.206 F 
ATOM     75  C   UNL A   1      41.349  36.526  35.720  1.00  0.00     0.040 A 
ATOM     76  C   UNL A   1      40.106  35.121  37.228  1.00  0.00     0.040 A 
ATOM     77  F   UNL A   1      39.462  32.964  36.561  1.00  0.00    -0.206 F 
ATOM     78  C   UNL A   1      40.748  36.328  36.961  1.00  0.00     0.006 A 
ENDBRANCH  50  71
BRANCH  62  79
ATOM     79  C   UNL A   1      44.966  29.008  33.551  1.00  0.00     0.057 A 
ATOM     80  C   UNL A   1      46.201  29.532  33.147  1.00  0.00     0.134 A 
ATOM     81  C   UNL A   1      44.972  28.063  34.584  1.00  0.00     0.134 A 
ATOM     82  F   UNL A   1      46.267  30.431  32.153  1.00  0.00    -0.206 F 
ATOM     83  C   UNL A   1      47.397  29.113  33.732  1.00  0.00     0.040 A 
ATOM     84  C   UNL A   1      46.159  27.659  35.199  1.00  0.00     0.040 A 
ATOM     85  F   UNL A   1      43.824  27.527  35.026  1.00  0.00    -0.206 F 
ATOM     86  C   UNL A   1      47.377  28.179  34.767  1.00  0.00     0.006 A 
ENDBRANCH  62  79
ENDBRANCH  36  37
ENDBRANCH  28  31
ENDBRANCH  26  27
ENDBRANCH  25  26
ENDBRANCH   1  25
TORSDOF 15
ENDMDL
