MODEL 1
REMARK VINA RESULT:     -12.9      0.000      0.000
REMARK SMILES O=C(NCCCNC(=O)c1ccc(-c2c3nc(c(-c4c(F)cccc4F)c4ccc([nH]4)c(-c4c(F)cccc4F)c4nc(c(-c5c(F)cccc5F)c5ccc2[nH]5)C=C4)C=C3)cc1)C1=Cc2cc(OC(F)(F)F)ccc2O[C@@H]1C(F)(F)F
REMARK SMILES IDX 5 1 4 2 3 3 1 4 2 5 64 7 65 8 78 9 66 10 77 11 67 12 76 13
REMARK SMILES IDX 68 14 75 15 74 16 79 17 80 18 81 19 82 20 69 21 70 22 71 23
REMARK SMILES IDX 72 24 73 25 6 26 7 27 8 28 9 30 10 31 11 32 63 33 12 34
REMARK SMILES IDX 62 35 13 36 14 37 15 38 56 39 16 40 61 41 55 42 57 43 17 44
REMARK SMILES IDX 60 45 54 46 53 47 18 49 44 50 27 51 43 52 28 53 31 54 42 55
REMARK SMILES IDX 58 56 29 57 30 58 41 60 59 61 32 62 19 63 20 64 25 65 21 66
REMARK SMILES IDX 22 67 24 68 26 69 23 70 45 71 46 72 51 73 47 74 48 75 50 76
REMARK SMILES IDX 52 77 49 78 33 79 34 80 39 81 35 82 36 83 38 84 40 85 37 86
REMARK H PARENT 3 6 7 29 57 48 31 59
REMARK Flexibility Score: inf
ROOT
ATOM      1  C   UNL A   1      31.412  29.106  26.490  1.00  0.00     0.042 C 
ENDROOT
BRANCH   1   2
ATOM      2  C   UNL A   1      32.000  27.701  26.418  1.00  0.00     0.118 C 
BRANCH   2   3
ATOM      3  N   UNL A   1      31.090  26.665  26.918  1.00  0.00    -0.352 N 
ATOM      4  O   UNL A   1      29.858  24.764  26.842  1.00  0.00    -0.270 OA
ATOM      5  C   UNL A   1      30.401  25.683  26.246  1.00  0.00     0.251 C 
ATOM      6  H   UNL A   1      30.951  26.674  27.893  1.00  0.00     0.163 HD
BRANCH   5   7
ATOM      7  C   UNL A   1      30.396  25.748  24.774  1.00  0.00     0.067 C 
ATOM      8  C   UNL A   1      29.353  26.346  24.186  1.00  0.00     0.025 C 
ATOM      9  C   UNL A   1      31.697  25.508  24.073  1.00  0.00     0.314 C 
ATOM     10  C   UNL A   1      29.771  27.369  23.219  1.00  0.00     0.021 A 
ATOM     11  O   UNL A   1      32.111  26.635  23.263  1.00  0.00    -0.475 OA
ATOM     12  C   UNL A   1      28.881  28.420  22.971  1.00  0.00     0.058 A 
ATOM     13  C   UNL A   1      31.133  27.532  22.911  1.00  0.00     0.128 A 
ATOM     14  C   UNL A   1      29.357  29.659  22.535  1.00  0.00     0.130 A 
ATOM     15  C   UNL A   1      31.594  28.744  22.403  1.00  0.00     0.051 A 
ATOM     16  C   UNL A   1      30.712  29.817  22.241  1.00  0.00     0.050 A 
BRANCH   9  17
ATOM     17  C   UNL A   1      31.634  24.225  23.227  1.00  0.00     0.429 C 
ATOM     18  F   UNL A   1      32.066  24.455  21.963  1.00  0.00    -0.167 F 
ATOM     19  F   UNL A   1      32.419  23.246  23.735  1.00  0.00    -0.167 F 
ATOM     20  F   UNL A   1      30.379  23.728  23.137  1.00  0.00    -0.167 F 
ENDBRANCH   9  17
BRANCH  14  21
ATOM     21  O   UNL A   1      28.416  30.645  22.449  1.00  0.00    -0.406 OA
BRANCH  21  22
ATOM     22  C   UNL A   1      28.296  31.487  23.589  1.00  0.00     0.573 C 
ATOM     23  F   UNL A   1      27.169  31.220  24.282  1.00  0.00    -0.132 F 
ATOM     24  F   UNL A   1      29.370  31.368  24.397  1.00  0.00    -0.132 F 
ATOM     25  F   UNL A   1      28.230  32.771  23.169  1.00  0.00    -0.132 F 
ENDBRANCH  21  22
ENDBRANCH  14  21
ENDBRANCH   5   7
ENDBRANCH   2   3
ENDBRANCH   1   2
BRANCH   1  26
ATOM     26  C   UNL A   1      32.380  30.175  25.989  1.00  0.00     0.118 C 
BRANCH  26  27
ATOM     27  N   UNL A   1      32.140  31.505  26.542  1.00  0.00    -0.352 N 
ATOM     28  C   UNL A   1      32.913  32.312  27.357  1.00  0.00     0.251 C 
ATOM     29  H   UNL A   1      31.273  31.897  26.290  1.00  0.00     0.163 HD
ATOM     30  O   UNL A   1      32.458  33.364  27.771  1.00  0.00    -0.269 OA
BRANCH  28  31
ATOM     31  C   UNL A   1      34.274  31.886  27.770  1.00  0.00     0.039 A 
ATOM     32  C   UNL A   1      35.274  32.854  27.910  1.00  0.00     0.014 A 
ATOM     33  C   UNL A   1      34.562  30.553  28.051  1.00  0.00     0.014 A 
ATOM     34  C   UNL A   1      36.509  32.504  28.468  1.00  0.00     0.010 A 
ATOM     35  C   UNL A   1      35.741  30.229  28.712  1.00  0.00     0.010 A 
ATOM     36  C   UNL A   1      36.721  31.204  28.951  1.00  0.00    -0.014 A 
BRANCH  36  37
ATOM     37  C   UNL A   1      37.929  30.826  29.734  1.00  0.00     0.031 A 
ATOM     38  C   UNL A   1      38.930  29.867  29.147  1.00  0.00     0.074 A 
ATOM     39  C   UNL A   1      38.060  31.234  31.013  1.00  0.00     0.049 A 
ATOM     40  N   UNL A   1      39.906  29.223  29.735  1.00  0.00    -0.248 NA
ATOM     41  C   UNL A   1      38.783  29.556  27.716  1.00  0.00     0.031 C 
ATOM     42  C   UNL A   1      37.145  32.132  31.723  1.00  0.00     0.029 A 
ATOM     43  N   UNL A   1      39.009  30.925  31.958  1.00  0.00    -0.354 N 
ATOM     44  C   UNL A   1      40.460  28.406  28.758  1.00  0.00     0.074 A 
ATOM     45  C   UNL A   1      39.682  28.597  27.553  1.00  0.00     0.031 C 
ATOM     46  C   UNL A   1      37.588  32.318  32.976  1.00  0.00     0.029 A 
ATOM     47  C   UNL A   1      38.784  31.509  33.182  1.00  0.00     0.049 A 
ATOM     48  H   UNL A   1      39.779  30.339  31.774  1.00  0.00     0.167 HD
ATOM     49  C   UNL A   1      41.536  27.589  28.848  1.00  0.00     0.037 A 
ATOM     50  C   UNL A   1      39.449  31.387  34.346  1.00  0.00     0.037 A 
ATOM     51  C   UNL A   1      42.344  27.442  30.029  1.00  0.00     0.049 A 
ATOM     52  C   UNL A   1      40.636  30.467  34.420  1.00  0.00     0.074 A 
ATOM     53  C   UNL A   1      43.492  26.690  30.200  1.00  0.00     0.029 A 
ATOM     54  N   UNL A   1      42.095  28.076  31.236  1.00  0.00    -0.354 N 
ATOM     55  N   UNL A   1      41.167  29.725  33.479  1.00  0.00    -0.248 NA
ATOM     56  C   UNL A   1      41.310  30.359  35.722  1.00  0.00     0.031 C 
ATOM     57  C   UNL A   1      43.926  26.850  31.519  1.00  0.00     0.029 A 
ATOM     58  C   UNL A   1      43.062  27.724  32.160  1.00  0.00     0.049 A 
ATOM     59  H   UNL A   1      41.341  28.685  31.409  1.00  0.00     0.167 HD
ATOM     60  C   UNL A   1      42.248  29.082  34.067  1.00  0.00     0.074 A 
ATOM     61  C   UNL A   1      42.306  29.530  35.442  1.00  0.00     0.031 C 
ATOM     62  C   UNL A   1      43.111  28.194  33.519  1.00  0.00     0.037 A 
BRANCH  49  63
ATOM     63  C   UNL A   1      41.915  26.807  27.625  1.00  0.00     0.057 A 
ATOM     64  C   UNL A   1      41.440  25.506  27.410  1.00  0.00     0.134 A 
ATOM     65  C   UNL A   1      42.732  27.369  26.637  1.00  0.00     0.134 A 
ATOM     66  F   UNL A   1      40.663  24.907  28.324  1.00  0.00    -0.206 F 
ATOM     67  C   UNL A   1      41.784  24.783  26.268  1.00  0.00     0.040 A 
ATOM     68  C   UNL A   1      43.064  26.665  25.479  1.00  0.00     0.040 A 
ATOM     69  F   UNL A   1      43.217  28.611  26.779  1.00  0.00    -0.206 F 
ATOM     70  C   UNL A   1      42.594  25.365  25.294  1.00  0.00     0.006 A 
ENDBRANCH  49  63
BRANCH  50  71
ATOM     71  C   UNL A   1      39.017  32.151  35.543  1.00  0.00     0.057 A 
ATOM     72  C   UNL A   1      38.229  31.547  36.531  1.00  0.00     0.134 A 
ATOM     73  C   UNL A   1      39.348  33.501  35.717  1.00  0.00     0.134 A 
ATOM     74  F   UNL A   1      37.861  30.264  36.408  1.00  0.00    -0.206 F 
ATOM     75  C   UNL A   1      37.767  32.262  37.637  1.00  0.00     0.040 A 
ATOM     76  C   UNL A   1      38.912  34.221  36.831  1.00  0.00     0.040 A 
ATOM     77  F   UNL A   1      40.103  34.136  34.809  1.00  0.00    -0.206 F 
ATOM     78  C   UNL A   1      38.111  33.604  37.790  1.00  0.00     0.006 A 
ENDBRANCH  50  71
BRANCH  62  79
ATOM     79  C   UNL A   1      44.209  27.675  34.396  1.00  0.00     0.057 A 
ATOM     80  C   UNL A   1      45.422  28.359  34.534  1.00  0.00     0.134 A 
ATOM     81  C   UNL A   1      44.029  26.509  35.149  1.00  0.00     0.134 A 
ATOM     82  F   UNL A   1      45.658  29.475  33.826  1.00  0.00    -0.206 F 
ATOM     83  C   UNL A   1      46.425  27.896  35.386  1.00  0.00     0.040 A 
ATOM     84  C   UNL A   1      45.016  26.047  36.021  1.00  0.00     0.040 A 
ATOM     85  F   UNL A   1      42.886  25.812  35.064  1.00  0.00    -0.206 F 
ATOM     86  C   UNL A   1      46.218  26.741  36.139  1.00  0.00     0.006 A 
ENDBRANCH  62  79
ENDBRANCH  36  37
ENDBRANCH  28  31
ENDBRANCH  26  27
ENDBRANCH   1  26
TORSDOF 13
ENDMDL
MODEL 2
REMARK VINA RESULT:     -12.7      4.311      8.460
REMARK SMILES O=C(NCCCNC(=O)c1ccc(-c2c3nc(c(-c4c(F)cccc4F)c4ccc([nH]4)c(-c4c(F)cccc4F)c4nc(c(-c5c(F)cccc5F)c5ccc2[nH]5)C=C4)C=C3)cc1)C1=Cc2cc(OC(F)(F)F)ccc2O[C@@H]1C(F)(F)F
REMARK SMILES IDX 5 1 4 2 3 3 1 4 2 5 64 7 65 8 78 9 66 10 77 11 67 12 76 13
REMARK SMILES IDX 68 14 75 15 74 16 79 17 80 18 81 19 82 20 69 21 70 22 71 23
REMARK SMILES IDX 72 24 73 25 6 26 7 27 8 28 9 30 10 31 11 32 63 33 12 34
REMARK SMILES IDX 62 35 13 36 14 37 15 38 56 39 16 40 61 41 55 42 57 43 17 44
REMARK SMILES IDX 60 45 54 46 53 47 18 49 44 50 27 51 43 52 28 53 31 54 42 55
REMARK SMILES IDX 58 56 29 57 30 58 41 60 59 61 32 62 19 63 20 64 25 65 21 66
REMARK SMILES IDX 22 67 24 68 26 69 23 70 45 71 46 72 51 73 47 74 48 75 50 76
REMARK SMILES IDX 52 77 49 78 33 79 34 80 39 81 35 82 36 83 38 84 40 85 37 86
REMARK H PARENT 3 6 7 29 57 48 31 59
REMARK Flexibility Score: inf
ROOT
ATOM      1  C   UNL A   1      37.295  21.339  24.573  1.00  0.00     0.042 C 
ENDROOT
BRANCH   1   2
ATOM      2  C   UNL A   1      37.088  22.764  24.071  1.00  0.00     0.118 C 
BRANCH   2   3
ATOM      3  N   UNL A   1      35.927  22.905  23.187  1.00  0.00    -0.352 N 
ATOM      4  O   UNL A   1      33.947  23.744  22.470  1.00  0.00    -0.270 OA
ATOM      5  C   UNL A   1      34.720  23.531  23.393  1.00  0.00     0.251 C 
ATOM      6  H   UNL A   1      36.028  22.485  22.302  1.00  0.00     0.163 HD
BRANCH   5   7
ATOM      7  C   UNL A   1      34.424  23.992  24.761  1.00  0.00     0.067 C 
ATOM      8  C   UNL A   1      34.569  25.298  25.017  1.00  0.00     0.025 C 
ATOM      9  C   UNL A   1      33.627  23.075  25.636  1.00  0.00     0.314 C 
ATOM     10  C   UNL A   1      33.377  25.875  25.653  1.00  0.00     0.021 A 
ATOM     11  O   UNL A   1      32.389  23.673  26.091  1.00  0.00    -0.475 OA
ATOM     12  C   UNL A   1      33.148  27.243  25.462  1.00  0.00     0.058 A 
ATOM     13  C   UNL A   1      32.312  25.043  26.038  1.00  0.00     0.128 A 
ATOM     14  C   UNL A   1      31.850  27.755  25.535  1.00  0.00     0.130 A 
ATOM     15  C   UNL A   1      31.032  25.573  26.185  1.00  0.00     0.051 A 
ATOM     16  C   UNL A   1      30.794  26.922  25.908  1.00  0.00     0.050 A 
BRANCH   9  17
ATOM     17  C   UNL A   1      34.467  22.591  26.830  1.00  0.00     0.429 C 
ATOM     18  F   UNL A   1      34.792  21.282  26.698  1.00  0.00    -0.167 F 
ATOM     19  F   UNL A   1      35.632  23.273  26.936  1.00  0.00    -0.167 F 
ATOM     20  F   UNL A   1      33.814  22.725  28.008  1.00  0.00    -0.167 F 
ENDBRANCH   9  17
BRANCH  14  21
ATOM     21  O   UNL A   1      31.728  29.076  25.207  1.00  0.00    -0.406 OA
BRANCH  21  22
ATOM     22  C   UNL A   1      32.023  30.000  26.247  1.00  0.00     0.573 C 
ATOM     23  F   UNL A   1      33.345  30.267  26.308  1.00  0.00    -0.132 F 
ATOM     24  F   UNL A   1      31.330  31.147  26.089  1.00  0.00    -0.132 F 
ATOM     25  F   UNL A   1      31.657  29.449  27.426  1.00  0.00    -0.132 F 
ENDBRANCH  21  22
ENDBRANCH  14  21
ENDBRANCH   5   7
ENDBRANCH   2   3
ENDBRANCH   1   2
BRANCH   1  26
ATOM     26  C   UNL A   1      38.328  21.253  25.693  1.00  0.00     0.118 C 
BRANCH  26  27
ATOM     27  N   UNL A   1      39.240  20.119  25.580  1.00  0.00    -0.352 N 
ATOM     28  C   UNL A   1      40.576  19.979  25.914  1.00  0.00     0.251 C 
ATOM     29  H   UNL A   1      38.833  19.309  25.197  1.00  0.00     0.163 HD
ATOM     30  O   UNL A   1      41.161  18.946  25.639  1.00  0.00    -0.269 OA
BRANCH  28  31
ATOM     31  C   UNL A   1      41.313  21.094  26.560  1.00  0.00     0.039 A 
ATOM     32  C   UNL A   1      41.940  22.049  25.753  1.00  0.00     0.014 A 
ATOM     33  C   UNL A   1      41.364  21.223  27.946  1.00  0.00     0.014 A 
ATOM     34  C   UNL A   1      42.485  23.201  26.332  1.00  0.00     0.010 A 
ATOM     35  C   UNL A   1      41.798  22.417  28.509  1.00  0.00     0.010 A 
ATOM     36  C   UNL A   1      42.343  23.432  27.709  1.00  0.00    -0.014 A 
BRANCH  36  37
ATOM     37  C   UNL A   1      42.718  24.723  28.349  1.00  0.00     0.031 A 
ATOM     38  C   UNL A   1      41.671  25.785  28.556  1.00  0.00     0.074 A 
ATOM     39  C   UNL A   1      44.011  24.992  28.619  1.00  0.00     0.049 A 
ATOM     40  N   UNL A   1      41.821  27.049  28.863  1.00  0.00    -0.248 NA
ATOM     41  C   UNL A   1      40.271  25.381  28.345  1.00  0.00     0.031 C 
ATOM     42  C   UNL A   1      45.135  24.071  28.430  1.00  0.00     0.029 A 
ATOM     43  N   UNL A   1      44.606  26.138  29.091  1.00  0.00    -0.354 N 
ATOM     44  C   UNL A   1      40.544  27.595  28.842  1.00  0.00     0.074 A 
ATOM     45  C   UNL A   1      39.637  26.540  28.445  1.00  0.00     0.031 C 
ATOM     46  C   UNL A   1      46.273  24.676  28.803  1.00  0.00     0.029 A 
ATOM     47  C   UNL A   1      45.974  26.047  29.201  1.00  0.00     0.049 A 
ATOM     48  H   UNL A   1      44.100  26.948  29.329  1.00  0.00     0.167 HD
ATOM     49  C   UNL A   1      40.157  28.855  29.150  1.00  0.00     0.037 A 
ATOM     50  C   UNL A   1      46.886  26.970  29.558  1.00  0.00     0.037 A 
ATOM     51  C   UNL A   1      41.051  29.888  29.601  1.00  0.00     0.049 A 
ATOM     52  C   UNL A   1      46.431  28.363  29.889  1.00  0.00     0.074 A 
ATOM     53  C   UNL A   1      40.747  31.177  30.001  1.00  0.00     0.029 A 
ATOM     54  N   UNL A   1      42.424  29.742  29.725  1.00  0.00    -0.354 N 
ATOM     55  N   UNL A   1      45.216  28.856  29.895  1.00  0.00    -0.248 NA
ATOM     56  C   UNL A   1      47.474  29.333  30.251  1.00  0.00     0.031 C 
ATOM     57  C   UNL A   1      41.940  31.820  30.345  1.00  0.00     0.029 A 
ATOM     58  C   UNL A   1      42.982  30.921  30.186  1.00  0.00     0.049 A 
ATOM     59  H   UNL A   1      42.926  28.921  29.516  1.00  0.00     0.167 HD
ATOM     60  C   UNL A   1      45.346  30.183  30.283  1.00  0.00     0.074 A 
ATOM     61  C   UNL A   1      46.756  30.416  30.516  1.00  0.00     0.031 C 
ATOM     62  C   UNL A   1      44.386  31.126  30.427  1.00  0.00     0.037 A 
BRANCH  49  63
ATOM     63  C   UNL A   1      38.697  29.179  29.034  1.00  0.00     0.057 A 
ATOM     64  C   UNL A   1      37.845  29.133  30.146  1.00  0.00     0.134 A 
ATOM     65  C   UNL A   1      38.143  29.573  27.810  1.00  0.00     0.134 A 
ATOM     66  F   UNL A   1      38.311  28.750  31.344  1.00  0.00    -0.206 F 
ATOM     67  C   UNL A   1      36.489  29.444  30.039  1.00  0.00     0.040 A 
ATOM     68  C   UNL A   1      36.794  29.911  27.697  1.00  0.00     0.040 A 
ATOM     69  F   UNL A   1      38.904  29.643  26.708  1.00  0.00    -0.206 F 
ATOM     70  C   UNL A   1      35.961  29.841  28.812  1.00  0.00     0.006 A 
ENDBRANCH  49  63
BRANCH  50  71
ATOM     71  C   UNL A   1      48.327  26.616  29.624  1.00  0.00     0.057 A 
ATOM     72  C   UNL A   1      49.168  26.833  28.526  1.00  0.00     0.134 A 
ATOM     73  C   UNL A   1      48.893  26.029  30.763  1.00  0.00     0.134 A 
ATOM     74  F   UNL A   1      48.679  27.371  27.399  1.00  0.00    -0.206 F 
ATOM     75  C   UNL A   1      50.512  26.459  28.547  1.00  0.00     0.040 A 
ATOM     76  C   UNL A   1      50.242  25.672  30.807  1.00  0.00     0.040 A 
ATOM     77  F   UNL A   1      48.142  25.799  31.850  1.00  0.00    -0.206 F 
ATOM     78  C   UNL A   1      51.053  25.879  29.693  1.00  0.00     0.006 A 
ENDBRANCH  50  71
BRANCH  62  79
ATOM     79  C   UNL A   1      44.821  32.484  30.887  1.00  0.00     0.057 A 
ATOM     80  C   UNL A   1      45.140  33.498  29.977  1.00  0.00     0.134 A 
ATOM     81  C   UNL A   1      44.867  32.794  32.251  1.00  0.00     0.134 A 
ATOM     82  F   UNL A   1      45.128  33.256  28.657  1.00  0.00    -0.206 F 
ATOM     83  C   UNL A   1      45.501  34.775  30.409  1.00  0.00     0.040 A 
ATOM     84  C   UNL A   1      45.206  34.072  32.695  1.00  0.00     0.040 A 
ATOM     85  F   UNL A   1      44.566  31.865  33.172  1.00  0.00    -0.206 F 
ATOM     86  C   UNL A   1      45.526  35.066  31.772  1.00  0.00     0.006 A 
ENDBRANCH  62  79
ENDBRANCH  36  37
ENDBRANCH  28  31
ENDBRANCH  26  27
ENDBRANCH   1  26
TORSDOF 13
ENDMDL
MODEL 3
REMARK VINA RESULT:     -12.7      4.244      8.164
REMARK SMILES O=C(NCCCNC(=O)c1ccc(-c2c3nc(c(-c4c(F)cccc4F)c4ccc([nH]4)c(-c4c(F)cccc4F)c4nc(c(-c5c(F)cccc5F)c5ccc2[nH]5)C=C4)C=C3)cc1)C1=Cc2cc(OC(F)(F)F)ccc2O[C@@H]1C(F)(F)F
REMARK SMILES IDX 5 1 4 2 3 3 1 4 2 5 64 7 65 8 78 9 66 10 77 11 67 12 76 13
REMARK SMILES IDX 68 14 75 15 74 16 79 17 80 18 81 19 82 20 69 21 70 22 71 23
REMARK SMILES IDX 72 24 73 25 6 26 7 27 8 28 9 30 10 31 11 32 63 33 12 34
REMARK SMILES IDX 62 35 13 36 14 37 15 38 56 39 16 40 61 41 55 42 57 43 17 44
REMARK SMILES IDX 60 45 54 46 53 47 18 49 44 50 27 51 43 52 28 53 31 54 42 55
REMARK SMILES IDX 58 56 29 57 30 58 41 60 59 61 32 62 19 63 20 64 25 65 21 66
REMARK SMILES IDX 22 67 24 68 26 69 23 70 45 71 46 72 51 73 47 74 48 75 50 76
REMARK SMILES IDX 52 77 49 78 33 79 34 80 39 81 35 82 36 83 38 84 40 85 37 86
REMARK H PARENT 3 6 7 29 57 48 31 59
REMARK Flexibility Score: inf
ROOT
ATOM      1  C   UNL A   1      33.112  28.658  27.384  1.00  0.00     0.042 C 
ENDROOT
BRANCH   1   2
ATOM      2  C   UNL A   1      31.827  28.430  26.595  1.00  0.00     0.118 C 
BRANCH   2   3
ATOM      3  N   UNL A   1      31.222  27.116  26.840  1.00  0.00    -0.352 N 
ATOM      4  O   UNL A   1      31.107  24.853  26.876  1.00  0.00    -0.270 OA
ATOM      5  C   UNL A   1      31.592  25.867  26.397  1.00  0.00     0.251 C 
ATOM      6  H   UNL A   1      30.423  27.130  27.416  1.00  0.00     0.163 HD
BRANCH   5   7
ATOM      7  C   UNL A   1      32.643  25.801  25.367  1.00  0.00     0.067 C 
ATOM      8  C   UNL A   1      33.894  25.554  25.777  1.00  0.00     0.025 C 
ATOM      9  C   UNL A   1      32.202  25.624  23.948  1.00  0.00     0.314 C 
ATOM     10  C   UNL A   1      34.513  24.447  25.035  1.00  0.00     0.021 A 
ATOM     11  O   UNL A   1      32.736  24.421  23.343  1.00  0.00    -0.475 OA
ATOM     12  C   UNL A   1      35.519  23.723  25.685  1.00  0.00     0.058 A 
ATOM     13  C   UNL A   1      33.842  23.870  23.943  1.00  0.00     0.128 A 
ATOM     14  C   UNL A   1      35.772  22.396  25.330  1.00  0.00     0.130 A 
ATOM     15  C   UNL A   1      34.151  22.572  23.542  1.00  0.00     0.051 A 
ATOM     16  C   UNL A   1      35.096  21.824  24.251  1.00  0.00     0.050 A 
BRANCH   9  17
ATOM     17  C   UNL A   1      32.560  26.859  23.105  1.00  0.00     0.429 C 
ATOM     18  F   UNL A   1      33.283  27.749  23.829  1.00  0.00    -0.167 F 
ATOM     19  F   UNL A   1      33.311  26.534  22.026  1.00  0.00    -0.167 F 
ATOM     20  F   UNL A   1      31.464  27.509  22.651  1.00  0.00    -0.167 F 
ENDBRANCH   9  17
BRANCH  14  21
ATOM     21  O   UNL A   1      36.686  21.750  26.114  1.00  0.00    -0.406 OA
BRANCH  21  22
ATOM     22  C   UNL A   1      38.037  21.826  25.678  1.00  0.00     0.573 C 
ATOM     23  F   UNL A   1      38.153  22.578  24.563  1.00  0.00    -0.132 F 
ATOM     24  F   UNL A   1      38.834  22.319  26.649  1.00  0.00    -0.132 F 
ATOM     25  F   UNL A   1      38.463  20.577  25.382  1.00  0.00    -0.132 F 
ENDBRANCH  21  22
ENDBRANCH  14  21
ENDBRANCH   5   7
ENDBRANCH   2   3
ENDBRANCH   1   2
BRANCH   1  26
ATOM     26  C   UNL A   1      33.851  29.922  26.952  1.00  0.00     0.118 C 
BRANCH  26  27
ATOM     27  N   UNL A   1      34.019  30.909  28.014  1.00  0.00    -0.352 N 
ATOM     28  C   UNL A   1      35.050  31.123  28.911  1.00  0.00     0.251 C 
ATOM     29  H   UNL A   1      33.265  31.533  28.110  1.00  0.00     0.163 HD
ATOM     30  O   UNL A   1      34.926  31.966  29.783  1.00  0.00    -0.269 OA
BRANCH  28  31
ATOM     31  C   UNL A   1      36.286  30.303  28.851  1.00  0.00     0.039 A 
ATOM     32  C   UNL A   1      37.056  30.322  27.683  1.00  0.00     0.014 A 
ATOM     33  C   UNL A   1      36.708  29.546  29.940  1.00  0.00     0.014 A 
ATOM     34  C   UNL A   1      38.310  29.703  27.665  1.00  0.00     0.010 A 
ATOM     35  C   UNL A   1      38.000  29.034  29.963  1.00  0.00     0.010 A 
ATOM     36  C   UNL A   1      38.828  29.126  28.834  1.00  0.00    -0.014 A 
BRANCH  36  37
ATOM     37  C   UNL A   1      40.230  28.635  28.934  1.00  0.00     0.031 A 
ATOM     38  C   UNL A   1      41.332  29.593  29.302  1.00  0.00     0.074 A 
ATOM     39  C   UNL A   1      40.532  27.373  28.569  1.00  0.00     0.049 A 
ATOM     40  N   UNL A   1      42.628  29.441  29.210  1.00  0.00    -0.248 NA
ATOM     41  C   UNL A   1      40.917  30.917  29.797  1.00  0.00     0.031 C 
ATOM     42  C   UNL A   1      39.570  26.350  28.152  1.00  0.00     0.029 A 
ATOM     43  N   UNL A   1      41.747  26.738  28.464  1.00  0.00    -0.354 N 
ATOM     44  C   UNL A   1      43.178  30.657  29.596  1.00  0.00     0.074 A 
ATOM     45  C   UNL A   1      42.076  31.552  29.875  1.00  0.00     0.031 C 
ATOM     46  C   UNL A   1      40.226  25.215  27.861  1.00  0.00     0.029 A 
ATOM     47  C   UNL A   1      41.658  25.443  28.012  1.00  0.00     0.049 A 
ATOM     48  H   UNL A   1      42.601  27.172  28.693  1.00  0.00     0.167 HD
ATOM     49  C   UNL A   1      44.483  30.992  29.731  1.00  0.00     0.037 A 
ATOM     50  C   UNL A   1      42.622  24.548  27.726  1.00  0.00     0.037 A 
ATOM     51  C   UNL A   1      45.577  30.085  29.509  1.00  0.00     0.049 A 
ATOM     52  C   UNL A   1      44.063  24.947  27.878  1.00  0.00     0.074 A 
ATOM     53  C   UNL A   1      46.931  30.310  29.683  1.00  0.00     0.029 A 
ATOM     54  N   UNL A   1      45.439  28.775  29.081  1.00  0.00    -0.354 N 
ATOM     55  N   UNL A   1      44.567  26.091  28.274  1.00  0.00    -0.248 NA
ATOM     56  C   UNL A   1      45.072  23.935  27.532  1.00  0.00     0.031 C 
ATOM     57  C   UNL A   1      47.615  29.141  29.336  1.00  0.00     0.029 A 
ATOM     58  C   UNL A   1      46.684  28.181  28.974  1.00  0.00     0.049 A 
ATOM     59  H   UNL A   1      44.582  28.333  28.881  1.00  0.00     0.167 HD
ATOM     60  C   UNL A   1      45.945  25.929  28.247  1.00  0.00     0.074 A 
ATOM     61  C   UNL A   1      46.201  24.574  27.808  1.00  0.00     0.031 C 
ATOM     62  C   UNL A   1      46.914  26.825  28.551  1.00  0.00     0.037 A 
BRANCH  49  63
ATOM     63  C   UNL A   1      44.797  32.394  30.162  1.00  0.00     0.057 A 
ATOM     64  C   UNL A   1      44.958  32.727  31.513  1.00  0.00     0.134 A 
ATOM     65  C   UNL A   1      44.974  33.414  29.218  1.00  0.00     0.134 A 
ATOM     66  F   UNL A   1      44.790  31.799  32.466  1.00  0.00    -0.206 F 
ATOM     67  C   UNL A   1      45.261  34.029  31.913  1.00  0.00     0.040 A 
ATOM     68  C   UNL A   1      45.301  34.714  29.605  1.00  0.00     0.040 A 
ATOM     69  F   UNL A   1      44.838  33.162  27.908  1.00  0.00    -0.206 F 
ATOM     70  C   UNL A   1      45.439  35.027  30.955  1.00  0.00     0.006 A 
ENDBRANCH  49  63
BRANCH  50  71
ATOM     71  C   UNL A   1      42.268  23.181  27.267  1.00  0.00     0.057 A 
ATOM     72  C   UNL A   1      41.920  22.185  28.188  1.00  0.00     0.134 A 
ATOM     73  C   UNL A   1      42.297  22.826  25.913  1.00  0.00     0.134 A 
ATOM     74  F   UNL A   1      41.896  22.460  29.500  1.00  0.00    -0.206 F 
ATOM     75  C   UNL A   1      41.635  20.881  27.783  1.00  0.00     0.040 A 
ATOM     76  C   UNL A   1      41.992  21.530  25.491  1.00  0.00     0.040 A 
ATOM     77  F   UNL A   1      42.619  23.734  24.981  1.00  0.00    -0.206 F 
ATOM     78  C   UNL A   1      41.669  20.551  26.429  1.00  0.00     0.006 A 
ENDBRANCH  50  71
BRANCH  62  79
ATOM     79  C   UNL A   1      48.335  26.359  28.452  1.00  0.00     0.057 A 
ATOM     80  C   UNL A   1      49.086  26.540  27.286  1.00  0.00     0.134 A 
ATOM     81  C   UNL A   1      48.972  25.775  29.554  1.00  0.00     0.134 A 
ATOM     82  F   UNL A   1      48.525  27.081  26.193  1.00  0.00    -0.206 F 
ATOM     83  C   UNL A   1      50.422  26.146  27.213  1.00  0.00     0.040 A 
ATOM     84  C   UNL A   1      50.313  25.396  29.501  1.00  0.00     0.040 A 
ATOM     85  F   UNL A   1      48.306  25.581  30.702  1.00  0.00    -0.206 F 
ATOM     86  C   UNL A   1      51.041  25.580  28.327  1.00  0.00     0.006 A 
ENDBRANCH  62  79
ENDBRANCH  36  37
ENDBRANCH  28  31
ENDBRANCH  26  27
ENDBRANCH   1  26
TORSDOF 13
ENDMDL
