MODEL 1
REMARK VINA RESULT:     -12.1      0.000      0.000
REMARK SMILES NS(=O)(=O)c1ccc(N2N=C(C(=O)NCCCNC(=O)c3ccc(-c4c5nc(c(-c6c(F)cccc6F)c6ccc([nH]6)c(-c6c(F)cccc6F)c6nc(c(-c7c(F)cccc7F)c7ccc4[nH]7)C=C6)C=C5)cc3)C[C@H]2c2cccs2)cc1
REMARK SMILES IDX 15 1 14 2 12 3 13 4 11 6 9 7 10 8 76 9 75 10 8 11 5 12 6 13
REMARK SMILES IDX 83 14 7 15 82 16 2 17 3 18 4 19 1 20 77 23 78 24 81 25 79 26
REMARK SMILES IDX 80 27 16 28 17 29 18 30 19 31 20 33 21 34 22 35 74 36 23 37
REMARK SMILES IDX 73 38 24 39 25 40 26 41 67 42 27 43 72 44 66 45 68 46 28 47
REMARK SMILES IDX 71 48 65 49 64 50 29 52 55 53 38 54 54 55 39 56 42 57 53 58
REMARK SMILES IDX 69 59 40 60 41 61 52 63 70 64 43 65 30 66 31 67 36 68 32 69
REMARK SMILES IDX 33 70 35 71 37 72 34 73 56 74 57 75 62 76 58 77 59 78 61 79
REMARK SMILES IDX 63 80 60 81 44 82 45 83 50 84 46 85 47 86 49 87 51 88 48 89
REMARK H PARENT 14 5 1 21 1 22 18 32 68 51 42 62
REMARK Flexibility Score: inf
ROOT
ATOM      1  C   UNL A   1      31.849  27.180  26.178  1.00  0.00     0.118 C 
ENDROOT
BRANCH   1   2
ATOM      2  N   UNL A   1      30.964  26.092  26.540  1.00  0.00    -0.351 N 
ATOM      3  C   UNL A   1      30.913  24.755  26.256  1.00  0.00     0.267 C 
ATOM      4  O   UNL A   1      29.910  24.145  26.625  1.00  0.00    -0.268 OA
ATOM      5  H   UNL A   1      30.229  26.383  27.126  1.00  0.00     0.163 HD
BRANCH   3   6
ATOM      6  C   UNL A   1      32.022  23.970  25.574  1.00  0.00     0.128 C 
ATOM      7  N   UNL A   1      33.183  22.263  25.061  1.00  0.00    -0.256 N 
ATOM      8  N   UNL A   1      32.076  22.679  25.716  1.00  0.00    -0.171 NA
ATOM      9  C   UNL A   1      33.921  23.323  24.383  1.00  0.00     0.154 C 
ATOM     10  C   UNL A   1      33.040  24.555  24.647  1.00  0.00     0.097 C 
BRANCH   7  11
ATOM     11  C   UNL A   1      33.397  20.917  24.810  1.00  0.00     0.060 A 
ATOM     12  C   UNL A   1      33.766  18.176  24.341  1.00  0.00     0.082 A 
ATOM     13  C   UNL A   1      34.809  18.936  24.878  1.00  0.00     0.024 A 
ATOM     14  C   UNL A   1      32.548  18.773  24.023  1.00  0.00     0.024 A 
ATOM     15  C   UNL A   1      34.624  20.305  25.097  1.00  0.00     0.029 A 
ATOM     16  C   UNL A   1      32.373  20.136  24.261  1.00  0.00     0.029 A 
BRANCH  12  17
ATOM     17  S   UNL A   1      34.024  16.448  24.091  1.00  0.00     0.238 S 
ATOM     18  O   UNL A   1      35.072  16.010  24.981  1.00  0.00    -0.207 OA
ATOM     19  O   UNL A   1      34.035  16.183  22.671  1.00  0.00    -0.207 OA
BRANCH  17  20
ATOM     20  N   UNL A   1      32.621  15.721  24.674  1.00  0.00    -0.225 NA
ATOM     21  H   UNL A   1      32.411  14.892  24.118  1.00  0.00     0.137 HD
ATOM     22  H   UNL A   1      31.846  16.380  24.611  1.00  0.00     0.137 HD
ENDBRANCH  17  20
ENDBRANCH  12  17
ENDBRANCH   7  11
BRANCH   9  23
ATOM     23  C   UNL A   1      35.373  23.477  24.810  1.00  0.00     0.030 A 
ATOM     24  C   UNL A   1      35.831  23.822  26.071  1.00  0.00     0.017 A 
ATOM     25  S   UNL A   1      36.687  23.336  23.709  1.00  0.00    -0.147 S 
ATOM     26  C   UNL A   1      37.250  23.931  26.135  1.00  0.00     0.012 A 
ATOM     27  C   UNL A   1      37.841  23.653  24.925  1.00  0.00     0.065 A 
ENDBRANCH   9  23
ENDBRANCH   3   6
ENDBRANCH   1   2
BRANCH   1  28
ATOM     28  C   UNL A   1      32.286  27.958  27.414  1.00  0.00     0.042 C 
BRANCH  28  29
ATOM     29  C   UNL A   1      33.668  28.585  27.256  1.00  0.00     0.118 C 
BRANCH  29  30
ATOM     30  N   UNL A   1      33.677  29.991  27.646  1.00  0.00    -0.352 N 
ATOM     31  C   UNL A   1      34.624  30.721  28.317  1.00  0.00     0.251 C 
ATOM     32  H   UNL A   1      32.874  30.496  27.385  1.00  0.00     0.163 HD
ATOM     33  O   UNL A   1      34.332  31.823  28.771  1.00  0.00    -0.269 OA
BRANCH  31  34
ATOM     34  C   UNL A   1      35.988  30.185  28.504  1.00  0.00     0.039 A 
ATOM     35  C   UNL A   1      36.879  30.206  27.427  1.00  0.00     0.014 A 
ATOM     36  C   UNL A   1      36.380  29.632  29.725  1.00  0.00     0.014 A 
ATOM     37  C   UNL A   1      38.183  29.736  27.597  1.00  0.00     0.010 A 
ATOM     38  C   UNL A   1      37.702  29.247  29.919  1.00  0.00     0.010 A 
ATOM     39  C   UNL A   1      38.615  29.289  28.856  1.00  0.00    -0.014 A 
BRANCH  39  40
ATOM     40  C   UNL A   1      40.016  28.858  29.085  1.00  0.00     0.031 A 
ATOM     41  C   UNL A   1      41.009  29.810  29.693  1.00  0.00     0.074 A 
ATOM     42  C   UNL A   1      40.412  27.639  28.672  1.00  0.00     0.049 A 
ATOM     43  N   UNL A   1      42.294  29.652  29.886  1.00  0.00    -0.248 NA
ATOM     44  C   UNL A   1      40.497  31.126  30.110  1.00  0.00     0.031 C 
ATOM     45  C   UNL A   1      39.556  26.647  28.016  1.00  0.00     0.029 A 
ATOM     46  N   UNL A   1      41.640  27.030  28.728  1.00  0.00    -0.354 N 
ATOM     47  C   UNL A   1      42.745  30.851  30.423  1.00  0.00     0.074 A 
ATOM     48  C   UNL A   1      41.609  31.744  30.479  1.00  0.00     0.031 C 
ATOM     49  C   UNL A   1      40.279  25.547  27.753  1.00  0.00     0.029 A 
ATOM     50  C   UNL A   1      41.655  25.769  28.184  1.00  0.00     0.049 A 
ATOM     51  H   UNL A   1      42.435  27.458  29.121  1.00  0.00     0.167 HD
ATOM     52  C   UNL A   1      43.989  31.171  30.852  1.00  0.00     0.037 A 
ATOM     53  C   UNL A   1      42.667  24.893  28.043  1.00  0.00     0.037 A 
ATOM     54  C   UNL A   1      45.107  30.266  30.829  1.00  0.00     0.049 A 
ATOM     55  C   UNL A   1      44.035  25.265  28.543  1.00  0.00     0.074 A 
ATOM     56  C   UNL A   1      46.390  30.470  31.306  1.00  0.00     0.029 A 
ATOM     57  N   UNL A   1      45.074  28.984  30.302  1.00  0.00    -0.354 N 
ATOM     58  N   UNL A   1      44.430  26.378  29.112  1.00  0.00    -0.248 NA
ATOM     59  C   UNL A   1      45.093  24.259  28.388  1.00  0.00     0.031 C 
ATOM     60  C   UNL A   1      47.145  29.323  31.035  1.00  0.00     0.029 A 
ATOM     61  C   UNL A   1      46.319  28.391  30.428  1.00  0.00     0.049 A 
ATOM     62  H   UNL A   1      44.283  28.559  29.899  1.00  0.00     0.167 HD
ATOM     63  C   UNL A   1      45.775  26.196  29.408  1.00  0.00     0.074 A 
ATOM     64  C   UNL A   1      46.123  24.861  28.967  1.00  0.00     0.031 C 
ATOM     65  C   UNL A   1      46.643  27.057  29.991  1.00  0.00     0.037 A 
BRANCH  52  66
ATOM     66  C   UNL A   1      44.203  32.554  31.393  1.00  0.00     0.057 A 
ATOM     67  C   UNL A   1      44.571  33.622  30.563  1.00  0.00     0.134 A 
ATOM     68  C   UNL A   1      44.000  32.832  32.751  1.00  0.00     0.134 A 
ATOM     69  F   UNL A   1      44.792  33.421  29.255  1.00  0.00    -0.206 F 
ATOM     70  C   UNL A   1      44.753  34.911  31.069  1.00  0.00     0.040 A 
ATOM     71  C   UNL A   1      44.153  34.121  33.263  1.00  0.00     0.040 A 
ATOM     72  F   UNL A   1      43.642  31.856  33.599  1.00  0.00    -0.206 F 
ATOM     73  C   UNL A   1      44.537  35.163  32.422  1.00  0.00     0.006 A 
ENDBRANCH  52  66
BRANCH  53  74
ATOM     74  C   UNL A   1      42.422  23.567  27.422  1.00  0.00     0.057 A 
ATOM     75  C   UNL A   1      42.551  23.385  26.041  1.00  0.00     0.134 A 
ATOM     76  C   UNL A   1      42.049  22.457  28.188  1.00  0.00     0.134 A 
ATOM     77  F   UNL A   1      42.890  24.416  25.253  1.00  0.00    -0.206 F 
ATOM     78  C   UNL A   1      42.298  22.152  25.438  1.00  0.00     0.040 A 
ATOM     79  C   UNL A   1      41.815  21.211  27.603  1.00  0.00     0.040 A 
ATOM     80  F   UNL A   1      41.918  22.564  29.519  1.00  0.00    -0.206 F 
ATOM     81  C   UNL A   1      41.932  21.058  26.222  1.00  0.00     0.006 A 
ENDBRANCH  53  74
BRANCH  65  82
ATOM     82  C   UNL A   1      48.043  26.568  30.218  1.00  0.00     0.057 A 
ATOM     83  C   UNL A   1      49.060  26.782  29.281  1.00  0.00     0.134 A 
ATOM     84  C   UNL A   1      48.383  25.913  31.408  1.00  0.00     0.134 A 
ATOM     85  F   UNL A   1      48.794  27.391  28.116  1.00  0.00    -0.206 F 
ATOM     86  C   UNL A   1      50.364  26.341  29.510  1.00  0.00     0.040 A 
ATOM     87  C   UNL A   1      49.689  25.490  31.660  1.00  0.00     0.040 A 
ATOM     88  F   UNL A   1      47.456  25.685  32.351  1.00  0.00    -0.206 F 
ATOM     89  C   UNL A   1      50.682  25.700  30.706  1.00  0.00     0.006 A 
ENDBRANCH  65  82
ENDBRANCH  39  40
ENDBRANCH  31  34
ENDBRANCH  29  30
ENDBRANCH  28  29
ENDBRANCH   1  28
TORSDOF 14
ENDMDL
MODEL 2
REMARK VINA RESULT:     -12.0      3.541      8.705
REMARK SMILES NS(=O)(=O)c1ccc(N2N=C(C(=O)NCCCNC(=O)c3ccc(-c4c5nc(c(-c6c(F)cccc6F)c6ccc([nH]6)c(-c6c(F)cccc6F)c6nc(c(-c7c(F)cccc7F)c7ccc4[nH]7)C=C6)C=C5)cc3)C[C@H]2c2cccs2)cc1
REMARK SMILES IDX 15 1 14 2 12 3 13 4 11 6 9 7 10 8 76 9 75 10 8 11 5 12 6 13
REMARK SMILES IDX 83 14 7 15 82 16 2 17 3 18 4 19 1 20 77 23 78 24 81 25 79 26
REMARK SMILES IDX 80 27 16 28 17 29 18 30 19 31 20 33 21 34 22 35 74 36 23 37
REMARK SMILES IDX 73 38 24 39 25 40 26 41 67 42 27 43 72 44 66 45 68 46 28 47
REMARK SMILES IDX 71 48 65 49 64 50 29 52 55 53 38 54 54 55 39 56 42 57 53 58
REMARK SMILES IDX 69 59 40 60 41 61 52 63 70 64 43 65 30 66 31 67 36 68 32 69
REMARK SMILES IDX 33 70 35 71 37 72 34 73 56 74 57 75 62 76 58 77 59 78 61 79
REMARK SMILES IDX 63 80 60 81 44 82 45 83 50 84 46 85 47 86 49 87 51 88 48 89
REMARK H PARENT 14 5 1 21 1 22 18 32 68 51 42 62
REMARK Flexibility Score: inf
ROOT
ATOM      1  C   UNL A   1      34.859  22.818  26.000  1.00  0.00     0.118 C 
ENDROOT
BRANCH   1   2
ATOM      2  N   UNL A   1      34.024  22.557  24.845  1.00  0.00    -0.351 N 
ATOM      3  C   UNL A   1      32.926  23.158  24.293  1.00  0.00     0.267 C 
ATOM      4  O   UNL A   1      32.372  22.565  23.369  1.00  0.00    -0.268 OA
ATOM      5  H   UNL A   1      34.314  21.763  24.342  1.00  0.00     0.163 HD
BRANCH   3   6
ATOM      6  C   UNL A   1      32.385  24.518  24.701  1.00  0.00     0.128 C 
ATOM      7  N   UNL A   1      31.537  26.451  24.430  1.00  0.00    -0.256 N 
ATOM      8  N   UNL A   1      31.875  25.304  23.800  1.00  0.00    -0.171 NA
ATOM      9  C   UNL A   1      31.787  26.449  25.868  1.00  0.00     0.154 C 
ATOM     10  C   UNL A   1      32.298  25.020  26.109  1.00  0.00     0.097 C 
BRANCH   7  11
ATOM     11  C   UNL A   1      30.744  27.400  23.805  1.00  0.00     0.060 A 
ATOM     12  C   UNL A   1      29.172  29.374  22.580  1.00  0.00     0.082 A 
ATOM     13  C   UNL A   1      28.563  28.241  23.126  1.00  0.00     0.024 A 
ATOM     14  C   UNL A   1      30.556  29.525  22.628  1.00  0.00     0.024 A 
ATOM     15  C   UNL A   1      29.353  27.252  23.723  1.00  0.00     0.029 A 
ATOM     16  C   UNL A   1      31.330  28.539  23.239  1.00  0.00     0.029 A 
BRANCH  12  17
ATOM     17  S   UNL A   1      28.148  30.612  21.848  1.00  0.00     0.238 S 
ATOM     18  O   UNL A   1      27.150  31.006  22.814  1.00  0.00    -0.207 OA
ATOM     19  O   UNL A   1      27.823  30.205  20.501  1.00  0.00    -0.207 OA
BRANCH  17  20
ATOM     20  N   UNL A   1      29.153  31.953  21.684  1.00  0.00    -0.225 NA
ATOM     21  H   UNL A   1      28.908  32.650  22.387  1.00  0.00     0.137 HD
ATOM     22  H   UNL A   1      29.037  32.352  20.753  1.00  0.00     0.137 HD
ENDBRANCH  17  20
ENDBRANCH  12  17
ENDBRANCH   7  11
BRANCH   9  23
ATOM     23  C   UNL A   1      32.712  27.548  26.367  1.00  0.00     0.030 A 
ATOM     24  C   UNL A   1      34.093  27.574  26.265  1.00  0.00     0.017 A 
ATOM     25  S   UNL A   1      32.147  28.911  27.251  1.00  0.00    -0.147 S 
ATOM     26  C   UNL A   1      34.673  28.723  26.875  1.00  0.00     0.012 A 
ATOM     27  C   UNL A   1      33.719  29.553  27.416  1.00  0.00     0.065 A 
ENDBRANCH   9  23
ENDBRANCH   3   6
ENDBRANCH   1   2
BRANCH   1  28
ATOM     28  C   UNL A   1      35.907  23.879  25.682  1.00  0.00     0.042 C 
BRANCH  28  29
ATOM     29  C   UNL A   1      37.048  23.338  24.825  1.00  0.00     0.118 C 
BRANCH  29  30
ATOM     30  N   UNL A   1      37.894  22.409  25.567  1.00  0.00    -0.352 N 
ATOM     31  C   UNL A   1      39.008  22.639  26.332  1.00  0.00     0.251 C 
ATOM     32  H   UNL A   1      37.620  21.465  25.508  1.00  0.00     0.163 HD
ATOM     33  O   UNL A   1      39.723  21.697  26.661  1.00  0.00    -0.269 OA
BRANCH  31  34
ATOM     34  C   UNL A   1      39.358  24.011  26.752  1.00  0.00     0.039 A 
ATOM     35  C   UNL A   1      38.991  24.443  28.030  1.00  0.00     0.014 A 
ATOM     36  C   UNL A   1      40.014  24.883  25.880  1.00  0.00     0.014 A 
ATOM     37  C   UNL A   1      39.345  25.725  28.455  1.00  0.00     0.010 A 
ATOM     38  C   UNL A   1      40.443  26.125  26.334  1.00  0.00     0.010 A 
ATOM     39  C   UNL A   1      40.108  26.561  27.624  1.00  0.00    -0.014 A 
BRANCH  39  40
ATOM     40  C   UNL A   1      40.565  27.897  28.080  1.00  0.00     0.031 A 
ATOM     41  C   UNL A   1      42.032  28.223  28.112  1.00  0.00     0.074 A 
ATOM     42  C   UNL A   1      39.663  28.785  28.541  1.00  0.00     0.049 A 
ATOM     43  N   UNL A   1      42.631  29.296  28.562  1.00  0.00    -0.248 NA
ATOM     44  C   UNL A   1      42.952  27.195  27.598  1.00  0.00     0.031 C 
ATOM     45  C   UNL A   1      38.217  28.565  28.615  1.00  0.00     0.029 A 
ATOM     46  N   UNL A   1      39.831  30.049  29.049  1.00  0.00    -0.354 N 
ATOM     47  C   UNL A   1      43.992  29.062  28.409  1.00  0.00     0.074 A 
ATOM     48  C   UNL A   1      44.134  27.727  27.869  1.00  0.00     0.031 C 
ATOM     49  C   UNL A   1      37.630  29.663  29.116  1.00  0.00     0.029 A 
ATOM     50  C   UNL A   1      38.656  30.648  29.433  1.00  0.00     0.049 A 
ATOM     51  H   UNL A   1      40.711  30.484  29.130  1.00  0.00     0.167 HD
ATOM     52  C   UNL A   1      45.028  29.894  28.670  1.00  0.00     0.037 A 
ATOM     53  C   UNL A   1      38.435  31.855  29.986  1.00  0.00     0.037 A 
ATOM     54  C   UNL A   1      44.880  31.234  29.170  1.00  0.00     0.049 A 
ATOM     55  C   UNL A   1      39.601  32.767  30.250  1.00  0.00     0.074 A 
ATOM     56  C   UNL A   1      45.862  32.181  29.401  1.00  0.00     0.029 A 
ATOM     57  N   UNL A   1      43.671  31.819  29.515  1.00  0.00    -0.354 N 
ATOM     58  N   UNL A   1      40.876  32.558  30.034  1.00  0.00    -0.248 NA
ATOM     59  C   UNL A   1      39.296  34.082  30.828  1.00  0.00     0.031 C 
ATOM     60  C   UNL A   1      45.251  33.328  29.920  1.00  0.00     0.029 A 
ATOM     61  C   UNL A   1      43.884  33.108  29.971  1.00  0.00     0.049 A 
ATOM     62  H   UNL A   1      42.792  31.382  29.444  1.00  0.00     0.167 HD
ATOM     63  C   UNL A   1      41.524  33.723  30.424  1.00  0.00     0.074 A 
ATOM     64  C   UNL A   1      40.498  34.639  30.876  1.00  0.00     0.031 C 
ATOM     65  C   UNL A   1      42.848  34.009  30.408  1.00  0.00     0.037 A 
BRANCH  52  66
ATOM     66  C   UNL A   1      46.414  29.379  28.409  1.00  0.00     0.057 A 
ATOM     67  C   UNL A   1      47.149  28.709  29.396  1.00  0.00     0.134 A 
ATOM     68  C   UNL A   1      47.005  29.519  27.148  1.00  0.00     0.134 A 
ATOM     69  F   UNL A   1      46.646  28.551  30.630  1.00  0.00    -0.206 F 
ATOM     70  C   UNL A   1      48.432  28.218  29.145  1.00  0.00     0.040 A 
ATOM     71  C   UNL A   1      48.275  29.011  26.876  1.00  0.00     0.040 A 
ATOM     72  F   UNL A   1      46.353  30.147  26.157  1.00  0.00    -0.206 F 
ATOM     73  C   UNL A   1      48.995  28.363  27.878  1.00  0.00     0.006 A 
ENDBRANCH  52  66
BRANCH  53  74
ATOM     74  C   UNL A   1      37.050  32.284  30.304  1.00  0.00     0.057 A 
ATOM     75  C   UNL A   1      36.463  31.965  31.534  1.00  0.00     0.134 A 
ATOM     76  C   UNL A   1      36.280  33.014  29.391  1.00  0.00     0.134 A 
ATOM     77  F   UNL A   1      37.146  31.254  32.443  1.00  0.00    -0.206 F 
ATOM     78  C   UNL A   1      35.153  32.338  31.838  1.00  0.00     0.040 A 
ATOM     79  C   UNL A   1      34.977  33.415  29.690  1.00  0.00     0.040 A 
ATOM     80  F   UNL A   1      36.789  33.360  28.199  1.00  0.00    -0.206 F 
ATOM     81  C   UNL A   1      34.407  33.069  30.915  1.00  0.00     0.006 A 
ENDBRANCH  53  74
BRANCH  65  82
ATOM     82  C   UNL A   1      43.258  35.378  30.861  1.00  0.00     0.057 A 
ATOM     83  C   UNL A   1      43.513  35.665  32.207  1.00  0.00     0.134 A 
ATOM     84  C   UNL A   1      43.439  36.411  29.931  1.00  0.00     0.134 A 
ATOM     85  F   UNL A   1      43.345  34.723  33.147  1.00  0.00    -0.206 F 
ATOM     86  C   UNL A   1      43.914  36.938  32.616  1.00  0.00     0.040 A 
ATOM     87  C   UNL A   1      43.863  37.680  30.325  1.00  0.00     0.040 A 
ATOM     88  F   UNL A   1      43.218  36.198  28.625  1.00  0.00    -0.206 F 
ATOM     89  C   UNL A   1      44.097  37.947  31.672  1.00  0.00     0.006 A 
ENDBRANCH  65  82
ENDBRANCH  39  40
ENDBRANCH  31  34
ENDBRANCH  29  30
ENDBRANCH  28  29
ENDBRANCH   1  28
TORSDOF 14
ENDMDL
MODEL 3
REMARK VINA RESULT:     -11.9      4.838     10.626
REMARK SMILES NS(=O)(=O)c1ccc(N2N=C(C(=O)NCCCNC(=O)c3ccc(-c4c5nc(c(-c6c(F)cccc6F)c6ccc([nH]6)c(-c6c(F)cccc6F)c6nc(c(-c7c(F)cccc7F)c7ccc4[nH]7)C=C6)C=C5)cc3)C[C@H]2c2cccs2)cc1
REMARK SMILES IDX 15 1 14 2 12 3 13 4 11 6 9 7 10 8 76 9 75 10 8 11 5 12 6 13
REMARK SMILES IDX 83 14 7 15 82 16 2 17 3 18 4 19 1 20 77 23 78 24 81 25 79 26
REMARK SMILES IDX 80 27 16 28 17 29 18 30 19 31 20 33 21 34 22 35 74 36 23 37
REMARK SMILES IDX 73 38 24 39 25 40 26 41 67 42 27 43 72 44 66 45 68 46 28 47
REMARK SMILES IDX 71 48 65 49 64 50 29 52 55 53 38 54 54 55 39 56 42 57 53 58
REMARK SMILES IDX 69 59 40 60 41 61 52 63 70 64 43 65 30 66 31 67 36 68 32 69
REMARK SMILES IDX 33 70 35 71 37 72 34 73 56 74 57 75 62 76 58 77 59 78 61 79
REMARK SMILES IDX 63 80 60 81 44 82 45 83 50 84 46 85 47 86 49 87 51 88 48 89
REMARK H PARENT 14 5 1 21 1 22 18 32 68 51 42 62
REMARK Flexibility Score: inf
ROOT
ATOM      1  C   UNL A   1      42.302  22.354  25.991  1.00  0.00     0.118 C 
ENDROOT
BRANCH   1   2
ATOM      2  N   UNL A   1      43.112  22.240  24.794  1.00  0.00    -0.351 N 
ATOM      3  C   UNL A   1      44.175  22.929  24.280  1.00  0.00     0.267 C 
ATOM      4  O   UNL A   1      44.528  22.638  23.139  1.00  0.00    -0.268 OA
ATOM      5  H   UNL A   1      42.830  21.493  24.218  1.00  0.00     0.163 HD
BRANCH   3   6
ATOM      6  C   UNL A   1      44.976  23.978  25.035  1.00  0.00     0.128 C 
ATOM      7  N   UNL A   1      45.397  25.881  25.888  1.00  0.00    -0.256 N 
ATOM      8  N   UNL A   1      44.450  25.144  25.265  1.00  0.00    -0.171 NA
ATOM      9  C   UNL A   1      46.645  25.170  26.147  1.00  0.00     0.154 C 
ATOM     10  C   UNL A   1      46.327  23.755  25.638  1.00  0.00     0.097 C 
BRANCH   7  11
ATOM     11  C   UNL A   1      45.078  27.087  26.490  1.00  0.00     0.060 A 
ATOM     12  C   UNL A   1      44.419  29.559  27.642  1.00  0.00     0.082 A 
ATOM     13  C   UNL A   1      45.620  28.932  27.984  1.00  0.00     0.024 A 
ATOM     14  C   UNL A   1      43.539  28.958  26.743  1.00  0.00     0.024 A 
ATOM     15  C   UNL A   1      45.937  27.692  27.417  1.00  0.00     0.029 A 
ATOM     16  C   UNL A   1      43.875  27.730  26.175  1.00  0.00     0.029 A 
BRANCH  12  17
ATOM     17  S   UNL A   1      44.052  31.129  28.360  1.00  0.00     0.238 S 
ATOM     18  O   UNL A   1      43.908  32.094  27.296  1.00  0.00    -0.207 OA
ATOM     19  O   UNL A   1      44.923  31.332  29.494  1.00  0.00    -0.207 OA
BRANCH  17  20
ATOM     20  N   UNL A   1      42.507  30.952  29.004  1.00  0.00    -0.225 NA
ATOM     21  H   UNL A   1      42.397  30.007  29.372  1.00  0.00     0.137 HD
ATOM     22  H   UNL A   1      41.814  31.116  28.274  1.00  0.00     0.137 HD
ENDBRANCH  17  20
ENDBRANCH  12  17
ENDBRANCH   7  11
BRANCH   9  23
ATOM     23  C   UNL A   1      47.889  25.800  25.539  1.00  0.00     0.030 A 
ATOM     24  C   UNL A   1      48.012  26.315  24.259  1.00  0.00     0.017 A 
ATOM     25  S   UNL A   1      49.397  25.867  26.363  1.00  0.00    -0.147 S 
ATOM     26  C   UNL A   1      49.324  26.791  23.976  1.00  0.00     0.012 A 
ATOM     27  C   UNL A   1      50.166  26.642  25.052  1.00  0.00     0.065 A 
ENDBRANCH   9  23
ENDBRANCH   3   6
ENDBRANCH   1   2
BRANCH   1  28
ATOM     28  C   UNL A   1      41.476  21.091  26.208  1.00  0.00     0.042 C 
BRANCH  28  29
ATOM     29  C   UNL A   1      40.114  21.382  26.834  1.00  0.00     0.118 C 
BRANCH  29  30
ATOM     30  N   UNL A   1      39.181  21.951  25.868  1.00  0.00    -0.352 N 
ATOM     31  C   UNL A   1      38.610  23.196  25.812  1.00  0.00     0.251 C 
ATOM     32  H   UNL A   1      38.919  21.343  25.139  1.00  0.00     0.163 HD
ATOM     33  O   UNL A   1      37.655  23.394  25.066  1.00  0.00    -0.269 OA
BRANCH  31  34
ATOM     34  C   UNL A   1      39.129  24.296  26.650  1.00  0.00     0.039 A 
ATOM     35  C   UNL A   1      40.019  25.216  26.088  1.00  0.00     0.014 A 
ATOM     36  C   UNL A   1      38.768  24.405  27.995  1.00  0.00     0.014 A 
ATOM     37  C   UNL A   1      40.492  26.281  26.857  1.00  0.00     0.010 A 
ATOM     38  C   UNL A   1      39.168  25.513  28.733  1.00  0.00     0.010 A 
ATOM     39  C   UNL A   1      40.039  26.459  28.174  1.00  0.00    -0.014 A 
BRANCH  39  40
ATOM     40  C   UNL A   1      40.463  27.626  28.987  1.00  0.00     0.031 A 
ATOM     41  C   UNL A   1      41.791  27.612  29.693  1.00  0.00     0.074 A 
ATOM     42  C   UNL A   1      39.618  28.661  29.154  1.00  0.00     0.049 A 
ATOM     43  N   UNL A   1      42.297  28.491  30.520  1.00  0.00    -0.248 NA
ATOM     44  C   UNL A   1      42.651  26.439  29.464  1.00  0.00     0.031 C 
ATOM     45  C   UNL A   1      38.279  28.765  28.568  1.00  0.00     0.029 A 
ATOM     46  N   UNL A   1      39.753  29.818  29.878  1.00  0.00    -0.354 N 
ATOM     47  C   UNL A   1      43.518  27.969  30.926  1.00  0.00     0.074 A 
ATOM     48  C   UNL A   1      43.656  26.675  30.295  1.00  0.00     0.031 C 
ATOM     49  C   UNL A   1      37.727  29.932  28.937  1.00  0.00     0.029 A 
ATOM     50  C   UNL A   1      38.653  30.639  29.814  1.00  0.00     0.049 A 
ATOM     51  H   UNL A   1      40.562  30.039  30.394  1.00  0.00     0.167 HD
ATOM     52  C   UNL A   1      44.451  28.528  31.732  1.00  0.00     0.037 A 
ATOM     53  C   UNL A   1      38.417  31.826  30.403  1.00  0.00     0.037 A 
ATOM     54  C   UNL A   1      44.326  29.832  32.327  1.00  0.00     0.049 A 
ATOM     55  C   UNL A   1      39.476  32.433  31.280  1.00  0.00     0.074 A 
ATOM     56  C   UNL A   1      45.245  30.517  33.101  1.00  0.00     0.029 A 
ATOM     57  N   UNL A   1      43.211  30.648  32.211  1.00  0.00    -0.354 N 
ATOM     58  N   UNL A   1      40.655  31.959  31.599  1.00  0.00    -0.248 NA
ATOM     59  C   UNL A   1      39.174  33.743  31.873  1.00  0.00     0.031 C 
ATOM     60  C   UNL A   1      44.672  31.735  33.485  1.00  0.00     0.029 A 
ATOM     61  C   UNL A   1      43.414  31.825  32.913  1.00  0.00     0.049 A 
ATOM     62  H   UNL A   1      42.398  30.425  31.703  1.00  0.00     0.167 HD
ATOM     63  C   UNL A   1      41.247  32.922  32.406  1.00  0.00     0.074 A 
ATOM     64  C   UNL A   1      40.301  34.012  32.517  1.00  0.00     0.031 C 
ATOM     65  C   UNL A   1      42.464  32.903  33.003  1.00  0.00     0.037 A 
BRANCH  52  66
ATOM     66  C   UNL A   1      45.694  27.735  32.010  1.00  0.00     0.057 A 
ATOM     67  C   UNL A   1      46.920  28.051  31.409  1.00  0.00     0.134 A 
ATOM     68  C   UNL A   1      45.676  26.668  32.917  1.00  0.00     0.134 A 
ATOM     69  F   UNL A   1      47.004  29.053  30.521  1.00  0.00    -0.206 F 
ATOM     70  C   UNL A   1      48.078  27.319  31.681  1.00  0.00     0.040 A 
ATOM     71  C   UNL A   1      46.832  25.946  33.218  1.00  0.00     0.040 A 
ATOM     72  F   UNL A   1      44.536  26.316  33.531  1.00  0.00    -0.206 F 
ATOM     73  C   UNL A   1      48.036  26.267  32.595  1.00  0.00     0.006 A 
ENDBRANCH  52  66
BRANCH  53  74
ATOM     74  C   UNL A   1      37.134  32.532  30.164  1.00  0.00     0.057 A 
ATOM     75  C   UNL A   1      36.005  32.257  30.944  1.00  0.00     0.134 A 
ATOM     76  C   UNL A   1      37.002  33.490  29.152  1.00  0.00     0.134 A 
ATOM     77  F   UNL A   1      36.066  31.337  31.919  1.00  0.00    -0.206 F 
ATOM     78  C   UNL A   1      34.784  32.893  30.715  1.00  0.00     0.040 A 
ATOM     79  C   UNL A   1      35.793  34.152  28.926  1.00  0.00     0.040 A 
ATOM     80  F   UNL A   1      38.049  33.806  28.376  1.00  0.00    -0.206 F 
ATOM     81  C   UNL A   1      34.677  33.847  29.704  1.00  0.00     0.006 A 
ENDBRANCH  53  74
BRANCH  65  82
ATOM     82  C   UNL A   1      42.854  34.114  33.797  1.00  0.00     0.057 A 
ATOM     83  C   UNL A   1      42.620  34.199  35.175  1.00  0.00     0.134 A 
ATOM     84  C   UNL A   1      43.508  35.188  33.183  1.00  0.00     0.134 A 
ATOM     85  F   UNL A   1      41.985  33.208  35.819  1.00  0.00    -0.206 F 
ATOM     86  C   UNL A   1      43.005  35.321  35.910  1.00  0.00     0.040 A 
ATOM     87  C   UNL A   1      43.921  36.304  33.911  1.00  0.00     0.040 A 
ATOM     88  F   UNL A   1      43.769  35.164  31.867  1.00  0.00    -0.206 F 
ATOM     89  C   UNL A   1      43.664  36.374  35.278  1.00  0.00     0.006 A 
ENDBRANCH  65  82
ENDBRANCH  39  40
ENDBRANCH  31  34
ENDBRANCH  29  30
ENDBRANCH  28  29
ENDBRANCH   1  28
TORSDOF 14
ENDMDL
