MODEL 1
REMARK VINA RESULT:     -11.4      0.000      0.000
REMARK SMILES C[C@H]([NH2+][C@@H](C)[C@@H](C)C(=O)NCCCNC(=O)c1ccc(-c2c3nc(c(-c4c(F)cccc4F)c4ccc([nH]4)c(-c4c(F)cccc4F)c4nc(c(-c5c(F)cccc5F)c5ccc2[nH]5)C=C4)C=C3)cc1)c1cccc(Br)c1
REMARK SMILES IDX 11 1 10 2 8 3 9 4 6 6 7 7 4 8 5 9 3 10 2 13 1 14 71 15 72 16
REMARK SMILES IDX 77 17 73 18 75 19 74 20 76 21 12 22 13 23 14 24 15 25 16 27
REMARK SMILES IDX 17 28 18 29 70 30 19 31 69 32 20 33 21 34 22 35 63 36 23 37
REMARK SMILES IDX 68 38 62 39 64 40 24 41 67 42 61 43 60 44 25 46 51 47 34 48
REMARK SMILES IDX 50 49 35 50 38 51 49 52 65 53 36 54 37 55 48 57 66 58 39 59
REMARK SMILES IDX 26 60 27 61 32 62 28 63 29 64 31 65 33 66 30 67 52 68 53 69
REMARK SMILES IDX 58 70 54 71 55 72 57 73 59 74 56 75 40 76 41 77 46 78 42 79
REMARK SMILES IDX 43 80 45 81 47 82 44 83
REMARK H PARENT 10 5 3 11 3 12 14 26 64 45 38 56
REMARK Flexibility Score: inf
ROOT
ATOM      1  C   UNL A   1      36.599  21.475  25.018  1.00  0.00     0.117 C 
ENDROOT
BRANCH   1   2
ATOM      2  N   UNL A   1      35.774  21.287  26.197  1.00  0.00    -0.356 N 
ATOM      3  C   UNL A   1      34.602  21.870  26.568  1.00  0.00     0.228 C 
ATOM      4  O   UNL A   1      34.149  21.582  27.679  1.00  0.00    -0.275 OA
ATOM      5  H   UNL A   1      36.120  20.623  26.837  1.00  0.00     0.163 HD
BRANCH   3   6
ATOM      6  C   UNL A   1      33.837  22.807  25.634  1.00  0.00     0.133 C 
ATOM      7  C   UNL A   1      33.957  24.211  26.218  1.00  0.00     0.024 C 
BRANCH   6   8
ATOM      8  C   UNL A   1      32.430  22.251  25.272  1.00  0.00     0.192 C 
ATOM      9  C   UNL A   1      31.396  22.961  26.180  1.00  0.00     0.076 C 
BRANCH   8  10
ATOM     10  N   UNL A   1      32.151  20.831  25.481  1.00  0.00    -0.337 N 
ATOM     11  H   UNL A   1      32.872  20.494  26.119  1.00  0.00     0.347 HD
ATOM     12  H   UNL A   1      31.176  20.857  25.781  1.00  0.00     0.347 HD
BRANCH  10  13
ATOM     13  C   UNL A   1      32.092  19.854  24.384  1.00  0.00     0.210 C 
ATOM     14  C   UNL A   1      32.257  20.484  22.992  1.00  0.00     0.081 C 
BRANCH  13  15
ATOM     15  C   UNL A   1      32.952  18.624  24.671  1.00  0.00     0.010 A 
ATOM     16  C   UNL A   1      34.338  18.681  24.411  1.00  0.00     0.010 A 
ATOM     17  C   UNL A   1      32.425  17.405  25.130  1.00  0.00     0.025 A 
ATOM     18  C   UNL A   1      35.135  17.538  24.468  1.00  0.00     0.002 A 
ATOM     19  C   UNL A   1      33.229  16.262  25.185  1.00  0.00     0.018 A 
ATOM     20  C   UNL A   1      34.574  16.318  24.833  1.00  0.00     0.016 A 
ATOM     21  Br  UNL A   1      32.461  14.603  25.668  1.00  0.00    -0.051 Br
ENDBRANCH  13  15
ENDBRANCH  10  13
ENDBRANCH   8  10
ENDBRANCH   6   8
ENDBRANCH   3   6
ENDBRANCH   1   2
BRANCH   1  22
ATOM     22  C   UNL A   1      37.676  20.401  24.915  1.00  0.00     0.042 C 
BRANCH  22  23
ATOM     23  C   UNL A   1      38.905  20.711  25.757  1.00  0.00     0.118 C 
BRANCH  23  24
ATOM     24  N   UNL A   1      39.847  19.600  25.786  1.00  0.00    -0.352 N 
ATOM     25  C   UNL A   1      41.198  19.598  26.033  1.00  0.00     0.251 C 
ATOM     26  H   UNL A   1      39.455  18.715  25.600  1.00  0.00     0.163 HD
ATOM     27  O   UNL A   1      41.863  18.597  25.800  1.00  0.00    -0.269 OA
BRANCH  25  28
ATOM     28  C   UNL A   1      41.847  20.817  26.556  1.00  0.00     0.039 A 
ATOM     29  C   UNL A   1      42.357  21.750  25.651  1.00  0.00     0.014 A 
ATOM     30  C   UNL A   1      41.935  21.046  27.931  1.00  0.00     0.014 A 
ATOM     31  C   UNL A   1      42.870  22.959  26.124  1.00  0.00     0.010 A 
ATOM     32  C   UNL A   1      42.373  22.281  28.397  1.00  0.00     0.010 A 
ATOM     33  C   UNL A   1      42.829  23.256  27.497  1.00  0.00    -0.014 A 
BRANCH  33  34
ATOM     34  C   UNL A   1      43.201  24.597  28.008  1.00  0.00     0.031 A 
ATOM     35  C   UNL A   1      42.139  25.618  28.301  1.00  0.00     0.074 A 
ATOM     36  C   UNL A   1      44.506  24.925  28.107  1.00  0.00     0.049 A 
ATOM     37  N   UNL A   1      42.276  26.876  28.639  1.00  0.00    -0.248 NA
ATOM     38  C   UNL A   1      40.739  25.180  28.177  1.00  0.00     0.031 C 
ATOM     39  C   UNL A   1      45.628  24.032  27.801  1.00  0.00     0.029 A 
ATOM     40  N   UNL A   1      45.112  26.102  28.468  1.00  0.00    -0.354 N 
ATOM     41  C   UNL A   1      40.987  27.381  28.746  1.00  0.00     0.074 A 
ATOM     42  C   UNL A   1      40.080  26.307  28.407  1.00  0.00     0.031 C 
ATOM     43  C   UNL A   1      46.782  24.691  27.994  1.00  0.00     0.029 A 
ATOM     44  C   UNL A   1      46.484  26.064  28.385  1.00  0.00     0.049 A 
ATOM     45  H   UNL A   1      44.611  26.898  28.759  1.00  0.00     0.167 HD
ATOM     46  C   UNL A   1      40.600  28.626  29.108  1.00  0.00     0.037 A 
ATOM     47  C   UNL A   1      47.399  27.035  28.573  1.00  0.00     0.037 A 
ATOM     48  C   UNL A   1      41.509  29.680  29.476  1.00  0.00     0.049 A 
ATOM     49  C   UNL A   1      46.932  28.415  28.949  1.00  0.00     0.074 A 
ATOM     50  C   UNL A   1      41.209  30.943  29.955  1.00  0.00     0.029 A 
ATOM     51  N   UNL A   1      42.890  29.599  29.394  1.00  0.00    -0.354 N 
ATOM     52  N   UNL A   1      45.712  28.848  29.152  1.00  0.00    -0.248 NA
ATOM     53  C   UNL A   1      47.969  29.444  29.118  1.00  0.00     0.031 C 
ATOM     54  C   UNL A   1      42.405  31.650  30.099  1.00  0.00     0.029 A 
ATOM     55  C   UNL A   1      43.454  30.808  29.765  1.00  0.00     0.049 A 
ATOM     56  H   UNL A   1      43.395  28.801  29.114  1.00  0.00     0.167 HD
ATOM     57  C   UNL A   1      45.836  30.189  29.491  1.00  0.00     0.074 A 
ATOM     58  C   UNL A   1      47.251  30.493  29.492  1.00  0.00     0.031 C 
ATOM     59  C   UNL A   1      44.864  31.092  29.768  1.00  0.00     0.037 A 
BRANCH  46  60
ATOM     60  C   UNL A   1      39.133  28.938  29.126  1.00  0.00     0.057 A 
ATOM     61  C   UNL A   1      38.364  28.810  30.290  1.00  0.00     0.134 A 
ATOM     62  C   UNL A   1      38.507  29.470  27.991  1.00  0.00     0.134 A 
ATOM     63  F   UNL A   1      38.901  28.301  31.408  1.00  0.00    -0.206 F 
ATOM     64  C   UNL A   1      37.023  29.197  30.322  1.00  0.00     0.040 A 
ATOM     65  C   UNL A   1      37.174  29.882  28.019  1.00  0.00     0.040 A 
ATOM     66  F   UNL A   1      39.190  29.624  26.847  1.00  0.00    -0.206 F 
ATOM     67  C   UNL A   1      36.428  29.746  29.187  1.00  0.00     0.006 A 
ENDBRANCH  46  60
BRANCH  47  68
ATOM     68  C   UNL A   1      48.846  26.757  28.380  1.00  0.00     0.057 A 
ATOM     69  C   UNL A   1      49.446  26.874  27.120  1.00  0.00     0.134 A 
ATOM     70  C   UNL A   1      49.655  26.319  29.437  1.00  0.00     0.134 A 
ATOM     71  F   UNL A   1      48.721  27.270  26.063  1.00  0.00    -0.206 F 
ATOM     72  C   UNL A   1      50.782  26.530  26.909  1.00  0.00     0.040 A 
ATOM     73  C   UNL A   1      51.001  26.002  29.247  1.00  0.00     0.040 A 
ATOM     74  F   UNL A   1      49.148  26.192  30.672  1.00  0.00    -0.206 F 
ATOM     75  C   UNL A   1      51.564  26.094  27.976  1.00  0.00     0.006 A 
ENDBRANCH  47  68
BRANCH  59  76
ATOM     76  C   UNL A   1      45.296  32.487  30.112  1.00  0.00     0.057 A 
ATOM     77  C   UNL A   1      45.390  33.488  29.137  1.00  0.00     0.134 A 
ATOM     78  C   UNL A   1      45.563  32.846  31.438  1.00  0.00     0.134 A 
ATOM     79  F   UNL A   1      45.160  33.205  27.847  1.00  0.00    -0.206 F 
ATOM     80  C   UNL A   1      45.749  34.796  29.469  1.00  0.00     0.040 A 
ATOM     81  C   UNL A   1      45.895  34.156  31.786  1.00  0.00     0.040 A 
ATOM     82  F   UNL A   1      45.483  31.936  32.421  1.00  0.00    -0.206 F 
ATOM     83  C   UNL A   1      45.992  35.134  30.799  1.00  0.00     0.006 A 
ENDBRANCH  59  76
ENDBRANCH  33  34
ENDBRANCH  25  28
ENDBRANCH  23  24
ENDBRANCH  22  23
ENDBRANCH   1  22
TORSDOF 14
ENDMDL
MODEL 2
REMARK VINA RESULT:     -11.2      6.420     10.830
REMARK SMILES C[C@H]([NH2+][C@@H](C)[C@@H](C)C(=O)NCCCNC(=O)c1ccc(-c2c3nc(c(-c4c(F)cccc4F)c4ccc([nH]4)c(-c4c(F)cccc4F)c4nc(c(-c5c(F)cccc5F)c5ccc2[nH]5)C=C4)C=C3)cc1)c1cccc(Br)c1
REMARK SMILES IDX 11 1 10 2 8 3 9 4 6 6 7 7 4 8 5 9 3 10 2 13 1 14 71 15 72 16
REMARK SMILES IDX 77 17 73 18 75 19 74 20 76 21 12 22 13 23 14 24 15 25 16 27
REMARK SMILES IDX 17 28 18 29 70 30 19 31 69 32 20 33 21 34 22 35 63 36 23 37
REMARK SMILES IDX 68 38 62 39 64 40 24 41 67 42 61 43 60 44 25 46 51 47 34 48
REMARK SMILES IDX 50 49 35 50 38 51 49 52 65 53 36 54 37 55 48 57 66 58 39 59
REMARK SMILES IDX 26 60 27 61 32 62 28 63 29 64 31 65 33 66 30 67 52 68 53 69
REMARK SMILES IDX 58 70 54 71 55 72 57 73 59 74 56 75 40 76 41 77 46 78 42 79
REMARK SMILES IDX 43 80 45 81 47 82 44 83
REMARK H PARENT 10 5 3 11 3 12 14 26 64 45 38 56
REMARK Flexibility Score: inf
ROOT
ATOM      1  C   UNL A   1      31.944  30.643  26.178  1.00  0.00     0.117 C 
ENDROOT
BRANCH   1   2
ATOM      2  N   UNL A   1      31.544  29.563  27.061  1.00  0.00    -0.356 N 
ATOM      3  C   UNL A   1      32.045  28.307  27.218  1.00  0.00     0.228 C 
ATOM      4  O   UNL A   1      31.454  27.551  27.994  1.00  0.00    -0.275 OA
ATOM      5  H   UNL A   1      30.780  29.774  27.646  1.00  0.00     0.163 HD
BRANCH   3   6
ATOM      6  C   UNL A   1      33.321  27.854  26.510  1.00  0.00     0.133 C 
ATOM      7  C   UNL A   1      34.376  28.925  26.768  1.00  0.00     0.024 C 
BRANCH   6   8
ATOM      8  C   UNL A   1      33.047  27.393  25.049  1.00  0.00     0.192 C 
ATOM      9  C   UNL A   1      33.654  28.454  24.099  1.00  0.00     0.076 C 
BRANCH   8  10
ATOM     10  N   UNL A   1      31.664  27.273  24.589  1.00  0.00    -0.337 N 
ATOM     11  H   UNL A   1      31.428  26.283  24.663  1.00  0.00     0.347 HD
ATOM     12  H   UNL A   1      31.192  27.956  25.182  1.00  0.00     0.347 HD
BRANCH  10  13
ATOM     13  C   UNL A   1      31.223  27.694  23.251  1.00  0.00     0.210 C 
ATOM     14  C   UNL A   1      31.246  26.561  22.213  1.00  0.00     0.081 C 
BRANCH  13  15
ATOM     15  C   UNL A   1      29.943  28.526  23.309  1.00  0.00     0.010 A 
ATOM     16  C   UNL A   1      28.695  27.868  23.271  1.00  0.00     0.010 A 
ATOM     17  C   UNL A   1      29.938  29.931  23.342  1.00  0.00     0.025 A 
ATOM     18  C   UNL A   1      27.504  28.578  23.126  1.00  0.00     0.002 A 
ATOM     19  C   UNL A   1      28.740  30.638  23.196  1.00  0.00     0.018 A 
ATOM     20  C   UNL A   1      27.528  29.968  23.063  1.00  0.00     0.016 A 
ATOM     21  Br  UNL A   1      28.777  32.526  23.098  1.00  0.00    -0.051 Br
ENDBRANCH  13  15
ENDBRANCH  10  13
ENDBRANCH   8  10
ENDBRANCH   6   8
ENDBRANCH   3   6
ENDBRANCH   1   2
BRANCH   1  22
ATOM     22  C   UNL A   1      31.593  32.003  26.769  1.00  0.00     0.042 C 
BRANCH  22  23
ATOM     23  C   UNL A   1      32.804  32.735  27.332  1.00  0.00     0.118 C 
BRANCH  23  24
ATOM     24  N   UNL A   1      32.515  34.133  27.626  1.00  0.00    -0.352 N 
ATOM     25  C   UNL A   1      33.051  34.961  28.582  1.00  0.00     0.251 C 
ATOM     26  H   UNL A   1      31.830  34.547  27.051  1.00  0.00     0.163 HD
ATOM     27  O   UNL A   1      32.528  36.041  28.821  1.00  0.00    -0.269 OA
BRANCH  25  28
ATOM     28  C   UNL A   1      34.244  34.527  29.337  1.00  0.00     0.039 A 
ATOM     29  C   UNL A   1      34.069  33.905  30.575  1.00  0.00     0.014 A 
ATOM     30  C   UNL A   1      35.526  34.718  28.818  1.00  0.00     0.014 A 
ATOM     31  C   UNL A   1      35.177  33.388  31.248  1.00  0.00     0.010 A 
ATOM     32  C   UNL A   1      36.619  34.134  29.449  1.00  0.00     0.010 A 
ATOM     33  C   UNL A   1      36.453  33.449  30.662  1.00  0.00    -0.014 A 
BRANCH  33  34
ATOM     34  C   UNL A   1      37.614  32.754  31.268  1.00  0.00     0.031 A 
ATOM     35  C   UNL A   1      38.249  31.586  30.568  1.00  0.00     0.074 A 
ATOM     36  C   UNL A   1      38.027  33.116  32.500  1.00  0.00     0.049 A 
ATOM     37  N   UNL A   1      39.191  30.783  30.994  1.00  0.00    -0.248 NA
ATOM     38  C   UNL A   1      37.746  31.260  29.223  1.00  0.00     0.031 C 
ATOM     39  C   UNL A   1      37.455  34.203  33.300  1.00  0.00     0.029 A 
ATOM     40  N   UNL A   1      39.008  32.595  33.308  1.00  0.00    -0.354 N 
ATOM     41  C   UNL A   1      39.377  29.848  29.983  1.00  0.00     0.074 A 
ATOM     42  C   UNL A   1      38.431  30.162  28.935  1.00  0.00     0.031 C 
ATOM     43  C   UNL A   1      38.097  34.271  34.477  1.00  0.00     0.029 A 
ATOM     44  C   UNL A   1      39.089  33.203  34.538  1.00  0.00     0.049 A 
ATOM     45  H   UNL A   1      39.596  31.856  33.032  1.00  0.00     0.167 HD
ATOM     46  C   UNL A   1      40.268  28.831  29.933  1.00  0.00     0.037 A 
ATOM     47  C   UNL A   1      39.855  32.914  35.608  1.00  0.00     0.037 A 
ATOM     48  C   UNL A   1      41.229  28.547  30.967  1.00  0.00     0.049 A 
ATOM     49  C   UNL A   1      40.816  31.760  35.527  1.00  0.00     0.074 A 
ATOM     50  C   UNL A   1      42.239  27.602  30.961  1.00  0.00     0.029 A 
ATOM     51  N   UNL A   1      41.290  29.194  32.190  1.00  0.00    -0.354 N 
ATOM     52  N   UNL A   1      41.056  30.953  34.523  1.00  0.00    -0.248 NA
ATOM     53  C   UNL A   1      41.611  31.471  36.730  1.00  0.00     0.031 C 
ATOM     54  C   UNL A   1      42.869  27.631  32.208  1.00  0.00     0.029 A 
ATOM     55  C   UNL A   1      42.289  28.634  32.968  1.00  0.00     0.049 A 
ATOM     56  H   UNL A   1      40.710  29.941  32.466  1.00  0.00     0.167 HD
ATOM     57  C   UNL A   1      42.040  30.078  34.964  1.00  0.00     0.074 A 
ATOM     58  C   UNL A   1      42.371  30.467  36.318  1.00  0.00     0.031 C 
ATOM     59  C   UNL A   1      42.611  29.038  34.311  1.00  0.00     0.037 A 
BRANCH  46  60
ATOM     60  C   UNL A   1      40.258  27.936  28.730  1.00  0.00     0.057 A 
ATOM     61  C   UNL A   1      40.977  28.249  27.569  1.00  0.00     0.134 A 
ATOM     62  C   UNL A   1      39.605  26.697  28.773  1.00  0.00     0.134 A 
ATOM     63  F   UNL A   1      41.619  29.421  27.461  1.00  0.00    -0.206 F 
ATOM     64  C   UNL A   1      41.042  27.362  26.493  1.00  0.00     0.040 A 
ATOM     65  C   UNL A   1      39.682  25.794  27.713  1.00  0.00     0.040 A 
ATOM     66  F   UNL A   1      38.904  26.335  29.859  1.00  0.00    -0.206 F 
ATOM     67  C   UNL A   1      40.403  26.126  26.568  1.00  0.00     0.006 A 
ENDBRANCH  46  60
BRANCH  47  68
ATOM     68  C   UNL A   1      39.730  33.703  36.862  1.00  0.00     0.057 A 
ATOM     69  C   UNL A   1      38.818  33.339  37.860  1.00  0.00     0.134 A 
ATOM     70  C   UNL A   1      40.481  34.867  37.073  1.00  0.00     0.134 A 
ATOM     71  F   UNL A   1      38.055  32.246  37.710  1.00  0.00    -0.206 F 
ATOM     72  C   UNL A   1      38.628  34.121  39.000  1.00  0.00     0.040 A 
ATOM     73  C   UNL A   1      40.325  35.641  38.223  1.00  0.00     0.040 A 
ATOM     74  F   UNL A   1      41.379  35.269  36.161  1.00  0.00    -0.206 F 
ATOM     75  C   UNL A   1      39.386  35.276  39.185  1.00  0.00     0.006 A 
ENDBRANCH  47  68
BRANCH  59  76
ATOM     76  C   UNL A   1      43.665  28.259  35.042  1.00  0.00     0.057 A 
ATOM     77  C   UNL A   1      43.352  27.107  35.774  1.00  0.00     0.134 A 
ATOM     78  C   UNL A   1      45.013  28.632  34.964  1.00  0.00     0.134 A 
ATOM     79  F   UNL A   1      42.079  26.705  35.898  1.00  0.00    -0.206 F 
ATOM     80  C   UNL A   1      44.342  26.360  36.415  1.00  0.00     0.040 A 
ATOM     81  C   UNL A   1      46.014  27.877  35.576  1.00  0.00     0.040 A 
ATOM     82  F   UNL A   1      45.380  29.720  34.272  1.00  0.00    -0.206 F 
ATOM     83  C   UNL A   1      45.678  26.740  36.308  1.00  0.00     0.006 A 
ENDBRANCH  59  76
ENDBRANCH  33  34
ENDBRANCH  25  28
ENDBRANCH  23  24
ENDBRANCH  22  23
ENDBRANCH   1  22
TORSDOF 14
ENDMDL
MODEL 3
REMARK VINA RESULT:     -11.2      0.924      1.661
REMARK SMILES C[C@H]([NH2+][C@@H](C)[C@@H](C)C(=O)NCCCNC(=O)c1ccc(-c2c3nc(c(-c4c(F)cccc4F)c4ccc([nH]4)c(-c4c(F)cccc4F)c4nc(c(-c5c(F)cccc5F)c5ccc2[nH]5)C=C4)C=C3)cc1)c1cccc(Br)c1
REMARK SMILES IDX 11 1 10 2 8 3 9 4 6 6 7 7 4 8 5 9 3 10 2 13 1 14 71 15 72 16
REMARK SMILES IDX 77 17 73 18 75 19 74 20 76 21 12 22 13 23 14 24 15 25 16 27
REMARK SMILES IDX 17 28 18 29 70 30 19 31 69 32 20 33 21 34 22 35 63 36 23 37
REMARK SMILES IDX 68 38 62 39 64 40 24 41 67 42 61 43 60 44 25 46 51 47 34 48
REMARK SMILES IDX 50 49 35 50 38 51 49 52 65 53 36 54 37 55 48 57 66 58 39 59
REMARK SMILES IDX 26 60 27 61 32 62 28 63 29 64 31 65 33 66 30 67 52 68 53 69
REMARK SMILES IDX 58 70 54 71 55 72 57 73 59 74 56 75 40 76 41 77 46 78 42 79
REMARK SMILES IDX 43 80 45 81 47 82 44 83
REMARK H PARENT 10 5 3 11 3 12 14 26 64 45 38 56
REMARK Flexibility Score: inf
ROOT
ATOM      1  C   UNL A   1      37.040  21.139  24.898  1.00  0.00     0.117 C 
ENDROOT
BRANCH   1   2
ATOM      2  N   UNL A   1      36.146  21.178  26.040  1.00  0.00    -0.356 N 
ATOM      3  C   UNL A   1      35.043  21.937  26.284  1.00  0.00     0.228 C 
ATOM      4  O   UNL A   1      34.507  21.824  27.390  1.00  0.00    -0.275 OA
ATOM      5  H   UNL A   1      36.376  20.547  26.761  1.00  0.00     0.163 HD
BRANCH   3   6
ATOM      6  C   UNL A   1      34.446  22.857  25.220  1.00  0.00     0.133 C 
ATOM      7  C   UNL A   1      34.736  24.289  25.660  1.00  0.00     0.024 C 
BRANCH   6   8
ATOM      8  C   UNL A   1      32.991  22.455  24.848  1.00  0.00     0.192 C 
ATOM      9  C   UNL A   1      32.034  23.455  25.542  1.00  0.00     0.076 C 
BRANCH   8  10
ATOM     10  N   UNL A   1      32.484  21.149  25.268  1.00  0.00    -0.337 N 
ATOM     11  H   UNL A   1      33.176  20.775  25.918  1.00  0.00     0.347 HD
ATOM     12  H   UNL A   1      31.550  21.390  25.601  1.00  0.00     0.347 HD
BRANCH  10  13
ATOM     13  C   UNL A   1      32.185  20.061  24.325  1.00  0.00     0.210 C 
ATOM     14  C   UNL A   1      32.184  20.509  22.855  1.00  0.00     0.081 C 
BRANCH  13  15
ATOM     15  C   UNL A   1      32.983  18.797  24.642  1.00  0.00     0.010 A 
ATOM     16  C   UNL A   1      34.371  18.783  24.395  1.00  0.00     0.010 A 
ATOM     17  C   UNL A   1      32.393  17.614  25.119  1.00  0.00     0.025 A 
ATOM     18  C   UNL A   1      35.113  17.605  24.480  1.00  0.00     0.002 A 
ATOM     19  C   UNL A   1      33.141  16.435  25.202  1.00  0.00     0.018 A 
ATOM     20  C   UNL A   1      34.490  16.420  24.861  1.00  0.00     0.016 A 
ATOM     21  Br  UNL A   1      32.290  14.824  25.709  1.00  0.00    -0.051 Br
ENDBRANCH  13  15
ENDBRANCH  10  13
ENDBRANCH   8  10
ENDBRANCH   6   8
ENDBRANCH   3   6
ENDBRANCH   1   2
BRANCH   1  22
ATOM     22  C   UNL A   1      38.014  19.971  24.992  1.00  0.00     0.042 C 
BRANCH  22  23
ATOM     23  C   UNL A   1      39.274  20.311  25.777  1.00  0.00     0.118 C 
BRANCH  23  24
ATOM     24  N   UNL A   1      40.204  19.192  25.837  1.00  0.00    -0.352 N 
ATOM     25  C   UNL A   1      41.562  19.186  26.043  1.00  0.00     0.251 C 
ATOM     26  H   UNL A   1      39.797  18.303  25.711  1.00  0.00     0.163 HD
ATOM     27  O   UNL A   1      42.208  18.166  25.843  1.00  0.00    -0.269 OA
BRANCH  25  28
ATOM     28  C   UNL A   1      42.240  20.424  26.478  1.00  0.00     0.039 A 
ATOM     29  C   UNL A   1      42.923  21.188  25.529  1.00  0.00     0.014 A 
ATOM     30  C   UNL A   1      42.187  20.836  27.811  1.00  0.00     0.014 A 
ATOM     31  C   UNL A   1      43.471  22.417  25.900  1.00  0.00     0.010 A 
ATOM     32  C   UNL A   1      42.664  22.094  28.163  1.00  0.00     0.010 A 
ATOM     33  C   UNL A   1      43.296  22.904  27.207  1.00  0.00    -0.014 A 
BRANCH  33  34
ATOM     34  C   UNL A   1      43.711  24.278  27.580  1.00  0.00     0.031 A 
ATOM     35  C   UNL A   1      42.680  25.308  27.948  1.00  0.00     0.074 A 
ATOM     36  C   UNL A   1      45.012  24.621  27.485  1.00  0.00     0.049 A 
ATOM     37  N   UNL A   1      42.841  26.585  28.186  1.00  0.00    -0.248 NA
ATOM     38  C   UNL A   1      41.283  24.852  28.038  1.00  0.00     0.031 C 
ATOM     39  C   UNL A   1      46.098  23.719  27.088  1.00  0.00     0.029 A 
ATOM     40  N   UNL A   1      45.641  25.823  27.690  1.00  0.00    -0.354 N 
ATOM     41  C   UNL A   1      41.569  27.086  28.432  1.00  0.00     0.074 A 
ATOM     42  C   UNL A   1      40.642  25.986  28.283  1.00  0.00     0.031 C 
ATOM     43  C   UNL A   1      47.256  24.398  27.086  1.00  0.00     0.029 A 
ATOM     44  C   UNL A   1      46.991  25.791  27.427  1.00  0.00     0.049 A 
ATOM     45  H   UNL A   1      45.171  26.632  27.994  1.00  0.00     0.167 HD
ATOM     46  C   UNL A   1      41.213  28.349  28.764  1.00  0.00     0.037 A 
ATOM     47  C   UNL A   1      47.907  26.778  27.433  1.00  0.00     0.037 A 
ATOM     48  C   UNL A   1      42.147  29.431  28.943  1.00  0.00     0.049 A 
ATOM     49  C   UNL A   1      47.472  28.176  27.781  1.00  0.00     0.074 A 
ATOM     50  C   UNL A   1      41.892  30.719  29.379  1.00  0.00     0.029 A 
ATOM     51  N   UNL A   1      43.505  29.355  28.684  1.00  0.00    -0.354 N 
ATOM     52  N   UNL A   1      46.283  28.611  28.117  1.00  0.00    -0.248 NA
ATOM     53  C   UNL A   1      48.506  29.221  27.747  1.00  0.00     0.031 C 
ATOM     54  C   UNL A   1      43.085  31.442  29.319  1.00  0.00     0.029 A 
ATOM     55  C   UNL A   1      44.094  30.589  28.902  1.00  0.00     0.049 A 
ATOM     56  H   UNL A   1      43.982  28.544  28.389  1.00  0.00     0.167 HD
ATOM     57  C   UNL A   1      46.429  29.972  28.353  1.00  0.00     0.074 A 
ATOM     58  C   UNL A   1      47.826  30.286  28.148  1.00  0.00     0.031 C 
ATOM     59  C   UNL A   1      45.488  30.883  28.700  1.00  0.00     0.037 A 
BRANCH  46  60
ATOM     60  C   UNL A   1      39.757  28.650  28.958  1.00  0.00     0.057 A 
ATOM     61  C   UNL A   1      39.128  28.496  30.200  1.00  0.00     0.134 A 
ATOM     62  C   UNL A   1      39.001  29.197  27.913  1.00  0.00     0.134 A 
ATOM     63  F   UNL A   1      39.794  27.972  31.240  1.00  0.00    -0.206 F 
ATOM     64  C   UNL A   1      37.798  28.874  30.394  1.00  0.00     0.040 A 
ATOM     65  C   UNL A   1      37.679  29.599  28.101  1.00  0.00     0.040 A 
ATOM     66  F   UNL A   1      39.547  29.375  26.700  1.00  0.00    -0.206 F 
ATOM     67  C   UNL A   1      37.073  29.438  29.346  1.00  0.00     0.006 A 
ENDBRANCH  46  60
BRANCH  47  68
ATOM     68  C   UNL A   1      49.321  26.500  27.066  1.00  0.00     0.057 A 
ATOM     69  C   UNL A   1      50.270  26.164  28.039  1.00  0.00     0.134 A 
ATOM     70  C   UNL A   1      49.770  26.613  25.744  1.00  0.00     0.134 A 
ATOM     71  F   UNL A   1      49.907  26.060  29.327  1.00  0.00    -0.206 F 
ATOM     72  C   UNL A   1      51.617  25.989  27.720  1.00  0.00     0.040 A 
ATOM     73  C   UNL A   1      51.108  26.409  25.404  1.00  0.00     0.040 A 
ATOM     74  F   UNL A   1      48.912  26.924  24.761  1.00  0.00    -0.206 F 
ATOM     75  C   UNL A   1      52.039  26.109  26.397  1.00  0.00     0.006 A 
ENDBRANCH  47  68
BRANCH  59  76
ATOM     76  C   UNL A   1      45.939  32.300  28.897  1.00  0.00     0.057 A 
ATOM     77  C   UNL A   1      46.432  32.749  30.129  1.00  0.00     0.134 A 
ATOM     78  C   UNL A   1      45.933  33.208  27.831  1.00  0.00     0.134 A 
ATOM     79  F   UNL A   1      46.451  31.934  31.192  1.00  0.00    -0.206 F 
ATOM     80  C   UNL A   1      46.892  34.057  30.295  1.00  0.00     0.040 A 
ATOM     81  C   UNL A   1      46.417  34.508  27.977  1.00  0.00     0.040 A 
ATOM     82  F   UNL A   1      45.481  32.838  26.623  1.00  0.00    -0.206 F 
ATOM     83  C   UNL A   1      46.894  34.937  29.214  1.00  0.00     0.006 A 
ENDBRANCH  59  76
ENDBRANCH  33  34
ENDBRANCH  25  28
ENDBRANCH  23  24
ENDBRANCH  22  23
ENDBRANCH   1  22
TORSDOF 14
ENDMDL
