MODEL 1
REMARK VINA RESULT:     -11.0      0.000      0.000
REMARK SMILES CN(CC(C)(C)O)C(=O)N[C@H]1CC[C@H](C(=O)NCCCNC(=O)c2ccc(-c3c4nc(c(-c5c(F)cccc5F)c5ccc([nH]5)c(-c5c(F)cccc5F)c5nc(c(-c6c(F)cccc6F)c6ccc3[nH]6)C=C5)C=C4)cc2)C1
REMARK SMILES IDX 15 1 16 2 17 3 14 5 11 6 12 7 78 8 13 9 10 10 8 11 9 12 2 14
REMARK SMILES IDX 1 15 3 16 4 17 5 18 6 19 7 20 18 22 19 23 20 24 21 25 22 26
REMARK SMILES IDX 23 28 24 29 25 30 77 31 26 32 76 33 27 34 28 35 29 36 70 37
REMARK SMILES IDX 30 38 75 39 69 40 71 41 31 42 74 43 68 44 67 45 32 47 58 48
REMARK SMILES IDX 41 49 57 50 42 51 45 52 56 53 72 54 43 55 44 56 55 58 73 59
REMARK SMILES IDX 46 60 33 61 34 62 39 63 35 64 36 65 38 66 40 67 37 68 59 69
REMARK SMILES IDX 60 70 65 71 61 72 62 73 64 74 66 75 63 76 47 77 48 78 53 79
REMARK SMILES IDX 49 80 50 81 52 82 54 83 51 84
REMARK H PARENT 17 4 10 13 7 21 21 27 71 46 45 57
REMARK Flexibility Score: inf
ROOT
ATOM      1  C   UNL A   1      36.578  23.102  25.645  1.00  0.00     0.223 C 
ATOM      2  O   UNL A   1      37.238  24.009  26.156  1.00  0.00    -0.275 OA
ATOM      3  N   UNL A   1      37.151  21.868  25.584  1.00  0.00    -0.356 N 
ATOM      4  H   UNL A   1      38.009  21.803  26.064  1.00  0.00     0.163 HD
ENDROOT
BRANCH   1   5
ATOM      5  C   UNL A   1      35.142  23.341  25.207  1.00  0.00     0.080 C 
ATOM      6  C   UNL A   1      34.030  25.365  24.362  1.00  0.00     0.084 C 
ATOM      7  C   UNL A   1      33.409  25.003  25.715  1.00  0.00     0.026 C 
ATOM      8  C   UNL A   1      35.140  24.364  24.097  1.00  0.00     0.038 C 
ATOM      9  C   UNL A   1      34.174  23.810  26.278  1.00  0.00     0.015 C 
BRANCH   6  10
ATOM     10  N   UNL A   1      33.055  25.414  23.294  1.00  0.00    -0.335 N 
ATOM     11  C   UNL A   1      32.415  26.416  22.662  1.00  0.00     0.317 C 
ATOM     12  O   UNL A   1      31.832  26.086  21.623  1.00  0.00    -0.249 OA
ATOM     13  H   UNL A   1      32.805  24.522  22.959  1.00  0.00     0.165 HD
BRANCH  11  14
ATOM     14  N   UNL A   1      32.468  27.719  23.077  1.00  0.00    -0.325 N 
ATOM     15  C   UNL A   1      33.770  28.353  22.900  1.00  0.00     0.148 C 
BRANCH  14  16
ATOM     16  C   UNL A   1      31.444  28.567  23.709  1.00  0.00     0.155 C 
BRANCH  16  17
ATOM     17  C   UNL A   1      30.060  28.809  23.044  1.00  0.00     0.077 C 
ATOM     18  C   UNL A   1      28.946  27.794  23.303  1.00  0.00     0.043 C 
ATOM     19  C   UNL A   1      29.579  30.201  23.507  1.00  0.00     0.043 C 
BRANCH  17  20
ATOM     20  O   UNL A   1      30.273  28.880  21.625  1.00  0.00    -0.389 OA
ATOM     21  H   UNL A   1      31.221  28.969  21.445  1.00  0.00     0.211 HD
ENDBRANCH  17  20
ENDBRANCH  16  17
ENDBRANCH  14  16
ENDBRANCH  11  14
ENDBRANCH   6  10
ENDBRANCH   1   5
BRANCH   3  22
ATOM     22  C   UNL A   1      36.736  20.629  24.944  1.00  0.00     0.117 C 
BRANCH  22  23
ATOM     23  C   UNL A   1      37.837  19.586  25.006  1.00  0.00     0.042 C 
BRANCH  23  24
ATOM     24  C   UNL A   1      39.086  20.081  25.717  1.00  0.00     0.118 C 
BRANCH  24  25
ATOM     25  N   UNL A   1      40.116  19.058  25.824  1.00  0.00    -0.352 N 
ATOM     26  C   UNL A   1      41.466  19.200  26.048  1.00  0.00     0.251 C 
ATOM     27  H   UNL A   1      39.802  18.130  25.721  1.00  0.00     0.163 HD
ATOM     28  O   UNL A   1      42.213  18.241  25.932  1.00  0.00    -0.269 OA
BRANCH  26  29
ATOM     29  C   UNL A   1      42.009  20.532  26.398  1.00  0.00     0.039 A 
ATOM     30  C   UNL A   1      42.429  21.380  25.371  1.00  0.00     0.014 A 
ATOM     31  C   UNL A   1      42.076  20.953  27.728  1.00  0.00     0.014 A 
ATOM     32  C   UNL A   1      42.845  22.678  25.678  1.00  0.00     0.010 A 
ATOM     33  C   UNL A   1      42.384  22.275  28.019  1.00  0.00     0.010 A 
ATOM     34  C   UNL A   1      42.782  23.150  26.998  1.00  0.00    -0.014 A 
BRANCH  34  35
ATOM     35  C   UNL A   1      43.143  24.550  27.338  1.00  0.00     0.031 A 
ATOM     36  C   UNL A   1      44.584  24.981  27.317  1.00  0.00     0.074 A 
ATOM     37  C   UNL A   1      42.185  25.412  27.730  1.00  0.00     0.049 A 
ATOM     38  N   UNL A   1      45.108  26.133  27.650  1.00  0.00    -0.248 NA
ATOM     39  C   UNL A   1      45.571  23.975  26.891  1.00  0.00     0.031 C 
ATOM     40  C   UNL A   1      40.758  25.102  27.842  1.00  0.00     0.029 A 
ATOM     41  N   UNL A   1      42.269  26.726  28.118  1.00  0.00    -0.354 N 
ATOM     42  C   UNL A   1      46.480  25.984  27.491  1.00  0.00     0.074 A 
ATOM     43  C   UNL A   1      46.714  24.613  27.093  1.00  0.00     0.031 C 
ATOM     44  C   UNL A   1      40.098  26.201  28.240  1.00  0.00     0.029 A 
ATOM     45  C   UNL A   1      41.057  27.280  28.457  1.00  0.00     0.049 A 
ATOM     46  H   UNL A   1      43.116  27.225  28.150  1.00  0.00     0.167 HD
ATOM     47  C   UNL A   1      47.456  26.911  27.636  1.00  0.00     0.037 A 
ATOM     48  C   UNL A   1      40.755  28.514  28.902  1.00  0.00     0.037 A 
ATOM     49  C   UNL A   1      47.217  28.279  28.010  1.00  0.00     0.049 A 
ATOM     50  C   UNL A   1      41.860  29.522  29.072  1.00  0.00     0.074 A 
ATOM     51  C   UNL A   1      48.131  29.312  28.128  1.00  0.00     0.029 A 
ATOM     52  N   UNL A   1      45.974  28.804  28.336  1.00  0.00    -0.354 N 
ATOM     53  N   UNL A   1      43.144  29.387  28.847  1.00  0.00    -0.248 NA
ATOM     54  C   UNL A   1      41.471  30.855  29.552  1.00  0.00     0.031 C 
ATOM     55  C   UNL A   1      47.450  30.448  28.575  1.00  0.00     0.029 A 
ATOM     56  C   UNL A   1      46.103  30.140  28.679  1.00  0.00     0.049 A 
ATOM     57  H   UNL A   1      45.128  28.301  28.323  1.00  0.00     0.167 HD
ATOM     58  C   UNL A   1      43.712  30.623  29.128  1.00  0.00     0.074 A 
ATOM     59  C   UNL A   1      42.628  31.499  29.524  1.00  0.00     0.031 C 
ATOM     60  C   UNL A   1      45.013  31.000  29.065  1.00  0.00     0.037 A 
BRANCH  47  61
ATOM     61  C   UNL A   1      48.871  26.473  27.386  1.00  0.00     0.057 A 
ATOM     62  C   UNL A   1      49.687  25.981  28.413  1.00  0.00     0.134 A 
ATOM     63  C   UNL A   1      49.414  26.514  26.096  1.00  0.00     0.134 A 
ATOM     64  F   UNL A   1      49.233  25.927  29.675  1.00  0.00    -0.206 F 
ATOM     65  C   UNL A   1      51.001  25.575  28.172  1.00  0.00     0.040 A 
ATOM     66  C   UNL A   1      50.716  26.081  25.837  1.00  0.00     0.040 A 
ATOM     67  F   UNL A   1      48.688  26.968  25.064  1.00  0.00    -0.206 F 
ATOM     68  C   UNL A   1      51.516  25.617  26.879  1.00  0.00     0.006 A 
ENDBRANCH  47  61
BRANCH  48  69
ATOM     69  C   UNL A   1      39.346  28.876  29.204  1.00  0.00     0.057 A 
ATOM     70  C   UNL A   1      38.802  28.660  30.475  1.00  0.00     0.134 A 
ATOM     71  C   UNL A   1      38.508  29.431  28.230  1.00  0.00     0.134 A 
ATOM     72  F   UNL A   1      39.549  28.114  31.446  1.00  0.00    -0.206 F 
ATOM     73  C   UNL A   1      37.468  28.960  30.762  1.00  0.00     0.040 A 
ATOM     74  C   UNL A   1      37.181  29.764  28.510  1.00  0.00     0.040 A 
ATOM     75  F   UNL A   1      38.970  29.673  26.995  1.00  0.00    -0.206 F 
ATOM     76  C   UNL A   1      36.655  29.518  29.777  1.00  0.00     0.006 A 
ENDBRANCH  48  69
BRANCH  60  77
ATOM     77  C   UNL A   1      45.332  32.430  29.392  1.00  0.00     0.057 A 
ATOM     78  C   UNL A   1      45.699  32.834  30.682  1.00  0.00     0.134 A 
ATOM     79  C   UNL A   1      45.311  33.410  28.390  1.00  0.00     0.134 A 
ATOM     80  F   UNL A   1      45.726  31.948  31.690  1.00  0.00    -0.206 F 
ATOM     81  C   UNL A   1      46.007  34.165  30.970  1.00  0.00     0.040 A 
ATOM     82  C   UNL A   1      45.648  34.737  28.660  1.00  0.00     0.040 A 
ATOM     83  F   UNL A   1      44.979  33.091  27.130  1.00  0.00    -0.206 F 
ATOM     84  C   UNL A   1      45.990  35.119  29.954  1.00  0.00     0.006 A 
ENDBRANCH  60  77
ENDBRANCH  34  35
ENDBRANCH  26  29
ENDBRANCH  24  25
ENDBRANCH  23  24
ENDBRANCH  22  23
ENDBRANCH   3  22
TORSDOF 15
ENDMDL
MODEL 2
REMARK VINA RESULT:     -11.0      5.019     10.150
REMARK SMILES CN(CC(C)(C)O)C(=O)N[C@H]1CC[C@H](C(=O)NCCCNC(=O)c2ccc(-c3c4nc(c(-c5c(F)cccc5F)c5ccc([nH]5)c(-c5c(F)cccc5F)c5nc(c(-c6c(F)cccc6F)c6ccc3[nH]6)C=C5)C=C4)cc2)C1
REMARK SMILES IDX 15 1 16 2 17 3 14 5 11 6 12 7 78 8 13 9 10 10 8 11 9 12 2 14
REMARK SMILES IDX 1 15 3 16 4 17 5 18 6 19 7 20 18 22 19 23 20 24 21 25 22 26
REMARK SMILES IDX 23 28 24 29 25 30 77 31 26 32 76 33 27 34 28 35 29 36 70 37
REMARK SMILES IDX 30 38 75 39 69 40 71 41 31 42 74 43 68 44 67 45 32 47 58 48
REMARK SMILES IDX 41 49 57 50 42 51 45 52 56 53 72 54 43 55 44 56 55 58 73 59
REMARK SMILES IDX 46 60 33 61 34 62 39 63 35 64 36 65 38 66 40 67 37 68 59 69
REMARK SMILES IDX 60 70 65 71 61 72 62 73 64 74 66 75 63 76 47 77 48 78 53 79
REMARK SMILES IDX 49 80 50 81 52 82 54 83 51 84
REMARK H PARENT 17 4 10 13 7 21 21 27 71 46 45 57
REMARK Flexibility Score: inf
ROOT
ATOM      1  C   UNL A   1      31.716  29.108  24.270  1.00  0.00     0.223 C 
ATOM      2  O   UNL A   1      32.332  29.013  23.207  1.00  0.00    -0.275 OA
ATOM      3  N   UNL A   1      31.943  30.215  25.029  1.00  0.00    -0.356 N 
ATOM      4  H   UNL A   1      32.505  30.893  24.588  1.00  0.00     0.163 HD
ENDROOT
BRANCH   1   5
ATOM      5  C   UNL A   1      30.666  28.077  24.651  1.00  0.00     0.080 C 
ATOM      6  C   UNL A   1      30.759  25.619  24.689  1.00  0.00     0.084 C 
ATOM      7  C   UNL A   1      29.748  26.047  23.619  1.00  0.00     0.026 C 
ATOM      8  C   UNL A   1      31.360  26.886  25.269  1.00  0.00     0.038 C 
ATOM      9  C   UNL A   1      29.774  27.569  23.533  1.00  0.00     0.015 C 
BRANCH   6  10
ATOM     10  N   UNL A   1      30.176  24.764  25.699  1.00  0.00    -0.335 N 
ATOM     11  C   UNL A   1      30.589  23.646  26.325  1.00  0.00     0.317 C 
ATOM     12  O   UNL A   1      29.923  23.329  27.317  1.00  0.00    -0.249 OA
ATOM     13  H   UNL A   1      29.284  25.065  25.991  1.00  0.00     0.165 HD
BRANCH  11  14
ATOM     14  N   UNL A   1      31.707  22.949  25.955  1.00  0.00    -0.325 N 
ATOM     15  C   UNL A   1      32.928  23.371  26.633  1.00  0.00     0.148 C 
BRANCH  14  16
ATOM     16  C   UNL A   1      31.886  21.881  24.958  1.00  0.00     0.155 C 
BRANCH  16  17
ATOM     17  C   UNL A   1      32.149  22.198  23.459  1.00  0.00     0.077 C 
ATOM     18  C   UNL A   1      33.421  22.965  23.095  1.00  0.00     0.043 C 
ATOM     19  C   UNL A   1      32.153  20.848  22.710  1.00  0.00     0.043 C 
BRANCH  17  20
ATOM     20  O   UNL A   1      31.025  22.951  22.977  1.00  0.00    -0.389 OA
ATOM     21  H   UNL A   1      30.669  22.525  22.182  1.00  0.00     0.211 HD
ENDBRANCH  17  20
ENDBRANCH  16  17
ENDBRANCH  14  16
ENDBRANCH  11  14
ENDBRANCH   6  10
ENDBRANCH   1   5
BRANCH   3  22
ATOM     22  C   UNL A   1      31.510  30.586  26.368  1.00  0.00     0.117 C 
BRANCH  22  23
ATOM     23  C   UNL A   1      31.402  32.094  26.510  1.00  0.00     0.042 C 
BRANCH  23  24
ATOM     24  C   UNL A   1      32.587  32.710  27.236  1.00  0.00     0.118 C 
BRANCH  24  25
ATOM     25  N   UNL A   1      32.351  34.092  27.626  1.00  0.00    -0.352 N 
ATOM     26  C   UNL A   1      32.975  34.843  28.596  1.00  0.00     0.251 C 
ATOM     27  H   UNL A   1      31.644  34.559  27.124  1.00  0.00     0.163 HD
ATOM     28  O   UNL A   1      32.529  35.935  28.910  1.00  0.00    -0.269 OA
BRANCH  26  29
ATOM     29  C   UNL A   1      34.170  34.299  29.280  1.00  0.00     0.039 A 
ATOM     30  C   UNL A   1      33.998  33.558  30.451  1.00  0.00     0.014 A 
ATOM     31  C   UNL A   1      35.449  34.495  28.754  1.00  0.00     0.014 A 
ATOM     32  C   UNL A   1      35.105  32.951  31.049  1.00  0.00     0.010 A 
ATOM     33  C   UNL A   1      36.528  33.802  29.287  1.00  0.00     0.010 A 
ATOM     34  C   UNL A   1      36.370  33.030  30.446  1.00  0.00    -0.014 A 
BRANCH  34  35
ATOM     35  C   UNL A   1      37.547  32.328  31.019  1.00  0.00     0.031 A 
ATOM     36  C   UNL A   1      38.198  32.851  32.270  1.00  0.00     0.074 A 
ATOM     37  C   UNL A   1      38.068  31.263  30.379  1.00  0.00     0.049 A 
ATOM     38  N   UNL A   1      39.273  32.425  32.884  1.00  0.00    -0.248 NA
ATOM     39  C   UNL A   1      37.577  34.027  32.901  1.00  0.00     0.031 C 
ATOM     40  C   UNL A   1      37.560  30.690  29.131  1.00  0.00     0.029 A 
ATOM     41  N   UNL A   1      39.151  30.477  30.686  1.00  0.00    -0.354 N 
ATOM     42  C   UNL A   1      39.463  33.287  33.956  1.00  0.00     0.074 A 
ATOM     43  C   UNL A   1      38.432  34.297  33.875  1.00  0.00     0.031 C 
ATOM     44  C   UNL A   1      38.310  29.629  28.796  1.00  0.00     0.029 A 
ATOM     45  C   UNL A   1      39.379  29.473  29.776  1.00  0.00     0.049 A 
ATOM     46  H   UNL A   1      39.710  30.619  31.483  1.00  0.00     0.167 HD
ATOM     47  C   UNL A   1      40.395  33.227  34.937  1.00  0.00     0.037 A 
ATOM     48  C   UNL A   1      40.347  28.538  29.733  1.00  0.00     0.037 A 
ATOM     49  C   UNL A   1      41.405  32.207  35.026  1.00  0.00     0.049 A 
ATOM     50  C   UNL A   1      41.382  28.503  30.825  1.00  0.00     0.074 A 
ATOM     51  C   UNL A   1      42.359  32.024  36.012  1.00  0.00     0.029 A 
ATOM     52  N   UNL A   1      41.597  31.201  34.091  1.00  0.00    -0.354 N 
ATOM     53  N   UNL A   1      41.505  29.282  31.873  1.00  0.00    -0.248 NA
ATOM     54  C   UNL A   1      42.409  27.457  30.730  1.00  0.00     0.031 C 
ATOM     55  C   UNL A   1      43.162  30.940  35.646  1.00  0.00     0.029 A 
ATOM     56  C   UNL A   1      42.671  30.410  34.464  1.00  0.00     0.049 A 
ATOM     57  H   UNL A   1      41.050  31.069  33.283  1.00  0.00     0.167 HD
ATOM     58  C   UNL A   1      42.601  28.802  32.577  1.00  0.00     0.074 A 
ATOM     59  C   UNL A   1      43.097  27.654  31.845  1.00  0.00     0.031 C 
ATOM     60  C   UNL A   1      43.149  29.267  33.727  1.00  0.00     0.037 A 
BRANCH  47  61
ATOM     61  C   UNL A   1      40.360  34.296  35.991  1.00  0.00     0.057 A 
ATOM     62  C   UNL A   1      39.597  34.162  37.159  1.00  0.00     0.134 A 
ATOM     63  C   UNL A   1      41.123  35.462  35.852  1.00  0.00     0.134 A 
ATOM     64  F   UNL A   1      38.832  33.075  37.350  1.00  0.00    -0.206 F 
ATOM     65  C   UNL A   1      39.571  35.159  38.134  1.00  0.00     0.040 A 
ATOM     66  C   UNL A   1      41.130  36.453  36.836  1.00  0.00     0.040 A 
ATOM     67  F   UNL A   1      41.881  35.655  34.762  1.00  0.00    -0.206 F 
ATOM     68  C   UNL A   1      40.345  36.306  37.978  1.00  0.00     0.006 A 
ENDBRANCH  47  61
BRANCH  48  69
ATOM     69  C   UNL A   1      40.378  27.546  28.628  1.00  0.00     0.057 A 
ATOM     70  C   UNL A   1      41.138  27.774  27.474  1.00  0.00     0.134 A 
ATOM     71  C   UNL A   1      39.643  26.356  28.689  1.00  0.00     0.134 A 
ATOM     72  F   UNL A   1      41.850  28.903  27.347  1.00  0.00    -0.206 F 
ATOM     73  C   UNL A   1      41.147  26.867  26.412  1.00  0.00     0.040 A 
ATOM     74  C   UNL A   1      39.665  25.427  27.648  1.00  0.00     0.040 A 
ATOM     75  F   UNL A   1      38.903  26.072  29.771  1.00  0.00    -0.206 F 
ATOM     76  C   UNL A   1      40.411  25.687  26.499  1.00  0.00     0.006 A 
ENDBRANCH  48  69
BRANCH  60  77
ATOM     77  C   UNL A   1      44.321  28.513  34.286  1.00  0.00     0.057 A 
ATOM     78  C   UNL A   1      44.159  27.419  35.145  1.00  0.00     0.134 A 
ATOM     79  C   UNL A   1      45.629  28.863  33.925  1.00  0.00     0.134 A 
ATOM     80  F   UNL A   1      42.934  27.039  35.540  1.00  0.00    -0.206 F 
ATOM     81  C   UNL A   1      45.258  26.717  35.646  1.00  0.00     0.040 A 
ATOM     82  C   UNL A   1      46.732  28.149  34.394  1.00  0.00     0.040 A 
ATOM     83  F   UNL A   1      45.855  29.895  33.097  1.00  0.00    -0.206 F 
ATOM     84  C   UNL A   1      46.548  27.078  35.263  1.00  0.00     0.006 A 
ENDBRANCH  60  77
ENDBRANCH  34  35
ENDBRANCH  26  29
ENDBRANCH  24  25
ENDBRANCH  23  24
ENDBRANCH  22  23
ENDBRANCH   3  22
TORSDOF 15
ENDMDL
MODEL 3
REMARK VINA RESULT:     -11.0      5.004      9.746
REMARK SMILES CN(CC(C)(C)O)C(=O)N[C@H]1CC[C@H](C(=O)NCCCNC(=O)c2ccc(-c3c4nc(c(-c5c(F)cccc5F)c5ccc([nH]5)c(-c5c(F)cccc5F)c5nc(c(-c6c(F)cccc6F)c6ccc3[nH]6)C=C5)C=C4)cc2)C1
REMARK SMILES IDX 15 1 16 2 17 3 14 5 11 6 12 7 78 8 13 9 10 10 8 11 9 12 2 14
REMARK SMILES IDX 1 15 3 16 4 17 5 18 6 19 7 20 18 22 19 23 20 24 21 25 22 26
REMARK SMILES IDX 23 28 24 29 25 30 77 31 26 32 76 33 27 34 28 35 29 36 70 37
REMARK SMILES IDX 30 38 75 39 69 40 71 41 31 42 74 43 68 44 67 45 32 47 58 48
REMARK SMILES IDX 41 49 57 50 42 51 45 52 56 53 72 54 43 55 44 56 55 58 73 59
REMARK SMILES IDX 46 60 33 61 34 62 39 63 35 64 36 65 38 66 40 67 37 68 59 69
REMARK SMILES IDX 60 70 65 71 61 72 62 73 64 74 66 75 63 76 47 77 48 78 53 79
REMARK SMILES IDX 49 80 50 81 52 82 54 83 51 84
REMARK H PARENT 17 4 10 13 7 21 21 27 71 46 45 57
REMARK Flexibility Score: inf
ROOT
ATOM      1  C   UNL A   1      31.582  28.837  24.312  1.00  0.00     0.223 C 
ATOM      2  O   UNL A   1      31.766  28.810  23.094  1.00  0.00    -0.275 OA
ATOM      3  N   UNL A   1      31.790  30.022  24.951  1.00  0.00    -0.356 N 
ATOM      4  H   UNL A   1      31.964  30.777  24.344  1.00  0.00     0.163 HD
ENDROOT
BRANCH   1   5
ATOM      5  C   UNL A   1      31.036  27.620  25.040  1.00  0.00     0.080 C 
ATOM      6  C   UNL A   1      31.873  25.311  25.171  1.00  0.00     0.084 C 
ATOM      7  C   UNL A   1      30.530  25.296  24.433  1.00  0.00     0.026 C 
ATOM      8  C   UNL A   1      32.197  26.760  25.481  1.00  0.00     0.038 C 
ATOM      9  C   UNL A   1      30.071  26.740  24.267  1.00  0.00     0.015 C 
BRANCH   6  10
ATOM     10  N   UNL A   1      31.871  24.473  26.351  1.00  0.00    -0.335 N 
ATOM     11  C   UNL A   1      32.341  23.240  26.619  1.00  0.00     0.317 C 
ATOM     12  O   UNL A   1      32.376  22.947  27.819  1.00  0.00    -0.249 OA
ATOM     13  H   UNL A   1      31.432  24.897  27.124  1.00  0.00     0.165 HD
BRANCH  11  14
ATOM     14  N   UNL A   1      32.825  22.397  25.656  1.00  0.00    -0.325 N 
ATOM     15  C   UNL A   1      31.892  21.351  25.249  1.00  0.00     0.148 C 
BRANCH  14  16
ATOM     16  C   UNL A   1      34.142  22.345  24.999  1.00  0.00     0.155 C 
BRANCH  16  17
ATOM     17  C   UNL A   1      35.438  22.018  25.793  1.00  0.00     0.077 C 
ATOM     18  C   UNL A   1      36.448  21.058  25.163  1.00  0.00     0.043 C 
ATOM     19  C   UNL A   1      36.142  23.363  26.074  1.00  0.00     0.043 C 
BRANCH  17  20
ATOM     20  O   UNL A   1      35.038  21.471  27.059  1.00  0.00    -0.389 OA
ATOM     21  H   UNL A   1      35.827  21.258  27.582  1.00  0.00     0.211 HD
ENDBRANCH  17  20
ENDBRANCH  16  17
ENDBRANCH  14  16
ENDBRANCH  11  14
ENDBRANCH   6  10
ENDBRANCH   1   5
BRANCH   3  22
ATOM     22  C   UNL A   1      31.804  30.381  26.361  1.00  0.00     0.117 C 
BRANCH  22  23
ATOM     23  C   UNL A   1      31.546  31.866  26.549  1.00  0.00     0.042 C 
BRANCH  23  24
ATOM     24  C   UNL A   1      32.686  32.582  27.255  1.00  0.00     0.118 C 
BRANCH  24  25
ATOM     25  N   UNL A   1      32.384  33.978  27.538  1.00  0.00    -0.352 N 
ATOM     26  C   UNL A   1      32.953  34.822  28.464  1.00  0.00     0.251 C 
ATOM     27  H   UNL A   1      31.670  34.376  26.989  1.00  0.00     0.163 HD
ATOM     28  O   UNL A   1      32.455  35.914  28.687  1.00  0.00    -0.269 OA
BRANCH  26  29
ATOM     29  C   UNL A   1      34.153  34.382  29.210  1.00  0.00     0.039 A 
ATOM     30  C   UNL A   1      33.985  33.722  30.428  1.00  0.00     0.014 A 
ATOM     31  C   UNL A   1      35.435  34.593  28.696  1.00  0.00     0.014 A 
ATOM     32  C   UNL A   1      35.102  33.208  31.092  1.00  0.00     0.010 A 
ATOM     33  C   UNL A   1      36.529  33.987  29.299  1.00  0.00     0.010 A 
ATOM     34  C   UNL A   1      36.376  33.297  30.510  1.00  0.00    -0.014 A 
BRANCH  34  35
ATOM     35  C   UNL A   1      37.568  32.688  31.156  1.00  0.00     0.031 A 
ATOM     36  C   UNL A   1      38.225  31.485  30.537  1.00  0.00     0.074 A 
ATOM     37  C   UNL A   1      38.015  33.176  32.330  1.00  0.00     0.049 A 
ATOM     38  N   UNL A   1      39.225  30.767  30.984  1.00  0.00    -0.248 NA
ATOM     39  C   UNL A   1      37.666  31.005  29.263  1.00  0.00     0.031 C 
ATOM     40  C   UNL A   1      37.433  34.306  33.057  1.00  0.00     0.029 A 
ATOM     41  N   UNL A   1      39.060  32.774  33.124  1.00  0.00    -0.354 N 
ATOM     42  C   UNL A   1      39.401  29.748  30.057  1.00  0.00     0.074 A 
ATOM     43  C   UNL A   1      38.368  29.900  29.057  1.00  0.00     0.031 C 
ATOM     44  C   UNL A   1      38.146  34.525  34.173  1.00  0.00     0.029 A 
ATOM     45  C   UNL A   1      39.205  33.525  34.266  1.00  0.00     0.049 A 
ATOM     46  H   UNL A   1      39.650  32.020  32.897  1.00  0.00     0.167 HD
ATOM     47  C   UNL A   1      40.356  28.788  30.024  1.00  0.00     0.037 A 
ATOM     48  C   UNL A   1      40.085  33.414  35.278  1.00  0.00     0.037 A 
ATOM     49  C   UNL A   1      41.396  28.654  31.008  1.00  0.00     0.049 A 
ATOM     50  C   UNL A   1      41.125  32.327  35.228  1.00  0.00     0.074 A 
ATOM     51  C   UNL A   1      42.445  27.751  31.035  1.00  0.00     0.029 A 
ATOM     52  N   UNL A   1      41.515  29.441  32.145  1.00  0.00    -0.354 N 
ATOM     53  N   UNL A   1      41.325  31.415  34.307  1.00  0.00    -0.248 NA
ATOM     54  C   UNL A   1      42.064  32.258  36.356  1.00  0.00     0.031 C 
ATOM     55  C   UNL A   1      43.167  27.957  32.214  1.00  0.00     0.029 A 
ATOM     56  C   UNL A   1      42.605  29.026  32.893  1.00  0.00     0.049 A 
ATOM     57  H   UNL A   1      40.914  30.183  32.384  1.00  0.00     0.167 HD
ATOM     58  C   UNL A   1      42.429  30.685  34.728  1.00  0.00     0.074 A 
ATOM     59  C   UNL A   1      42.865  31.272  35.979  1.00  0.00     0.031 C 
ATOM     60  C   UNL A   1      43.030  29.625  34.133  1.00  0.00     0.037 A 
BRANCH  47  61
ATOM     61  C   UNL A   1      40.317  27.811  28.885  1.00  0.00     0.057 A 
ATOM     62  C   UNL A   1      39.565  26.629  28.947  1.00  0.00     0.134 A 
ATOM     63  C   UNL A   1      41.014  28.068  27.697  1.00  0.00     0.134 A 
ATOM     64  F   UNL A   1      38.884  26.315  30.060  1.00  0.00    -0.206 F 
ATOM     65  C   UNL A   1      39.533  25.726  27.883  1.00  0.00     0.040 A 
ATOM     66  C   UNL A   1      40.963  27.188  26.615  1.00  0.00     0.040 A 
ATOM     67  F   UNL A   1      41.749  29.182  27.566  1.00  0.00    -0.206 F 
ATOM     68  C   UNL A   1      40.227  26.008  26.710  1.00  0.00     0.006 A 
ENDBRANCH  47  61
BRANCH  48  69
ATOM     69  C   UNL A   1      40.036  34.364  36.419  1.00  0.00     0.057 A 
ATOM     70  C   UNL A   1      39.315  34.062  37.580  1.00  0.00     0.134 A 
ATOM     71  C   UNL A   1      40.696  35.597  36.375  1.00  0.00     0.134 A 
ATOM     72  F   UNL A   1      38.646  32.902  37.677  1.00  0.00    -0.206 F 
ATOM     73  C   UNL A   1      39.229  34.962  38.644  1.00  0.00     0.040 A 
ATOM     74  C   UNL A   1      40.644  36.495  37.442  1.00  0.00     0.040 A 
ATOM     75  F   UNL A   1      41.414  35.944  35.296  1.00  0.00    -0.206 F 
ATOM     76  C   UNL A   1      39.899  36.181  38.578  1.00  0.00     0.006 A 
ENDBRANCH  48  69
BRANCH  60  77
ATOM     77  C   UNL A   1      44.245  29.056  34.805  1.00  0.00     0.057 A 
ATOM     78  C   UNL A   1      44.161  28.002  35.726  1.00  0.00     0.134 A 
ATOM     79  C   UNL A   1      45.522  29.542  34.495  1.00  0.00     0.134 A 
ATOM     80  F   UNL A   1      42.968  27.499  36.076  1.00  0.00    -0.206 F 
ATOM     81  C   UNL A   1      45.301  27.472  36.333  1.00  0.00     0.040 A 
ATOM     82  C   UNL A   1      46.671  28.998  35.072  1.00  0.00     0.040 A 
ATOM     83  F   UNL A   1      45.676  30.542  33.614  1.00  0.00    -0.206 F 
ATOM     84  C   UNL A   1      46.561  27.965  35.999  1.00  0.00     0.006 A 
ENDBRANCH  60  77
ENDBRANCH  34  35
ENDBRANCH  26  29
ENDBRANCH  24  25
ENDBRANCH  23  24
ENDBRANCH  22  23
ENDBRANCH   3  22
TORSDOF 15
ENDMDL
