MODEL 1
REMARK VINA RESULT:     -12.6      0.000      0.000
REMARK SMILES C[NH2+][C@@]1(C(=O)NCCCNC(=O)c2ccc(-c3c4nc(c(-c5c(F)cccc5F)c5ccc([nH]5)c(-c5c(F)cccc5F)c5nc(c(-c6c(F)cccc6F)c6ccc3[nH]6)C=C5)C=C4)cc2)CC[C@H]([NH+]2CC[NH+](C)CC2)C1
REMARK SMILES IDX 8 1 7 2 6 3 4 4 5 5 3 7 67 8 77 9 68 10 69 11 2 12 1 13
REMARK SMILES IDX 70 16 71 17 76 18 72 20 75 21 73 22 74 23 9 25 10 26 11 27
REMARK SMILES IDX 12 29 13 30 14 31 66 32 15 33 65 34 16 35 17 36 18 37 59 38
REMARK SMILES IDX 19 39 64 40 58 41 60 42 20 43 63 44 57 45 56 46 21 48 47 49
REMARK SMILES IDX 30 50 46 51 31 52 34 53 45 54 61 55 32 56 33 57 44 59 62 60
REMARK SMILES IDX 35 61 22 62 23 63 28 64 24 65 25 66 27 67 29 68 26 69 48 70
REMARK SMILES IDX 49 71 54 72 50 73 51 74 53 75 55 76 52 77 36 78 37 79 42 80
REMARK SMILES IDX 38 81 39 82 41 83 43 84 40 85
REMARK H PARENT 6 6 2 14 2 15 70 19 73 24 10 28 60 47 34 58
REMARK Flexibility Score: inf
ROOT
ATOM      1  C   UNL A   1      37.857  19.620  25.024  1.00  0.00     0.042 C 
ENDROOT
BRANCH   1   2
ATOM      2  C   UNL A   1      35.793  20.082  25.055  1.00  0.00     0.118 C 
BRANCH   2   3
ATOM      3  N   UNL A   1      34.883  20.980  26.030  1.00  0.00    -0.351 N 
ATOM      4  C   UNL A   1      33.617  21.449  26.144  1.00  0.00     0.281 C 
ATOM      5  O   UNL A   1      33.441  22.203  27.116  1.00  0.00    -0.268 OA
ATOM      6  H   UNL A   1      35.423  21.290  26.792  1.00  0.00     0.163 HD
BRANCH   4   7
ATOM      7  C   UNL A   1      32.417  21.073  25.226  1.00  0.00     0.181 C 
ATOM      8  C   UNL A   1      32.856  21.327  23.779  1.00  0.00     0.085 C 
ATOM      9  C   UNL A   1      31.142  21.908  25.401  1.00  0.00     0.144 C 
ATOM     10  C   UNL A   1      32.070  22.554  23.329  1.00  0.00     0.072 C 
ATOM     11  C   UNL A   1      31.380  23.163  24.579  1.00  0.00     0.191 C 
BRANCH   7  12
ATOM     12  N   UNL A   1      32.197  19.597  25.366  1.00  0.00    -0.336 N 
ATOM     13  C   UNL A   1      32.478  18.815  24.169  1.00  0.00     0.331 C 
ATOM     14  H   UNL A   1      32.800  19.257  26.116  1.00  0.00     0.346 HD
ATOM     15  H   UNL A   1      31.202  19.475  25.559  1.00  0.00     0.346 HD
ENDBRANCH   7  12
BRANCH  11  16
ATOM     16  N   UNL A   1      32.027  24.268  25.294  1.00  0.00    -0.323 N 
ATOM     17  C   UNL A   1      30.832  25.428  26.079  1.00  0.00     0.324 C 
ATOM     18  C   UNL A   1      33.696  24.917  24.759  1.00  0.00     0.324 C 
ATOM     19  H   UNL A   1      32.465  23.769  26.068  1.00  0.00     0.348 HD
ATOM     20  C   UNL A   1      31.090  27.357  25.902  1.00  0.00     0.324 C 
ATOM     21  C   UNL A   1      33.965  26.876  24.606  1.00  0.00     0.324 C 
ATOM     22  N   UNL A   1      32.722  28.019  25.367  1.00  0.00    -0.328 N 
ATOM     23  C   UNL A   1      32.573  29.292  24.665  1.00  0.00     0.333 C 
ATOM     24  H   UNL A   1      33.192  28.177  26.258  1.00  0.00     0.348 HD
ENDBRANCH  11  16
ENDBRANCH   4   7
ENDBRANCH   2   3
ENDBRANCH   1   2
BRANCH   1  25
ATOM     25  C   UNL A   1      39.300  20.213  25.644  1.00  0.00     0.118 C 
BRANCH  25  26
ATOM     26  N   UNL A   1      40.326  19.203  25.884  1.00  0.00    -0.352 N 
ATOM     27  C   UNL A   1      41.660  19.305  26.133  1.00  0.00     0.251 C 
ATOM     28  H   UNL A   1      39.991  18.277  25.863  1.00  0.00     0.163 HD
ATOM     29  O   UNL A   1      42.411  18.341  26.036  1.00  0.00    -0.269 OA
BRANCH  27  30
ATOM     30  C   UNL A   1      42.190  20.626  26.477  1.00  0.00     0.039 A 
ATOM     31  C   UNL A   1      42.587  21.478  25.445  1.00  0.00     0.014 A 
ATOM     32  C   UNL A   1      42.233  21.024  27.815  1.00  0.00     0.014 A 
ATOM     33  C   UNL A   1      43.012  22.761  25.760  1.00  0.00     0.010 A 
ATOM     34  C   UNL A   1      42.580  22.327  28.119  1.00  0.00     0.010 A 
ATOM     35  C   UNL A   1      42.996  23.191  27.095  1.00  0.00    -0.014 A 
BRANCH  35  36
ATOM     36  C   UNL A   1      43.489  24.530  27.461  1.00  0.00     0.031 A 
ATOM     37  C   UNL A   1      42.499  25.565  27.909  1.00  0.00     0.074 A 
ATOM     38  C   UNL A   1      44.797  24.810  27.333  1.00  0.00     0.049 A 
ATOM     39  N   UNL A   1      42.694  26.822  28.202  1.00  0.00    -0.248 NA
ATOM     40  C   UNL A   1      41.092  25.136  27.998  1.00  0.00     0.031 C 
ATOM     41  C   UNL A   1      45.820  23.877  26.856  1.00  0.00     0.029 A 
ATOM     42  N   UNL A   1      45.488  25.963  27.589  1.00  0.00    -0.354 N 
ATOM     43  C   UNL A   1      41.436  27.337  28.481  1.00  0.00     0.074 A 
ATOM     44  C   UNL A   1      40.478  26.278  28.262  1.00  0.00     0.031 C 
ATOM     45  C   UNL A   1      47.015  24.489  26.881  1.00  0.00     0.029 A 
ATOM     46  C   UNL A   1      46.834  25.860  27.345  1.00  0.00     0.049 A 
ATOM     47  H   UNL A   1      45.060  26.786  27.917  1.00  0.00     0.167 HD
ATOM     48  C   UNL A   1      41.115  28.578  28.912  1.00  0.00     0.037 A 
ATOM     49  C   UNL A   1      47.806  26.780  27.487  1.00  0.00     0.037 A 
ATOM     50  C   UNL A   1      42.093  29.600  29.166  1.00  0.00     0.049 A 
ATOM     51  C   UNL A   1      47.429  28.141  28.002  1.00  0.00     0.074 A 
ATOM     52  C   UNL A   1      41.903  30.875  29.665  1.00  0.00     0.029 A 
ATOM     53  N   UNL A   1      43.456  29.452  28.943  1.00  0.00    -0.354 N 
ATOM     54  N   UNL A   1      46.245  28.603  28.323  1.00  0.00    -0.248 NA
ATOM     55  C   UNL A   1      48.522  29.104  28.182  1.00  0.00     0.031 C 
ATOM     56  C   UNL A   1      43.149  31.510  29.713  1.00  0.00     0.029 A 
ATOM     57  C   UNL A   1      44.118  30.616  29.283  1.00  0.00     0.049 A 
ATOM     58  H   UNL A   1      43.885  28.638  28.594  1.00  0.00     0.167 HD
ATOM     59  C   UNL A   1      46.448  29.903  28.763  1.00  0.00     0.074 A 
ATOM     60  C   UNL A   1      47.877  30.147  28.685  1.00  0.00     0.031 C 
ATOM     61  C   UNL A   1      45.544  30.816  29.193  1.00  0.00     0.037 A 
BRANCH  48  62
ATOM     62  C   UNL A   1      39.662  28.877  29.135  1.00  0.00     0.057 A 
ATOM     63  C   UNL A   1      39.053  28.707  30.387  1.00  0.00     0.134 A 
ATOM     64  C   UNL A   1      38.856  29.335  28.085  1.00  0.00     0.134 A 
ATOM     65  F   UNL A   1      39.763  28.253  31.432  1.00  0.00    -0.206 F 
ATOM     66  C   UNL A   1      37.691  28.946  30.577  1.00  0.00     0.040 A 
ATOM     67  C   UNL A   1      37.498  29.605  28.271  1.00  0.00     0.040 A 
ATOM     68  F   UNL A   1      39.372  29.520  26.861  1.00  0.00    -0.206 F 
ATOM     69  C   UNL A   1      36.911  29.401  29.517  1.00  0.00     0.006 A 
ENDBRANCH  48  62
BRANCH  49  70
ATOM     70  C   UNL A   1      49.214  26.426  27.183  1.00  0.00     0.057 A 
ATOM     71  C   UNL A   1      49.753  26.647  25.911  1.00  0.00     0.134 A 
ATOM     72  C   UNL A   1      50.060  25.877  28.155  1.00  0.00     0.134 A 
ATOM     73  F   UNL A   1      48.990  27.161  24.935  1.00  0.00    -0.206 F 
ATOM     74  C   UNL A   1      51.076  26.320  25.609  1.00  0.00     0.040 A 
ATOM     75  C   UNL A   1      51.392  25.566  27.873  1.00  0.00     0.040 A 
ATOM     76  F   UNL A   1      49.608  25.654  29.397  1.00  0.00    -0.206 F 
ATOM     77  C   UNL A   1      51.901  25.782  26.594  1.00  0.00     0.006 A 
ENDBRANCH  49  70
BRANCH  61  78
ATOM     78  C   UNL A   1      46.079  32.146  29.630  1.00  0.00     0.057 A 
ATOM     79  C   UNL A   1      46.198  33.219  28.739  1.00  0.00     0.134 A 
ATOM     80  C   UNL A   1      46.435  32.365  30.966  1.00  0.00     0.134 A 
ATOM     81  F   UNL A   1      45.884  33.065  27.444  1.00  0.00    -0.206 F 
ATOM     82  C   UNL A   1      46.673  34.461  29.158  1.00  0.00     0.040 A 
ATOM     83  C   UNL A   1      46.886  33.610  31.403  1.00  0.00     0.040 A 
ATOM     84  F   UNL A   1      46.333  31.378  31.869  1.00  0.00    -0.206 F 
ATOM     85  C   UNL A   1      47.010  34.661  30.497  1.00  0.00     0.006 A 
ENDBRANCH  61  78
ENDBRANCH  35  36
ENDBRANCH  27  30
ENDBRANCH  25  26
ENDBRANCH   1  25
TORSDOF 12
ENDMDL
MODEL 2
REMARK VINA RESULT:     -12.5      5.242     10.530
REMARK SMILES C[NH2+][C@@]1(C(=O)NCCCNC(=O)c2ccc(-c3c4nc(c(-c5c(F)cccc5F)c5ccc([nH]5)c(-c5c(F)cccc5F)c5nc(c(-c6c(F)cccc6F)c6ccc3[nH]6)C=C5)C=C4)cc2)CC[C@H]([NH+]2CC[NH+](C)CC2)C1
REMARK SMILES IDX 8 1 7 2 6 3 4 4 5 5 3 7 67 8 77 9 68 10 69 11 2 12 1 13
REMARK SMILES IDX 70 16 71 17 76 18 72 20 75 21 73 22 74 23 9 25 10 26 11 27
REMARK SMILES IDX 12 29 13 30 14 31 66 32 15 33 65 34 16 35 17 36 18 37 59 38
REMARK SMILES IDX 19 39 64 40 58 41 60 42 20 43 63 44 57 45 56 46 21 48 47 49
REMARK SMILES IDX 30 50 46 51 31 52 34 53 45 54 61 55 32 56 33 57 44 59 62 60
REMARK SMILES IDX 35 61 22 62 23 63 28 64 24 65 25 66 27 67 29 68 26 69 48 70
REMARK SMILES IDX 49 71 54 72 50 73 51 74 53 75 55 76 52 77 36 78 37 79 42 80
REMARK SMILES IDX 38 81 39 82 41 83 43 84 40 85
REMARK H PARENT 6 6 2 14 2 15 70 19 73 24 10 28 60 47 34 58
REMARK Flexibility Score: inf
ROOT
ATOM      1  C   UNL A   1      31.377  32.141  26.448  1.00  0.00     0.042 C 
ENDROOT
BRANCH   1   2
ATOM      2  C   UNL A   1      31.161  30.511  25.118  1.00  0.00     0.118 C 
BRANCH   2   3
ATOM      3  N   UNL A   1      32.215  29.600  24.317  1.00  0.00    -0.351 N 
ATOM      4  C   UNL A   1      32.255  28.566  23.442  1.00  0.00     0.281 C 
ATOM      5  O   UNL A   1      33.402  28.173  23.172  1.00  0.00    -0.268 OA
ATOM      6  H   UNL A   1      33.131  29.887  24.534  1.00  0.00     0.163 HD
BRANCH   4   7
ATOM      7  C   UNL A   1      31.026  27.915  22.740  1.00  0.00     0.181 C 
ATOM      8  C   UNL A   1      30.057  27.472  23.842  1.00  0.00     0.085 C 
ATOM      9  C   UNL A   1      31.304  26.644  21.928  1.00  0.00     0.144 C 
ATOM     10  C   UNL A   1      30.129  25.948  23.853  1.00  0.00     0.072 C 
ATOM     11  C   UNL A   1      31.317  25.521  22.950  1.00  0.00     0.191 C 
BRANCH   7  12
ATOM     12  N   UNL A   1      30.340  28.994  21.958  1.00  0.00    -0.336 N 
ATOM     13  C   UNL A   1      28.968  29.271  22.363  1.00  0.00     0.331 C 
ATOM     14  H   UNL A   1      30.881  29.853  22.062  1.00  0.00     0.346 HD
ATOM     15  H   UNL A   1      30.292  28.660  20.995  1.00  0.00     0.346 HD
ENDBRANCH   7  12
BRANCH  11  16
ATOM     16  N   UNL A   1      32.621  25.241  23.559  1.00  0.00    -0.323 N 
ATOM     17  C   UNL A   1      33.590  23.961  22.657  1.00  0.00     0.324 C 
ATOM     18  C   UNL A   1      32.892  25.448  25.398  1.00  0.00     0.324 C 
ATOM     19  H   UNL A   1      33.110  26.119  23.386  1.00  0.00     0.348 HD
ATOM     20  C   UNL A   1      34.485  22.538  23.652  1.00  0.00     0.324 C 
ATOM     21  C   UNL A   1      33.825  24.014  26.401  1.00  0.00     0.324 C 
ATOM     22  N   UNL A   1      34.754  22.714  25.465  1.00  0.00    -0.328 N 
ATOM     23  C   UNL A   1      34.785  21.411  26.125  1.00  0.00     0.333 C 
ATOM     24  H   UNL A   1      35.681  23.136  25.504  1.00  0.00     0.348 HD
ENDBRANCH  11  16
ENDBRANCH   4   7
ENDBRANCH   2   3
ENDBRANCH   1   2
BRANCH   1  25
ATOM     25  C   UNL A   1      32.484  32.731  27.564  1.00  0.00     0.118 C 
BRANCH  25  26
ATOM     26  N   UNL A   1      32.418  34.171  27.791  1.00  0.00    -0.352 N 
ATOM     27  C   UNL A   1      33.068  34.982  28.670  1.00  0.00     0.251 C 
ATOM     28  H   UNL A   1      31.788  34.643  27.199  1.00  0.00     0.163 HD
ATOM     29  O   UNL A   1      32.684  36.123  28.902  1.00  0.00    -0.269 OA
BRANCH  27  30
ATOM     30  C   UNL A   1      34.226  34.432  29.377  1.00  0.00     0.039 A 
ATOM     31  C   UNL A   1      34.018  33.761  30.583  1.00  0.00     0.014 A 
ATOM     32  C   UNL A   1      35.496  34.538  28.806  1.00  0.00     0.014 A 
ATOM     33  C   UNL A   1      35.101  33.166  31.216  1.00  0.00     0.010 A 
ATOM     34  C   UNL A   1      36.557  33.878  29.396  1.00  0.00     0.010 A 
ATOM     35  C   UNL A   1      36.368  33.212  30.616  1.00  0.00    -0.014 A 
BRANCH  35  36
ATOM     36  C   UNL A   1      37.542  32.632  31.291  1.00  0.00     0.031 A 
ATOM     37  C   UNL A   1      38.235  31.464  30.653  1.00  0.00     0.074 A 
ATOM     38  C   UNL A   1      37.929  33.121  32.481  1.00  0.00     0.049 A 
ATOM     39  N   UNL A   1      39.231  30.749  31.102  1.00  0.00    -0.248 NA
ATOM     40  C   UNL A   1      37.709  31.015  29.352  1.00  0.00     0.031 C 
ATOM     41  C   UNL A   1      37.278  34.221  33.196  1.00  0.00     0.029 A 
ATOM     42  N   UNL A   1      38.959  32.751  33.301  1.00  0.00    -0.354 N 
ATOM     43  C   UNL A   1      39.429  29.753  30.156  1.00  0.00     0.074 A 
ATOM     44  C   UNL A   1      38.414  29.915  29.141  1.00  0.00     0.031 C 
ATOM     45  C   UNL A   1      37.946  34.456  34.338  1.00  0.00     0.029 A 
ATOM     46  C   UNL A   1      39.046  33.505  34.444  1.00  0.00     0.049 A 
ATOM     47  H   UNL A   1      39.579  32.017  33.090  1.00  0.00     0.167 HD
ATOM     48  C   UNL A   1      40.394  28.807  30.125  1.00  0.00     0.037 A 
ATOM     49  C   UNL A   1      39.925  33.426  35.460  1.00  0.00     0.037 A 
ATOM     50  C   UNL A   1      41.421  28.696  31.125  1.00  0.00     0.049 A 
ATOM     51  C   UNL A   1      41.011  32.389  35.385  1.00  0.00     0.074 A 
ATOM     52  C   UNL A   1      42.491  27.824  31.172  1.00  0.00     0.029 A 
ATOM     53  N   UNL A   1      41.502  29.500  32.254  1.00  0.00    -0.354 N 
ATOM     54  N   UNL A   1      41.230  31.489  34.456  1.00  0.00    -0.248 NA
ATOM     55  C   UNL A   1      41.974  32.361  36.492  1.00  0.00     0.031 C 
ATOM     56  C   UNL A   1      43.203  28.078  32.350  1.00  0.00     0.029 A 
ATOM     57  C   UNL A   1      42.598  29.136  33.013  1.00  0.00     0.049 A 
ATOM     58  H   UNL A   1      40.872  30.221  32.480  1.00  0.00     0.167 HD
ATOM     59  C   UNL A   1      42.367  30.801  34.853  1.00  0.00     0.074 A 
ATOM     60  C   UNL A   1      42.802  31.403  36.099  1.00  0.00     0.031 C 
ATOM     61  C   UNL A   1      42.999  29.765  34.248  1.00  0.00     0.037 A 
BRANCH  48  62
ATOM     62  C   UNL A   1      40.376  27.840  28.978  1.00  0.00     0.057 A 
ATOM     63  C   UNL A   1      41.130  28.056  27.814  1.00  0.00     0.134 A 
ATOM     64  C   UNL A   1      39.591  26.682  29.030  1.00  0.00     0.134 A 
ATOM     65  F   UNL A   1      41.889  29.155  27.690  1.00  0.00    -0.206 F 
ATOM     66  C   UNL A   1      41.075  27.175  26.733  1.00  0.00     0.040 A 
ATOM     67  C   UNL A   1      39.552  25.778  27.965  1.00  0.00     0.040 A 
ATOM     68  F   UNL A   1      38.845  26.413  30.111  1.00  0.00    -0.206 F 
ATOM     69  C   UNL A   1      40.287  26.029  26.810  1.00  0.00     0.006 A 
ENDBRANCH  48  62
BRANCH  49  70
ATOM     70  C   UNL A   1      39.837  34.379  36.594  1.00  0.00     0.057 A 
ATOM     71  C   UNL A   1      40.438  35.641  36.523  1.00  0.00     0.134 A 
ATOM     72  C   UNL A   1      39.138  34.063  37.766  1.00  0.00     0.134 A 
ATOM     73  F   UNL A   1      41.129  35.997  35.431  1.00  0.00    -0.206 F 
ATOM     74  C   UNL A   1      40.363  36.548  37.581  1.00  0.00     0.040 A 
ATOM     75  C   UNL A   1      39.037  34.969  38.824  1.00  0.00     0.040 A 
ATOM     76  F   UNL A   1      38.529  32.875  37.892  1.00  0.00    -0.206 F 
ATOM     77  C   UNL A   1      39.656  36.214  38.734  1.00  0.00     0.006 A 
ENDBRANCH  49  70
BRANCH  61  78
ATOM     78  C   UNL A   1      44.233  29.242  34.916  1.00  0.00     0.057 A 
ATOM     79  C   UNL A   1      44.176  28.205  35.855  1.00  0.00     0.134 A 
ATOM     80  C   UNL A   1      45.494  29.750  34.580  1.00  0.00     0.134 A 
ATOM     81  F   UNL A   1      42.996  27.687  36.226  1.00  0.00    -0.206 F 
ATOM     82  C   UNL A   1      45.332  27.705  36.455  1.00  0.00     0.040 A 
ATOM     83  C   UNL A   1      46.659  29.240  35.153  1.00  0.00     0.040 A 
ATOM     84  F   UNL A   1      45.613  30.736  33.679  1.00  0.00    -0.206 F 
ATOM     85  C   UNL A   1      46.579  28.218  36.097  1.00  0.00     0.006 A 
ENDBRANCH  61  78
ENDBRANCH  35  36
ENDBRANCH  27  30
ENDBRANCH  25  26
ENDBRANCH   1  25
TORSDOF 12
ENDMDL
MODEL 3
REMARK VINA RESULT:     -12.5      1.689      6.597
REMARK SMILES C[NH2+][C@@]1(C(=O)NCCCNC(=O)c2ccc(-c3c4nc(c(-c5c(F)cccc5F)c5ccc([nH]5)c(-c5c(F)cccc5F)c5nc(c(-c6c(F)cccc6F)c6ccc3[nH]6)C=C5)C=C4)cc2)CC[C@H]([NH+]2CC[NH+](C)CC2)C1
REMARK SMILES IDX 8 1 7 2 6 3 4 4 5 5 3 7 67 8 77 9 68 10 69 11 2 12 1 13
REMARK SMILES IDX 70 16 71 17 76 18 72 20 75 21 73 22 74 23 9 25 10 26 11 27
REMARK SMILES IDX 12 29 13 30 14 31 66 32 15 33 65 34 16 35 17 36 18 37 59 38
REMARK SMILES IDX 19 39 64 40 58 41 60 42 20 43 63 44 57 45 56 46 21 48 47 49
REMARK SMILES IDX 30 50 46 51 31 52 34 53 45 54 61 55 32 56 33 57 44 59 62 60
REMARK SMILES IDX 35 61 22 62 23 63 28 64 24 65 25 66 27 67 29 68 26 69 48 70
REMARK SMILES IDX 49 71 54 72 50 73 51 74 53 75 55 76 52 77 36 78 37 79 42 80
REMARK SMILES IDX 38 81 39 82 41 83 43 84 40 85
REMARK H PARENT 6 6 2 14 2 15 70 19 73 24 10 28 60 47 34 58
REMARK Flexibility Score: inf
ROOT
ATOM      1  C   UNL A   1      39.098  21.054  25.523  1.00  0.00     0.042 C 
ENDROOT
BRANCH   1   2
ATOM      2  C   UNL A   1      37.806  22.712  25.765  1.00  0.00     0.118 C 
BRANCH   2   3
ATOM      3  N   UNL A   1      36.391  22.903  26.503  1.00  0.00    -0.351 N 
ATOM      4  C   UNL A   1      35.076  22.624  26.336  1.00  0.00     0.281 C 
ATOM      5  O   UNL A   1      34.343  23.080  27.229  1.00  0.00    -0.268 OA
ATOM      6  H   UNL A   1      36.524  23.378  27.354  1.00  0.00     0.163 HD
BRANCH   4   7
ATOM      7  C   UNL A   1      34.463  21.760  25.194  1.00  0.00     0.181 C 
ATOM      8  C   UNL A   1      35.048  22.274  23.873  1.00  0.00     0.085 C 
ATOM      9  C   UNL A   1      32.943  21.856  25.013  1.00  0.00     0.144 C 
ATOM     10  C   UNL A   1      33.895  22.984  23.171  1.00  0.00     0.072 C 
ATOM     11  C   UNL A   1      32.725  23.110  24.184  1.00  0.00     0.191 C 
BRANCH   7  12
ATOM     12  N   UNL A   1      34.962  20.360  25.381  1.00  0.00    -0.336 N 
ATOM     13  C   UNL A   1      34.227  19.339  24.645  1.00  0.00     0.331 C 
ATOM     14  H   UNL A   1      35.936  20.328  25.080  1.00  0.00     0.346 HD
ATOM     15  H   UNL A   1      34.837  20.143  26.371  1.00  0.00     0.346 HD
ENDBRANCH   7  12
BRANCH  11  16
ATOM     16  N   UNL A   1      32.566  24.349  24.951  1.00  0.00    -0.323 N 
ATOM     17  C   UNL A   1      30.806  24.819  25.221  1.00  0.00     0.324 C 
ATOM     18  C   UNL A   1      33.859  25.698  24.886  1.00  0.00     0.324 C 
ATOM     19  H   UNL A   1      32.910  24.059  25.865  1.00  0.00     0.348 HD
ATOM     20  C   UNL A   1      30.239  26.668  24.945  1.00  0.00     0.324 C 
ATOM     21  C   UNL A   1      33.280  27.578  24.633  1.00  0.00     0.324 C 
ATOM     22  N   UNL A   1      31.495  28.012  24.868  1.00  0.00    -0.328 N 
ATOM     23  C   UNL A   1      31.035  29.119  24.033  1.00  0.00     0.333 C 
ATOM     24  H   UNL A   1      31.543  28.317  25.840  1.00  0.00     0.348 HD
ENDBRANCH  11  16
ENDBRANCH   4   7
ENDBRANCH   2   3
ENDBRANCH   1   2
BRANCH   1  25
ATOM     25  C   UNL A   1      39.711  19.780  26.428  1.00  0.00     0.118 C 
BRANCH  25  26
ATOM     26  N   UNL A   1      40.963  19.220  25.930  1.00  0.00    -0.352 N 
ATOM     27  C   UNL A   1      42.188  19.776  25.724  1.00  0.00     0.251 C 
ATOM     28  H   UNL A   1      40.912  18.263  25.700  1.00  0.00     0.163 HD
ATOM     29  O   UNL A   1      43.043  19.221  25.044  1.00  0.00    -0.269 OA
BRANCH  27  30
ATOM     30  C   UNL A   1      42.444  21.093  26.308  1.00  0.00     0.039 A 
ATOM     31  C   UNL A   1      42.685  22.170  25.452  1.00  0.00     0.014 A 
ATOM     32  C   UNL A   1      42.386  21.257  27.694  1.00  0.00     0.014 A 
ATOM     33  C   UNL A   1      42.846  23.437  25.995  1.00  0.00     0.010 A 
ATOM     34  C   UNL A   1      42.468  22.530  28.226  1.00  0.00     0.010 A 
ATOM     35  C   UNL A   1      42.725  23.620  27.381  1.00  0.00    -0.014 A 
BRANCH  35  36
ATOM     36  C   UNL A   1      42.941  24.945  27.987  1.00  0.00     0.031 A 
ATOM     37  C   UNL A   1      44.323  25.311  28.443  1.00  0.00     0.074 A 
ATOM     38  C   UNL A   1      41.894  25.768  28.168  1.00  0.00     0.049 A 
ATOM     39  N   UNL A   1      44.728  26.382  29.071  1.00  0.00    -0.248 NA
ATOM     40  C   UNL A   1      45.384  24.319  28.197  1.00  0.00     0.031 C 
ATOM     41  C   UNL A   1      40.509  25.468  27.800  1.00  0.00     0.029 A 
ATOM     42  N   UNL A   1      41.833  27.021  28.713  1.00  0.00    -0.354 N 
ATOM     43  C   UNL A   1      46.079  26.179  29.317  1.00  0.00     0.074 A 
ATOM     44  C   UNL A   1      46.411  24.859  28.831  1.00  0.00     0.031 C 
ATOM     45  C   UNL A   1      39.738  26.525  28.104  1.00  0.00     0.029 A 
ATOM     46  C   UNL A   1      40.570  27.556  28.714  1.00  0.00     0.049 A 
ATOM     47  H   UNL A   1      42.620  27.494  29.068  1.00  0.00     0.167 HD
ATOM     48  C   UNL A   1      46.967  27.032  29.874  1.00  0.00     0.037 A 
ATOM     49  C   UNL A   1      40.144  28.752  29.160  1.00  0.00     0.037 A 
ATOM     50  C   UNL A   1      46.619  28.358  30.308  1.00  0.00     0.049 A 
ATOM     51  C   UNL A   1      41.156  29.698  29.742  1.00  0.00     0.074 A 
ATOM     52  C   UNL A   1      47.440  29.341  30.827  1.00  0.00     0.029 A 
ATOM     53  N   UNL A   1      45.335  28.884  30.262  1.00  0.00    -0.354 N 
ATOM     54  N   UNL A   1      42.445  29.523  29.916  1.00  0.00    -0.248 NA
ATOM     55  C   UNL A   1      40.660  31.008  30.180  1.00  0.00     0.031 C 
ATOM     56  C   UNL A   1      46.644  30.453  31.126  1.00  0.00     0.029 A 
ATOM     57  C   UNL A   1      45.337  30.175  30.755  1.00  0.00     0.049 A 
ATOM     58  H   UNL A   1      44.541  28.407  29.928  1.00  0.00     0.167 HD
ATOM     59  C   UNL A   1      42.920  30.706  30.464  1.00  0.00     0.074 A 
ATOM     60  C   UNL A   1      41.781  31.597  30.575  1.00  0.00     0.031 C 
ATOM     61  C   UNL A   1      44.180  31.031  30.844  1.00  0.00     0.037 A 
BRANCH  48  62
ATOM     62  C   UNL A   1      48.380  26.554  30.030  1.00  0.00     0.057 A 
ATOM     63  C   UNL A   1      48.800  25.835  31.159  1.00  0.00     0.134 A 
ATOM     64  C   UNL A   1      49.339  26.818  29.043  1.00  0.00     0.134 A 
ATOM     65  F   UNL A   1      47.938  25.565  32.152  1.00  0.00    -0.206 F 
ATOM     66  C   UNL A   1      50.126  25.431  31.318  1.00  0.00     0.040 A 
ATOM     67  C   UNL A   1      50.662  26.392  29.178  1.00  0.00     0.040 A 
ATOM     68  F   UNL A   1      49.007  27.499  27.937  1.00  0.00    -0.206 F 
ATOM     69  C   UNL A   1      51.060  25.705  30.322  1.00  0.00     0.006 A 
ENDBRANCH  48  62
BRANCH  49  70
ATOM     70  C   UNL A   1      38.715  29.127  29.030  1.00  0.00     0.057 A 
ATOM     71  C   UNL A   1      37.849  29.060  30.128  1.00  0.00     0.134 A 
ATOM     72  C   UNL A   1      38.181  29.578  27.816  1.00  0.00     0.134 A 
ATOM     73  F   UNL A   1      38.299  28.626  31.314  1.00  0.00    -0.206 F 
ATOM     74  C   UNL A   1      36.503  29.410  30.022  1.00  0.00     0.040 A 
ATOM     75  C   UNL A   1      36.841  29.953  27.701  1.00  0.00     0.040 A 
ATOM     76  F   UNL A   1      38.960  29.679  26.730  1.00  0.00    -0.206 F 
ATOM     77  C   UNL A   1      35.996  29.863  28.805  1.00  0.00     0.006 A 
ENDBRANCH  49  70
BRANCH  61  78
ATOM     78  C   UNL A   1      44.387  32.412  31.389  1.00  0.00     0.057 A 
ATOM     79  C   UNL A   1      44.301  32.680  32.760  1.00  0.00     0.134 A 
ATOM     80  C   UNL A   1      44.722  33.470  30.536  1.00  0.00     0.134 A 
ATOM     81  F   UNL A   1      43.972  31.709  33.625  1.00  0.00    -0.206 F 
ATOM     82  C   UNL A   1      44.521  33.963  33.263  1.00  0.00     0.040 A 
ATOM     83  C   UNL A   1      44.970  34.750  31.030  1.00  0.00     0.040 A 
ATOM     84  F   UNL A   1      44.829  33.271  29.213  1.00  0.00    -0.206 F 
ATOM     85  C   UNL A   1      44.865  35.000  32.397  1.00  0.00     0.006 A 
ENDBRANCH  61  78
ENDBRANCH  35  36
ENDBRANCH  27  30
ENDBRANCH  25  26
ENDBRANCH   1  25
TORSDOF 12
ENDMDL
