MODEL 1
REMARK VINA RESULT:     -14.5      0.000      0.000
REMARK SMILES Cc1cccc(N2C(=O)/C(=C/c3ccc(C(=O)NCCCNC(=O)c4ccc(-c5c6nc(c(-c7c(F)cccc7F)c7ccc([nH]7)c(-c7c(F)cccc7F)c7nc(c(-c8c(F)cccc8F)c8ccc5[nH]8)C=C7)C=C6)cc4)cc3)c3ccccc3C2=O)c1
REMARK SMILES IDX 20 1 19 2 18 3 16 4 17 5 15 7 12 8 13 9 80 10 14 11 79 12
REMARK SMILES IDX 11 13 7 14 8 15 87 16 9 17 10 18 86 19 88 20 81 21 85 22
REMARK SMILES IDX 82 23 84 24 83 25 6 26 1 27 2 28 3 29 89 30 4 31 5 32 21 33
REMARK SMILES IDX 22 34 23 35 24 37 25 38 26 39 78 40 27 41 77 42 28 43 29 44
REMARK SMILES IDX 30 45 71 46 31 47 76 48 70 49 72 50 32 51 75 52 69 53 68 54
REMARK SMILES IDX 33 56 59 57 42 58 58 59 43 60 46 61 57 62 73 63 44 64 45 65
REMARK SMILES IDX 56 67 74 68 47 69 34 70 35 71 40 72 36 73 37 74 39 75 41 76
REMARK SMILES IDX 38 77 60 78 61 79 66 80 62 81 63 82 65 83 67 84 64 85 48 86
REMARK SMILES IDX 49 87 54 88 50 89 51 90 53 91 55 92 52 93
REMARK H PARENT 18 6 22 36 72 55 46 66
REMARK Flexibility Score: inf
ROOT
ATOM      1  C   UNL A   1      35.108  31.830  29.557  1.00  0.00     0.042 C 
ENDROOT
BRANCH   1   2
ATOM      2  C   UNL A   1      34.771  31.404  28.132  1.00  0.00     0.118 C 
BRANCH   2   3
ATOM      3  N   UNL A   1      33.489  31.932  27.672  1.00  0.00    -0.352 N 
ATOM      4  C   UNL A   1      32.444  31.327  27.010  1.00  0.00     0.251 C 
ATOM      5  O   UNL A   1      31.519  32.016  26.587  1.00  0.00    -0.269 OA
ATOM      6  H   UNL A   1      33.348  32.886  27.870  1.00  0.00     0.163 HD
BRANCH   4   7
ATOM      7  C   UNL A   1      32.445  29.872  26.737  1.00  0.00     0.039 A 
ATOM      8  C   UNL A   1      32.712  27.109  26.412  1.00  0.00    -0.025 A 
ATOM      9  C   UNL A   1      33.541  27.978  25.697  1.00  0.00     0.009 A 
ATOM     10  C   UNL A   1      31.656  27.630  27.168  1.00  0.00     0.009 A 
ATOM     11  C   UNL A   1      33.412  29.359  25.862  1.00  0.00     0.014 A 
ATOM     12  C   UNL A   1      31.510  29.009  27.312  1.00  0.00     0.014 A 
BRANCH   8  13
ATOM     13  C   UNL A   1      32.988  25.669  26.400  1.00  0.00     0.022 C 
ATOM     14  N   UNL A   1      33.951  22.811  24.432  1.00  0.00    -0.242 N 
ATOM     15  C   UNL A   1      33.375  23.437  25.558  1.00  0.00     0.265 C 
ATOM     16  C   UNL A   1      34.096  23.500  23.209  1.00  0.00     0.265 C 
ATOM     17  O   UNL A   1      33.304  22.983  26.699  1.00  0.00    -0.268 OA
ATOM     18  C   UNL A   1      32.888  24.844  25.331  1.00  0.00     0.049 C 
ATOM     19  C   UNL A   1      33.128  24.585  22.927  1.00  0.00     0.048 A 
ATOM     20  O   UNL A   1      34.922  23.295  22.322  1.00  0.00    -0.268 OA
ATOM     21  C   UNL A   1      32.469  25.214  23.977  1.00  0.00    -0.000 A 
ATOM     22  C   UNL A   1      32.858  24.941  21.595  1.00  0.00     0.014 A 
ATOM     23  C   UNL A   1      31.449  26.129  23.675  1.00  0.00     0.010 A 
ATOM     24  C   UNL A   1      31.881  25.891  21.309  1.00  0.00     0.001 A 
ATOM     25  C   UNL A   1      31.160  26.466  22.350  1.00  0.00     0.001 A 
BRANCH  14  26
ATOM     26  C   UNL A   1      34.507  21.464  24.576  1.00  0.00     0.053 A 
ATOM     27  C   UNL A   1      33.290  17.819  24.516  1.00  0.00     0.044 C 
ATOM     28  C   UNL A   1      34.198  19.010  24.611  1.00  0.00    -0.049 A 
ATOM     29  C   UNL A   1      35.559  18.827  24.838  1.00  0.00     0.003 A 
ATOM     30  C   UNL A   1      33.693  20.317  24.461  1.00  0.00     0.030 A 
ATOM     31  C   UNL A   1      36.395  19.932  24.927  1.00  0.00     0.002 A 
ATOM     32  C   UNL A   1      35.873  21.226  24.801  1.00  0.00     0.027 A 
ENDBRANCH  14  26
ENDBRANCH   8  13
ENDBRANCH   4   7
ENDBRANCH   2   3
ENDBRANCH   1   2
BRANCH   1  33
ATOM     33  C   UNL A   1      35.051  33.338  29.756  1.00  0.00     0.118 C 
BRANCH  33  34
ATOM     34  N   UNL A   1      34.047  33.775  30.731  1.00  0.00    -0.352 N 
ATOM     35  C   UNL A   1      34.211  33.968  32.097  1.00  0.00     0.251 C 
ATOM     36  H   UNL A   1      33.147  33.952  30.375  1.00  0.00     0.163 HD
ATOM     37  O   UNL A   1      33.304  34.399  32.788  1.00  0.00    -0.269 OA
BRANCH  35  38
ATOM     38  C   UNL A   1      35.562  33.751  32.663  1.00  0.00     0.039 A 
ATOM     39  C   UNL A   1      36.574  34.631  32.274  1.00  0.00     0.014 A 
ATOM     40  C   UNL A   1      35.861  32.533  33.267  1.00  0.00     0.014 A 
ATOM     41  C   UNL A   1      37.883  34.163  32.229  1.00  0.00     0.010 A 
ATOM     42  C   UNL A   1      37.147  32.040  33.145  1.00  0.00     0.010 A 
ATOM     43  C   UNL A   1      38.138  32.825  32.545  1.00  0.00    -0.014 A 
BRANCH  43  44
ATOM     44  C   UNL A   1      39.350  32.148  32.094  1.00  0.00     0.031 A 
ATOM     45  C   UNL A   1      39.293  31.022  31.145  1.00  0.00     0.074 A 
ATOM     46  C   UNL A   1      40.562  32.498  32.585  1.00  0.00     0.049 A 
ATOM     47  N   UNL A   1      40.040  29.972  31.250  1.00  0.00    -0.248 NA
ATOM     48  C   UNL A   1      38.375  30.983  30.014  1.00  0.00     0.031 C 
ATOM     49  C   UNL A   1      41.864  32.026  32.124  1.00  0.00     0.029 A 
ATOM     50  N   UNL A   1      40.841  33.209  33.753  1.00  0.00    -0.354 N 
ATOM     51  C   UNL A   1      39.903  29.264  30.083  1.00  0.00     0.074 A 
ATOM     52  C   UNL A   1      38.798  29.882  29.382  1.00  0.00     0.031 C 
ATOM     53  C   UNL A   1      42.767  32.219  33.097  1.00  0.00     0.029 A 
ATOM     54  C   UNL A   1      42.065  32.729  34.260  1.00  0.00     0.049 A 
ATOM     55  H   UNL A   1      40.286  33.918  34.151  1.00  0.00     0.167 HD
ATOM     56  C   UNL A   1      40.823  28.325  29.725  1.00  0.00     0.037 A 
ATOM     57  C   UNL A   1      42.184  32.251  35.531  1.00  0.00     0.037 A 
ATOM     58  C   UNL A   1      41.939  28.249  30.659  1.00  0.00     0.049 A 
ATOM     59  C   UNL A   1      42.622  30.809  35.605  1.00  0.00     0.074 A 
ATOM     60  C   UNL A   1      43.198  28.829  30.635  1.00  0.00     0.029 A 
ATOM     61  N   UNL A   1      41.756  27.764  31.949  1.00  0.00    -0.354 N 
ATOM     62  N   UNL A   1      42.620  30.001  34.583  1.00  0.00    -0.248 NA
ATOM     63  C   UNL A   1      43.032  30.143  36.839  1.00  0.00     0.031 C 
ATOM     64  C   UNL A   1      43.769  28.708  31.920  1.00  0.00     0.029 A 
ATOM     65  C   UNL A   1      42.859  28.054  32.732  1.00  0.00     0.049 A 
ATOM     66  H   UNL A   1      40.955  27.283  32.261  1.00  0.00     0.167 HD
ATOM     67  C   UNL A   1      42.945  28.735  34.999  1.00  0.00     0.074 A 
ATOM     68  C   UNL A   1      43.230  28.883  36.412  1.00  0.00     0.031 C 
ATOM     69  C   UNL A   1      42.923  27.677  34.135  1.00  0.00     0.037 A 
BRANCH  56  70
ATOM     70  C   UNL A   1      40.828  27.745  28.338  1.00  0.00     0.057 A 
ATOM     71  C   UNL A   1      40.193  26.530  28.034  1.00  0.00     0.134 A 
ATOM     72  C   UNL A   1      41.513  28.345  27.267  1.00  0.00     0.134 A 
ATOM     73  F   UNL A   1      39.440  25.881  28.931  1.00  0.00    -0.206 F 
ATOM     74  C   UNL A   1      40.323  25.901  26.791  1.00  0.00     0.040 A 
ATOM     75  C   UNL A   1      41.687  27.708  26.032  1.00  0.00     0.040 A 
ATOM     76  F   UNL A   1      42.051  29.569  27.394  1.00  0.00    -0.206 F 
ATOM     77  C   UNL A   1      41.102  26.471  25.796  1.00  0.00     0.006 A 
ENDBRANCH  56  70
BRANCH  57  78
ATOM     78  C   UNL A   1      41.256  32.904  36.486  1.00  0.00     0.057 A 
ATOM     79  C   UNL A   1      41.613  34.156  37.014  1.00  0.00     0.134 A 
ATOM     80  C   UNL A   1      39.912  32.532  36.568  1.00  0.00     0.134 A 
ATOM     81  F   UNL A   1      42.891  34.568  36.967  1.00  0.00    -0.206 F 
ATOM     82  C   UNL A   1      40.657  35.058  37.482  1.00  0.00     0.040 A 
ATOM     83  C   UNL A   1      38.946  33.423  37.047  1.00  0.00     0.040 A 
ATOM     84  F   UNL A   1      39.496  31.358  36.074  1.00  0.00    -0.206 F 
ATOM     85  C   UNL A   1      39.311  34.704  37.463  1.00  0.00     0.006 A 
ENDBRANCH  57  78
BRANCH  69  86
ATOM     86  C   UNL A   1      43.074  26.222  34.501  1.00  0.00     0.057 A 
ATOM     87  C   UNL A   1      42.108  25.472  35.189  1.00  0.00     0.134 A 
ATOM     88  C   UNL A   1      44.188  25.482  34.044  1.00  0.00     0.134 A 
ATOM     89  F   UNL A   1      40.947  26.014  35.579  1.00  0.00    -0.206 F 
ATOM     90  C   UNL A   1      42.269  24.105  35.460  1.00  0.00     0.040 A 
ATOM     91  C   UNL A   1      44.335  24.109  34.264  1.00  0.00     0.040 A 
ATOM     92  F   UNL A   1      45.177  26.058  33.342  1.00  0.00    -0.206 F 
ATOM     93  C   UNL A   1      43.381  23.418  34.991  1.00  0.00     0.006 A 
ENDBRANCH  69  86
ENDBRANCH  43  44
ENDBRANCH  35  38
ENDBRANCH  33  34
ENDBRANCH   1  33
TORSDOF 12
ENDMDL
MODEL 2
REMARK VINA RESULT:     -14.2      2.444      4.179
REMARK SMILES Cc1cccc(N2C(=O)/C(=C/c3ccc(C(=O)NCCCNC(=O)c4ccc(-c5c6nc(c(-c7c(F)cccc7F)c7ccc([nH]7)c(-c7c(F)cccc7F)c7nc(c(-c8c(F)cccc8F)c8ccc5[nH]8)C=C7)C=C6)cc4)cc3)c3ccccc3C2=O)c1
REMARK SMILES IDX 20 1 19 2 18 3 16 4 17 5 15 7 12 8 13 9 80 10 14 11 79 12
REMARK SMILES IDX 11 13 7 14 8 15 87 16 9 17 10 18 86 19 88 20 81 21 85 22
REMARK SMILES IDX 82 23 84 24 83 25 6 26 1 27 2 28 3 29 89 30 4 31 5 32 21 33
REMARK SMILES IDX 22 34 23 35 24 37 25 38 26 39 78 40 27 41 77 42 28 43 29 44
REMARK SMILES IDX 30 45 71 46 31 47 76 48 70 49 72 50 32 51 75 52 69 53 68 54
REMARK SMILES IDX 33 56 59 57 42 58 58 59 43 60 46 61 57 62 73 63 44 64 45 65
REMARK SMILES IDX 56 67 74 68 47 69 34 70 35 71 40 72 36 73 37 74 39 75 41 76
REMARK SMILES IDX 38 77 60 78 61 79 66 80 62 81 63 82 65 83 67 84 64 85 48 86
REMARK SMILES IDX 49 87 54 88 50 89 51 90 53 91 55 92 52 93
REMARK H PARENT 18 6 22 36 72 55 46 66
REMARK Flexibility Score: inf
ROOT
ATOM      1  C   UNL A   1      33.376  30.094  26.111  1.00  0.00     0.042 C 
ENDROOT
BRANCH   1   2
ATOM      2  C   UNL A   1      32.524  29.008  25.462  1.00  0.00     0.118 C 
BRANCH   2   3
ATOM      3  N   UNL A   1      31.437  29.552  24.653  1.00  0.00    -0.352 N 
ATOM      4  C   UNL A   1      30.586  28.947  23.754  1.00  0.00     0.251 C 
ATOM      5  O   UNL A   1      29.839  29.643  23.071  1.00  0.00    -0.269 OA
ATOM      6  H   UNL A   1      31.286  30.517  24.770  1.00  0.00     0.163 HD
BRANCH   4   7
ATOM      7  C   UNL A   1      30.602  27.481  23.545  1.00  0.00     0.039 A 
ATOM      8  C   UNL A   1      30.946  24.725  23.235  1.00  0.00    -0.025 A 
ATOM      9  C   UNL A   1      31.403  25.601  22.245  1.00  0.00     0.009 A 
ATOM     10  C   UNL A   1      30.186  25.224  24.299  1.00  0.00     0.009 A 
ATOM     11  C   UNL A   1      31.235  26.979  22.401  1.00  0.00     0.014 A 
ATOM     12  C   UNL A   1      29.995  26.599  24.440  1.00  0.00     0.014 A 
BRANCH   8  13
ATOM     13  C   UNL A   1      31.309  23.306  23.171  1.00  0.00     0.022 C 
ATOM     14  N   UNL A   1      33.092  20.588  24.720  1.00  0.00    -0.242 N 
ATOM     15  C   UNL A   1      32.459  21.232  23.636  1.00  0.00     0.265 C 
ATOM     16  C   UNL A   1      33.582  21.324  25.820  1.00  0.00     0.265 C 
ATOM     17  O   UNL A   1      31.891  20.693  22.686  1.00  0.00    -0.268 OA
ATOM     18  C   UNL A   1      32.404  22.734  23.724  1.00  0.00     0.049 C 
ATOM     19  C   UNL A   1      33.988  22.726  25.567  1.00  0.00     0.048 A 
ATOM     20  O   UNL A   1      33.740  20.936  26.976  1.00  0.00    -0.268 OA
ATOM     21  C   UNL A   1      33.457  23.415  24.483  1.00  0.00    -0.000 A 
ATOM     22  C   UNL A   1      34.936  23.332  26.408  1.00  0.00     0.014 A 
ATOM     23  C   UNL A   1      33.972  24.684  24.179  1.00  0.00     0.010 A 
ATOM     24  C   UNL A   1      35.400  24.615  26.128  1.00  0.00     0.001 A 
ATOM     25  C   UNL A   1      34.935  25.280  24.998  1.00  0.00     0.001 A 
BRANCH  14  26
ATOM     26  C   UNL A   1      33.137  19.125  24.748  1.00  0.00     0.053 A 
ATOM     27  C   UNL A   1      34.720  16.248  22.751  1.00  0.00     0.044 C 
ATOM     28  C   UNL A   1      33.936  16.986  23.797  1.00  0.00    -0.049 A 
ATOM     29  C   UNL A   1      33.256  16.276  24.782  1.00  0.00     0.003 A 
ATOM     30  C   UNL A   1      33.888  18.394  23.803  1.00  0.00     0.030 A 
ATOM     31  C   UNL A   1      32.532  16.964  25.746  1.00  0.00     0.002 A 
ATOM     32  C   UNL A   1      32.472  18.363  25.724  1.00  0.00     0.027 A 
ENDBRANCH  14  26
ENDBRANCH   8  13
ENDBRANCH   4   7
ENDBRANCH   2   3
ENDBRANCH   1   2
BRANCH   1  33
ATOM     33  C   UNL A   1      33.430  29.979  27.628  1.00  0.00     0.118 C 
BRANCH  33  34
ATOM     34  N   UNL A   1      34.039  31.135  28.293  1.00  0.00    -0.352 N 
ATOM     35  C   UNL A   1      35.339  31.260  28.767  1.00  0.00     0.251 C 
ATOM     36  H   UNL A   1      33.456  31.917  28.421  1.00  0.00     0.163 HD
ATOM     37  O   UNL A   1      35.739  32.307  29.247  1.00  0.00    -0.269 OA
BRANCH  35  38
ATOM     38  C   UNL A   1      36.259  30.119  28.556  1.00  0.00     0.039 A 
ATOM     39  C   UNL A   1      36.575  29.331  29.664  1.00  0.00     0.014 A 
ATOM     40  C   UNL A   1      37.025  30.066  27.395  1.00  0.00     0.014 A 
ATOM     41  C   UNL A   1      37.819  28.710  29.709  1.00  0.00     0.010 A 
ATOM     42  C   UNL A   1      38.293  29.519  27.470  1.00  0.00     0.010 A 
ATOM     43  C   UNL A   1      38.720  28.917  28.660  1.00  0.00    -0.014 A 
BRANCH  43  44
ATOM     44  C   UNL A   1      40.154  28.705  28.827  1.00  0.00     0.031 A 
ATOM     45  C   UNL A   1      40.834  27.544  28.226  1.00  0.00     0.074 A 
ATOM     46  C   UNL A   1      40.891  29.540  29.596  1.00  0.00     0.049 A 
ATOM     47  N   UNL A   1      41.757  26.873  28.835  1.00  0.00    -0.248 NA
ATOM     48  C   UNL A   1      40.513  27.036  26.899  1.00  0.00     0.031 C 
ATOM     49  C   UNL A   1      42.345  29.548  29.734  1.00  0.00     0.029 A 
ATOM     50  N   UNL A   1      40.442  30.428  30.575  1.00  0.00    -0.354 N 
ATOM     51  C   UNL A   1      42.329  26.043  27.904  1.00  0.00     0.074 A 
ATOM     52  C   UNL A   1      41.470  26.115  26.741  1.00  0.00     0.031 C 
ATOM     53  C   UNL A   1      42.670  30.175  30.875  1.00  0.00     0.029 A 
ATOM     54  C   UNL A   1      41.438  30.505  31.567  1.00  0.00     0.049 A 
ATOM     55  H   UNL A   1      39.585  30.912  30.572  1.00  0.00     0.167 HD
ATOM     56  C   UNL A   1      43.554  25.489  28.124  1.00  0.00     0.037 A 
ATOM     57  C   UNL A   1      41.173  30.252  32.880  1.00  0.00     0.037 A 
ATOM     58  C   UNL A   1      44.161  25.945  29.367  1.00  0.00     0.049 A 
ATOM     59  C   UNL A   1      41.963  29.101  33.453  1.00  0.00     0.074 A 
ATOM     60  C   UNL A   1      45.077  26.952  29.628  1.00  0.00     0.029 A 
ATOM     61  N   UNL A   1      43.630  25.572  30.597  1.00  0.00    -0.354 N 
ATOM     62  N   UNL A   1      42.622  28.245  32.725  1.00  0.00    -0.248 NA
ATOM     63  C   UNL A   1      42.021  28.780  34.877  1.00  0.00     0.031 C 
ATOM     64  C   UNL A   1      45.086  27.198  31.017  1.00  0.00     0.029 A 
ATOM     65  C   UNL A   1      44.175  26.343  31.609  1.00  0.00     0.049 A 
ATOM     66  H   UNL A   1      42.961  24.861  30.729  1.00  0.00     0.167 HD
ATOM     67  C   UNL A   1      43.122  27.251  33.527  1.00  0.00     0.074 A 
ATOM     68  C   UNL A   1      42.750  27.650  34.870  1.00  0.00     0.031 C 
ATOM     69  C   UNL A   1      43.777  26.175  32.998  1.00  0.00     0.037 A 
BRANCH  56  70
ATOM     70  C   UNL A   1      44.298  24.806  27.010  1.00  0.00     0.057 A 
ATOM     71  C   UNL A   1      44.358  23.406  26.901  1.00  0.00     0.134 A 
ATOM     72  C   UNL A   1      45.027  25.512  26.039  1.00  0.00     0.134 A 
ATOM     73  F   UNL A   1      43.654  22.602  27.708  1.00  0.00    -0.206 F 
ATOM     74  C   UNL A   1      45.173  22.757  25.967  1.00  0.00     0.040 A 
ATOM     75  C   UNL A   1      45.880  24.878  25.127  1.00  0.00     0.040 A 
ATOM     76  F   UNL A   1      44.947  26.851  25.956  1.00  0.00    -0.206 F 
ATOM     77  C   UNL A   1      45.967  23.492  25.100  1.00  0.00     0.006 A 
ENDBRANCH  56  70
BRANCH  57  78
ATOM     78  C   UNL A   1      39.787  30.605  33.272  1.00  0.00     0.057 A 
ATOM     79  C   UNL A   1      39.470  31.962  33.453  1.00  0.00     0.134 A 
ATOM     80  C   UNL A   1      38.725  29.718  33.079  1.00  0.00     0.134 A 
ATOM     81  F   UNL A   1      40.447  32.862  33.645  1.00  0.00    -0.206 F 
ATOM     82  C   UNL A   1      38.165  32.437  33.317  1.00  0.00     0.040 A 
ATOM     83  C   UNL A   1      37.412  30.182  32.954  1.00  0.00     0.040 A 
ATOM     84  F   UNL A   1      38.952  28.412  32.886  1.00  0.00    -0.206 F 
ATOM     85  C   UNL A   1      37.135  31.548  33.028  1.00  0.00     0.006 A 
ENDBRANCH  57  78
BRANCH  69  86
ATOM     86  C   UNL A   1      44.205  24.936  33.742  1.00  0.00     0.057 A 
ATOM     87  C   UNL A   1      43.344  24.126  34.498  1.00  0.00     0.134 A 
ATOM     88  C   UNL A   1      45.524  24.442  33.609  1.00  0.00     0.134 A 
ATOM     89  F   UNL A   1      42.039  24.407  34.613  1.00  0.00    -0.206 F 
ATOM     90  C   UNL A   1      43.777  22.950  35.129  1.00  0.00     0.040 A 
ATOM     91  C   UNL A   1      45.953  23.245  34.192  1.00  0.00     0.040 A 
ATOM     92  F   UNL A   1      46.450  25.091  32.888  1.00  0.00    -0.206 F 
ATOM     93  C   UNL A   1      45.082  22.502  34.972  1.00  0.00     0.006 A 
ENDBRANCH  69  86
ENDBRANCH  43  44
ENDBRANCH  35  38
ENDBRANCH  33  34
ENDBRANCH   1  33
TORSDOF 12
ENDMDL
MODEL 3
REMARK VINA RESULT:     -14.1      4.596     10.145
REMARK SMILES Cc1cccc(N2C(=O)/C(=C/c3ccc(C(=O)NCCCNC(=O)c4ccc(-c5c6nc(c(-c7c(F)cccc7F)c7ccc([nH]7)c(-c7c(F)cccc7F)c7nc(c(-c8c(F)cccc8F)c8ccc5[nH]8)C=C7)C=C6)cc4)cc3)c3ccccc3C2=O)c1
REMARK SMILES IDX 20 1 19 2 18 3 16 4 17 5 15 7 12 8 13 9 80 10 14 11 79 12
REMARK SMILES IDX 11 13 7 14 8 15 87 16 9 17 10 18 86 19 88 20 81 21 85 22
REMARK SMILES IDX 82 23 84 24 83 25 6 26 1 27 2 28 3 29 89 30 4 31 5 32 21 33
REMARK SMILES IDX 22 34 23 35 24 37 25 38 26 39 78 40 27 41 77 42 28 43 29 44
REMARK SMILES IDX 30 45 71 46 31 47 76 48 70 49 72 50 32 51 75 52 69 53 68 54
REMARK SMILES IDX 33 56 59 57 42 58 58 59 43 60 46 61 57 62 73 63 44 64 45 65
REMARK SMILES IDX 56 67 74 68 47 69 34 70 35 71 40 72 36 73 37 74 39 75 41 76
REMARK SMILES IDX 38 77 60 78 61 79 66 80 62 81 63 82 65 83 67 84 64 85 48 86
REMARK SMILES IDX 49 87 54 88 50 89 51 90 53 91 55 92 52 93
REMARK H PARENT 18 6 22 36 72 55 46 66
REMARK Flexibility Score: inf
ROOT
ATOM      1  C   UNL A   1      41.086  21.304  26.641  1.00  0.00     0.042 C 
ENDROOT
BRANCH   1   2
ATOM      2  C   UNL A   1      39.694  21.785  26.245  1.00  0.00     0.118 C 
BRANCH   2   3
ATOM      3  N   UNL A   1      38.833  20.701  25.778  1.00  0.00    -0.352 N 
ATOM      4  C   UNL A   1      37.588  20.722  25.190  1.00  0.00     0.251 C 
ATOM      5  O   UNL A   1      36.986  19.665  25.018  1.00  0.00    -0.269 OA
ATOM      6  H   UNL A   1      39.209  19.800  25.905  1.00  0.00     0.163 HD
BRANCH   4   7
ATOM      7  C   UNL A   1      36.931  21.997  24.824  1.00  0.00     0.039 A 
ATOM      8  C   UNL A   1      35.426  24.226  24.063  1.00  0.00    -0.025 A 
ATOM      9  C   UNL A   1      35.984  23.395  23.087  1.00  0.00     0.009 A 
ATOM     10  C   UNL A   1      35.752  24.023  25.409  1.00  0.00     0.009 A 
ATOM     11  C   UNL A   1      36.732  22.278  23.466  1.00  0.00     0.014 A 
ATOM     12  C   UNL A   1      36.522  22.923  25.786  1.00  0.00     0.014 A 
BRANCH   8  13
ATOM     13  C   UNL A   1      34.472  25.267  23.670  1.00  0.00     0.022 C 
ATOM     14  N   UNL A   1      31.317  26.863  24.350  1.00  0.00    -0.242 N 
ATOM     15  C   UNL A   1      32.416  26.529  23.531  1.00  0.00     0.265 C 
ATOM     16  C   UNL A   1      30.978  26.077  25.472  1.00  0.00     0.265 C 
ATOM     17  O   UNL A   1      32.876  27.197  22.605  1.00  0.00    -0.268 OA
ATOM     18  C   UNL A   1      33.140  25.265  23.912  1.00  0.00     0.049 C 
ATOM     19  C   UNL A   1      31.345  24.642  25.427  1.00  0.00     0.048 A 
ATOM     20  O   UNL A   1      30.385  26.431  26.489  1.00  0.00    -0.268 OA
ATOM     21  C   UNL A   1      32.378  24.219  24.598  1.00  0.00    -0.000 A 
ATOM     22  C   UNL A   1      30.618  23.719  26.196  1.00  0.00     0.014 A 
ATOM     23  C   UNL A   1      32.603  22.841  24.460  1.00  0.00     0.010 A 
ATOM     24  C   UNL A   1      30.886  22.357  26.092  1.00  0.00     0.001 A 
ATOM     25  C   UNL A   1      31.864  21.918  25.204  1.00  0.00     0.001 A 
BRANCH  14  26
ATOM     26  C   UNL A   1      30.590  28.108  24.091  1.00  0.00     0.053 A 
ATOM     27  C   UNL A   1      27.364  29.256  22.346  1.00  0.00     0.044 C 
ATOM     28  C   UNL A   1      28.650  29.295  23.119  1.00  0.00    -0.049 A 
ATOM     29  C   UNL A   1      29.144  30.512  23.580  1.00  0.00     0.003 A 
ATOM     30  C   UNL A   1      29.362  28.111  23.396  1.00  0.00     0.030 A 
ATOM     31  C   UNL A   1      30.335  30.542  24.293  1.00  0.00     0.002 A 
ATOM     32  C   UNL A   1      31.044  29.359  24.539  1.00  0.00     0.027 A 
ENDBRANCH  14  26
ENDBRANCH   8  13
ENDBRANCH   4   7
ENDBRANCH   2   3
ENDBRANCH   1   2
BRANCH   1  33
ATOM     33  C   UNL A   1      42.200  22.102  25.978  1.00  0.00     0.118 C 
BRANCH  33  34
ATOM     34  N   UNL A   1      43.043  21.315  25.073  1.00  0.00    -0.352 N 
ATOM     35  C   UNL A   1      44.352  21.571  24.686  1.00  0.00     0.251 C 
ATOM     36  H   UNL A   1      42.630  20.506  24.692  1.00  0.00     0.163 HD
ATOM     37  O   UNL A   1      44.964  20.795  23.972  1.00  0.00    -0.269 OA
BRANCH  35  38
ATOM     38  C   UNL A   1      45.021  22.756  25.270  1.00  0.00     0.039 A 
ATOM     39  C   UNL A   1      45.590  22.617  26.537  1.00  0.00     0.014 A 
ATOM     40  C   UNL A   1      44.778  24.014  24.725  1.00  0.00     0.014 A 
ATOM     41  C   UNL A   1      45.649  23.730  27.369  1.00  0.00     0.010 A 
ATOM     42  C   UNL A   1      44.758  25.104  25.577  1.00  0.00     0.010 A 
ATOM     43  C   UNL A   1      45.111  24.941  26.921  1.00  0.00    -0.014 A 
BRANCH  43  44
ATOM     44  C   UNL A   1      44.716  25.995  27.852  1.00  0.00     0.031 A 
ATOM     45  C   UNL A   1      43.322  26.464  27.934  1.00  0.00     0.074 A 
ATOM     46  C   UNL A   1      45.638  26.616  28.623  1.00  0.00     0.049 A 
ATOM     47  N   UNL A   1      43.003  27.709  28.075  1.00  0.00    -0.248 NA
ATOM     48  C   UNL A   1      42.176  25.568  27.845  1.00  0.00     0.031 C 
ATOM     49  C   UNL A   1      45.380  27.569  29.699  1.00  0.00     0.029 A 
ATOM     50  N   UNL A   1      47.021  26.657  28.444  1.00  0.00    -0.354 N 
ATOM     51  C   UNL A   1      41.663  27.750  28.365  1.00  0.00     0.074 A 
ATOM     52  C   UNL A   1      41.174  26.408  28.127  1.00  0.00     0.031 C 
ATOM     53  C   UNL A   1      46.491  28.289  29.918  1.00  0.00     0.029 A 
ATOM     54  C   UNL A   1      47.475  27.901  28.925  1.00  0.00     0.049 A 
ATOM     55  H   UNL A   1      47.580  25.947  28.052  1.00  0.00     0.167 HD
ATOM     56  C   UNL A   1      41.104  28.857  28.929  1.00  0.00     0.037 A 
ATOM     57  C   UNL A   1      48.201  28.756  28.151  1.00  0.00     0.037 A 
ATOM     58  C   UNL A   1      42.089  29.886  29.237  1.00  0.00     0.049 A 
ATOM     59  C   UNL A   1      47.543  30.097  27.937  1.00  0.00     0.074 A 
ATOM     60  C   UNL A   1      42.765  30.191  30.408  1.00  0.00     0.029 A 
ATOM     61  N   UNL A   1      42.739  30.575  28.220  1.00  0.00    -0.354 N 
ATOM     62  N   UNL A   1      46.293  30.340  28.213  1.00  0.00    -0.248 NA
ATOM     63  C   UNL A   1      48.213  31.249  27.337  1.00  0.00     0.031 C 
ATOM     64  C   UNL A   1      43.836  31.054  30.094  1.00  0.00     0.029 A 
ATOM     65  C   UNL A   1      43.817  31.277  28.729  1.00  0.00     0.049 A 
ATOM     66  H   UNL A   1      42.470  30.566  27.272  1.00  0.00     0.167 HD
ATOM     67  C   UNL A   1      45.967  31.602  27.788  1.00  0.00     0.074 A 
ATOM     68  C   UNL A   1      47.211  32.144  27.280  1.00  0.00     0.031 C 
ATOM     69  C   UNL A   1      44.686  32.071  27.875  1.00  0.00     0.037 A 
BRANCH  56  70
ATOM     70  C   UNL A   1      39.711  28.812  29.492  1.00  0.00     0.057 A 
ATOM     71  C   UNL A   1      38.591  29.210  28.744  1.00  0.00     0.134 A 
ATOM     72  C   UNL A   1      39.439  28.424  30.815  1.00  0.00     0.134 A 
ATOM     73  F   UNL A   1      38.683  29.533  27.448  1.00  0.00    -0.206 F 
ATOM     74  C   UNL A   1      37.313  29.323  29.303  1.00  0.00     0.040 A 
ATOM     75  C   UNL A   1      38.175  28.573  31.400  1.00  0.00     0.040 A 
ATOM     76  F   UNL A   1      40.402  27.901  31.591  1.00  0.00    -0.206 F 
ATOM     77  C   UNL A   1      37.107  29.040  30.645  1.00  0.00     0.006 A 
ENDBRANCH  56  70
BRANCH  57  78
ATOM     78  C   UNL A   1      49.046  28.059  27.151  1.00  0.00     0.057 A 
ATOM     79  C   UNL A   1      50.284  27.541  27.568  1.00  0.00     0.134 A 
ATOM     80  C   UNL A   1      48.509  27.560  25.962  1.00  0.00     0.134 A 
ATOM     81  F   UNL A   1      50.852  27.983  28.702  1.00  0.00    -0.206 F 
ATOM     82  C   UNL A   1      50.898  26.478  26.905  1.00  0.00     0.040 A 
ATOM     83  C   UNL A   1      49.122  26.504  25.282  1.00  0.00     0.040 A 
ATOM     84  F   UNL A   1      47.326  27.998  25.509  1.00  0.00    -0.206 F 
ATOM     85  C   UNL A   1      50.295  25.930  25.777  1.00  0.00     0.006 A 
ENDBRANCH  57  78
BRANCH  69  86
ATOM     86  C   UNL A   1      44.163  33.353  27.278  1.00  0.00     0.057 A 
ATOM     87  C   UNL A   1      43.880  33.538  25.916  1.00  0.00     0.134 A 
ATOM     88  C   UNL A   1      43.802  34.435  28.114  1.00  0.00     0.134 A 
ATOM     89  F   UNL A   1      44.060  32.556  25.023  1.00  0.00    -0.206 F 
ATOM     90  C   UNL A   1      43.341  34.732  25.415  1.00  0.00     0.040 A 
ATOM     91  C   UNL A   1      43.217  35.610  27.632  1.00  0.00     0.040 A 
ATOM     92  F   UNL A   1      43.982  34.390  29.443  1.00  0.00    -0.206 F 
ATOM     93  C   UNL A   1      43.001  35.770  26.273  1.00  0.00     0.006 A 
ENDBRANCH  69  86
ENDBRANCH  43  44
ENDBRANCH  35  38
ENDBRANCH  33  34
ENDBRANCH   1  33
TORSDOF 12
ENDMDL
