MODEL 1
REMARK VINA RESULT:     -13.2      0.000      0.000
REMARK SMILES COc1ccc(NC2=[NH+]C(=O)/C(=C\c3ccccc3C(=O)NCCCNC(=O)c3ccc(-c4c5nc(c(-c6c(F)cccc6F)c6ccc([nH]6)c(-c6c(F)cccc6F)c6nc(c(-c7c(F)cccc7F)c7ccc4[nH]7)C=C6)C=C5)cc3)S2)cc1
REMARK SMILES IDX 23 1 22 2 20 3 21 4 19 6 14 7 15 8 16 9 18 10 17 11 13 12
REMARK SMILES IDX 7 13 8 14 9 16 83 17 10 18 12 20 11 21 6 22 3 23 4 24 85 25
REMARK SMILES IDX 5 26 84 27 2 28 1 29 24 30 25 31 26 32 27 33 28 35 29 36
REMARK SMILES IDX 30 37 82 38 31 39 81 40 32 41 33 42 34 43 75 44 35 45 80 46
REMARK SMILES IDX 74 47 76 48 36 49 79 50 73 51 72 52 37 54 63 55 46 56 62 57
REMARK SMILES IDX 47 58 50 59 61 60 77 61 48 62 49 63 60 65 78 66 51 67 38 68
REMARK SMILES IDX 39 69 44 70 40 71 41 72 43 73 45 74 42 75 64 76 65 77 70 78
REMARK SMILES IDX 66 79 67 80 69 81 71 82 68 83 52 84 53 85 58 86 54 87 55 88
REMARK SMILES IDX 57 89 59 90 56 91
REMARK H PARENT 22 5 7 15 9 19 26 34 76 53 50 64
REMARK Flexibility Score: inf
ROOT
ATOM      1  C   UNL A   1      31.815  30.223  26.628  1.00  0.00     0.118 C 
ENDROOT
BRANCH   1   2
ATOM      2  N   UNL A   1      32.667  30.059  25.474  1.00  0.00    -0.352 N 
ATOM      3  C   UNL A   1      32.423  29.325  24.334  1.00  0.00     0.251 C 
ATOM      4  O   UNL A   1      33.330  29.216  23.510  1.00  0.00    -0.269 OA
ATOM      5  H   UNL A   1      33.531  30.530  25.507  1.00  0.00     0.163 HD
BRANCH   3   6
ATOM      6  C   UNL A   1      31.155  28.557  24.150  1.00  0.00     0.047 A 
ATOM      7  C   UNL A   1      30.887  27.234  24.566  1.00  0.00    -0.011 A 
ATOM      8  C   UNL A   1      29.691  26.631  24.115  1.00  0.00     0.009 A 
ATOM      9  C   UNL A   1      28.750  27.331  23.358  1.00  0.00     0.001 A 
ATOM     10  C   UNL A   1      30.167  29.269  23.437  1.00  0.00     0.014 A 
ATOM     11  C   UNL A   1      28.973  28.663  23.047  1.00  0.00     0.001 A 
BRANCH   7  12
ATOM     12  C   UNL A   1      31.733  26.327  25.369  1.00  0.00     0.032 C 
ATOM     13  N   UNL A   1      34.475  22.188  25.145  1.00  0.00    -0.235 N 
ATOM     14  C   UNL A   1      33.967  23.396  24.774  1.00  0.00     0.322 C 
ATOM     15  H   UNL A   1      35.188  22.207  25.825  1.00  0.00     0.313 HD
ATOM     16  N   UNL A   1      33.769  23.897  23.601  1.00  0.00    -0.199 N 
ATOM     17  S   UNL A   1      33.475  24.412  26.122  1.00  0.00     0.006 SA
ATOM     18  C   UNL A   1      33.246  25.173  23.647  1.00  0.00     0.346 C 
ATOM     19  H   UNL A   1      33.969  23.418  22.764  1.00  0.00     0.316 HD
ATOM     20  C   UNL A   1      32.708  25.483  25.001  1.00  0.00     0.110 C 
ATOM     21  O   UNL A   1      33.253  25.977  22.728  1.00  0.00    -0.240 OA
BRANCH  13  22
ATOM     22  C   UNL A   1      34.102  20.915  24.673  1.00  0.00     0.125 A 
ATOM     23  C   UNL A   1      33.381  18.245  24.103  1.00  0.00     0.119 A 
ATOM     24  C   UNL A   1      32.498  19.294  23.840  1.00  0.00     0.051 A 
ATOM     25  C   UNL A   1      34.665  18.540  24.545  1.00  0.00     0.051 A 
ATOM     26  C   UNL A   1      32.862  20.623  24.101  1.00  0.00     0.055 A 
ATOM     27  C   UNL A   1      35.022  19.865  24.821  1.00  0.00     0.055 A 
BRANCH  23  28
ATOM     28  O   UNL A   1      32.885  16.987  23.891  1.00  0.00    -0.497 OA
ATOM     29  C   UNL A   1      33.242  16.004  24.859  1.00  0.00     0.278 C 
ENDBRANCH  23  28
ENDBRANCH  13  22
ENDBRANCH   7  12
ENDBRANCH   3   6
ENDBRANCH   1   2
BRANCH   1  30
ATOM     30  C   UNL A   1      31.208  31.599  26.796  1.00  0.00     0.042 C 
BRANCH  30  31
ATOM     31  C   UNL A   1      32.114  32.768  26.423  1.00  0.00     0.118 C 
BRANCH  31  32
ATOM     32  N   UNL A   1      32.270  33.799  27.448  1.00  0.00    -0.352 N 
ATOM     33  C   UNL A   1      33.290  34.075  28.332  1.00  0.00     0.251 C 
ATOM     34  H   UNL A   1      31.502  34.410  27.519  1.00  0.00     0.163 HD
ATOM     35  O   UNL A   1      33.149  35.003  29.128  1.00  0.00    -0.269 OA
BRANCH  33  36
ATOM     36  C   UNL A   1      34.492  33.213  28.418  1.00  0.00     0.039 A 
ATOM     37  C   UNL A   1      35.746  33.832  28.403  1.00  0.00     0.014 A 
ATOM     38  C   UNL A   1      34.409  31.839  28.632  1.00  0.00     0.014 A 
ATOM     39  C   UNL A   1      36.877  33.117  28.793  1.00  0.00     0.010 A 
ATOM     40  C   UNL A   1      35.503  31.164  29.158  1.00  0.00     0.010 A 
ATOM     41  C   UNL A   1      36.739  31.810  29.283  1.00  0.00    -0.014 A 
BRANCH  41  42
ATOM     42  C   UNL A   1      37.852  31.141  30.002  1.00  0.00     0.031 A 
ATOM     43  C   UNL A   1      38.139  31.476  31.438  1.00  0.00     0.074 A 
ATOM     44  C   UNL A   1      38.660  30.303  29.320  1.00  0.00     0.049 A 
ATOM     45  N   UNL A   1      39.110  31.051  32.204  1.00  0.00    -0.248 NA
ATOM     46  C   UNL A   1      37.240  32.444  32.089  1.00  0.00     0.031 C 
ATOM     47  C   UNL A   1      38.539  29.978  27.894  1.00  0.00     0.029 A 
ATOM     48  N   UNL A   1      39.749  29.574  29.726  1.00  0.00    -0.354 N 
ATOM     49  C   UNL A   1      38.945  31.707  33.417  1.00  0.00     0.074 A 
ATOM     50  C   UNL A   1      37.826  32.608  33.265  1.00  0.00     0.031 C 
ATOM     51  C   UNL A   1      39.484  29.086  27.558  1.00  0.00     0.029 A 
ATOM     52  C   UNL A   1      40.304  28.805  28.729  1.00  0.00     0.049 A 
ATOM     53  H   UNL A   1      40.101  29.599  30.645  1.00  0.00     0.167 HD
ATOM     54  C   UNL A   1      39.642  31.544  34.566  1.00  0.00     0.037 A 
ATOM     55  C   UNL A   1      41.356  27.965  28.759  1.00  0.00     0.037 A 
ATOM     56  C   UNL A   1      40.737  30.623  34.716  1.00  0.00     0.049 A 
ATOM     57  C   UNL A   1      42.085  27.774  30.058  1.00  0.00     0.074 A 
ATOM     58  C   UNL A   1      41.488  30.350  35.844  1.00  0.00     0.029 A 
ATOM     59  N   UNL A   1      41.228  29.816  33.699  1.00  0.00    -0.354 N 
ATOM     60  N   UNL A   1      41.871  28.349  31.216  1.00  0.00    -0.248 NA
ATOM     61  C   UNL A   1      43.195  26.810  30.060  1.00  0.00     0.031 C 
ATOM     62  C   UNL A   1      42.448  29.392  35.506  1.00  0.00     0.029 A 
ATOM     63  C   UNL A   1      42.271  29.043  34.176  1.00  0.00     0.049 A 
ATOM     64  H   UNL A   1      40.885  29.797  32.777  1.00  0.00     0.167 HD
ATOM     65  C   UNL A   1      42.797  27.800  32.091  1.00  0.00     0.074 A 
ATOM     66  C   UNL A   1      43.564  26.831  31.333  1.00  0.00     0.031 C 
ATOM     67  C   UNL A   1      43.001  28.074  33.401  1.00  0.00     0.037 A 
BRANCH  54  68
ATOM     68  C   UNL A   1      39.213  32.355  35.753  1.00  0.00     0.057 A 
ATOM     69  C   UNL A   1      39.692  33.657  35.960  1.00  0.00     0.134 A 
ATOM     70  C   UNL A   1      38.299  31.847  36.683  1.00  0.00     0.134 A 
ATOM     71  F   UNL A   1      40.583  34.195  35.114  1.00  0.00    -0.206 F 
ATOM     72  C   UNL A   1      39.296  34.414  37.063  1.00  0.00     0.040 A 
ATOM     73  C   UNL A   1      37.876  32.605  37.777  1.00  0.00     0.040 A 
ATOM     74  F   UNL A   1      37.801  30.610  36.544  1.00  0.00    -0.206 F 
ATOM     75  C   UNL A   1      38.379  33.891  37.971  1.00  0.00     0.006 A 
ENDBRANCH  54  68
BRANCH  55  76
ATOM     76  C   UNL A   1      41.761  27.218  27.540  1.00  0.00     0.057 A 
ATOM     77  C   UNL A   1      42.597  27.801  26.580  1.00  0.00     0.134 A 
ATOM     78  C   UNL A   1      41.307  25.917  27.291  1.00  0.00     0.134 A 
ATOM     79  F   UNL A   1      43.055  29.049  26.753  1.00  0.00    -0.206 F 
ATOM     80  C   UNL A   1      42.943  27.132  25.404  1.00  0.00     0.040 A 
ATOM     81  C   UNL A   1      41.665  25.225  26.132  1.00  0.00     0.040 A 
ATOM     82  F   UNL A   1      40.513  25.296  28.176  1.00  0.00    -0.206 F 
ATOM     83  C   UNL A   1      42.477  25.838  25.178  1.00  0.00     0.006 A 
ENDBRANCH  55  76
BRANCH  67  84
ATOM     84  C   UNL A   1      44.067  27.286  34.101  1.00  0.00     0.057 A 
ATOM     85  C   UNL A   1      43.796  26.051  34.701  1.00  0.00     0.134 A 
ATOM     86  C   UNL A   1      45.386  27.753  34.137  1.00  0.00     0.134 A 
ATOM     87  F   UNL A   1      42.548  25.559  34.709  1.00  0.00    -0.206 F 
ATOM     88  C   UNL A   1      44.799  25.315  35.332  1.00  0.00     0.040 A 
ATOM     89  C   UNL A   1      46.402  27.015  34.743  1.00  0.00     0.040 A 
ATOM     90  F   UNL A   1      45.709  28.927  33.573  1.00  0.00    -0.206 F 
ATOM     91  C   UNL A   1      46.108  25.794  35.348  1.00  0.00     0.006 A 
ENDBRANCH  67  84
ENDBRANCH  41  42
ENDBRANCH  33  36
ENDBRANCH  31  32
ENDBRANCH  30  31
ENDBRANCH   1  30
TORSDOF 13
ENDMDL
MODEL 2
REMARK VINA RESULT:     -13.0      1.301      2.128
REMARK SMILES COc1ccc(NC2=[NH+]C(=O)/C(=C\c3ccccc3C(=O)NCCCNC(=O)c3ccc(-c4c5nc(c(-c6c(F)cccc6F)c6ccc([nH]6)c(-c6c(F)cccc6F)c6nc(c(-c7c(F)cccc7F)c7ccc4[nH]7)C=C6)C=C5)cc3)S2)cc1
REMARK SMILES IDX 23 1 22 2 20 3 21 4 19 6 14 7 15 8 16 9 18 10 17 11 13 12
REMARK SMILES IDX 7 13 8 14 9 16 83 17 10 18 12 20 11 21 6 22 3 23 4 24 85 25
REMARK SMILES IDX 5 26 84 27 2 28 1 29 24 30 25 31 26 32 27 33 28 35 29 36
REMARK SMILES IDX 30 37 82 38 31 39 81 40 32 41 33 42 34 43 75 44 35 45 80 46
REMARK SMILES IDX 74 47 76 48 36 49 79 50 73 51 72 52 37 54 63 55 46 56 62 57
REMARK SMILES IDX 47 58 50 59 61 60 77 61 48 62 49 63 60 65 78 66 51 67 38 68
REMARK SMILES IDX 39 69 44 70 40 71 41 72 43 73 45 74 42 75 64 76 65 77 70 78
REMARK SMILES IDX 66 79 67 80 69 81 71 82 68 83 52 84 53 85 58 86 54 87 55 88
REMARK SMILES IDX 57 89 59 90 56 91
REMARK H PARENT 22 5 7 15 9 19 26 34 76 53 50 64
REMARK Flexibility Score: inf
ROOT
ATOM      1  C   UNL A   1      31.892  27.964  27.574  1.00  0.00     0.118 C 
ENDROOT
BRANCH   1   2
ATOM      2  N   UNL A   1      31.048  26.910  27.064  1.00  0.00    -0.352 N 
ATOM      3  C   UNL A   1      30.903  26.492  25.759  1.00  0.00     0.251 C 
ATOM      4  O   UNL A   1      30.040  25.651  25.513  1.00  0.00    -0.269 OA
ATOM      5  H   UNL A   1      30.506  26.431  27.733  1.00  0.00     0.163 HD
BRANCH   3   6
ATOM      6  C   UNL A   1      31.659  27.131  24.640  1.00  0.00     0.047 A 
ATOM      7  C   UNL A   1      33.022  26.950  24.315  1.00  0.00    -0.011 A 
ATOM      8  C   UNL A   1      33.584  27.803  23.339  1.00  0.00     0.009 A 
ATOM      9  C   UNL A   1      32.816  28.737  22.642  1.00  0.00     0.001 A 
ATOM     10  C   UNL A   1      30.884  28.036  23.884  1.00  0.00     0.014 A 
ATOM     11  C   UNL A   1      31.456  28.831  22.891  1.00  0.00     0.001 A 
BRANCH   7  12
ATOM     12  C   UNL A   1      34.002  26.022  24.917  1.00  0.00     0.032 C 
ATOM     13  N   UNL A   1      35.668  21.342  24.784  1.00  0.00    -0.235 N 
ATOM     14  C   UNL A   1      35.230  22.547  24.325  1.00  0.00     0.322 C 
ATOM     15  H   UNL A   1      36.610  21.301  25.066  1.00  0.00     0.313 HD
ATOM     16  N   UNL A   1      34.579  22.849  23.252  1.00  0.00    -0.199 N 
ATOM     17  S   UNL A   1      35.587  23.895  25.395  1.00  0.00     0.006 SA
ATOM     18  C   UNL A   1      34.334  24.202  23.138  1.00  0.00     0.346 C 
ATOM     19  H   UNL A   1      34.287  22.184  22.587  1.00  0.00     0.316 HD
ATOM     20  C   UNL A   1      34.551  24.896  24.439  1.00  0.00     0.110 C 
ATOM     21  O   UNL A   1      34.026  24.785  22.111  1.00  0.00    -0.240 OA
BRANCH  13  22
ATOM     22  C   UNL A   1      34.932  20.148  24.903  1.00  0.00     0.125 A 
ATOM     23  C   UNL A   1      33.229  17.895  24.853  1.00  0.00     0.119 A 
ATOM     24  C   UNL A   1      34.590  17.767  24.573  1.00  0.00     0.051 A 
ATOM     25  C   UNL A   1      32.740  19.130  25.267  1.00  0.00     0.051 A 
ATOM     26  C   UNL A   1      35.443  18.879  24.619  1.00  0.00     0.055 A 
ATOM     27  C   UNL A   1      33.588  20.242  25.297  1.00  0.00     0.055 A 
BRANCH  23  28
ATOM     28  O   UNL A   1      32.482  16.760  24.690  1.00  0.00    -0.497 OA
ATOM     29  C   UNL A   1      32.547  15.813  25.753  1.00  0.00     0.278 C 
ENDBRANCH  23  28
ENDBRANCH  13  22
ENDBRANCH   7  12
ENDBRANCH   3   6
ENDBRANCH   1   2
BRANCH   1  30
ATOM     30  C   UNL A   1      31.395  29.372  27.326  1.00  0.00     0.042 C 
BRANCH  30  31
ATOM     31  C   UNL A   1      32.352  30.282  26.563  1.00  0.00     0.118 C 
BRANCH  31  32
ATOM     32  N   UNL A   1      32.475  31.644  27.078  1.00  0.00    -0.352 N 
ATOM     33  C   UNL A   1      33.538  32.335  27.618  1.00  0.00     0.251 C 
ATOM     34  H   UNL A   1      31.641  32.166  27.031  1.00  0.00     0.163 HD
ATOM     35  O   UNL A   1      33.358  33.487  28.011  1.00  0.00    -0.269 OA
BRANCH  33  36
ATOM     36  C   UNL A   1      34.851  31.684  27.836  1.00  0.00     0.039 A 
ATOM     37  C   UNL A   1      35.971  32.505  28.001  1.00  0.00     0.014 A 
ATOM     38  C   UNL A   1      34.982  30.307  28.000  1.00  0.00     0.014 A 
ATOM     39  C   UNL A   1      37.152  31.973  28.515  1.00  0.00     0.010 A 
ATOM     40  C   UNL A   1      36.103  29.801  28.645  1.00  0.00     0.010 A 
ATOM     41  C   UNL A   1      37.183  30.638  28.947  1.00  0.00    -0.014 A 
BRANCH  41  42
ATOM     42  C   UNL A   1      38.298  30.132  29.787  1.00  0.00     0.031 A 
ATOM     43  C   UNL A   1      38.474  30.626  31.194  1.00  0.00     0.074 A 
ATOM     44  C   UNL A   1      39.203  29.298  29.236  1.00  0.00     0.049 A 
ATOM     45  N   UNL A   1      39.427  30.356  32.049  1.00  0.00    -0.248 NA
ATOM     46  C   UNL A   1      37.471  31.580  31.697  1.00  0.00     0.031 C 
ATOM     47  C   UNL A   1      39.190  28.827  27.846  1.00  0.00     0.029 A 
ATOM     48  N   UNL A   1      40.316  28.699  29.769  1.00  0.00    -0.354 N 
ATOM     49  C   UNL A   1      39.143  31.111  33.179  1.00  0.00     0.074 A 
ATOM     50  C   UNL A   1      37.973  31.904  32.879  1.00  0.00     0.031 C 
ATOM     51  C   UNL A   1      40.216  27.983  27.651  1.00  0.00     0.029 A 
ATOM     52  C   UNL A   1      40.983  27.882  28.885  1.00  0.00     0.049 A 
ATOM     53  H   UNL A   1      40.610  28.840  30.698  1.00  0.00     0.167 HD
ATOM     54  C   UNL A   1      39.782  31.116  34.372  1.00  0.00     0.037 A 
ATOM     55  C   UNL A   1      42.090  27.133  29.054  1.00  0.00     0.037 A 
ATOM     56  C   UNL A   1      40.929  30.303  34.670  1.00  0.00     0.049 A 
ATOM     57  C   UNL A   1      42.753  27.127  30.402  1.00  0.00     0.074 A 
ATOM     58  C   UNL A   1      41.631  30.200  35.858  1.00  0.00     0.029 A 
ATOM     59  N   UNL A   1      41.537  29.442  33.768  1.00  0.00    -0.354 N 
ATOM     60  N   UNL A   1      42.430  27.794  31.483  1.00  0.00    -0.248 NA
ATOM     61  C   UNL A   1      43.928  26.258  30.559  1.00  0.00     0.031 C 
ATOM     62  C   UNL A   1      42.677  29.292  35.668  1.00  0.00     0.029 A 
ATOM     63  C   UNL A   1      42.604  28.802  34.374  1.00  0.00     0.049 A 
ATOM     64  H   UNL A   1      41.251  29.306  32.836  1.00  0.00     0.167 HD
ATOM     65  C   UNL A   1      43.341  27.407  32.456  1.00  0.00     0.074 A 
ATOM     66  C   UNL A   1      44.219  26.432  31.840  1.00  0.00     0.031 C 
ATOM     67  C   UNL A   1      43.447  27.822  33.740  1.00  0.00     0.037 A 
BRANCH  54  68
ATOM     68  C   UNL A   1      39.226  32.003  35.447  1.00  0.00     0.057 A 
ATOM     69  C   UNL A   1      39.575  33.359  35.529  1.00  0.00     0.134 A 
ATOM     70  C   UNL A   1      38.319  31.511  36.392  1.00  0.00     0.134 A 
ATOM     71  F   UNL A   1      40.452  33.887  34.663  1.00  0.00    -0.206 F 
ATOM     72  C   UNL A   1      39.061  34.186  36.527  1.00  0.00     0.040 A 
ATOM     73  C   UNL A   1      37.778  32.336  37.381  1.00  0.00     0.040 A 
ATOM     74  F   UNL A   1      37.942  30.224  36.370  1.00  0.00    -0.206 F 
ATOM     75  C   UNL A   1      38.153  33.677  37.452  1.00  0.00     0.006 A 
ENDBRANCH  54  68
BRANCH  55  76
ATOM     76  C   UNL A   1      42.619  26.305  27.940  1.00  0.00     0.057 A 
ATOM     77  C   UNL A   1      42.165  24.997  27.733  1.00  0.00     0.134 A 
ATOM     78  C   UNL A   1      43.604  26.788  27.070  1.00  0.00     0.134 A 
ATOM     79  F   UNL A   1      41.232  24.471  28.541  1.00  0.00    -0.206 F 
ATOM     80  C   UNL A   1      42.691  24.188  26.723  1.00  0.00     0.040 A 
ATOM     81  C   UNL A   1      44.121  26.000  26.039  1.00  0.00     0.040 A 
ATOM     82  F   UNL A   1      44.072  28.037  27.204  1.00  0.00    -0.206 F 
ATOM     83  C   UNL A   1      43.672  24.691  25.871  1.00  0.00     0.006 A 
ENDBRANCH  55  76
BRANCH  67  84
ATOM     84  C   UNL A   1      44.524  27.192  34.570  1.00  0.00     0.057 A 
ATOM     85  C   UNL A   1      45.795  27.766  34.686  1.00  0.00     0.134 A 
ATOM     86  C   UNL A   1      44.269  26.021  35.292  1.00  0.00     0.134 A 
ATOM     87  F   UNL A   1      46.102  28.882  34.007  1.00  0.00    -0.206 F 
ATOM     88  C   UNL A   1      46.784  27.184  35.477  1.00  0.00     0.040 A 
ATOM     89  C   UNL A   1      45.242  25.443  36.106  1.00  0.00     0.040 A 
ATOM     90  F   UNL A   1      43.067  25.428  35.228  1.00  0.00    -0.206 F 
ATOM     91  C   UNL A   1      46.507  26.022  36.196  1.00  0.00     0.006 A 
ENDBRANCH  67  84
ENDBRANCH  41  42
ENDBRANCH  33  36
ENDBRANCH  31  32
ENDBRANCH  30  31
ENDBRANCH   1  30
TORSDOF 13
ENDMDL
MODEL 3
REMARK VINA RESULT:     -12.9      1.683      2.242
REMARK SMILES COc1ccc(NC2=[NH+]C(=O)/C(=C\c3ccccc3C(=O)NCCCNC(=O)c3ccc(-c4c5nc(c(-c6c(F)cccc6F)c6ccc([nH]6)c(-c6c(F)cccc6F)c6nc(c(-c7c(F)cccc7F)c7ccc4[nH]7)C=C6)C=C5)cc3)S2)cc1
REMARK SMILES IDX 23 1 22 2 20 3 21 4 19 6 14 7 15 8 16 9 18 10 17 11 13 12
REMARK SMILES IDX 7 13 8 14 9 16 83 17 10 18 12 20 11 21 6 22 3 23 4 24 85 25
REMARK SMILES IDX 5 26 84 27 2 28 1 29 24 30 25 31 26 32 27 33 28 35 29 36
REMARK SMILES IDX 30 37 82 38 31 39 81 40 32 41 33 42 34 43 75 44 35 45 80 46
REMARK SMILES IDX 74 47 76 48 36 49 79 50 73 51 72 52 37 54 63 55 46 56 62 57
REMARK SMILES IDX 47 58 50 59 61 60 77 61 48 62 49 63 60 65 78 66 51 67 38 68
REMARK SMILES IDX 39 69 44 70 40 71 41 72 43 73 45 74 42 75 64 76 65 77 70 78
REMARK SMILES IDX 66 79 67 80 69 81 71 82 68 83 52 84 53 85 58 86 54 87 55 88
REMARK SMILES IDX 57 89 59 90 56 91
REMARK H PARENT 22 5 7 15 9 19 26 34 76 53 50 64
REMARK Flexibility Score: inf
ROOT
ATOM      1  C   UNL A   1      32.962  29.053  26.702  1.00  0.00     0.118 C 
ENDROOT
BRANCH   1   2
ATOM      2  N   UNL A   1      33.649  28.779  25.462  1.00  0.00    -0.352 N 
ATOM      3  C   UNL A   1      33.209  28.028  24.394  1.00  0.00     0.251 C 
ATOM      4  O   UNL A   1      33.995  27.816  23.472  1.00  0.00    -0.269 OA
ATOM      5  H   UNL A   1      34.544  29.178  25.369  1.00  0.00     0.163 HD
BRANCH   3   6
ATOM      6  C   UNL A   1      31.872  27.361  24.399  1.00  0.00     0.047 A 
ATOM      7  C   UNL A   1      31.551  26.090  24.925  1.00  0.00    -0.011 A 
ATOM      8  C   UNL A   1      30.268  25.568  24.647  1.00  0.00     0.009 A 
ATOM      9  C   UNL A   1      29.304  26.303  23.956  1.00  0.00     0.001 A 
ATOM     10  C   UNL A   1      30.867  28.115  23.756  1.00  0.00     0.014 A 
ATOM     11  C   UNL A   1      29.592  27.592  23.538  1.00  0.00     0.001 A 
BRANCH   7  12
ATOM     12  C   UNL A   1      32.410  25.159  25.686  1.00  0.00     0.032 C 
ATOM     13  N   UNL A   1      34.815  20.818  25.408  1.00  0.00    -0.235 N 
ATOM     14  C   UNL A   1      34.357  22.043  25.025  1.00  0.00     0.322 C 
ATOM     15  H   UNL A   1      35.593  20.815  26.010  1.00  0.00     0.313 HD
ATOM     16  N   UNL A   1      34.073  22.504  23.854  1.00  0.00    -0.199 N 
ATOM     17  S   UNL A   1      34.081  23.154  26.360  1.00  0.00     0.006 SA
ATOM     18  C   UNL A   1      33.649  23.816  23.884  1.00  0.00     0.346 C 
ATOM     19  H   UNL A   1      34.150  21.974  23.027  1.00  0.00     0.316 HD
ATOM     20  C   UNL A   1      33.279  24.228  25.267  1.00  0.00     0.110 C 
ATOM     21  O   UNL A   1      33.617  24.575  22.928  1.00  0.00    -0.240 OA
BRANCH  13  22
ATOM     22  C   UNL A   1      34.305  19.558  25.044  1.00  0.00     0.125 A 
ATOM     23  C   UNL A   1      33.511  16.883  24.604  1.00  0.00     0.119 A 
ATOM     24  C   UNL A   1      32.577  17.853  24.974  1.00  0.00     0.051 A 
ATOM     25  C   UNL A   1      34.820  17.273  24.345  1.00  0.00     0.051 A 
ATOM     26  C   UNL A   1      32.965  19.186  25.171  1.00  0.00     0.055 A 
ATOM     27  C   UNL A   1      35.209  18.600  24.558  1.00  0.00     0.055 A 
BRANCH  23  28
ATOM     28  O   UNL A   1      33.034  15.603  24.526  1.00  0.00    -0.497 OA
ATOM     29  C   UNL A   1      32.368  15.113  25.686  1.00  0.00     0.278 C 
ENDBRANCH  23  28
ENDBRANCH  13  22
ENDBRANCH   7  12
ENDBRANCH   3   6
ENDBRANCH   1   2
BRANCH   1  30
ATOM     30  C   UNL A   1      32.392  30.449  26.834  1.00  0.00     0.042 C 
BRANCH  30  31
ATOM     31  C   UNL A   1      33.388  31.530  27.240  1.00  0.00     0.118 C 
BRANCH  31  32
ATOM     32  N   UNL A   1      32.811  32.835  27.556  1.00  0.00    -0.352 N 
ATOM     33  C   UNL A   1      33.256  33.876  28.342  1.00  0.00     0.251 C 
ATOM     34  H   UNL A   1      31.940  33.001  27.127  1.00  0.00     0.163 HD
ATOM     35  O   UNL A   1      32.544  34.872  28.465  1.00  0.00    -0.269 OA
BRANCH  33  36
ATOM     36  C   UNL A   1      34.511  33.770  29.124  1.00  0.00     0.039 A 
ATOM     37  C   UNL A   1      34.480  33.041  30.317  1.00  0.00     0.014 A 
ATOM     38  C   UNL A   1      35.724  34.266  28.656  1.00  0.00     0.014 A 
ATOM     39  C   UNL A   1      35.673  32.648  30.920  1.00  0.00     0.010 A 
ATOM     40  C   UNL A   1      36.911  33.758  29.168  1.00  0.00     0.010 A 
ATOM     41  C   UNL A   1      36.894  32.909  30.282  1.00  0.00    -0.014 A 
BRANCH  41  42
ATOM     42  C   UNL A   1      38.144  32.234  30.715  1.00  0.00     0.031 A 
ATOM     43  C   UNL A   1      38.999  32.837  31.792  1.00  0.00     0.074 A 
ATOM     44  C   UNL A   1      38.547  31.126  30.060  1.00  0.00     0.049 A 
ATOM     45  N   UNL A   1      40.157  32.432  32.247  1.00  0.00    -0.248 NA
ATOM     46  C   UNL A   1      38.511  34.080  32.413  1.00  0.00     0.031 C 
ATOM     47  C   UNL A   1      37.847  30.503  28.930  1.00  0.00     0.029 A 
ATOM     48  N   UNL A   1      39.645  30.323  30.241  1.00  0.00    -0.354 N 
ATOM     49  C   UNL A   1      40.537  33.373  33.196  1.00  0.00     0.074 A 
ATOM     50  C   UNL A   1      39.525  34.404  33.202  1.00  0.00     0.031 C 
ATOM     51  C   UNL A   1      38.508  29.398  28.550  1.00  0.00     0.029 A 
ATOM     52  C   UNL A   1      39.698  29.253  29.378  1.00  0.00     0.049 A 
ATOM     53  H   UNL A   1      40.332  30.497  30.925  1.00  0.00     0.167 HD
ATOM     54  C   UNL A   1      41.615  33.358  34.013  1.00  0.00     0.037 A 
ATOM     55  C   UNL A   1      40.605  28.264  29.270  1.00  0.00     0.037 A 
ATOM     56  C   UNL A   1      42.602  32.312  34.019  1.00  0.00     0.049 A 
ATOM     57  C   UNL A   1      41.770  28.252  30.218  1.00  0.00     0.074 A 
ATOM     58  C   UNL A   1      43.713  32.177  34.831  1.00  0.00     0.029 A 
ATOM     59  N   UNL A   1      42.586  31.213  33.172  1.00  0.00    -0.354 N 
ATOM     60  N   UNL A   1      42.077  29.111  31.158  1.00  0.00    -0.248 NA
ATOM     61  C   UNL A   1      42.710  27.127  30.099  1.00  0.00     0.031 C 
ATOM     62  C   UNL A   1      44.382  31.006  34.463  1.00  0.00     0.029 A 
ATOM     63  C   UNL A   1      43.667  30.393  33.445  1.00  0.00     0.049 A 
ATOM     64  H   UNL A   1      41.907  31.042  32.481  1.00  0.00     0.167 HD
ATOM     65  C   UNL A   1      43.226  28.621  31.762  1.00  0.00     0.074 A 
ATOM     66  C   UNL A   1      43.552  27.378  31.092  1.00  0.00     0.031 C 
ATOM     67  C   UNL A   1      43.952  29.152  32.774  1.00  0.00     0.037 A 
BRANCH  54  68
ATOM     68  C   UNL A   1      41.756  34.489  34.988  1.00  0.00     0.057 A 
ATOM     69  C   UNL A   1      42.415  35.677  34.639  1.00  0.00     0.134 A 
ATOM     70  C   UNL A   1      41.211  34.407  36.275  1.00  0.00     0.134 A 
ATOM     71  F   UNL A   1      42.973  35.812  33.427  1.00  0.00    -0.206 F 
ATOM     72  C   UNL A   1      42.548  36.731  35.543  1.00  0.00     0.040 A 
ATOM     73  C   UNL A   1      41.316  35.465  37.180  1.00  0.00     0.040 A 
ATOM     74  F   UNL A   1      40.567  33.300  36.673  1.00  0.00    -0.206 F 
ATOM     75  C   UNL A   1      41.991  36.629  36.815  1.00  0.00     0.006 A 
ENDBRANCH  54  68
BRANCH  55  76
ATOM     76  C   UNL A   1      40.435  27.191  28.256  1.00  0.00     0.057 A 
ATOM     77  C   UNL A   1      41.088  27.255  27.019  1.00  0.00     0.134 A 
ATOM     78  C   UNL A   1      39.602  26.089  28.486  1.00  0.00     0.134 A 
ATOM     79  F   UNL A   1      41.888  28.292  26.732  1.00  0.00    -0.206 F 
ATOM     80  C   UNL A   1      40.896  26.282  26.036  1.00  0.00     0.040 A 
ATOM     81  C   UNL A   1      39.421  25.094  27.523  1.00  0.00     0.040 A 
ATOM     82  F   UNL A   1      38.959  25.959  29.655  1.00  0.00    -0.206 F 
ATOM     83  C   UNL A   1      40.060  25.196  26.288  1.00  0.00     0.006 A 
ENDBRANCH  55  76
BRANCH  67  84
ATOM     84  C   UNL A   1      45.141  28.368  33.241  1.00  0.00     0.057 A 
ATOM     85  C   UNL A   1      46.420  28.587  32.717  1.00  0.00     0.134 A 
ATOM     86  C   UNL A   1      45.006  27.413  34.255  1.00  0.00     0.134 A 
ATOM     87  F   UNL A   1      46.608  29.481  31.734  1.00  0.00    -0.206 F 
ATOM     88  C   UNL A   1      47.524  27.867  33.173  1.00  0.00     0.040 A 
ATOM     89  C   UNL A   1      46.106  26.704  34.736  1.00  0.00     0.040 A 
ATOM     90  F   UNL A   1      43.807  27.164  34.802  1.00  0.00    -0.206 F 
ATOM     91  C   UNL A   1      47.369  26.927  34.191  1.00  0.00     0.006 A 
ENDBRANCH  67  84
ENDBRANCH  41  42
ENDBRANCH  33  36
ENDBRANCH  31  32
ENDBRANCH  30  31
ENDBRANCH   1  30
TORSDOF 13
ENDMDL
