MODEL 1
REMARK VINA RESULT:     -13.0      0.000      0.000
REMARK SMILES Cc1ccc(NC(=O)C[C@@H]2C[NH2+]CCO2)c(C(=O)NCCCNC(=O)c2ccc(-c3c4nc(c(-c5c(F)cccc5F)c5ccc([nH]5)c(-c5c(F)cccc5F)c5nc(c(-c6c(F)cccc6F)c6ccc3[nH]6)C=C5)C=C4)cc2)c1
REMARK SMILES IDX 20 1 19 2 17 3 18 4 16 6 1 7 2 8 3 9 80 10 4 11 5 12 6 13
REMARK SMILES IDX 7 14 8 16 9 17 10 18 11 19 15 20 12 21 14 22 13 23 21 26
REMARK SMILES IDX 22 27 23 28 24 29 25 31 26 32 27 33 79 34 28 35 78 36 29 37
REMARK SMILES IDX 30 38 31 39 72 40 32 41 77 42 71 43 73 44 33 45 76 46 70 47
REMARK SMILES IDX 69 48 34 50 60 51 43 52 59 53 44 54 47 55 58 56 74 57 45 58
REMARK SMILES IDX 46 59 57 61 75 62 48 63 35 64 36 65 41 66 37 67 38 68 40 69
REMARK SMILES IDX 42 70 39 71 61 72 62 73 67 74 63 75 64 76 66 77 68 78 65 79
REMARK SMILES IDX 49 80 50 81 55 82 51 83 52 84 54 85 56 86 53 87
REMARK H PARENT 19 5 6 15 12 24 12 25 23 30 73 49 47 60
REMARK Flexibility Score: inf
ROOT
ATOM      1  C   UNL A   1      32.206  29.705  27.269  1.00  0.00     0.118 C 
ENDROOT
BRANCH   1   2
ATOM      2  N   UNL A   1      32.986  28.514  26.953  1.00  0.00    -0.352 N 
ATOM      3  C   UNL A   1      32.769  27.486  26.060  1.00  0.00     0.253 C 
ATOM      4  O   UNL A   1      33.679  26.668  25.921  1.00  0.00    -0.269 OA
ATOM      5  H   UNL A   1      33.817  28.429  27.474  1.00  0.00     0.163 HD
BRANCH   3   6
ATOM      6  C   UNL A   1      31.533  27.382  25.218  1.00  0.00     0.063 A 
ATOM      7  C   UNL A   1      29.666  29.509  22.656  1.00  0.00     0.044 C 
ATOM      8  C   UNL A   1      30.067  28.331  23.493  1.00  0.00    -0.050 A 
ATOM      9  C   UNL A   1      29.353  27.143  23.459  1.00  0.00     0.005 A 
ATOM     10  C   UNL A   1      31.144  28.434  24.377  1.00  0.00     0.019 A 
ATOM     11  C   UNL A   1      29.656  26.121  24.363  1.00  0.00     0.027 A 
ATOM     12  C   UNL A   1      30.671  26.269  25.319  1.00  0.00     0.054 A 
BRANCH  12  13
ATOM     13  N   UNL A   1      30.797  25.388  26.419  1.00  0.00    -0.325 N 
ATOM     14  C   UNL A   1      31.378  24.153  26.529  1.00  0.00     0.227 C 
ATOM     15  H   UNL A   1      30.395  25.722  27.254  1.00  0.00     0.169 HD
ATOM     16  O   UNL A   1      31.288  23.560  27.611  1.00  0.00    -0.275 OA
BRANCH  14  17
ATOM     17  C   UNL A   1      32.105  23.475  25.385  1.00  0.00     0.138 C 
BRANCH  17  18
ATOM     18  C   UNL A   1      32.366  21.965  25.530  1.00  0.00     0.182 C 
ATOM     19  C   UNL A   1      33.846  21.752  25.947  1.00  0.00     0.293 C 
ATOM     20  O   UNL A   1      32.078  21.259  24.318  1.00  0.00    -0.366 OA
ATOM     21  N   UNL A   1      34.260  20.338  25.996  1.00  0.00    -0.342 N 
ATOM     22  C   UNL A   1      32.436  19.878  24.380  1.00  0.00     0.222 C 
ATOM     23  C   UNL A   1      33.924  19.715  24.704  1.00  0.00     0.289 C 
ATOM     24  H   UNL A   1      33.764  19.860  26.749  1.00  0.00     0.346 HD
ATOM     25  H   UNL A   1      35.262  20.270  26.170  1.00  0.00     0.346 HD
ENDBRANCH  17  18
ENDBRANCH  14  17
ENDBRANCH  12  13
ENDBRANCH   3   6
ENDBRANCH   1   2
BRANCH   1  26
ATOM     26  C   UNL A   1      33.096  30.947  27.358  1.00  0.00     0.042 C 
BRANCH  26  27
ATOM     27  C   UNL A   1      34.581  30.643  27.409  1.00  0.00     0.118 C 
BRANCH  27  28
ATOM     28  N   UNL A   1      35.328  31.487  28.335  1.00  0.00    -0.352 N 
ATOM     29  C   UNL A   1      36.497  31.192  29.021  1.00  0.00     0.251 C 
ATOM     30  H   UNL A   1      34.951  32.382  28.497  1.00  0.00     0.163 HD
ATOM     31  O   UNL A   1      37.012  32.016  29.757  1.00  0.00    -0.269 OA
BRANCH  29  32
ATOM     32  C   UNL A   1      37.183  29.913  28.722  1.00  0.00     0.039 A 
ATOM     33  C   UNL A   1      37.312  28.996  29.769  1.00  0.00     0.014 A 
ATOM     34  C   UNL A   1      37.917  29.763  27.549  1.00  0.00     0.014 A 
ATOM     35  C   UNL A   1      38.373  28.098  29.750  1.00  0.00     0.010 A 
ATOM     36  C   UNL A   1      39.034  28.953  27.577  1.00  0.00     0.010 A 
ATOM     37  C   UNL A   1      39.300  28.179  28.712  1.00  0.00    -0.014 A 
BRANCH  37  38
ATOM     38  C   UNL A   1      40.630  27.588  28.795  1.00  0.00     0.031 A 
ATOM     39  C   UNL A   1      40.840  26.176  28.426  1.00  0.00     0.074 A 
ATOM     40  C   UNL A   1      41.677  28.368  29.147  1.00  0.00     0.049 A 
ATOM     41  N   UNL A   1      41.837  25.460  28.821  1.00  0.00    -0.248 NA
ATOM     42  C   UNL A   1      39.890  25.437  27.606  1.00  0.00     0.031 C 
ATOM     43  C   UNL A   1      43.099  28.056  29.027  1.00  0.00     0.029 A 
ATOM     44  N   UNL A   1      41.642  29.549  29.904  1.00  0.00    -0.354 N 
ATOM     45  C   UNL A   1      41.810  24.275  28.120  1.00  0.00     0.074 A 
ATOM     46  C   UNL A   1      40.547  24.289  27.418  1.00  0.00     0.031 C 
ATOM     47  C   UNL A   1      43.782  28.817  29.897  1.00  0.00     0.029 A 
ATOM     48  C   UNL A   1      42.804  29.523  30.707  1.00  0.00     0.049 A 
ATOM     49  H   UNL A   1      40.951  30.250  29.882  1.00  0.00     0.167 HD
ATOM     50  C   UNL A   1      42.916  23.476  28.113  1.00  0.00     0.037 A 
ATOM     51  C   UNL A   1      42.733  29.468  32.069  1.00  0.00     0.037 A 
ATOM     52  C   UNL A   1      43.954  24.010  28.989  1.00  0.00     0.049 A 
ATOM     53  C   UNL A   1      43.434  28.274  32.670  1.00  0.00     0.074 A 
ATOM     54  C   UNL A   1      45.062  24.807  28.748  1.00  0.00     0.029 A 
ATOM     55  N   UNL A   1      43.759  24.012  30.365  1.00  0.00    -0.354 N 
ATOM     56  N   UNL A   1      43.715  27.187  32.005  1.00  0.00    -0.248 NA
ATOM     57  C   UNL A   1      43.844  28.195  34.069  1.00  0.00     0.031 C 
ATOM     58  C   UNL A   1      45.498  25.340  29.985  1.00  0.00     0.029 A 
ATOM     59  C   UNL A   1      44.671  24.849  30.979  1.00  0.00     0.049 A 
ATOM     60  H   UNL A   1      43.068  23.492  30.836  1.00  0.00     0.167 HD
ATOM     61  C   UNL A   1      44.301  26.277  32.847  1.00  0.00     0.074 A 
ATOM     62  C   UNL A   1      44.378  26.961  34.123  1.00  0.00     0.031 C 
ATOM     63  C   UNL A   1      44.660  25.031  32.421  1.00  0.00     0.037 A 
BRANCH  50  64
ATOM     64  C   UNL A   1      43.161  22.397  27.081  1.00  0.00     0.057 A 
ATOM     65  C   UNL A   1      42.421  21.197  27.100  1.00  0.00     0.134 A 
ATOM     66  C   UNL A   1      44.153  22.443  26.088  1.00  0.00     0.134 A 
ATOM     67  F   UNL A   1      41.358  21.035  27.900  1.00  0.00    -0.206 F 
ATOM     68  C   UNL A   1      42.733  20.092  26.297  1.00  0.00     0.040 A 
ATOM     69  C   UNL A   1      44.515  21.327  25.317  1.00  0.00     0.040 A 
ATOM     70  F   UNL A   1      44.779  23.584  25.776  1.00  0.00    -0.206 F 
ATOM     71  C   UNL A   1      43.814  20.137  25.434  1.00  0.00     0.006 A 
ENDBRANCH  50  64
BRANCH  51  72
ATOM     72  C   UNL A   1      41.508  30.099  32.627  1.00  0.00     0.057 A 
ATOM     73  C   UNL A   1      41.464  31.501  32.754  1.00  0.00     0.134 A 
ATOM     74  C   UNL A   1      40.292  29.417  32.694  1.00  0.00     0.134 A 
ATOM     75  F   UNL A   1      42.597  32.219  32.699  1.00  0.00    -0.206 F 
ATOM     76  C   UNL A   1      40.256  32.198  32.826  1.00  0.00     0.040 A 
ATOM     77  C   UNL A   1      39.075  30.106  32.781  1.00  0.00     0.040 A 
ATOM     78  F   UNL A   1      40.248  28.083  32.562  1.00  0.00    -0.206 F 
ATOM     79  C   UNL A   1      39.054  31.500  32.807  1.00  0.00     0.006 A 
ENDBRANCH  51  72
BRANCH  63  80
ATOM     80  C   UNL A   1      45.103  23.888  33.298  1.00  0.00     0.057 A 
ATOM     81  C   UNL A   1      46.383  23.779  33.861  1.00  0.00     0.134 A 
ATOM     82  C   UNL A   1      44.168  22.923  33.738  1.00  0.00     0.134 A 
ATOM     83  F   UNL A   1      47.337  24.686  33.611  1.00  0.00    -0.206 F 
ATOM     84  C   UNL A   1      46.723  22.757  34.758  1.00  0.00     0.040 A 
ATOM     85  C   UNL A   1      44.483  21.932  34.671  1.00  0.00     0.040 A 
ATOM     86  F   UNL A   1      42.902  22.917  33.296  1.00  0.00    -0.206 F 
ATOM     87  C   UNL A   1      45.768  21.838  35.178  1.00  0.00     0.006 A 
ENDBRANCH  63  80
ENDBRANCH  37  38
ENDBRANCH  29  32
ENDBRANCH  27  28
ENDBRANCH  26  27
ENDBRANCH   1  26
TORSDOF 13
ENDMDL
MODEL 2
REMARK VINA RESULT:     -12.7      3.699      9.420
REMARK SMILES Cc1ccc(NC(=O)C[C@@H]2C[NH2+]CCO2)c(C(=O)NCCCNC(=O)c2ccc(-c3c4nc(c(-c5c(F)cccc5F)c5ccc([nH]5)c(-c5c(F)cccc5F)c5nc(c(-c6c(F)cccc6F)c6ccc3[nH]6)C=C5)C=C4)cc2)c1
REMARK SMILES IDX 20 1 19 2 17 3 18 4 16 6 1 7 2 8 3 9 80 10 4 11 5 12 6 13
REMARK SMILES IDX 7 14 8 16 9 17 10 18 11 19 15 20 12 21 14 22 13 23 21 26
REMARK SMILES IDX 22 27 23 28 24 29 25 31 26 32 27 33 79 34 28 35 78 36 29 37
REMARK SMILES IDX 30 38 31 39 72 40 32 41 77 42 71 43 73 44 33 45 76 46 70 47
REMARK SMILES IDX 69 48 34 50 60 51 43 52 59 53 44 54 47 55 58 56 74 57 45 58
REMARK SMILES IDX 46 59 57 61 75 62 48 63 35 64 36 65 41 66 37 67 38 68 40 69
REMARK SMILES IDX 42 70 39 71 61 72 62 73 67 74 63 75 64 76 66 77 68 78 65 79
REMARK SMILES IDX 49 80 50 81 55 82 51 83 52 84 54 85 56 86 53 87
REMARK H PARENT 19 5 6 15 12 24 12 25 23 30 73 49 47 60
REMARK Flexibility Score: inf
ROOT
ATOM      1  C   UNL A   1      37.191  21.327  25.043  1.00  0.00     0.118 C 
ENDROOT
BRANCH   1   2
ATOM      2  N   UNL A   1      36.296  21.602  26.162  1.00  0.00    -0.352 N 
ATOM      3  C   UNL A   1      34.921  21.589  26.261  1.00  0.00     0.253 C 
ATOM      4  O   UNL A   1      34.442  21.744  27.385  1.00  0.00    -0.269 OA
ATOM      5  H   UNL A   1      36.759  21.840  26.998  1.00  0.00     0.163 HD
BRANCH   3   6
ATOM      6  C   UNL A   1      34.019  21.322  25.093  1.00  0.00     0.063 A 
ATOM      7  C   UNL A   1      32.440  18.303  23.372  1.00  0.00     0.044 C 
ATOM      8  C   UNL A   1      32.739  19.726  23.737  1.00  0.00    -0.050 A 
ATOM      9  C   UNL A   1      32.159  20.785  23.055  1.00  0.00     0.005 A 
ATOM     10  C   UNL A   1      33.666  20.011  24.743  1.00  0.00     0.019 A 
ATOM     11  C   UNL A   1      32.576  22.094  23.315  1.00  0.00     0.027 A 
ATOM     12  C   UNL A   1      33.582  22.367  24.252  1.00  0.00     0.054 A 
BRANCH  12  13
ATOM     13  N   UNL A   1      34.222  23.628  24.318  1.00  0.00    -0.325 N 
ATOM     14  C   UNL A   1      33.971  24.732  25.086  1.00  0.00     0.227 C 
ATOM     15  H   UNL A   1      34.983  23.728  23.700  1.00  0.00     0.169 HD
ATOM     16  O   UNL A   1      34.654  25.746  24.892  1.00  0.00    -0.275 OA
BRANCH  14  17
ATOM     17  C   UNL A   1      32.886  24.778  26.143  1.00  0.00     0.138 C 
BRANCH  17  18
ATOM     18  C   UNL A   1      31.685  25.697  25.862  1.00  0.00     0.182 C 
ATOM     19  C   UNL A   1      30.396  24.831  25.811  1.00  0.00     0.293 C 
ATOM     20  O   UNL A   1      31.849  26.426  24.641  1.00  0.00    -0.366 OA
ATOM     21  N   UNL A   1      29.186  25.577  25.422  1.00  0.00    -0.342 N 
ATOM     22  C   UNL A   1      30.693  27.186  24.287  1.00  0.00     0.222 C 
ATOM     23  C   UNL A   1      29.465  26.281  24.157  1.00  0.00     0.289 C 
ATOM     24  H   UNL A   1      28.949  26.253  26.147  1.00  0.00     0.346 HD
ATOM     25  H   UNL A   1      28.401  24.937  25.302  1.00  0.00     0.346 HD
ENDBRANCH  17  18
ENDBRANCH  14  17
ENDBRANCH  12  13
ENDBRANCH   3   6
ENDBRANCH   1   2
BRANCH   1  26
ATOM     26  C   UNL A   1      38.658  21.461  25.457  1.00  0.00     0.042 C 
BRANCH  26  27
ATOM     27  C   UNL A   1      38.978  22.744  26.200  1.00  0.00     0.118 C 
BRANCH  27  28
ATOM     28  N   UNL A   1      40.393  22.908  26.517  1.00  0.00    -0.352 N 
ATOM     29  C   UNL A   1      41.064  24.061  26.897  1.00  0.00     0.251 C 
ATOM     30  H   UNL A   1      40.943  22.095  26.451  1.00  0.00     0.163 HD
ATOM     31  O   UNL A   1      42.257  24.034  27.144  1.00  0.00    -0.269 OA
BRANCH  29  32
ATOM     32  C   UNL A   1      40.270  25.288  27.142  1.00  0.00     0.039 A 
ATOM     33  C   UNL A   1      40.603  26.424  26.400  1.00  0.00     0.014 A 
ATOM     34  C   UNL A   1      39.442  25.383  28.257  1.00  0.00     0.014 A 
ATOM     35  C   UNL A   1      40.337  27.680  26.935  1.00  0.00     0.010 A 
ATOM     36  C   UNL A   1      39.277  26.621  28.843  1.00  0.00     0.010 A 
ATOM     37  C   UNL A   1      39.794  27.760  28.216  1.00  0.00    -0.014 A 
BRANCH  37  38
ATOM     38  C   UNL A   1      39.849  28.974  29.021  1.00  0.00     0.031 A 
ATOM     39  C   UNL A   1      38.802  30.003  28.885  1.00  0.00     0.074 A 
ATOM     40  C   UNL A   1      40.830  29.111  29.941  1.00  0.00     0.049 A 
ATOM     41  N   UNL A   1      38.945  31.239  29.225  1.00  0.00    -0.248 NA
ATOM     42  C   UNL A   1      37.502  29.717  28.292  1.00  0.00     0.031 C 
ATOM     43  C   UNL A   1      40.909  30.096  31.017  1.00  0.00     0.029 A 
ATOM     44  N   UNL A   1      42.091  28.495  29.939  1.00  0.00    -0.354 N 
ATOM     45  C   UNL A   1      37.711  31.844  29.148  1.00  0.00     0.074 A 
ATOM     46  C   UNL A   1      36.858  30.868  28.509  1.00  0.00     0.031 C 
ATOM     47  C   UNL A   1      42.194  30.234  31.381  1.00  0.00     0.029 A 
ATOM     48  C   UNL A   1      42.989  29.461  30.443  1.00  0.00     0.049 A 
ATOM     49  H   UNL A   1      42.304  27.579  29.647  1.00  0.00     0.167 HD
ATOM     50  C   UNL A   1      37.520  33.054  29.749  1.00  0.00     0.037 A 
ATOM     51  C   UNL A   1      44.003  29.963  29.680  1.00  0.00     0.037 A 
ATOM     52  C   UNL A   1      38.768  33.562  30.312  1.00  0.00     0.049 A 
ATOM     53  C   UNL A   1      43.960  31.463  29.518  1.00  0.00     0.074 A 
ATOM     54  C   UNL A   1      39.311  33.503  31.586  1.00  0.00     0.029 A 
ATOM     55  N   UNL A   1      39.794  33.958  29.464  1.00  0.00    -0.354 N 
ATOM     56  N   UNL A   1      42.886  32.182  29.698  1.00  0.00    -0.248 NA
ATOM     57  C   UNL A   1      45.109  32.267  29.107  1.00  0.00     0.031 C 
ATOM     58  C   UNL A   1      40.691  33.807  31.490  1.00  0.00     0.029 A 
ATOM     59  C   UNL A   1      40.980  34.075  30.164  1.00  0.00     0.049 A 
ATOM     60  H   UNL A   1      39.692  34.130  28.499  1.00  0.00     0.167 HD
ATOM     61  C   UNL A   1      43.166  33.496  29.422  1.00  0.00     0.074 A 
ATOM     62  C   UNL A   1      44.574  33.501  29.074  1.00  0.00     0.031 C 
ATOM     63  C   UNL A   1      42.207  34.464  29.489  1.00  0.00     0.037 A 
BRANCH  50  64
ATOM     64  C   UNL A   1      36.156  33.612  30.091  1.00  0.00     0.057 A 
ATOM     65  C   UNL A   1      35.311  34.120  29.083  1.00  0.00     0.134 A 
ATOM     66  C   UNL A   1      35.642  33.742  31.391  1.00  0.00     0.134 A 
ATOM     67  F   UNL A   1      35.589  33.966  27.783  1.00  0.00    -0.206 F 
ATOM     68  C   UNL A   1      34.128  34.820  29.358  1.00  0.00     0.040 A 
ATOM     69  C   UNL A   1      34.491  34.489  31.686  1.00  0.00     0.040 A 
ATOM     70  F   UNL A   1      36.196  33.106  32.430  1.00  0.00    -0.206 F 
ATOM     71  C   UNL A   1      33.737  35.048  30.666  1.00  0.00     0.006 A 
ENDBRANCH  50  64
BRANCH  51  72
ATOM     72  C   UNL A   1      44.499  29.014  28.648  1.00  0.00     0.057 A 
ATOM     73  C   UNL A   1      45.343  27.960  29.045  1.00  0.00     0.134 A 
ATOM     74  C   UNL A   1      43.892  28.905  27.395  1.00  0.00     0.134 A 
ATOM     75  F   UNL A   1      45.958  28.001  30.237  1.00  0.00    -0.206 F 
ATOM     76  C   UNL A   1      45.485  26.799  28.280  1.00  0.00     0.040 A 
ATOM     77  C   UNL A   1      44.039  27.752  26.613  1.00  0.00     0.040 A 
ATOM     78  F   UNL A   1      43.059  29.858  26.953  1.00  0.00    -0.206 F 
ATOM     79  C   UNL A   1      44.805  26.681  27.074  1.00  0.00     0.006 A 
ENDBRANCH  51  72
BRANCH  63  80
ATOM     80  C   UNL A   1      42.345  35.884  29.001  1.00  0.00     0.057 A 
ATOM     81  C   UNL A   1      43.119  36.863  29.639  1.00  0.00     0.134 A 
ATOM     82  C   UNL A   1      41.809  36.261  27.748  1.00  0.00     0.134 A 
ATOM     83  F   UNL A   1      43.769  36.607  30.782  1.00  0.00    -0.206 F 
ATOM     84  C   UNL A   1      43.309  38.141  29.095  1.00  0.00     0.040 A 
ATOM     85  C   UNL A   1      42.035  37.515  27.173  1.00  0.00     0.040 A 
ATOM     86  F   UNL A   1      41.063  35.419  27.019  1.00  0.00    -0.206 F 
ATOM     87  C   UNL A   1      42.778  38.466  27.852  1.00  0.00     0.006 A 
ENDBRANCH  63  80
ENDBRANCH  37  38
ENDBRANCH  29  32
ENDBRANCH  27  28
ENDBRANCH  26  27
ENDBRANCH   1  26
TORSDOF 13
ENDMDL
MODEL 3
REMARK VINA RESULT:     -12.5      2.427      3.984
REMARK SMILES Cc1ccc(NC(=O)C[C@@H]2C[NH2+]CCO2)c(C(=O)NCCCNC(=O)c2ccc(-c3c4nc(c(-c5c(F)cccc5F)c5ccc([nH]5)c(-c5c(F)cccc5F)c5nc(c(-c6c(F)cccc6F)c6ccc3[nH]6)C=C5)C=C4)cc2)c1
REMARK SMILES IDX 20 1 19 2 17 3 18 4 16 6 1 7 2 8 3 9 80 10 4 11 5 12 6 13
REMARK SMILES IDX 7 14 8 16 9 17 10 18 11 19 15 20 12 21 14 22 13 23 21 26
REMARK SMILES IDX 22 27 23 28 24 29 25 31 26 32 27 33 79 34 28 35 78 36 29 37
REMARK SMILES IDX 30 38 31 39 72 40 32 41 77 42 71 43 73 44 33 45 76 46 70 47
REMARK SMILES IDX 69 48 34 50 60 51 43 52 59 53 44 54 47 55 58 56 74 57 45 58
REMARK SMILES IDX 46 59 57 61 75 62 48 63 35 64 36 65 41 66 37 67 38 68 40 69
REMARK SMILES IDX 42 70 39 71 61 72 62 73 67 74 63 75 64 76 66 77 68 78 65 79
REMARK SMILES IDX 49 80 50 81 55 82 51 83 52 84 54 85 56 86 53 87
REMARK H PARENT 19 5 6 15 12 24 12 25 23 30 73 49 47 60
REMARK Flexibility Score: inf
ROOT
ATOM      1  C   UNL A   1      34.109  29.027  26.921  1.00  0.00     0.118 C 
ENDROOT
BRANCH   1   2
ATOM      2  N   UNL A   1      32.877  28.689  27.624  1.00  0.00    -0.352 N 
ATOM      3  C   UNL A   1      31.704  28.107  27.191  1.00  0.00     0.253 C 
ATOM      4  O   UNL A   1      30.870  27.827  28.053  1.00  0.00    -0.269 OA
ATOM      5  H   UNL A   1      32.884  28.920  28.581  1.00  0.00     0.163 HD
BRANCH   3   6
ATOM      6  C   UNL A   1      31.453  27.741  25.759  1.00  0.00     0.063 A 
ATOM      7  C   UNL A   1      30.890  29.536  22.438  1.00  0.00     0.044 C 
ATOM      8  C   UNL A   1      31.143  28.437  23.426  1.00  0.00    -0.050 A 
ATOM      9  C   UNL A   1      31.202  27.108  23.032  1.00  0.00     0.005 A 
ATOM     10  C   UNL A   1      31.263  28.732  24.786  1.00  0.00     0.019 A 
ATOM     11  C   UNL A   1      31.283  26.098  23.994  1.00  0.00     0.027 A 
ATOM     12  C   UNL A   1      31.299  26.395  25.364  1.00  0.00     0.054 A 
BRANCH  12  13
ATOM     13  N   UNL A   1      31.081  25.401  26.348  1.00  0.00    -0.325 N 
ATOM     14  C   UNL A   1      31.870  24.372  26.787  1.00  0.00     0.227 C 
ATOM     15  H   UNL A   1      30.206  25.460  26.796  1.00  0.00     0.169 HD
ATOM     16  O   UNL A   1      31.402  23.595  27.628  1.00  0.00    -0.275 OA
BRANCH  14  17
ATOM     17  C   UNL A   1      33.278  24.132  26.278  1.00  0.00     0.138 C 
BRANCH  17  18
ATOM     18  C   UNL A   1      33.423  23.203  25.060  1.00  0.00     0.182 C 
ATOM     19  C   UNL A   1      34.297  23.916  23.992  1.00  0.00     0.293 C 
ATOM     20  O   UNL A   1      32.150  22.845  24.511  1.00  0.00    -0.366 OA
ATOM     21  N   UNL A   1      34.408  23.181  22.719  1.00  0.00    -0.342 N 
ATOM     22  C   UNL A   1      32.257  22.093  23.302  1.00  0.00     0.222 C 
ATOM     23  C   UNL A   1      33.048  22.871  22.245  1.00  0.00     0.289 C 
ATOM     24  H   UNL A   1      34.928  22.316  22.864  1.00  0.00     0.346 HD
ATOM     25  H   UNL A   1      34.901  23.746  22.028  1.00  0.00     0.346 HD
ENDBRANCH  17  18
ENDBRANCH  14  17
ENDBRANCH  12  13
ENDBRANCH   3   6
ENDBRANCH   1   2
BRANCH   1  26
ATOM     26  C   UNL A   1      35.131  29.668  27.862  1.00  0.00     0.042 C 
BRANCH  26  27
ATOM     27  C   UNL A   1      35.444  31.118  27.542  1.00  0.00     0.118 C 
BRANCH  27  28
ATOM     28  N   UNL A   1      34.443  32.061  28.028  1.00  0.00    -0.352 N 
ATOM     29  C   UNL A   1      34.523  32.924  29.111  1.00  0.00     0.251 C 
ATOM     30  H   UNL A   1      33.599  32.089  27.521  1.00  0.00     0.163 HD
ATOM     31  O   UNL A   1      33.598  33.669  29.384  1.00  0.00    -0.269 OA
BRANCH  29  32
ATOM     32  C   UNL A   1      35.813  33.025  29.834  1.00  0.00     0.039 A 
ATOM     33  C   UNL A   1      36.863  33.679  29.184  1.00  0.00     0.014 A 
ATOM     34  C   UNL A   1      36.049  32.252  30.968  1.00  0.00     0.014 A 
ATOM     35  C   UNL A   1      38.171  33.334  29.501  1.00  0.00     0.010 A 
ATOM     36  C   UNL A   1      37.338  31.824  31.208  1.00  0.00     0.010 A 
ATOM     37  C   UNL A   1      38.388  32.310  30.421  1.00  0.00    -0.014 A 
BRANCH  37  38
ATOM     38  C   UNL A   1      39.658  31.602  30.528  1.00  0.00     0.031 A 
ATOM     39  C   UNL A   1      39.864  30.332  29.808  1.00  0.00     0.074 A 
ATOM     40  C   UNL A   1      40.666  32.159  31.237  1.00  0.00     0.049 A 
ATOM     41  N   UNL A   1      40.749  29.449  30.126  1.00  0.00    -0.248 NA
ATOM     42  C   UNL A   1      39.032  29.933  28.681  1.00  0.00     0.031 C 
ATOM     43  C   UNL A   1      42.073  31.766  31.245  1.00  0.00     0.029 A 
ATOM     44  N   UNL A   1      40.557  33.086  32.285  1.00  0.00    -0.354 N 
ATOM     45  C   UNL A   1      40.786  28.508  29.120  1.00  0.00     0.074 A 
ATOM     46  C   UNL A   1      39.660  28.826  28.273  1.00  0.00     0.031 C 
ATOM     47  C   UNL A   1      42.634  32.196  32.386  1.00  0.00     0.029 A 
ATOM     48  C   UNL A   1      41.566  32.738  33.210  1.00  0.00     0.049 A 
ATOM     49  H   UNL A   1      39.911  33.826  32.361  1.00  0.00     0.167 HD
ATOM     50  C   UNL A   1      41.841  27.646  29.050  1.00  0.00     0.037 A 
ATOM     51  C   UNL A   1      41.267  32.320  34.474  1.00  0.00     0.037 A 
ATOM     52  C   UNL A   1      42.742  27.825  30.186  1.00  0.00     0.049 A 
ATOM     53  C   UNL A   1      41.805  30.949  34.807  1.00  0.00     0.074 A 
ATOM     54  C   UNL A   1      43.909  28.555  30.347  1.00  0.00     0.029 A 
ATOM     55  N   UNL A   1      42.321  27.469  31.460  1.00  0.00    -0.354 N 
ATOM     56  N   UNL A   1      42.144  30.064  33.910  1.00  0.00    -0.248 NA
ATOM     57  C   UNL A   1      41.973  30.454  36.171  1.00  0.00     0.031 C 
ATOM     58  C   UNL A   1      44.155  28.689  31.735  1.00  0.00     0.029 A 
ATOM     59  C   UNL A   1      43.154  28.020  32.415  1.00  0.00     0.049 A 
ATOM     60  H   UNL A   1      41.538  26.904  31.657  1.00  0.00     0.167 HD
ATOM     61  C   UNL A   1      42.541  28.911  34.535  1.00  0.00     0.074 A 
ATOM     62  C   UNL A   1      42.434  29.210  35.950  1.00  0.00     0.031 C 
ATOM     63  C   UNL A   1      42.910  27.802  33.831  1.00  0.00     0.037 A 
BRANCH  50  64
ATOM     64  C   UNL A   1      42.207  26.872  27.802  1.00  0.00     0.057 A 
ATOM     65  C   UNL A   1      42.767  27.526  26.685  1.00  0.00     0.134 A 
ATOM     66  C   UNL A   1      41.973  25.501  27.608  1.00  0.00     0.134 A 
ATOM     67  F   UNL A   1      43.167  28.803  26.741  1.00  0.00    -0.206 F 
ATOM     68  C   UNL A   1      42.945  26.901  25.443  1.00  0.00     0.040 A 
ATOM     69  C   UNL A   1      42.092  24.876  26.357  1.00  0.00     0.040 A 
ATOM     70  F   UNL A   1      41.675  24.690  28.630  1.00  0.00    -0.206 F 
ATOM     71  C   UNL A   1      42.563  25.583  25.261  1.00  0.00     0.006 A 
ENDBRANCH  50  64
BRANCH  51  72
ATOM     72  C   UNL A   1      39.996  32.881  35.001  1.00  0.00     0.057 A 
ATOM     73  C   UNL A   1      38.825  32.105  34.918  1.00  0.00     0.134 A 
ATOM     74  C   UNL A   1      39.978  33.967  35.880  1.00  0.00     0.134 A 
ATOM     75  F   UNL A   1      38.774  31.047  34.094  1.00  0.00    -0.206 F 
ATOM     76  C   UNL A   1      37.729  32.329  35.756  1.00  0.00     0.040 A 
ATOM     77  C   UNL A   1      38.879  34.209  36.715  1.00  0.00     0.040 A 
ATOM     78  F   UNL A   1      41.061  34.742  36.031  1.00  0.00    -0.206 F 
ATOM     79  C   UNL A   1      37.769  33.365  36.681  1.00  0.00     0.006 A 
ENDBRANCH  51  72
BRANCH  63  80
ATOM     80  C   UNL A   1      43.150  26.428  34.403  1.00  0.00     0.057 A 
ATOM     81  C   UNL A   1      42.142  25.610  34.933  1.00  0.00     0.134 A 
ATOM     82  C   UNL A   1      44.419  25.817  34.281  1.00  0.00     0.134 A 
ATOM     83  F   UNL A   1      40.871  26.026  35.010  1.00  0.00    -0.206 F 
ATOM     84  C   UNL A   1      42.388  24.296  35.355  1.00  0.00     0.040 A 
ATOM     85  C   UNL A   1      44.662  24.491  34.652  1.00  0.00     0.040 A 
ATOM     86  F   UNL A   1      45.472  26.476  33.775  1.00  0.00    -0.206 F 
ATOM     87  C   UNL A   1      43.646  23.728  35.203  1.00  0.00     0.006 A 
ENDBRANCH  63  80
ENDBRANCH  37  38
ENDBRANCH  29  32
ENDBRANCH  27  28
ENDBRANCH  26  27
ENDBRANCH   1  26
TORSDOF 13
ENDMDL
