MODEL 1
REMARK VINA RESULT:     -11.5      0.000      0.000
REMARK SMILES CSc1cccc(N2C[C@@H](C(=O)NCCCNC(=O)c3ccc(-c4c5nc(c(-c6c(F)cccc6F)c6ccc([nH]6)c(-c6c(F)cccc6F)c6nc(c(-c7c(F)cccc7F)c7ccc4[nH]7)C=C6)C=C5)cc3)CC2=O)c1
REMARK SMILES IDX 15 1 14 2 13 3 11 4 12 5 10 7 8 8 9 9 75 10 74 11 76 12 7 13
REMARK SMILES IDX 3 14 4 15 77 16 5 17 6 18 2 19 1 20 16 21 17 22 18 23 19 25
REMARK SMILES IDX 20 26 21 27 73 28 22 29 72 30 23 31 24 32 25 33 66 34 26 35
REMARK SMILES IDX 71 36 65 37 67 38 27 39 70 40 64 41 63 42 28 44 54 45 37 46
REMARK SMILES IDX 53 47 38 48 41 49 52 50 68 51 39 52 40 53 51 55 69 56 42 57
REMARK SMILES IDX 29 58 30 59 35 60 31 61 32 62 34 63 36 64 33 65 55 66 56 67
REMARK SMILES IDX 61 68 57 69 58 70 60 71 62 72 59 73 43 74 44 75 49 76 45 77
REMARK SMILES IDX 46 78 48 79 50 80 47 81
REMARK H PARENT 13 6 17 24 67 43 41 54
REMARK Flexibility Score: inf
ROOT
ATOM      1  C   UNL A   1      36.914  20.316  24.996  1.00  0.00     0.042 C 
ENDROOT
BRANCH   1   2
ATOM      2  C   UNL A   1      35.828  21.388  25.030  1.00  0.00     0.117 C 
BRANCH   2   3
ATOM      3  N   UNL A   1      35.431  21.735  26.385  1.00  0.00    -0.356 N 
ATOM      4  C   UNL A   1      34.378  22.439  26.873  1.00  0.00     0.225 C 
ATOM      5  O   UNL A   1      34.296  22.545  28.099  1.00  0.00    -0.275 OA
ATOM      6  H   UNL A   1      36.041  21.396  27.079  1.00  0.00     0.163 HD
BRANCH   4   7
ATOM      7  C   UNL A   1      33.320  23.071  25.992  1.00  0.00     0.107 C 
ATOM      8  N   UNL A   1      32.230  25.163  26.006  1.00  0.00    -0.312 N 
ATOM      9  C   UNL A   1      33.522  24.561  25.784  1.00  0.00     0.139 C 
ATOM     10  C   UNL A   1      31.281  24.251  26.458  1.00  0.00     0.227 C 
ATOM     11  C   UNL A   1      31.897  22.879  26.482  1.00  0.00     0.116 C 
ATOM     12  O   UNL A   1      30.114  24.457  26.764  1.00  0.00    -0.274 OA
BRANCH   8  13
ATOM     13  C   UNL A   1      32.006  26.552  25.845  1.00  0.00     0.045 A 
ATOM     14  C   UNL A   1      31.346  28.450  24.448  1.00  0.00     0.009 A 
ATOM     15  C   UNL A   1      31.601  29.311  25.517  1.00  0.00     0.015 A 
ATOM     16  C   UNL A   1      31.586  27.077  24.615  1.00  0.00     0.041 A 
ATOM     17  C   UNL A   1      32.030  28.805  26.744  1.00  0.00     0.003 A 
ATOM     18  C   UNL A   1      32.205  27.431  26.915  1.00  0.00     0.026 A 
BRANCH  14  19
ATOM     19  S   UNL A   1      30.752  29.002  22.853  1.00  0.00    -0.130 SA
ATOM     20  C   UNL A   1      28.973  28.665  22.958  1.00  0.00     0.091 C 
ENDBRANCH  14  19
ENDBRANCH   8  13
ENDBRANCH   4   7
ENDBRANCH   2   3
ENDBRANCH   1   2
BRANCH   1  21
ATOM     21  C   UNL A   1      38.303  20.807  25.392  1.00  0.00     0.118 C 
BRANCH  21  22
ATOM     22  N   UNL A   1      39.278  19.730  25.498  1.00  0.00    -0.352 N 
ATOM     23  C   UNL A   1      40.586  19.745  25.919  1.00  0.00     0.251 C 
ATOM     24  H   UNL A   1      38.945  18.845  25.222  1.00  0.00     0.163 HD
ATOM     25  O   UNL A   1      41.283  18.748  25.756  1.00  0.00    -0.269 OA
BRANCH  23  26
ATOM     26  C   UNL A   1      41.170  20.954  26.541  1.00  0.00     0.039 A 
ATOM     27  C   UNL A   1      41.830  21.876  25.724  1.00  0.00     0.014 A 
ATOM     28  C   UNL A   1      41.092  21.176  27.918  1.00  0.00     0.014 A 
ATOM     29  C   UNL A   1      42.331  23.058  26.273  1.00  0.00     0.010 A 
ATOM     30  C   UNL A   1      41.518  22.392  28.452  1.00  0.00     0.010 A 
ATOM     31  C   UNL A   1      42.130  23.351  27.633  1.00  0.00    -0.014 A 
BRANCH  31  32
ATOM     32  C   UNL A   1      42.508  24.674  28.196  1.00  0.00     0.031 A 
ATOM     33  C   UNL A   1      41.479  25.753  28.388  1.00  0.00     0.074 A 
ATOM     34  C   UNL A   1      43.804  24.926  28.467  1.00  0.00     0.049 A 
ATOM     35  N   UNL A   1      41.641  26.983  28.805  1.00  0.00    -0.248 NA
ATOM     36  C   UNL A   1      40.090  25.413  28.047  1.00  0.00     0.031 C 
ATOM     37  C   UNL A   1      44.907  23.981  28.274  1.00  0.00     0.029 A 
ATOM     38  N   UNL A   1      44.418  26.057  28.947  1.00  0.00    -0.354 N 
ATOM     39  C   UNL A   1      40.381  27.567  28.766  1.00  0.00     0.074 A 
ATOM     40  C   UNL A   1      39.473  26.570  28.239  1.00  0.00     0.031 C 
ATOM     41  C   UNL A   1      46.055  24.562  28.653  1.00  0.00     0.029 A 
ATOM     42  C   UNL A   1      45.781  25.934  29.068  1.00  0.00     0.049 A 
ATOM     43  H   UNL A   1      43.927  26.877  29.183  1.00  0.00     0.167 HD
ATOM     44  C   UNL A   1      40.012  28.812  29.152  1.00  0.00     0.037 A 
ATOM     45  C   UNL A   1      46.711  26.828  29.454  1.00  0.00     0.037 A 
ATOM     46  C   UNL A   1      40.918  29.796  29.687  1.00  0.00     0.049 A 
ATOM     47  C   UNL A   1      46.279  28.210  29.852  1.00  0.00     0.074 A 
ATOM     48  C   UNL A   1      40.627  31.061  30.170  1.00  0.00     0.029 A 
ATOM     49  N   UNL A   1      42.290  29.634  29.796  1.00  0.00    -0.354 N 
ATOM     50  N   UNL A   1      45.072  28.721  29.889  1.00  0.00    -0.248 NA
ATOM     51  C   UNL A   1      47.337  29.142  30.266  1.00  0.00     0.031 C 
ATOM     52  C   UNL A   1      41.831  31.686  30.512  1.00  0.00     0.029 A 
ATOM     53  C   UNL A   1      42.866  30.789  30.302  1.00  0.00     0.049 A 
ATOM     54  H   UNL A   1      42.784  28.818  29.550  1.00  0.00     0.167 HD
ATOM     55  C   UNL A   1      45.223  30.023  30.346  1.00  0.00     0.074 A 
ATOM     56  C   UNL A   1      46.636  30.216  30.597  1.00  0.00     0.031 C 
ATOM     57  C   UNL A   1      44.275  30.974  30.539  1.00  0.00     0.037 A 
BRANCH  44  58
ATOM     58  C   UNL A   1      38.564  29.186  29.006  1.00  0.00     0.057 A 
ATOM     59  C   UNL A   1      37.669  29.126  30.082  1.00  0.00     0.134 A 
ATOM     60  C   UNL A   1      38.067  29.655  27.782  1.00  0.00     0.134 A 
ATOM     61  F   UNL A   1      38.074  28.678  31.280  1.00  0.00    -0.206 F 
ATOM     62  C   UNL A   1      36.328  29.491  29.940  1.00  0.00     0.040 A 
ATOM     63  C   UNL A   1      36.738  30.052  27.636  1.00  0.00     0.040 A 
ATOM     64  F   UNL A   1      38.870  29.747  26.712  1.00  0.00    -0.206 F 
ATOM     65  C   UNL A   1      35.862  29.964  28.716  1.00  0.00     0.006 A 
ENDBRANCH  44  58
BRANCH  45  66
ATOM     66  C   UNL A   1      48.145  26.441  29.482  1.00  0.00     0.057 A 
ATOM     67  C   UNL A   1      48.978  26.667  28.380  1.00  0.00     0.134 A 
ATOM     68  C   UNL A   1      48.717  25.836  30.608  1.00  0.00     0.134 A 
ATOM     69  F   UNL A   1      48.484  27.225  27.265  1.00  0.00    -0.206 F 
ATOM     70  C   UNL A   1      50.322  26.289  28.388  1.00  0.00     0.040 A 
ATOM     71  C   UNL A   1      50.066  25.479  30.642  1.00  0.00     0.040 A 
ATOM     72  F   UNL A   1      47.975  25.599  31.700  1.00  0.00    -0.206 F 
ATOM     73  C   UNL A   1      50.870  25.698  29.525  1.00  0.00     0.006 A 
ENDBRANCH  45  66
BRANCH  57  74
ATOM     74  C   UNL A   1      44.735  32.304  31.063  1.00  0.00     0.057 A 
ATOM     75  C   UNL A   1      45.072  33.360  30.207  1.00  0.00     0.134 A 
ATOM     76  C   UNL A   1      44.809  32.544  32.441  1.00  0.00     0.134 A 
ATOM     77  F   UNL A   1      45.038  33.194  28.875  1.00  0.00    -0.206 F 
ATOM     78  C   UNL A   1      45.491  34.597  30.701  1.00  0.00     0.040 A 
ATOM     79  C   UNL A   1      45.195  33.786  32.948  1.00  0.00     0.040 A 
ATOM     80  F   UNL A   1      44.491  31.580  33.319  1.00  0.00    -0.206 F 
ATOM     81  C   UNL A   1      45.546  34.814  32.076  1.00  0.00     0.006 A 
ENDBRANCH  57  74
ENDBRANCH  31  32
ENDBRANCH  23  26
ENDBRANCH  21  22
ENDBRANCH   1  21
TORSDOF 12
ENDMDL
MODEL 2
REMARK VINA RESULT:     -11.5      2.748      7.520
REMARK SMILES CSc1cccc(N2C[C@@H](C(=O)NCCCNC(=O)c3ccc(-c4c5nc(c(-c6c(F)cccc6F)c6ccc([nH]6)c(-c6c(F)cccc6F)c6nc(c(-c7c(F)cccc7F)c7ccc4[nH]7)C=C6)C=C5)cc3)CC2=O)c1
REMARK SMILES IDX 15 1 14 2 13 3 11 4 12 5 10 7 8 8 9 9 75 10 74 11 76 12 7 13
REMARK SMILES IDX 3 14 4 15 77 16 5 17 6 18 2 19 1 20 16 21 17 22 18 23 19 25
REMARK SMILES IDX 20 26 21 27 73 28 22 29 72 30 23 31 24 32 25 33 66 34 26 35
REMARK SMILES IDX 71 36 65 37 67 38 27 39 70 40 64 41 63 42 28 44 54 45 37 46
REMARK SMILES IDX 53 47 38 48 41 49 52 50 68 51 39 52 40 53 51 55 69 56 42 57
REMARK SMILES IDX 29 58 30 59 35 60 31 61 32 62 34 63 36 64 33 65 55 66 56 67
REMARK SMILES IDX 61 68 57 69 58 70 60 71 62 72 59 73 43 74 44 75 49 76 45 77
REMARK SMILES IDX 46 78 48 79 50 80 47 81
REMARK H PARENT 13 6 17 24 67 43 41 54
REMARK Flexibility Score: inf
ROOT
ATOM      1  C   UNL A   1      32.376  28.621  26.619  1.00  0.00     0.042 C 
ENDROOT
BRANCH   1   2
ATOM      2  C   UNL A   1      32.036  29.458  25.388  1.00  0.00     0.117 C 
BRANCH   2   3
ATOM      3  N   UNL A   1      33.088  29.426  24.385  1.00  0.00    -0.356 N 
ATOM      4  C   UNL A   1      33.507  28.454  23.536  1.00  0.00     0.225 C 
ATOM      5  O   UNL A   1      34.428  28.741  22.767  1.00  0.00    -0.275 OA
ATOM      6  H   UNL A   1      33.592  30.268  24.307  1.00  0.00     0.163 HD
BRANCH   4   7
ATOM      7  C   UNL A   1      32.893  27.070  23.490  1.00  0.00     0.107 C 
ATOM      8  N   UNL A   1      33.797  24.892  23.395  1.00  0.00    -0.312 N 
ATOM      9  C   UNL A   1      33.683  26.035  24.269  1.00  0.00     0.139 C 
ATOM     10  C   UNL A   1      33.294  25.138  22.120  1.00  0.00     0.227 C 
ATOM     11  C   UNL A   1      32.696  26.517  22.090  1.00  0.00     0.116 C 
ATOM     12  O   UNL A   1      33.276  24.388  21.153  1.00  0.00    -0.274 OA
BRANCH   8  13
ATOM     13  C   UNL A   1      34.428  23.691  23.799  1.00  0.00     0.045 A 
ATOM     14  C   UNL A   1      34.299  21.439  24.748  1.00  0.00     0.009 A 
ATOM     15  C   UNL A   1      35.686  21.325  24.638  1.00  0.00     0.015 A 
ATOM     16  C   UNL A   1      33.687  22.640  24.358  1.00  0.00     0.041 A 
ATOM     17  C   UNL A   1      36.438  22.366  24.095  1.00  0.00     0.003 A 
ATOM     18  C   UNL A   1      35.810  23.532  23.652  1.00  0.00     0.026 A 
BRANCH  14  19
ATOM     19  S   UNL A   1      33.248  20.141  25.391  1.00  0.00    -0.130 SA
ATOM     20  C   UNL A   1      32.480  19.477  23.887  1.00  0.00     0.091 C 
ENDBRANCH  14  19
ENDBRANCH   8  13
ENDBRANCH   4   7
ENDBRANCH   2   3
ENDBRANCH   1   2
BRANCH   1  21
ATOM     21  C   UNL A   1      33.734  28.932  27.241  1.00  0.00     0.118 C 
BRANCH  21  22
ATOM     22  N   UNL A   1      33.805  30.272  27.807  1.00  0.00    -0.352 N 
ATOM     23  C   UNL A   1      34.804  30.889  28.523  1.00  0.00     0.251 C 
ATOM     24  H   UNL A   1      33.008  30.828  27.652  1.00  0.00     0.163 HD
ATOM     25  O   UNL A   1      34.580  31.969  29.062  1.00  0.00    -0.269 OA
BRANCH  23  26
ATOM     26  C   UNL A   1      36.133  30.256  28.673  1.00  0.00     0.039 A 
ATOM     27  C   UNL A   1      37.009  30.269  27.584  1.00  0.00     0.014 A 
ATOM     28  C   UNL A   1      36.515  29.635  29.865  1.00  0.00     0.014 A 
ATOM     29  C   UNL A   1      38.294  29.740  27.719  1.00  0.00     0.010 A 
ATOM     30  C   UNL A   1      37.823  29.183  30.025  1.00  0.00     0.010 A 
ATOM     31  C   UNL A   1      38.731  29.242  28.958  1.00  0.00    -0.014 A 
BRANCH  31  32
ATOM     32  C   UNL A   1      40.145  28.830  29.164  1.00  0.00     0.031 A 
ATOM     33  C   UNL A   1      41.150  29.786  29.744  1.00  0.00     0.074 A 
ATOM     34  C   UNL A   1      40.539  27.608  28.755  1.00  0.00     0.049 A 
ATOM     35  N   UNL A   1      42.434  29.619  29.933  1.00  0.00    -0.248 NA
ATOM     36  C   UNL A   1      40.652  31.111  30.143  1.00  0.00     0.031 C 
ATOM     37  C   UNL A   1      39.672  26.607  28.128  1.00  0.00     0.029 A 
ATOM     38  N   UNL A   1      41.771  27.004  28.789  1.00  0.00    -0.354 N 
ATOM     39  C   UNL A   1      42.900  30.817  30.462  1.00  0.00     0.074 A 
ATOM     40  C   UNL A   1      41.769  31.719  30.518  1.00  0.00     0.031 C 
ATOM     41  C   UNL A   1      40.393  25.508  27.859  1.00  0.00     0.029 A 
ATOM     42  C   UNL A   1      41.780  25.741  28.247  1.00  0.00     0.049 A 
ATOM     43  H   UNL A   1      42.572  27.434  29.168  1.00  0.00     0.167 HD
ATOM     44  C   UNL A   1      44.150  31.129  30.880  1.00  0.00     0.037 A 
ATOM     45  C   UNL A   1      42.792  24.872  28.064  1.00  0.00     0.037 A 
ATOM     46  C   UNL A   1      45.270  30.224  30.832  1.00  0.00     0.049 A 
ATOM     47  C   UNL A   1      44.175  25.253  28.512  1.00  0.00     0.074 A 
ATOM     48  C   UNL A   1      46.560  30.424  31.294  1.00  0.00     0.029 A 
ATOM     49  N   UNL A   1      45.239  28.953  30.277  1.00  0.00    -0.354 N 
ATOM     50  N   UNL A   1      44.583  26.359  29.087  1.00  0.00    -0.248 NA
ATOM     51  C   UNL A   1      45.239  24.264  28.290  1.00  0.00     0.031 C 
ATOM     52  C   UNL A   1      47.323  29.301  30.964  1.00  0.00     0.029 A 
ATOM     53  C   UNL A   1      46.496  28.373  30.350  1.00  0.00     0.049 A 
ATOM     54  H   UNL A   1      44.441  28.526  29.888  1.00  0.00     0.167 HD
ATOM     55  C   UNL A   1      45.944  26.192  29.312  1.00  0.00     0.074 A 
ATOM     56  C   UNL A   1      46.286  24.869  28.834  1.00  0.00     0.031 C 
ATOM     57  C   UNL A   1      46.828  27.058  29.863  1.00  0.00     0.037 A 
BRANCH  44  58
ATOM     58  C   UNL A   1      44.378  32.512  31.421  1.00  0.00     0.057 A 
ATOM     59  C   UNL A   1      44.230  32.810  32.782  1.00  0.00     0.134 A 
ATOM     60  C   UNL A   1      44.796  33.550  30.577  1.00  0.00     0.134 A 
ATOM     61  F   UNL A   1      43.825  31.867  33.645  1.00  0.00    -0.206 F 
ATOM     62  C   UNL A   1      44.461  34.094  33.279  1.00  0.00     0.040 A 
ATOM     63  C   UNL A   1      45.059  34.830  31.067  1.00  0.00     0.040 A 
ATOM     64  F   UNL A   1      44.968  33.333  29.265  1.00  0.00    -0.206 F 
ATOM     65  C   UNL A   1      44.885  35.107  32.421  1.00  0.00     0.006 A 
ENDBRANCH  44  58
BRANCH  45  66
ATOM     66  C   UNL A   1      42.535  23.555  27.427  1.00  0.00     0.057 A 
ATOM     67  C   UNL A   1      42.657  23.384  26.043  1.00  0.00     0.134 A 
ATOM     68  C   UNL A   1      42.159  22.439  28.184  1.00  0.00     0.134 A 
ATOM     69  F   UNL A   1      42.995  24.421  25.263  1.00  0.00    -0.206 F 
ATOM     70  C   UNL A   1      42.397  22.157  25.432  1.00  0.00     0.040 A 
ATOM     71  C   UNL A   1      41.924  21.197  27.590  1.00  0.00     0.040 A 
ATOM     72  F   UNL A   1      42.031  22.534  29.516  1.00  0.00    -0.206 F 
ATOM     73  C   UNL A   1      42.035  21.057  26.208  1.00  0.00     0.006 A 
ENDBRANCH  45  66
BRANCH  57  74
ATOM     74  C   UNL A   1      48.251  26.595  29.994  1.00  0.00     0.057 A 
ATOM     75  C   UNL A   1      49.215  26.881  29.019  1.00  0.00     0.134 A 
ATOM     76  C   UNL A   1      48.670  25.883  31.125  1.00  0.00     0.134 A 
ATOM     77  F   UNL A   1      48.878  27.547  27.904  1.00  0.00    -0.206 F 
ATOM     78  C   UNL A   1      50.539  26.455  29.152  1.00  0.00     0.040 A 
ATOM     79  C   UNL A   1      49.997  25.478  31.285  1.00  0.00     0.040 A 
ATOM     80  F   UNL A   1      47.801  25.582  32.103  1.00  0.00    -0.206 F 
ATOM     81  C   UNL A   1      50.933  25.757  30.291  1.00  0.00     0.006 A 
ENDBRANCH  57  74
ENDBRANCH  31  32
ENDBRANCH  23  26
ENDBRANCH  21  22
ENDBRANCH   1  21
TORSDOF 12
ENDMDL
MODEL 3
REMARK VINA RESULT:     -11.3      4.701      9.610
REMARK SMILES CSc1cccc(N2C[C@@H](C(=O)NCCCNC(=O)c3ccc(-c4c5nc(c(-c6c(F)cccc6F)c6ccc([nH]6)c(-c6c(F)cccc6F)c6nc(c(-c7c(F)cccc7F)c7ccc4[nH]7)C=C6)C=C5)cc3)CC2=O)c1
REMARK SMILES IDX 15 1 14 2 13 3 11 4 12 5 10 7 8 8 9 9 75 10 74 11 76 12 7 13
REMARK SMILES IDX 3 14 4 15 77 16 5 17 6 18 2 19 1 20 16 21 17 22 18 23 19 25
REMARK SMILES IDX 20 26 21 27 73 28 22 29 72 30 23 31 24 32 25 33 66 34 26 35
REMARK SMILES IDX 71 36 65 37 67 38 27 39 70 40 64 41 63 42 28 44 54 45 37 46
REMARK SMILES IDX 53 47 38 48 41 49 52 50 68 51 39 52 40 53 51 55 69 56 42 57
REMARK SMILES IDX 29 58 30 59 35 60 31 61 32 62 34 63 36 64 33 65 55 66 56 67
REMARK SMILES IDX 61 68 57 69 58 70 60 71 62 72 59 73 43 74 44 75 49 76 45 77
REMARK SMILES IDX 46 78 48 79 50 80 47 81
REMARK H PARENT 13 6 17 24 67 43 41 54
REMARK Flexibility Score: inf
ROOT
ATOM      1  C   UNL A   1      31.410  32.021  26.537  1.00  0.00     0.042 C 
ENDROOT
BRANCH   1   2
ATOM      2  C   UNL A   1      31.500  30.505  26.375  1.00  0.00     0.117 C 
BRANCH   2   3
ATOM      3  N   UNL A   1      31.700  30.105  24.991  1.00  0.00    -0.356 N 
ATOM      4  C   UNL A   1      31.514  28.925  24.349  1.00  0.00     0.225 C 
ATOM      5  O   UNL A   1      31.752  28.901  23.139  1.00  0.00    -0.275 OA
ATOM      6  H   UNL A   1      32.033  30.827  24.411  1.00  0.00     0.163 HD
BRANCH   4   7
ATOM      7  C   UNL A   1      31.026  27.669  25.043  1.00  0.00     0.107 C 
ATOM      8  N   UNL A   1      31.973  25.539  25.408  1.00  0.00    -0.312 N 
ATOM      9  C   UNL A   1      32.122  26.925  25.782  1.00  0.00     0.139 C 
ATOM     10  C   UNL A   1      31.007  25.348  24.423  1.00  0.00     0.227 C 
ATOM     11  C   UNL A   1      30.349  26.667  24.125  1.00  0.00     0.116 C 
ATOM     12  O   UNL A   1      30.674  24.305  23.878  1.00  0.00    -0.274 OA
BRANCH   8  13
ATOM     13  C   UNL A   1      32.791  24.518  25.948  1.00  0.00     0.045 A 
ATOM     14  C   UNL A   1      34.959  23.393  26.104  1.00  0.00     0.009 A 
ATOM     15  C   UNL A   1      34.403  22.468  26.990  1.00  0.00     0.015 A 
ATOM     16  C   UNL A   1      34.134  24.391  25.563  1.00  0.00     0.041 A 
ATOM     17  C   UNL A   1      33.066  22.574  27.373  1.00  0.00     0.003 A 
ATOM     18  C   UNL A   1      32.272  23.610  26.877  1.00  0.00     0.026 A 
BRANCH  14  19
ATOM     19  S   UNL A   1      36.673  23.362  25.589  1.00  0.00    -0.130 SA
ATOM     20  C   UNL A   1      36.559  22.756  23.883  1.00  0.00     0.091 C 
ENDBRANCH  14  19
ENDBRANCH   8  13
ENDBRANCH   4   7
ENDBRANCH   2   3
ENDBRANCH   1   2
BRANCH   1  21
ATOM     21  C   UNL A   1      32.603  32.654  27.249  1.00  0.00     0.118 C 
BRANCH  21  22
ATOM     22  N   UNL A   1      32.387  34.056  27.580  1.00  0.00    -0.352 N 
ATOM     23  C   UNL A   1      32.994  34.857  28.517  1.00  0.00     0.251 C 
ATOM     24  H   UNL A   1      31.692  34.503  27.046  1.00  0.00     0.163 HD
ATOM     25  O   UNL A   1      32.529  35.969  28.753  1.00  0.00    -0.269 OA
BRANCH  23  26
ATOM     26  C   UNL A   1      34.182  34.387  29.264  1.00  0.00     0.039 A 
ATOM     27  C   UNL A   1      33.996  33.799  30.519  1.00  0.00     0.014 A 
ATOM     28  C   UNL A   1      35.473  34.539  28.751  1.00  0.00     0.014 A 
ATOM     29  C   UNL A   1      35.093  33.285  31.215  1.00  0.00     0.010 A 
ATOM     30  C   UNL A   1      36.555  33.953  29.407  1.00  0.00     0.010 A 
ATOM     31  C   UNL A   1      36.374  33.309  30.640  1.00  0.00    -0.014 A 
BRANCH  31  32
ATOM     32  C   UNL A   1      37.520  32.620  31.291  1.00  0.00     0.031 A 
ATOM     33  C   UNL A   1      38.198  31.455  30.626  1.00  0.00     0.074 A 
ATOM     34  C   UNL A   1      37.901  33.004  32.525  1.00  0.00     0.049 A 
ATOM     35  N   UNL A   1      39.167  30.698  31.075  1.00  0.00    -0.248 NA
ATOM     36  C   UNL A   1      37.710  31.078  29.291  1.00  0.00     0.031 C 
ATOM     37  C   UNL A   1      37.289  34.086  33.300  1.00  0.00     0.029 A 
ATOM     38  N   UNL A   1      38.883  32.519  33.353  1.00  0.00    -0.354 N 
ATOM     39  C   UNL A   1      39.398  29.749  30.086  1.00  0.00     0.074 A 
ATOM     40  C   UNL A   1      38.434  29.997  29.034  1.00  0.00     0.031 C 
ATOM     41  C   UNL A   1      37.923  34.197  34.477  1.00  0.00     0.029 A 
ATOM     42  C   UNL A   1      38.952  33.166  34.563  1.00  0.00     0.049 A 
ATOM     43  H   UNL A   1      39.483  31.779  33.102  1.00  0.00     0.167 HD
ATOM     44  C   UNL A   1      40.338  28.775  30.050  1.00  0.00     0.037 A 
ATOM     45  C   UNL A   1      39.741  32.946  35.632  1.00  0.00     0.037 A 
ATOM     46  C   UNL A   1      41.301  28.539  31.095  1.00  0.00     0.049 A 
ATOM     47  C   UNL A   1      40.758  31.842  35.576  1.00  0.00     0.074 A 
ATOM     48  C   UNL A   1      42.337  27.620  31.120  1.00  0.00     0.029 A 
ATOM     49  N   UNL A   1      41.340  29.216  32.305  1.00  0.00    -0.354 N 
ATOM     50  N   UNL A   1      41.020  31.006  34.600  1.00  0.00    -0.248 NA
ATOM     51  C   UNL A   1      41.593  31.650  36.770  1.00  0.00     0.031 C 
ATOM     52  C   UNL A   1      42.961  27.699  32.369  1.00  0.00     0.029 A 
ATOM     53  C   UNL A   1      42.356  28.709  33.100  1.00  0.00     0.049 A 
ATOM     54  H   UNL A   1      40.734  29.949  32.561  1.00  0.00     0.167 HD
ATOM     55  C   UNL A   1      42.059  30.204  35.054  1.00  0.00     0.074 A 
ATOM     56  C   UNL A   1      42.397  30.670  36.383  1.00  0.00     0.031 C 
ATOM     57  C   UNL A   1      42.677  29.174  34.425  1.00  0.00     0.037 A 
BRANCH  44  58
ATOM     58  C   UNL A   1      40.368  27.881  28.842  1.00  0.00     0.057 A 
ATOM     59  C   UNL A   1      41.138  28.187  27.712  1.00  0.00     0.134 A 
ATOM     60  C   UNL A   1      39.654  26.675  28.827  1.00  0.00     0.134 A 
ATOM     61  F   UNL A   1      41.840  29.328  27.655  1.00  0.00    -0.206 F 
ATOM     62  C   UNL A   1      41.174  27.342  26.601  1.00  0.00     0.040 A 
ATOM     63  C   UNL A   1      39.707  25.808  27.735  1.00  0.00     0.040 A 
ATOM     64  F   UNL A   1      38.904  26.315  29.879  1.00  0.00    -0.206 F 
ATOM     65  C   UNL A   1      40.463  26.144  26.614  1.00  0.00     0.006 A 
ENDBRANCH  44  58
BRANCH  45  66
ATOM     66  C   UNL A   1      39.601  33.792  36.845  1.00  0.00     0.057 A 
ATOM     67  C   UNL A   1      38.770  33.407  37.903  1.00  0.00     0.134 A 
ATOM     68  C   UNL A   1      40.291  35.003  36.975  1.00  0.00     0.134 A 
ATOM     69  F   UNL A   1      38.067  32.267  37.829  1.00  0.00    -0.206 F 
ATOM     70  C   UNL A   1      38.614  34.204  39.039  1.00  0.00     0.040 A 
ATOM     71  C   UNL A   1      40.168  35.796  38.118  1.00  0.00     0.040 A 
ATOM     72  F   UNL A   1      41.110  35.425  36.000  1.00  0.00    -0.206 F 
ATOM     73  C   UNL A   1      39.320  35.400  39.150  1.00  0.00     0.006 A 
ENDBRANCH  45  66
BRANCH  57  74
ATOM     74  C   UNL A   1      43.793  28.491  35.162  1.00  0.00     0.057 A 
ATOM     75  C   UNL A   1      45.119  28.936  35.077  1.00  0.00     0.134 A 
ATOM     76  C   UNL A   1      43.535  27.395  35.995  1.00  0.00     0.134 A 
ATOM     77  F   UNL A   1      45.438  29.973  34.285  1.00  0.00    -0.206 F 
ATOM     78  C   UNL A   1      46.150  28.302  35.772  1.00  0.00     0.040 A 
ATOM     79  C   UNL A   1      44.551  26.771  36.720  1.00  0.00     0.040 A 
ATOM     80  F   UNL A   1      42.286  26.921  36.131  1.00  0.00    -0.206 F 
ATOM     81  C   UNL A   1      45.866  27.219  36.602  1.00  0.00     0.006 A 
ENDBRANCH  57  74
ENDBRANCH  31  32
ENDBRANCH  23  26
ENDBRANCH  21  22
ENDBRANCH   1  21
TORSDOF 12
ENDMDL
