MODEL 1
REMARK VINA RESULT:     -10.8      0.000      0.000
REMARK SMILES [NH3+][C@@H](CC(=O)NCCCNC(=O)c1ccc(-c2c3nc(c(-c4c(F)cccc4F)c4ccc([nH]4)c(-c4c(F)cccc4F)c4nc(c(-c5c(F)cccc5F)c5ccc2[nH]5)C=C4)C=C3)cc1)[NH+]1CCOCC1
REMARK SMILES IDX 8 1 7 2 6 3 4 4 5 5 3 7 2 8 1 9 67 13 68 14 72 15 69 17
REMARK SMILES IDX 71 18 70 19 9 20 10 21 11 22 12 24 13 25 14 26 66 27 15 28
REMARK SMILES IDX 65 29 16 30 17 31 18 32 59 33 19 34 64 35 58 36 60 37 20 38
REMARK SMILES IDX 63 39 57 40 56 41 21 43 47 44 30 45 46 46 31 47 34 48 45 49
REMARK SMILES IDX 61 50 32 51 33 52 44 54 62 55 35 56 22 57 23 58 28 59 24 60
REMARK SMILES IDX 25 61 27 62 29 63 26 64 48 65 49 66 54 67 50 68 51 69 53 70
REMARK SMILES IDX 55 71 52 72 36 73 37 74 42 75 38 76 39 77 41 78 43 79 40 80
REMARK H PARENT 6 6 1 10 1 11 1 12 67 16 10 23 60 42 34 53
REMARK Flexibility Score: inf
ROOT
ATOM      1  C   UNL A   1      31.354  31.917  26.619  1.00  0.00     0.042 C 
ENDROOT
BRANCH   1   2
ATOM      2  C   UNL A   1      31.431  30.403  26.459  1.00  0.00     0.117 C 
BRANCH   2   3
ATOM      3  N   UNL A   1      32.340  30.001  25.406  1.00  0.00    -0.356 N 
ATOM      4  C   UNL A   1      32.118  29.376  24.223  1.00  0.00     0.232 C 
ATOM      5  O   UNL A   1      33.074  29.302  23.446  1.00  0.00    -0.275 OA
ATOM      6  H   UNL A   1      33.285  30.219  25.578  1.00  0.00     0.163 HD
BRANCH   4   7
ATOM      7  C   UNL A   1      30.757  28.872  23.819  1.00  0.00     0.232 C 
BRANCH   7   8
ATOM      8  C   UNL A   1      30.057  29.423  22.564  1.00  0.00     0.389 C 
BRANCH   8   9
ATOM      9  N   UNL A   1      30.939  30.059  21.602  1.00  0.00    -0.308 N 
ATOM     10  H   UNL A   1      31.890  29.716  21.734  1.00  0.00     0.349 HD
ATOM     11  H   UNL A   1      30.920  31.069  21.740  1.00  0.00     0.349 HD
ATOM     12  H   UNL A   1      30.626  29.839  20.657  1.00  0.00     0.349 HD
ENDBRANCH   8   9
BRANCH   8  13
ATOM     13  N   UNL A   1      28.828  30.181  22.620  1.00  0.00    -0.282 N 
ATOM     14  C   UNL A   1      28.033  30.479  21.429  1.00  0.00     0.296 C 
ATOM     15  C   UNL A   1      28.792  31.286  23.588  1.00  0.00     0.296 C 
ATOM     16  H   UNL A   1      28.305  29.382  22.978  1.00  0.00     0.353 HD
ATOM     17  C   UNL A   1      28.125  31.916  20.895  1.00  0.00     0.222 C 
ATOM     18  C   UNL A   1      28.926  32.682  22.964  1.00  0.00     0.222 C 
ATOM     19  O   UNL A   1      27.954  32.883  21.934  1.00  0.00    -0.370 OA
ENDBRANCH   8  13
ENDBRANCH   7   8
ENDBRANCH   4   7
ENDBRANCH   2   3
ENDBRANCH   1   2
BRANCH   1  20
ATOM     20  C   UNL A   1      32.692  32.601  26.893  1.00  0.00     0.118 C 
BRANCH  20  21
ATOM     21  N   UNL A   1      32.536  33.901  27.518  1.00  0.00    -0.352 N 
ATOM     22  C   UNL A   1      33.196  34.468  28.582  1.00  0.00     0.251 C 
ATOM     23  H   UNL A   1      31.843  34.473  27.113  1.00  0.00     0.163 HD
ATOM     24  O   UNL A   1      32.751  35.499  29.077  1.00  0.00    -0.269 OA
BRANCH  22  25
ATOM     25  C   UNL A   1      34.417  33.852  29.153  1.00  0.00     0.039 A 
ATOM     26  C   UNL A   1      34.267  32.790  30.051  1.00  0.00     0.014 A 
ATOM     27  C   UNL A   1      35.694  34.350  28.882  1.00  0.00     0.014 A 
ATOM     28  C   UNL A   1      35.392  32.198  30.634  1.00  0.00     0.010 A 
ATOM     29  C   UNL A   1      36.821  33.711  29.406  1.00  0.00     0.010 A 
ATOM     30  C   UNL A   1      36.682  32.636  30.296  1.00  0.00    -0.014 A 
BRANCH  30  31
ATOM     31  C   UNL A   1      37.889  31.996  30.880  1.00  0.00     0.031 A 
ATOM     32  C   UNL A   1      38.601  30.894  30.142  1.00  0.00     0.074 A 
ATOM     33  C   UNL A   1      38.316  32.364  32.104  1.00  0.00     0.049 A 
ATOM     34  N   UNL A   1      39.621  30.167  30.523  1.00  0.00    -0.248 NA
ATOM     35  C   UNL A   1      38.081  30.546  28.810  1.00  0.00     0.031 C 
ATOM     36  C   UNL A   1      37.694  33.385  32.947  1.00  0.00     0.029 A 
ATOM     37  N   UNL A   1      39.371  31.909  32.858  1.00  0.00    -0.354 N 
ATOM     38  C   UNL A   1      39.848  29.262  29.493  1.00  0.00     0.074 A 
ATOM     39  C   UNL A   1      38.837  29.507  28.486  1.00  0.00     0.031 C 
ATOM     40  C   UNL A   1      38.384  33.490  34.094  1.00  0.00     0.029 A 
ATOM     41  C   UNL A   1      39.477  32.521  34.082  1.00  0.00     0.049 A 
ATOM     42  H   UNL A   1      39.991  31.209  32.549  1.00  0.00     0.167 HD
ATOM     43  C   UNL A   1      40.820  28.325  29.386  1.00  0.00     0.037 A 
ATOM     44  C   UNL A   1      40.350  32.321  35.087  1.00  0.00     0.037 A 
ATOM     45  C   UNL A   1      41.854  28.108  30.364  1.00  0.00     0.049 A 
ATOM     46  C   UNL A   1      41.434  31.290  34.934  1.00  0.00     0.074 A 
ATOM     47  C   UNL A   1      42.926  27.235  30.304  1.00  0.00     0.029 A 
ATOM     48  N   UNL A   1      41.945  28.772  31.576  1.00  0.00    -0.354 N 
ATOM     49  N   UNL A   1      41.673  30.490  33.926  1.00  0.00    -0.248 NA
ATOM     50  C   UNL A   1      42.372  31.143  36.056  1.00  0.00     0.031 C 
ATOM     51  C   UNL A   1      43.649  27.348  31.497  1.00  0.00     0.029 A 
ATOM     52  C   UNL A   1      43.046  28.317  32.282  1.00  0.00     0.049 A 
ATOM     53  H   UNL A   1      41.321  29.466  31.890  1.00  0.00     0.167 HD
ATOM     54  C   UNL A   1      42.800  29.758  34.281  1.00  0.00     0.074 A 
ATOM     55  C   UNL A   1      43.204  30.221  35.593  1.00  0.00     0.031 C 
ATOM     56  C   UNL A   1      43.441  28.791  33.583  1.00  0.00     0.037 A 
BRANCH  43  57
ATOM     57  C   UNL A   1      40.815  27.459  28.161  1.00  0.00     0.057 A 
ATOM     58  C   UNL A   1      41.532  27.807  27.008  1.00  0.00     0.134 A 
ATOM     59  C   UNL A   1      40.121  26.243  28.149  1.00  0.00     0.134 A 
ATOM     60  F   UNL A   1      42.208  28.965  26.953  1.00  0.00    -0.206 F 
ATOM     61  C   UNL A   1      41.540  26.987  25.879  1.00  0.00     0.040 A 
ATOM     62  C   UNL A   1      40.142  25.403  27.034  1.00  0.00     0.040 A 
ATOM     63  F   UNL A   1      39.421  25.847  29.222  1.00  0.00    -0.206 F 
ATOM     64  C   UNL A   1      40.848  25.777  25.893  1.00  0.00     0.006 A 
ENDBRANCH  43  57
BRANCH  44  65
ATOM     65  C   UNL A   1      40.248  33.128  36.328  1.00  0.00     0.057 A 
ATOM     66  C   UNL A   1      39.360  32.771  37.349  1.00  0.00     0.134 A 
ATOM     67  C   UNL A   1      41.028  34.274  36.519  1.00  0.00     0.134 A 
ATOM     68  F   UNL A   1      38.573  31.693  37.213  1.00  0.00    -0.206 F 
ATOM     69  C   UNL A   1      39.239  33.534  38.511  1.00  0.00     0.040 A 
ATOM     70  C   UNL A   1      40.933  35.034  37.685  1.00  0.00     0.040 A 
ATOM     71  F   UNL A   1      41.902  34.663  35.579  1.00  0.00    -0.206 F 
ATOM     72  C   UNL A   1      40.031  34.668  38.682  1.00  0.00     0.006 A 
ENDBRANCH  44  65
BRANCH  56  73
ATOM     73  C   UNL A   1      44.662  28.188  34.210  1.00  0.00     0.057 A 
ATOM     74  C   UNL A   1      44.591  27.034  34.998  1.00  0.00     0.134 A 
ATOM     75  C   UNL A   1      45.927  28.748  33.991  1.00  0.00     0.134 A 
ATOM     76  F   UNL A   1      43.406  26.459  35.256  1.00  0.00    -0.206 F 
ATOM     77  C   UNL A   1      45.734  26.466  35.563  1.00  0.00     0.040 A 
ATOM     78  C   UNL A   1      47.080  28.178  34.532  1.00  0.00     0.040 A 
ATOM     79  F   UNL A   1      46.063  29.850  33.238  1.00  0.00    -0.206 F 
ATOM     80  C   UNL A   1      46.984  27.036  35.326  1.00  0.00     0.006 A 
ENDBRANCH  56  73
ENDBRANCH  30  31
ENDBRANCH  22  25
ENDBRANCH  20  21
ENDBRANCH   1  20
TORSDOF 13
ENDMDL
MODEL 2
REMARK VINA RESULT:     -10.7      6.583     11.149
REMARK SMILES [NH3+][C@@H](CC(=O)NCCCNC(=O)c1ccc(-c2c3nc(c(-c4c(F)cccc4F)c4ccc([nH]4)c(-c4c(F)cccc4F)c4nc(c(-c5c(F)cccc5F)c5ccc2[nH]5)C=C4)C=C3)cc1)[NH+]1CCOCC1
REMARK SMILES IDX 8 1 7 2 6 3 4 4 5 5 3 7 2 8 1 9 67 13 68 14 72 15 69 17
REMARK SMILES IDX 71 18 70 19 9 20 10 21 11 22 12 24 13 25 14 26 66 27 15 28
REMARK SMILES IDX 65 29 16 30 17 31 18 32 59 33 19 34 64 35 58 36 60 37 20 38
REMARK SMILES IDX 63 39 57 40 56 41 21 43 47 44 30 45 46 46 31 47 34 48 45 49
REMARK SMILES IDX 61 50 32 51 33 52 44 54 62 55 35 56 22 57 23 58 28 59 24 60
REMARK SMILES IDX 25 61 27 62 29 63 26 64 48 65 49 66 54 67 50 68 51 69 53 70
REMARK SMILES IDX 55 71 52 72 36 73 37 74 42 75 38 76 39 77 41 78 43 79 40 80
REMARK H PARENT 6 6 1 10 1 11 1 12 67 16 10 23 60 42 34 53
REMARK Flexibility Score: inf
ROOT
ATOM      1  C   UNL A   1      38.012  19.594  24.622  1.00  0.00     0.042 C 
ENDROOT
BRANCH   1   2
ATOM      2  C   UNL A   1      36.541  19.396  24.974  1.00  0.00     0.117 C 
BRANCH   2   3
ATOM      3  N   UNL A   1      35.907  20.621  25.417  1.00  0.00    -0.356 N 
ATOM      4  C   UNL A   1      34.623  21.048  25.322  1.00  0.00     0.232 C 
ATOM      5  O   UNL A   1      34.334  22.078  25.936  1.00  0.00    -0.275 OA
ATOM      6  H   UNL A   1      36.513  21.254  25.867  1.00  0.00     0.163 HD
BRANCH   4   7
ATOM      7  C   UNL A   1      33.566  20.270  24.583  1.00  0.00     0.232 C 
BRANCH   7   8
ATOM      8  C   UNL A   1      32.728  19.202  25.307  1.00  0.00     0.389 C 
BRANCH   8   9
ATOM      9  N   UNL A   1      32.971  19.101  26.736  1.00  0.00    -0.308 N 
ATOM     10  H   UNL A   1      32.218  18.569  27.172  1.00  0.00     0.349 HD
ATOM     11  H   UNL A   1      33.005  20.036  27.141  1.00  0.00     0.349 HD
ATOM     12  H   UNL A   1      33.860  18.627  26.897  1.00  0.00     0.349 HD
ENDBRANCH   8   9
BRANCH   8  13
ATOM     13  N   UNL A   1      32.537  17.867  24.787  1.00  0.00    -0.282 N 
ATOM     14  C   UNL A   1      32.817  16.667  25.575  1.00  0.00     0.296 C 
ATOM     15  C   UNL A   1      32.861  17.673  23.368  1.00  0.00     0.296 C 
ATOM     16  H   UNL A   1      31.526  17.921  24.914  1.00  0.00     0.353 HD
ATOM     17  C   UNL A   1      34.106  15.911  25.222  1.00  0.00     0.222 C 
ATOM     18  C   UNL A   1      34.185  16.937  23.113  1.00  0.00     0.222 C 
ATOM     19  O   UNL A   1      34.226  15.691  23.815  1.00  0.00    -0.370 OA
ENDBRANCH   8  13
ENDBRANCH   7   8
ENDBRANCH   4   7
ENDBRANCH   2   3
ENDBRANCH   1   2
BRANCH   1  20
ATOM     20  C   UNL A   1      38.920  19.895  25.812  1.00  0.00     0.118 C 
BRANCH  20  21
ATOM     21  N   UNL A   1      40.063  19.003  25.881  1.00  0.00    -0.352 N 
ATOM     22  C   UNL A   1      41.395  19.269  26.088  1.00  0.00     0.251 C 
ATOM     23  H   UNL A   1      39.849  18.049  25.760  1.00  0.00     0.163 HD
ATOM     24  O   UNL A   1      42.217  18.379  25.893  1.00  0.00    -0.269 OA
BRANCH  22  25
ATOM     25  C   UNL A   1      41.859  20.608  26.521  1.00  0.00     0.039 A 
ATOM     26  C   UNL A   1      42.157  21.558  25.538  1.00  0.00     0.014 A 
ATOM     27  C   UNL A   1      42.081  20.917  27.866  1.00  0.00     0.014 A 
ATOM     28  C   UNL A   1      42.624  22.825  25.903  1.00  0.00     0.010 A 
ATOM     29  C   UNL A   1      42.475  22.205  28.234  1.00  0.00     0.010 A 
ATOM     30  C   UNL A   1      42.762  23.169  27.256  1.00  0.00    -0.014 A 
BRANCH  30  31
ATOM     31  C   UNL A   1      43.225  24.522  27.662  1.00  0.00     0.031 A 
ATOM     32  C   UNL A   1      42.233  25.576  28.072  1.00  0.00     0.074 A 
ATOM     33  C   UNL A   1      44.537  24.825  27.607  1.00  0.00     0.049 A 
ATOM     34  N   UNL A   1      42.439  26.831  28.385  1.00  0.00    -0.248 NA
ATOM     35  C   UNL A   1      40.817  25.174  28.112  1.00  0.00     0.031 C 
ATOM     36  C   UNL A   1      45.600  23.913  27.185  1.00  0.00     0.029 A 
ATOM     37  N   UNL A   1      45.198  25.994  27.898  1.00  0.00    -0.354 N 
ATOM     38  C   UNL A   1      41.183  27.372  28.632  1.00  0.00     0.074 A 
ATOM     39  C   UNL A   1      40.217  26.320  28.399  1.00  0.00     0.031 C 
ATOM     40  C   UNL A   1      46.781  24.550  27.256  1.00  0.00     0.029 A 
ATOM     41  C   UNL A   1      46.554  25.924  27.697  1.00  0.00     0.049 A 
ATOM     42  H   UNL A   1      44.741  26.805  28.218  1.00  0.00     0.167 HD
ATOM     43  C   UNL A   1      40.864  28.626  29.035  1.00  0.00     0.037 A 
ATOM     44  C   UNL A   1      47.509  26.861  27.843  1.00  0.00     0.037 A 
ATOM     45  C   UNL A   1      41.824  29.661  29.312  1.00  0.00     0.049 A 
ATOM     46  C   UNL A   1      47.132  28.238  28.314  1.00  0.00     0.074 A 
ATOM     47  C   UNL A   1      41.598  30.937  29.800  1.00  0.00     0.029 A 
ATOM     48  N   UNL A   1      43.192  29.540  29.128  1.00  0.00    -0.354 N 
ATOM     49  N   UNL A   1      45.947  28.713  28.606  1.00  0.00    -0.248 NA
ATOM     50  C   UNL A   1      48.226  29.205  28.481  1.00  0.00     0.031 C 
ATOM     51  C   UNL A   1      42.829  31.599  29.880  1.00  0.00     0.029 A 
ATOM     52  C   UNL A   1      43.822  30.722  29.476  1.00  0.00     0.049 A 
ATOM     53  H   UNL A   1      43.649  28.732  28.799  1.00  0.00     0.167 HD
ATOM     54  C   UNL A   1      46.154  30.026  29.012  1.00  0.00     0.074 A 
ATOM     55  C   UNL A   1      47.579  30.267  28.941  1.00  0.00     0.031 C 
ATOM     56  C   UNL A   1      45.243  30.947  29.408  1.00  0.00     0.037 A 
BRANCH  43  57
ATOM     57  C   UNL A   1      39.409  28.948  29.206  1.00  0.00     0.057 A 
ATOM     58  C   UNL A   1      38.621  29.390  28.135  1.00  0.00     0.134 A 
ATOM     59  C   UNL A   1      38.779  28.773  30.444  1.00  0.00     0.134 A 
ATOM     60  F   UNL A   1      39.167  29.587  26.926  1.00  0.00    -0.206 F 
ATOM     61  C   UNL A   1      37.262  29.668  28.296  1.00  0.00     0.040 A 
ATOM     62  C   UNL A   1      37.417  29.025  30.612  1.00  0.00     0.040 A 
ATOM     63  F   UNL A   1      39.475  28.346  31.508  1.00  0.00    -0.206 F 
ATOM     64  C   UNL A   1      36.655  29.480  29.536  1.00  0.00     0.006 A 
ENDBRANCH  43  57
BRANCH  44  65
ATOM     65  C   UNL A   1      48.926  26.525  27.557  1.00  0.00     0.057 A 
ATOM     66  C   UNL A   1      49.476  26.744  26.289  1.00  0.00     0.134 A 
ATOM     67  C   UNL A   1      49.758  25.974  28.538  1.00  0.00     0.134 A 
ATOM     68  F   UNL A   1      48.721  27.252  25.305  1.00  0.00    -0.206 F 
ATOM     69  C   UNL A   1      50.801  26.412  26.001  1.00  0.00     0.040 A 
ATOM     70  C   UNL A   1      51.090  25.657  28.270  1.00  0.00     0.040 A 
ATOM     71  F   UNL A   1      49.288  25.747  29.774  1.00  0.00    -0.206 F 
ATOM     72  C   UNL A   1      51.613  25.870  26.996  1.00  0.00     0.006 A 
ENDBRANCH  44  65
BRANCH  56  73
ATOM     73  C   UNL A   1      45.762  32.291  29.821  1.00  0.00     0.057 A 
ATOM     74  C   UNL A   1      46.163  32.552  31.137  1.00  0.00     0.134 A 
ATOM     75  C   UNL A   1      45.898  33.322  28.885  1.00  0.00     0.134 A 
ATOM     76  F   UNL A   1      46.044  31.608  32.084  1.00  0.00    -0.206 F 
ATOM     77  C   UNL A   1      46.664  33.800  31.511  1.00  0.00     0.040 A 
ATOM     78  C   UNL A   1      46.417  34.568  29.241  1.00  0.00     0.040 A 
ATOM     79  F   UNL A   1      45.538  33.134  27.606  1.00  0.00    -0.206 F 
ATOM     80  C   UNL A   1      46.797  34.810  30.561  1.00  0.00     0.006 A 
ENDBRANCH  56  73
ENDBRANCH  30  31
ENDBRANCH  22  25
ENDBRANCH  20  21
ENDBRANCH   1  20
TORSDOF 13
ENDMDL
MODEL 3
REMARK VINA RESULT:     -10.7      0.389      6.672
REMARK SMILES [NH3+][C@@H](CC(=O)NCCCNC(=O)c1ccc(-c2c3nc(c(-c4c(F)cccc4F)c4ccc([nH]4)c(-c4c(F)cccc4F)c4nc(c(-c5c(F)cccc5F)c5ccc2[nH]5)C=C4)C=C3)cc1)[NH+]1CCOCC1
REMARK SMILES IDX 8 1 7 2 6 3 4 4 5 5 3 7 2 8 1 9 67 13 68 14 72 15 69 17
REMARK SMILES IDX 71 18 70 19 9 20 10 21 11 22 12 24 13 25 14 26 66 27 15 28
REMARK SMILES IDX 65 29 16 30 17 31 18 32 59 33 19 34 64 35 58 36 60 37 20 38
REMARK SMILES IDX 63 39 57 40 56 41 21 43 47 44 30 45 46 46 31 47 34 48 45 49
REMARK SMILES IDX 61 50 32 51 33 52 44 54 62 55 35 56 22 57 23 58 28 59 24 60
REMARK SMILES IDX 25 61 27 62 29 63 26 64 48 65 49 66 54 67 50 68 51 69 53 70
REMARK SMILES IDX 55 71 52 72 36 73 37 74 42 75 38 76 39 77 41 78 43 79 40 80
REMARK H PARENT 6 6 1 10 1 11 1 12 67 16 10 23 60 42 34 53
REMARK Flexibility Score: inf
ROOT
ATOM      1  C   UNL A   1      31.300  31.982  26.601  1.00  0.00     0.042 C 
ENDROOT
BRANCH   1   2
ATOM      2  C   UNL A   1      31.406  30.463  26.514  1.00  0.00     0.117 C 
BRANCH   2   3
ATOM      3  N   UNL A   1      32.288  30.028  25.450  1.00  0.00    -0.356 N 
ATOM      4  C   UNL A   1      32.029  29.418  24.268  1.00  0.00     0.232 C 
ATOM      5  O   UNL A   1      32.974  29.308  23.482  1.00  0.00    -0.275 OA
ATOM      6  H   UNL A   1      33.242  30.207  25.615  1.00  0.00     0.163 HD
BRANCH   4   7
ATOM      7  C   UNL A   1      30.645  28.971  23.875  1.00  0.00     0.232 C 
BRANCH   7   8
ATOM      8  C   UNL A   1      29.994  29.481  22.578  1.00  0.00     0.389 C 
BRANCH   8   9
ATOM      9  N   UNL A   1      30.915  30.078  21.627  1.00  0.00    -0.308 N 
ATOM     10  H   UNL A   1      31.858  29.734  21.804  1.00  0.00     0.349 HD
ATOM     11  H   UNL A   1      30.898  31.093  21.728  1.00  0.00     0.349 HD
ATOM     12  H   UNL A   1      30.634  29.827  20.679  1.00  0.00     0.349 HD
ENDBRANCH   8   9
BRANCH   8  13
ATOM     13  N   UNL A   1      28.769  30.249  22.562  1.00  0.00    -0.282 N 
ATOM     14  C   UNL A   1      28.028  30.523  21.333  1.00  0.00     0.296 C 
ATOM     15  C   UNL A   1      28.700  31.376  23.502  1.00  0.00     0.296 C 
ATOM     16  H   UNL A   1      28.226  29.461  22.916  1.00  0.00     0.353 HD
ATOM     17  C   UNL A   1      28.154  31.947  20.769  1.00  0.00     0.222 C 
ATOM     18  C   UNL A   1      28.871  32.756  22.852  1.00  0.00     0.222 C 
ATOM     19  O   UNL A   1      27.945  32.939  21.777  1.00  0.00    -0.370 OA
ENDBRANCH   8  13
ENDBRANCH   7   8
ENDBRANCH   4   7
ENDBRANCH   2   3
ENDBRANCH   1   2
BRANCH   1  20
ATOM     20  C   UNL A   1      32.636  32.711  26.724  1.00  0.00     0.118 C 
BRANCH  20  21
ATOM     21  N   UNL A   1      32.514  33.986  27.406  1.00  0.00    -0.352 N 
ATOM     22  C   UNL A   1      33.159  34.471  28.519  1.00  0.00     0.251 C 
ATOM     23  H   UNL A   1      31.863  34.607  27.007  1.00  0.00     0.163 HD
ATOM     24  O   UNL A   1      32.743  35.496  29.049  1.00  0.00    -0.269 OA
BRANCH  22  25
ATOM     25  C   UNL A   1      34.331  33.774  29.101  1.00  0.00     0.039 A 
ATOM     26  C   UNL A   1      34.101  32.705  29.974  1.00  0.00     0.014 A 
ATOM     27  C   UNL A   1      35.640  34.201  28.866  1.00  0.00     0.014 A 
ATOM     28  C   UNL A   1      35.177  32.036  30.566  1.00  0.00     0.010 A 
ATOM     29  C   UNL A   1      36.716  33.488  29.398  1.00  0.00     0.010 A 
ATOM     30  C   UNL A   1      36.497  32.405  30.263  1.00  0.00    -0.014 A 
BRANCH  30  31
ATOM     31  C   UNL A   1      37.652  31.684  30.857  1.00  0.00     0.031 A 
ATOM     32  C   UNL A   1      38.137  32.029  32.240  1.00  0.00     0.074 A 
ATOM     33  C   UNL A   1      38.307  30.756  30.132  1.00  0.00     0.049 A 
ATOM     34  N   UNL A   1      39.171  31.565  32.895  1.00  0.00    -0.248 NA
ATOM     35  C   UNL A   1      37.372  33.050  32.975  1.00  0.00     0.031 C 
ATOM     36  C   UNL A   1      37.972  30.357  28.765  1.00  0.00     0.029 A 
ATOM     37  N   UNL A   1      39.402  29.988  30.444  1.00  0.00    -0.354 N 
ATOM     38  C   UNL A   1      39.197  32.252  34.102  1.00  0.00     0.074 A 
ATOM     39  C   UNL A   1      38.096  33.191  34.076  1.00  0.00     0.031 C 
ATOM     40  C   UNL A   1      38.833  29.409  28.359  1.00  0.00     0.029 A 
ATOM     41  C   UNL A   1      39.800  29.157  29.424  1.00  0.00     0.049 A 
ATOM     42  H   UNL A   1      39.859  30.029  31.315  1.00  0.00     0.167 HD
ATOM     43  C   UNL A   1      40.047  32.102  35.146  1.00  0.00     0.037 A 
ATOM     44  C   UNL A   1      40.832  28.296  29.350  1.00  0.00     0.037 A 
ATOM     45  C   UNL A   1      41.116  31.139  35.194  1.00  0.00     0.049 A 
ATOM     46  C   UNL A   1      41.748  28.132  30.531  1.00  0.00     0.074 A 
ATOM     47  C   UNL A   1      41.978  30.862  36.241  1.00  0.00     0.029 A 
ATOM     48  N   UNL A   1      41.464  30.293  34.153  1.00  0.00    -0.354 N 
ATOM     49  N   UNL A   1      41.717  28.743  31.689  1.00  0.00    -0.248 NA
ATOM     50  C   UNL A   1      42.836  27.154  30.395  1.00  0.00     0.031 C 
ATOM     51  C   UNL A   1      42.872  29.870  35.820  1.00  0.00     0.029 A 
ATOM     52  C   UNL A   1      42.541  29.506  34.525  1.00  0.00     0.049 A 
ATOM     53  H   UNL A   1      41.013  30.258  33.279  1.00  0.00     0.167 HD
ATOM     54  C   UNL A   1      42.766  28.209  32.427  1.00  0.00     0.074 A 
ATOM     55  C   UNL A   1      43.405  27.216  31.590  1.00  0.00     0.031 C 
ATOM     56  C   UNL A   1      43.163  28.516  33.685  1.00  0.00     0.037 A 
BRANCH  43  57
ATOM     57  C   UNL A   1      39.855  33.004  36.330  1.00  0.00     0.057 A 
ATOM     58  C   UNL A   1      38.945  32.698  37.350  1.00  0.00     0.134 A 
ATOM     59  C   UNL A   1      40.620  34.167  36.472  1.00  0.00     0.134 A 
ATOM     60  F   UNL A   1      38.174  31.603  37.267  1.00  0.00    -0.206 F 
ATOM     61  C   UNL A   1      38.786  33.531  38.459  1.00  0.00     0.040 A 
ATOM     62  C   UNL A   1      40.489  34.995  37.588  1.00  0.00     0.040 A 
ATOM     63  F   UNL A   1      41.515  34.514  35.535  1.00  0.00    -0.206 F 
ATOM     64  C   UNL A   1      39.565  34.680  38.583  1.00  0.00     0.006 A 
ENDBRANCH  43  57
BRANCH  44  65
ATOM     65  C   UNL A   1      41.047  27.504  28.114  1.00  0.00     0.057 A 
ATOM     66  C   UNL A   1      41.820  28.006  27.061  1.00  0.00     0.134 A 
ATOM     67  C   UNL A   1      40.481  26.234  27.954  1.00  0.00     0.134 A 
ATOM     68  F   UNL A   1      42.370  29.225  27.151  1.00  0.00    -0.206 F 
ATOM     69  C   UNL A   1      42.012  27.280  25.886  1.00  0.00     0.040 A 
ATOM     70  C   UNL A   1      40.683  25.487  26.793  1.00  0.00     0.040 A 
ATOM     71  F   UNL A   1      39.736  25.697  28.931  1.00  0.00    -0.206 F 
ATOM     72  C   UNL A   1      41.444  26.014  25.751  1.00  0.00     0.006 A 
ENDBRANCH  44  65
BRANCH  56  73
ATOM     73  C   UNL A   1      44.323  27.749  34.244  1.00  0.00     0.057 A 
ATOM     74  C   UNL A   1      45.631  28.247  34.186  1.00  0.00     0.134 A 
ATOM     75  C   UNL A   1      44.126  26.518  34.880  1.00  0.00     0.134 A 
ATOM     76  F   UNL A   1      45.886  29.416  33.578  1.00  0.00    -0.206 F 
ATOM     77  C   UNL A   1      46.705  27.537  34.726  1.00  0.00     0.040 A 
ATOM     78  C   UNL A   1      45.188  25.808  35.441  1.00  0.00     0.040 A 
ATOM     79  F   UNL A   1      42.896  25.989  34.974  1.00  0.00    -0.206 F 
ATOM     80  C   UNL A   1      46.484  26.317  35.361  1.00  0.00     0.006 A 
ENDBRANCH  56  73
ENDBRANCH  30  31
ENDBRANCH  22  25
ENDBRANCH  20  21
ENDBRANCH   1  20
TORSDOF 13
ENDMDL
