MODEL 1
REMARK VINA RESULT:     -12.0      0.000      0.000
REMARK SMILES O=C(NCCCNC(=O)[C@H]1[C@@H](C(=O)n2cc(Cl)cn2)[C@H]2CC[C@@H]1O2)c1ccc(-c2c3nc(c(-c4c(F)cccc4F)c4ccc([nH]4)c(-c4c(F)cccc4F)c4nc(c(-c5c(F)cccc5F)c5ccc2[nH]5)C=C4)C=C3)cc1
REMARK SMILES IDX 5 1 4 2 3 3 1 4 2 5 25 7 26 8 78 9 27 10 77 11 28 12 29 13
REMARK SMILES IDX 30 14 71 15 31 16 76 17 70 18 72 19 32 20 75 21 69 22 68 23
REMARK SMILES IDX 33 25 59 26 42 27 58 28 43 29 46 30 57 31 73 32 44 33 45 34
REMARK SMILES IDX 56 36 74 37 47 38 34 39 35 40 40 41 36 42 37 43 39 44 41 45
REMARK SMILES IDX 38 46 60 47 61 48 66 49 62 50 63 51 65 52 67 53 64 54 48 55
REMARK SMILES IDX 49 56 54 57 50 58 51 59 53 60 55 61 52 62 6 63 7 64 8 65
REMARK SMILES IDX 9 67 10 68 11 69 23 70 20 71 22 72 24 73 21 74 12 75 13 76
REMARK SMILES IDX 14 77 15 78 19 79 16 80 18 81 17 82
REMARK H PARENT 3 6 72 24 46 35 7 66
REMARK Flexibility Score: inf
ROOT
ATOM      1  C   UNL A   1      32.848  30.921  27.197  1.00  0.00     0.042 C 
ENDROOT
BRANCH   1   2
ATOM      2  C   UNL A   1      34.301  31.150  27.633  1.00  0.00     0.118 C 
BRANCH   2   3
ATOM      3  N   UNL A   1      34.492  31.607  28.996  1.00  0.00    -0.352 N 
ATOM      4  O   UNL A   1      35.468  32.263  30.881  1.00  0.00    -0.269 OA
ATOM      5  C   UNL A   1      35.562  31.595  29.850  1.00  0.00     0.251 C 
ATOM      6  H   UNL A   1      33.683  32.008  29.389  1.00  0.00     0.163 HD
BRANCH   5   7
ATOM      7  C   UNL A   1      36.753  30.736  29.656  1.00  0.00     0.039 A 
ATOM      8  C   UNL A   1      36.750  29.340  29.699  1.00  0.00     0.014 A 
ATOM      9  C   UNL A   1      37.971  31.414  29.498  1.00  0.00     0.014 A 
ATOM     10  C   UNL A   1      37.940  28.640  29.784  1.00  0.00     0.010 A 
ATOM     11  C   UNL A   1      39.164  30.717  29.524  1.00  0.00     0.010 A 
ATOM     12  C   UNL A   1      39.141  29.340  29.745  1.00  0.00    -0.014 A 
BRANCH  12  13
ATOM     13  C   UNL A   1      40.382  28.584  29.829  1.00  0.00     0.031 A 
ATOM     14  C   UNL A   1      40.966  28.476  31.204  1.00  0.00     0.074 A 
ATOM     15  C   UNL A   1      40.810  27.884  28.758  1.00  0.00     0.049 A 
ATOM     16  N   UNL A   1      42.188  28.653  31.594  1.00  0.00    -0.248 NA
ATOM     17  C   UNL A   1      40.023  28.222  32.313  1.00  0.00     0.031 C 
ATOM     18  C   UNL A   1      40.141  27.729  27.461  1.00  0.00     0.029 A 
ATOM     19  N   UNL A   1      41.867  27.040  28.649  1.00  0.00    -0.354 N 
ATOM     20  C   UNL A   1      42.202  28.349  32.959  1.00  0.00     0.074 A 
ATOM     21  C   UNL A   1      40.831  28.222  33.371  1.00  0.00     0.031 C 
ATOM     22  C   UNL A   1      40.655  26.657  26.819  1.00  0.00     0.029 A 
ATOM     23  C   UNL A   1      41.762  26.137  27.600  1.00  0.00     0.049 A 
ATOM     24  H   UNL A   1      42.640  27.066  29.259  1.00  0.00     0.167 HD
ATOM     25  C   UNL A   1      43.339  28.008  33.621  1.00  0.00     0.037 A 
ATOM     26  C   UNL A   1      42.460  24.983  27.467  1.00  0.00     0.037 A 
ATOM     27  C   UNL A   1      44.516  28.482  32.952  1.00  0.00     0.049 A 
ATOM     28  C   UNL A   1      43.631  25.064  28.376  1.00  0.00     0.074 A 
ATOM     29  C   UNL A   1      45.017  29.729  32.635  1.00  0.00     0.029 A 
ATOM     30  N   UNL A   1      45.239  27.593  32.196  1.00  0.00    -0.354 N 
ATOM     31  N   UNL A   1      44.615  25.906  28.218  1.00  0.00    -0.248 NA
ATOM     32  C   UNL A   1      43.469  24.538  29.725  1.00  0.00     0.031 C 
ATOM     33  C   UNL A   1      45.626  29.563  31.358  1.00  0.00     0.029 A 
ATOM     34  C   UNL A   1      45.502  28.220  31.005  1.00  0.00     0.049 A 
ATOM     35  H   UNL A   1      45.515  26.686  32.458  1.00  0.00     0.167 HD
ATOM     36  C   UNL A   1      44.941  26.323  29.501  1.00  0.00     0.074 A 
ATOM     37  C   UNL A   1      44.242  25.399  30.392  1.00  0.00     0.031 C 
ATOM     38  C   UNL A   1      45.508  27.544  29.731  1.00  0.00     0.037 A 
BRANCH  25  39
ATOM     39  C   UNL A   1      43.388  26.942  34.687  1.00  0.00     0.057 A 
ATOM     40  C   UNL A   1      43.323  25.585  34.323  1.00  0.00     0.134 A 
ATOM     41  C   UNL A   1      43.195  27.206  36.059  1.00  0.00     0.134 A 
ATOM     42  F   UNL A   1      43.472  25.209  33.044  1.00  0.00    -0.206 F 
ATOM     43  C   UNL A   1      43.018  24.576  35.247  1.00  0.00     0.040 A 
ATOM     44  C   UNL A   1      42.940  26.202  36.997  1.00  0.00     0.040 A 
ATOM     45  F   UNL A   1      43.140  28.451  36.547  1.00  0.00    -0.206 F 
ATOM     46  C   UNL A   1      42.817  24.885  36.586  1.00  0.00     0.006 A 
ENDBRANCH  25  39
BRANCH  26  47
ATOM     47  C   UNL A   1      41.947  23.702  26.927  1.00  0.00     0.057 A 
ATOM     48  C   UNL A   1      42.724  22.897  26.086  1.00  0.00     0.134 A 
ATOM     49  C   UNL A   1      40.764  23.116  27.419  1.00  0.00     0.134 A 
ATOM     50  F   UNL A   1      43.897  23.344  25.612  1.00  0.00    -0.206 F 
ATOM     51  C   UNL A   1      42.346  21.589  25.750  1.00  0.00     0.040 A 
ATOM     52  C   UNL A   1      40.370  21.817  27.084  1.00  0.00     0.040 A 
ATOM     53  F   UNL A   1      39.992  23.755  28.309  1.00  0.00    -0.206 F 
ATOM     54  C   UNL A   1      41.167  21.044  26.253  1.00  0.00     0.006 A 
ENDBRANCH  26  47
BRANCH  38  55
ATOM     55  C   UNL A   1      45.925  28.361  28.540  1.00  0.00     0.057 A 
ATOM     56  C   UNL A   1      45.077  29.280  27.901  1.00  0.00     0.134 A 
ATOM     57  C   UNL A   1      47.262  28.358  28.140  1.00  0.00     0.134 A 
ATOM     58  F   UNL A   1      43.809  29.438  28.294  1.00  0.00    -0.206 F 
ATOM     59  C   UNL A   1      45.528  30.123  26.882  1.00  0.00     0.040 A 
ATOM     60  C   UNL A   1      47.736  29.218  27.146  1.00  0.00     0.040 A 
ATOM     61  F   UNL A   1      48.148  27.556  28.753  1.00  0.00    -0.206 F 
ATOM     62  C   UNL A   1      46.866  30.099  26.506  1.00  0.00     0.006 A 
ENDBRANCH  38  55
ENDBRANCH  12  13
ENDBRANCH   5   7
ENDBRANCH   2   3
ENDBRANCH   1   2
BRANCH   1  63
ATOM     63  C   UNL A   1      32.680  30.055  25.955  1.00  0.00     0.117 C 
BRANCH  63  64
ATOM     64  N   UNL A   1      33.463  28.839  26.022  1.00  0.00    -0.356 N 
ATOM     65  C   UNL A   1      33.108  27.649  25.497  1.00  0.00     0.226 C 
ATOM     66  H   UNL A   1      34.328  28.885  26.491  1.00  0.00     0.163 HD
ATOM     67  O   UNL A   1      33.904  27.146  24.706  1.00  0.00    -0.275 OA
BRANCH  65  68
ATOM     68  C   UNL A   1      31.770  27.021  25.757  1.00  0.00     0.122 C 
ATOM     69  C   UNL A   1      30.668  27.261  24.699  1.00  0.00     0.125 C 
ATOM     70  C   UNL A   1      31.605  25.526  26.040  1.00  0.00     0.132 C 
ATOM     71  C   UNL A   1      29.905  25.929  24.727  1.00  0.00     0.132 C 
ATOM     72  C   UNL A   1      31.838  24.569  24.873  1.00  0.00     0.035 C 
ATOM     73  O   UNL A   1      30.149  25.480  26.092  1.00  0.00    -0.373 OA
ATOM     74  C   UNL A   1      30.620  24.817  23.975  1.00  0.00     0.035 C 
BRANCH  69  75
ATOM     75  C   UNL A   1      30.778  27.871  23.301  1.00  0.00     0.253 C 
ATOM     76  O   UNL A   1      31.492  27.342  22.442  1.00  0.00    -0.272 OA
BRANCH  75  77
ATOM     77  N   UNL A   1      30.079  29.046  22.950  1.00  0.00    -0.206 N 
ATOM     78  C   UNL A   1      29.524  30.040  23.732  1.00  0.00     0.138 A 
ATOM     79  N   UNL A   1      29.880  29.329  21.625  1.00  0.00    -0.172 NA
ATOM     80  C   UNL A   1      28.706  30.779  22.917  1.00  0.00     0.079 A 
ATOM     81  C   UNL A   1      28.940  30.280  21.631  1.00  0.00     0.156 A 
ATOM     82  Cl  UNL A   1      27.654  32.025  23.358  1.00  0.00    -0.081 Cl
ENDBRANCH  75  77
ENDBRANCH  69  75
ENDBRANCH  65  68
ENDBRANCH  63  64
ENDBRANCH   1  63
TORSDOF 12
ENDMDL
MODEL 2
REMARK VINA RESULT:     -11.9      1.850      2.819
REMARK SMILES O=C(NCCCNC(=O)[C@H]1[C@@H](C(=O)n2cc(Cl)cn2)[C@H]2CC[C@@H]1O2)c1ccc(-c2c3nc(c(-c4c(F)cccc4F)c4ccc([nH]4)c(-c4c(F)cccc4F)c4nc(c(-c5c(F)cccc5F)c5ccc2[nH]5)C=C4)C=C3)cc1
REMARK SMILES IDX 5 1 4 2 3 3 1 4 2 5 25 7 26 8 78 9 27 10 77 11 28 12 29 13
REMARK SMILES IDX 30 14 71 15 31 16 76 17 70 18 72 19 32 20 75 21 69 22 68 23
REMARK SMILES IDX 33 25 59 26 42 27 58 28 43 29 46 30 57 31 73 32 44 33 45 34
REMARK SMILES IDX 56 36 74 37 47 38 34 39 35 40 40 41 36 42 37 43 39 44 41 45
REMARK SMILES IDX 38 46 60 47 61 48 66 49 62 50 63 51 65 52 67 53 64 54 48 55
REMARK SMILES IDX 49 56 54 57 50 58 51 59 53 60 55 61 52 62 6 63 7 64 8 65
REMARK SMILES IDX 9 67 10 68 11 69 23 70 20 71 22 72 24 73 21 74 12 75 13 76
REMARK SMILES IDX 14 77 15 78 19 79 16 80 18 81 17 82
REMARK H PARENT 3 6 72 24 46 35 7 66
REMARK Flexibility Score: inf
ROOT
ATOM      1  C   UNL A   1      34.458  29.181  27.349  1.00  0.00     0.042 C 
ENDROOT
BRANCH   1   2
ATOM      2  C   UNL A   1      34.828  30.661  27.511  1.00  0.00     0.118 C 
BRANCH   2   3
ATOM      3  N   UNL A   1      34.538  31.252  28.804  1.00  0.00    -0.352 N 
ATOM      4  O   UNL A   1      34.803  32.246  30.772  1.00  0.00    -0.269 OA
ATOM      5  C   UNL A   1      35.306  31.536  29.900  1.00  0.00     0.251 C 
ATOM      6  H   UNL A   1      33.592  31.499  28.915  1.00  0.00     0.163 HD
BRANCH   5   7
ATOM      7  C   UNL A   1      36.641  30.941  30.140  1.00  0.00     0.039 A 
ATOM      8  C   UNL A   1      37.852  31.632  30.065  1.00  0.00     0.014 A 
ATOM      9  C   UNL A   1      36.655  29.559  30.382  1.00  0.00     0.014 A 
ATOM     10  C   UNL A   1      39.051  30.942  30.031  1.00  0.00     0.010 A 
ATOM     11  C   UNL A   1      37.852  28.868  30.407  1.00  0.00     0.010 A 
ATOM     12  C   UNL A   1      39.039  29.557  30.153  1.00  0.00    -0.014 A 
BRANCH  12  13
ATOM     13  C   UNL A   1      40.311  28.851  30.122  1.00  0.00     0.031 A 
ATOM     14  C   UNL A   1      40.989  28.709  31.449  1.00  0.00     0.074 A 
ATOM     15  C   UNL A   1      40.693  28.216  28.995  1.00  0.00     0.049 A 
ATOM     16  N   UNL A   1      42.227  28.919  31.766  1.00  0.00    -0.248 NA
ATOM     17  C   UNL A   1      40.133  28.368  32.605  1.00  0.00     0.031 C 
ATOM     18  C   UNL A   1      39.944  28.089  27.738  1.00  0.00     0.029 A 
ATOM     19  N   UNL A   1      41.772  27.422  28.778  1.00  0.00    -0.354 N 
ATOM     20  C   UNL A   1      42.344  28.559  33.112  1.00  0.00     0.074 A 
ATOM     21  C   UNL A   1      41.010  28.357  33.606  1.00  0.00     0.031 C 
ATOM     22  C   UNL A   1      40.456  27.068  27.015  1.00  0.00     0.029 A 
ATOM     23  C   UNL A   1      41.632  26.562  27.698  1.00  0.00     0.049 A 
ATOM     24  H   UNL A   1      42.582  27.455  29.337  1.00  0.00     0.167 HD
ATOM     25  C   UNL A   1      43.536  28.237  33.683  1.00  0.00     0.037 A 
ATOM     26  C   UNL A   1      42.364  25.445  27.467  1.00  0.00     0.037 A 
ATOM     27  C   UNL A   1      44.646  28.788  32.960  1.00  0.00     0.049 A 
ATOM     28  C   UNL A   1      43.590  25.536  28.301  1.00  0.00     0.074 A 
ATOM     29  C   UNL A   1      45.075  30.068  32.668  1.00  0.00     0.029 A 
ATOM     30  N   UNL A   1      45.350  27.964  32.119  1.00  0.00    -0.354 N 
ATOM     31  N   UNL A   1      44.527  26.425  28.117  1.00  0.00    -0.248 NA
ATOM     32  C   UNL A   1      43.539  24.946  29.632  1.00  0.00     0.031 C 
ATOM     33  C   UNL A   1      45.604  29.983  31.348  1.00  0.00     0.029 A 
ATOM     34  C   UNL A   1      45.508  28.652  30.943  1.00  0.00     0.049 A 
ATOM     35  H   UNL A   1      45.679  27.059  32.320  1.00  0.00     0.167 HD
ATOM     36  C   UNL A   1      44.922  26.799  29.394  1.00  0.00     0.074 A 
ATOM     37  C   UNL A   1      44.321  25.809  30.286  1.00  0.00     0.031 C 
ATOM     38  C   UNL A   1      45.456  28.032  29.642  1.00  0.00     0.037 A 
BRANCH  25  39
ATOM     39  C   UNL A   1      43.698  27.130  34.693  1.00  0.00     0.057 A 
ATOM     40  C   UNL A   1      43.574  25.789  34.287  1.00  0.00     0.134 A 
ATOM     41  C   UNL A   1      43.671  27.340  36.088  1.00  0.00     0.134 A 
ATOM     42  F   UNL A   1      43.567  25.462  32.987  1.00  0.00    -0.206 F 
ATOM     43  C   UNL A   1      43.369  24.746  35.201  1.00  0.00     0.040 A 
ATOM     44  C   UNL A   1      43.516  26.302  37.009  1.00  0.00     0.040 A 
ATOM     45  F   UNL A   1      43.689  28.566  36.626  1.00  0.00    -0.206 F 
ATOM     46  C   UNL A   1      43.331  25.003  36.566  1.00  0.00     0.006 A 
ENDBRANCH  25  39
BRANCH  26  47
ATOM     47  C   UNL A   1      41.866  24.167  26.904  1.00  0.00     0.057 A 
ATOM     48  C   UNL A   1      42.632  23.415  26.006  1.00  0.00     0.134 A 
ATOM     49  C   UNL A   1      40.722  23.531  27.423  1.00  0.00     0.134 A 
ATOM     50  F   UNL A   1      43.770  23.913  25.501  1.00  0.00    -0.206 F 
ATOM     51  C   UNL A   1      42.278  22.108  25.640  1.00  0.00     0.040 A 
ATOM     52  C   UNL A   1      40.352  22.232  27.058  1.00  0.00     0.040 A 
ATOM     53  F   UNL A   1      39.969  24.115  28.365  1.00  0.00    -0.206 F 
ATOM     54  C   UNL A   1      41.136  21.511  26.170  1.00  0.00     0.006 A 
ENDBRANCH  26  47
BRANCH  38  55
ATOM     55  C   UNL A   1      45.759  28.916  28.464  1.00  0.00     0.057 A 
ATOM     56  C   UNL A   1      44.830  29.814  27.915  1.00  0.00     0.134 A 
ATOM     57  C   UNL A   1      47.069  28.998  27.988  1.00  0.00     0.134 A 
ATOM     58  F   UNL A   1      43.582  29.891  28.388  1.00  0.00    -0.206 F 
ATOM     59  C   UNL A   1      45.177  30.720  26.909  1.00  0.00     0.040 A 
ATOM     60  C   UNL A   1      47.438  29.920  27.006  1.00  0.00     0.040 A 
ATOM     61  F   UNL A   1      48.028  28.220  28.514  1.00  0.00    -0.206 F 
ATOM     62  C   UNL A   1      46.490  30.780  26.456  1.00  0.00     0.006 A 
ENDBRANCH  38  55
ENDBRANCH  12  13
ENDBRANCH   5   7
ENDBRANCH   2   3
ENDBRANCH   1   2
BRANCH   1  63
ATOM     63  C   UNL A   1      34.115  28.758  25.926  1.00  0.00     0.117 C 
BRANCH  63  64
ATOM     64  N   UNL A   1      33.209  29.684  25.280  1.00  0.00    -0.356 N 
ATOM     65  C   UNL A   1      32.004  29.370  24.763  1.00  0.00     0.226 C 
ATOM     66  H   UNL A   1      33.498  30.623  25.211  1.00  0.00     0.163 HD
ATOM     67  O   UNL A   1      31.045  30.009  25.194  1.00  0.00    -0.275 OA
BRANCH  65  68
ATOM     68  C   UNL A   1      31.809  28.226  23.812  1.00  0.00     0.122 C 
ATOM     69  C   UNL A   1      31.610  26.824  24.433  1.00  0.00     0.125 C 
ATOM     70  C   UNL A   1      30.733  28.237  22.724  1.00  0.00     0.132 C 
ATOM     71  C   UNL A   1      30.620  26.179  23.453  1.00  0.00     0.132 C 
ATOM     72  C   UNL A   1      29.281  28.114  23.184  1.00  0.00     0.035 C 
ATOM     73  O   UNL A   1      30.931  26.885  22.216  1.00  0.00    -0.373 OA
ATOM     74  C   UNL A   1      29.190  26.656  23.650  1.00  0.00     0.035 C 
BRANCH  69  75
ATOM     75  C   UNL A   1      31.366  26.434  25.891  1.00  0.00     0.253 C 
ATOM     76  O   UNL A   1      30.984  27.278  26.710  1.00  0.00    -0.272 OA
BRANCH  75  77
ATOM     77  N   UNL A   1      31.567  25.113  26.346  1.00  0.00    -0.206 N 
ATOM     78  C   UNL A   1      32.717  24.355  26.454  1.00  0.00     0.138 A 
ATOM     79  N   UNL A   1      30.489  24.390  26.784  1.00  0.00    -0.172 NA
ATOM     80  C   UNL A   1      32.322  23.058  26.656  1.00  0.00     0.079 A 
ATOM     81  C   UNL A   1      30.935  23.130  26.824  1.00  0.00     0.156 A 
ATOM     82  Cl  UNL A   1      33.291  21.675  26.707  1.00  0.00    -0.081 Cl
ENDBRANCH  75  77
ENDBRANCH  69  75
ENDBRANCH  65  68
ENDBRANCH  63  64
ENDBRANCH   1  63
TORSDOF 12
ENDMDL
MODEL 3
REMARK VINA RESULT:     -11.7      2.685      3.493
REMARK SMILES O=C(NCCCNC(=O)[C@H]1[C@@H](C(=O)n2cc(Cl)cn2)[C@H]2CC[C@@H]1O2)c1ccc(-c2c3nc(c(-c4c(F)cccc4F)c4ccc([nH]4)c(-c4c(F)cccc4F)c4nc(c(-c5c(F)cccc5F)c5ccc2[nH]5)C=C4)C=C3)cc1
REMARK SMILES IDX 5 1 4 2 3 3 1 4 2 5 25 7 26 8 78 9 27 10 77 11 28 12 29 13
REMARK SMILES IDX 30 14 71 15 31 16 76 17 70 18 72 19 32 20 75 21 69 22 68 23
REMARK SMILES IDX 33 25 59 26 42 27 58 28 43 29 46 30 57 31 73 32 44 33 45 34
REMARK SMILES IDX 56 36 74 37 47 38 34 39 35 40 40 41 36 42 37 43 39 44 41 45
REMARK SMILES IDX 38 46 60 47 61 48 66 49 62 50 63 51 65 52 67 53 64 54 48 55
REMARK SMILES IDX 49 56 54 57 50 58 51 59 53 60 55 61 52 62 6 63 7 64 8 65
REMARK SMILES IDX 9 67 10 68 11 69 23 70 20 71 22 72 24 73 21 74 12 75 13 76
REMARK SMILES IDX 14 77 15 78 19 79 16 80 18 81 17 82
REMARK H PARENT 3 6 72 24 46 35 7 66
REMARK Flexibility Score: inf
ROOT
ATOM      1  C   UNL A   1      33.628  29.262  27.196  1.00  0.00     0.042 C 
ENDROOT
BRANCH   1   2
ATOM      2  C   UNL A   1      35.156  29.176  27.304  1.00  0.00     0.118 C 
BRANCH   2   3
ATOM      3  N   UNL A   1      35.807  30.259  28.015  1.00  0.00    -0.352 N 
ATOM      4  O   UNL A   1      37.367  31.658  28.752  1.00  0.00    -0.269 OA
ATOM      5  C   UNL A   1      37.113  30.533  28.319  1.00  0.00     0.251 C 
ATOM      6  H   UNL A   1      35.178  30.938  28.350  1.00  0.00     0.163 HD
BRANCH   5   7
ATOM      7  C   UNL A   1      38.194  29.521  28.269  1.00  0.00     0.039 A 
ATOM      8  C   UNL A   1      38.358  28.479  29.183  1.00  0.00     0.014 A 
ATOM      9  C   UNL A   1      39.149  29.704  27.258  1.00  0.00     0.014 A 
ATOM     10  C   UNL A   1      39.539  27.759  29.218  1.00  0.00     0.010 A 
ATOM     11  C   UNL A   1      40.308  28.950  27.250  1.00  0.00     0.010 A 
ATOM     12  C   UNL A   1      40.529  28.034  28.280  1.00  0.00    -0.014 A 
BRANCH  12  13
ATOM     13  C   UNL A   1      41.761  27.261  28.330  1.00  0.00     0.031 A 
ATOM     14  C   UNL A   1      42.588  27.470  29.561  1.00  0.00     0.074 A 
ATOM     15  C   UNL A   1      41.981  26.297  27.414  1.00  0.00     0.049 A 
ATOM     16  N   UNL A   1      43.863  27.676  29.669  1.00  0.00    -0.248 NA
ATOM     17  C   UNL A   1      41.867  27.547  30.848  1.00  0.00     0.031 C 
ATOM     18  C   UNL A   1      41.082  25.857  26.339  1.00  0.00     0.029 A 
ATOM     19  N   UNL A   1      42.996  25.399  27.336  1.00  0.00    -0.354 N 
ATOM     20  C   UNL A   1      44.128  27.721  31.041  1.00  0.00     0.074 A 
ATOM     21  C   UNL A   1      42.857  27.770  31.709  1.00  0.00     0.031 C 
ATOM     22  C   UNL A   1      41.465  24.635  25.909  1.00  0.00     0.029 A 
ATOM     23  C   UNL A   1      42.695  24.271  26.586  1.00  0.00     0.049 A 
ATOM     24  H   UNL A   1      43.868  25.537  27.771  1.00  0.00     0.167 HD
ATOM     25  C   UNL A   1      45.367  27.498  31.555  1.00  0.00     0.037 A 
ATOM     26  C   UNL A   1      43.352  23.086  26.629  1.00  0.00     0.037 A 
ATOM     27  C   UNL A   1      46.402  27.731  30.588  1.00  0.00     0.049 A 
ATOM     28  C   UNL A   1      44.672  23.331  27.264  1.00  0.00     0.074 A 
ATOM     29  C   UNL A   1      46.839  28.833  29.881  1.00  0.00     0.029 A 
ATOM     30  N   UNL A   1      46.968  26.647  29.966  1.00  0.00    -0.354 N 
ATOM     31  N   UNL A   1      45.612  24.057  26.724  1.00  0.00    -0.248 NA
ATOM     32  C   UNL A   1      44.760  23.166  28.708  1.00  0.00     0.031 C 
ATOM     33  C   UNL A   1      47.201  28.324  28.600  1.00  0.00     0.029 A 
ATOM     34  C   UNL A   1      47.008  26.944  28.628  1.00  0.00     0.049 A 
ATOM     35  H   UNL A   1      47.285  25.820  30.396  1.00  0.00     0.167 HD
ATOM     36  C   UNL A   1      46.172  24.763  27.780  1.00  0.00     0.074 A 
ATOM     37  C   UNL A   1      45.647  24.126  28.986  1.00  0.00     0.031 C 
ATOM     38  C   UNL A   1      46.776  25.972  27.588  1.00  0.00     0.037 A 
BRANCH  25  39
ATOM     39  C   UNL A   1      45.609  26.730  32.830  1.00  0.00     0.057 A 
ATOM     40  C   UNL A   1      45.154  25.404  32.944  1.00  0.00     0.134 A 
ATOM     41  C   UNL A   1      45.999  27.339  34.041  1.00  0.00     0.134 A 
ATOM     42  F   UNL A   1      44.737  24.725  31.866  1.00  0.00    -0.206 F 
ATOM     43  C   UNL A   1      45.033  24.759  34.183  1.00  0.00     0.040 A 
ATOM     44  C   UNL A   1      45.929  26.687  35.275  1.00  0.00     0.040 A 
ATOM     45  F   UNL A   1      46.370  28.623  34.109  1.00  0.00    -0.206 F 
ATOM     46  C   UNL A   1      45.413  25.405  35.353  1.00  0.00     0.006 A 
ENDBRANCH  25  39
BRANCH  26  47
ATOM     47  C   UNL A   1      42.743  21.738  26.532  1.00  0.00     0.057 A 
ATOM     48  C   UNL A   1      43.273  20.753  25.690  1.00  0.00     0.134 A 
ATOM     49  C   UNL A   1      41.766  21.304  27.448  1.00  0.00     0.134 A 
ATOM     50  F   UNL A   1      44.249  21.056  24.822  1.00  0.00    -0.206 F 
ATOM     51  C   UNL A   1      42.852  19.417  25.751  1.00  0.00     0.040 A 
ATOM     52  C   UNL A   1      41.329  19.977  27.513  1.00  0.00     0.040 A 
ATOM     53  F   UNL A   1      41.260  22.136  28.370  1.00  0.00    -0.206 F 
ATOM     54  C   UNL A   1      41.880  19.025  26.668  1.00  0.00     0.006 A 
ENDBRANCH  26  47
BRANCH  38  55
ATOM     55  C   UNL A   1      46.968  26.445  26.173  1.00  0.00     0.057 A 
ATOM     56  C   UNL A   1      46.064  27.295  25.515  1.00  0.00     0.134 A 
ATOM     57  C   UNL A   1      48.176  26.189  25.523  1.00  0.00     0.134 A 
ATOM     58  F   UNL A   1      44.933  27.692  26.108  1.00  0.00    -0.206 F 
ATOM     59  C   UNL A   1      46.330  27.828  24.251  1.00  0.00     0.040 A 
ATOM     60  C   UNL A   1      48.471  26.741  24.273  1.00  0.00     0.040 A 
ATOM     61  F   UNL A   1      49.119  25.443  26.119  1.00  0.00    -0.206 F 
ATOM     62  C   UNL A   1      47.543  27.556  23.628  1.00  0.00     0.006 A 
ENDBRANCH  38  55
ENDBRANCH  12  13
ENDBRANCH   5   7
ENDBRANCH   2   3
ENDBRANCH   1   2
BRANCH   1  63
ATOM     63  C   UNL A   1      33.101  29.557  25.797  1.00  0.00     0.117 C 
BRANCH  63  64
ATOM     64  N   UNL A   1      33.787  28.792  24.777  1.00  0.00    -0.356 N 
ATOM     65  C   UNL A   1      33.354  28.605  23.514  1.00  0.00     0.226 C 
ATOM     66  H   UNL A   1      34.641  28.372  25.027  1.00  0.00     0.163 HD
ATOM     67  O   UNL A   1      34.126  28.946  22.619  1.00  0.00    -0.275 OA
BRANCH  65  68
ATOM     68  C   UNL A   1      31.966  28.128  23.201  1.00  0.00     0.122 C 
ATOM     69  C   UNL A   1      31.842  26.874  22.306  1.00  0.00     0.125 C 
ATOM     70  C   UNL A   1      30.934  27.832  24.292  1.00  0.00     0.132 C 
ATOM     71  C   UNL A   1      30.604  26.183  22.895  1.00  0.00     0.132 C 
ATOM     72  C   UNL A   1      31.174  26.596  25.156  1.00  0.00     0.035 C 
ATOM     73  O   UNL A   1      29.868  27.317  23.441  1.00  0.00    -0.373 OA
ATOM     74  C   UNL A   1      30.896  25.439  24.189  1.00  0.00     0.035 C 
BRANCH  69  75
ATOM     75  C   UNL A   1      32.925  25.896  21.848  1.00  0.00     0.253 C 
ATOM     76  O   UNL A   1      33.278  25.863  20.664  1.00  0.00    -0.272 OA
BRANCH  75  77
ATOM     77  N   UNL A   1      33.547  25.007  22.750  1.00  0.00    -0.206 N 
ATOM     78  C   UNL A   1      34.286  25.244  23.893  1.00  0.00     0.138 A 
ATOM     79  N   UNL A   1      33.441  23.658  22.534  1.00  0.00    -0.172 NA
ATOM     80  C   UNL A   1      34.909  24.066  24.216  1.00  0.00     0.079 A 
ATOM     81  C   UNL A   1      34.376  23.126  23.328  1.00  0.00     0.156 A 
ATOM     82  Cl  UNL A   1      36.058  23.798  25.425  1.00  0.00    -0.081 Cl
ENDBRANCH  75  77
ENDBRANCH  69  75
ENDBRANCH  65  68
ENDBRANCH  63  64
ENDBRANCH   1  63
TORSDOF 12
ENDMDL
