MODEL 1
REMARK VINA RESULT:     -12.1      0.000      0.000
REMARK SMILES COc1ccc(OC)c(NC(=O)[C@@H]2[C@@H](C(=O)NCCCNC(=O)c3ccc(-c4c5nc(c(-c6c(F)cccc6F)c6ccc([nH]6)c(-c6c(F)cccc6F)c6nc(c(-c7c(F)cccc7F)c7ccc4[nH]7)C=C6)C=C5)cc3)[C@H]3C=C[C@@H]2C3)c1
REMARK SMILES IDX 18 1 17 2 15 3 16 4 14 6 13 7 81 8 78 9 80 10 82 11 79 12
REMARK SMILES IDX 11 13 10 14 12 16 9 17 3 18 4 19 83 20 5 21 6 22 2 23 1 24
REMARK SMILES IDX 7 25 8 26 19 27 20 28 21 29 22 30 23 32 24 33 25 34 77 35
REMARK SMILES IDX 26 36 76 37 27 38 28 39 29 40 70 41 30 42 75 43 69 44 71 45
REMARK SMILES IDX 31 46 74 47 68 48 67 49 32 51 58 52 41 53 57 54 42 55 45 56
REMARK SMILES IDX 56 57 72 58 43 59 44 60 55 62 73 63 46 64 33 65 34 66 39 67
REMARK SMILES IDX 35 68 36 69 38 70 40 71 37 72 59 73 60 74 65 75 61 76 62 77
REMARK SMILES IDX 64 78 66 79 63 80 47 81 48 82 53 83 49 84 50 85 52 86 54 87
REMARK SMILES IDX 51 88
REMARK H PARENT 17 5 10 15 21 31 71 50 45 61
REMARK Flexibility Score: inf
ROOT
ATOM      1  C   UNL A   1      37.258  20.647  24.955  1.00  0.00     0.117 C 
ENDROOT
BRANCH   1   2
ATOM      2  N   UNL A   1      37.619  21.842  25.680  1.00  0.00    -0.356 N 
ATOM      3  C   UNL A   1      36.943  22.951  26.036  1.00  0.00     0.224 C 
ATOM      4  O   UNL A   1      37.649  23.832  26.549  1.00  0.00    -0.275 OA
ATOM      5  H   UNL A   1      38.558  21.848  25.977  1.00  0.00     0.163 HD
BRANCH   3   6
ATOM      6  C   UNL A   1      35.430  23.156  25.981  1.00  0.00     0.098 C 
ATOM      7  C   UNL A   1      34.372  22.143  25.471  1.00  0.00     0.099 C 
ATOM      8  C   UNL A   1      33.520  22.979  24.471  1.00  0.00     0.025 C 
ATOM      9  C   UNL A   1      35.190  24.363  25.004  1.00  0.00     0.025 C 
ATOM     10  C   UNL A   1      34.390  23.123  23.231  1.00  0.00    -0.027 C 
ATOM     11  C   UNL A   1      33.670  24.423  24.949  1.00  0.00     0.017 C 
ATOM     12  C   UNL A   1      35.414  23.926  23.566  1.00  0.00    -0.027 C 
BRANCH   7  13
ATOM     13  C   UNL A   1      33.620  21.193  26.420  1.00  0.00     0.229 C 
ATOM     14  N   UNL A   1      33.290  19.894  26.258  1.00  0.00    -0.323 N 
ATOM     15  H   UNL A   1      33.079  19.459  27.116  1.00  0.00     0.170 HD
ATOM     16  O   UNL A   1      33.380  21.604  27.571  1.00  0.00    -0.274 OA
BRANCH  14  17
ATOM     17  C   UNL A   1      33.172  19.013  25.184  1.00  0.00     0.087 A 
ATOM     18  C   UNL A   1      33.496  16.750  24.385  1.00  0.00     0.121 A 
ATOM     19  C   UNL A   1      33.244  17.165  23.081  1.00  0.00     0.050 A 
ATOM     20  C   UNL A   1      33.508  17.675  25.429  1.00  0.00     0.076 A 
ATOM     21  C   UNL A   1      32.785  18.457  22.861  1.00  0.00     0.052 A 
ATOM     22  C   UNL A   1      32.652  19.337  23.934  1.00  0.00     0.142 A 
BRANCH  18  23
ATOM     23  O   UNL A   1      33.787  15.444  24.667  1.00  0.00    -0.497 OA
ATOM     24  C   UNL A   1      32.745  14.852  25.451  1.00  0.00     0.278 C 
ENDBRANCH  18  23
BRANCH  22  25
ATOM     25  O   UNL A   1      31.937  20.473  23.674  1.00  0.00    -0.495 OA
ATOM     26  C   UNL A   1      31.912  20.779  22.276  1.00  0.00     0.278 C 
ENDBRANCH  22  25
ENDBRANCH  14  17
ENDBRANCH   7  13
ENDBRANCH   3   6
ENDBRANCH   1   2
BRANCH   1  27
ATOM     27  C   UNL A   1      38.357  19.593  24.996  1.00  0.00     0.042 C 
BRANCH  27  28
ATOM     28  C   UNL A   1      39.321  19.765  26.161  1.00  0.00     0.118 C 
BRANCH  28  29
ATOM     29  N   UNL A   1      40.585  19.087  25.936  1.00  0.00    -0.352 N 
ATOM     30  C   UNL A   1      41.863  19.582  25.980  1.00  0.00     0.251 C 
ATOM     31  H   UNL A   1      40.514  18.128  25.719  1.00  0.00     0.163 HD
ATOM     32  O   UNL A   1      42.794  18.909  25.549  1.00  0.00    -0.269 OA
BRANCH  30  33
ATOM     33  C   UNL A   1      42.127  20.929  26.532  1.00  0.00     0.039 A 
ATOM     34  C   UNL A   1      42.448  21.964  25.651  1.00  0.00     0.014 A 
ATOM     35  C   UNL A   1      42.104  21.167  27.911  1.00  0.00     0.014 A 
ATOM     36  C   UNL A   1      42.706  23.245  26.146  1.00  0.00     0.010 A 
ATOM     37  C   UNL A   1      42.283  22.459  28.397  1.00  0.00     0.010 A 
ATOM     38  C   UNL A   1      42.606  23.505  27.521  1.00  0.00    -0.014 A 
BRANCH  38  39
ATOM     39  C   UNL A   1      42.872  24.860  28.063  1.00  0.00     0.031 A 
ATOM     40  C   UNL A   1      44.267  25.253  28.461  1.00  0.00     0.074 A 
ATOM     41  C   UNL A   1      41.850  25.715  28.253  1.00  0.00     0.049 A 
ATOM     42  N   UNL A   1      44.692  26.370  28.994  1.00  0.00    -0.248 NA
ATOM     43  C   UNL A   1      45.321  24.243  28.264  1.00  0.00     0.031 C 
ATOM     44  C   UNL A   1      40.442  25.427  27.972  1.00  0.00     0.029 A 
ATOM     45  N   UNL A   1      41.839  26.997  28.743  1.00  0.00    -0.354 N 
ATOM     46  C   UNL A   1      46.051  26.187  29.221  1.00  0.00     0.074 A 
ATOM     47  C   UNL A   1      46.372  24.839  28.807  1.00  0.00     0.031 C 
ATOM     48  C   UNL A   1      39.705  26.507  28.281  1.00  0.00     0.029 A 
ATOM     49  C   UNL A   1      40.584  27.552  28.800  1.00  0.00     0.049 A 
ATOM     50  H   UNL A   1      42.652  27.472  29.027  1.00  0.00     0.167 HD
ATOM     51  C   UNL A   1      46.954  27.070  29.709  1.00  0.00     0.037 A 
ATOM     52  C   UNL A   1      40.187  28.765  29.223  1.00  0.00     0.037 A 
ATOM     53  C   UNL A   1      46.643  28.426  30.075  1.00  0.00     0.049 A 
ATOM     54  C   UNL A   1      41.214  29.749  29.704  1.00  0.00     0.074 A 
ATOM     55  C   UNL A   1      47.503  29.428  30.488  1.00  0.00     0.029 A 
ATOM     56  N   UNL A   1      45.368  28.968  30.072  1.00  0.00    -0.354 N 
ATOM     57  N   UNL A   1      42.509  29.593  29.832  1.00  0.00    -0.248 NA
ATOM     58  C   UNL A   1      40.727  31.081  30.090  1.00  0.00     0.031 C 
ATOM     59  C   UNL A   1      46.743  30.570  30.764  1.00  0.00     0.029 A 
ATOM     60  C   UNL A   1      45.413  30.287  30.492  1.00  0.00     0.049 A 
ATOM     61  H   UNL A   1      44.549  28.488  29.808  1.00  0.00     0.167 HD
ATOM     62  C   UNL A   1      42.995  30.806  30.299  1.00  0.00     0.074 A 
ATOM     63  C   UNL A   1      41.856  31.695  30.415  1.00  0.00     0.031 C 
ATOM     64  C   UNL A   1      44.269  31.153  30.607  1.00  0.00     0.037 A 
BRANCH  51  65
ATOM     65  C   UNL A   1      48.366  26.591  29.868  1.00  0.00     0.057 A 
ATOM     66  C   UNL A   1      48.803  25.948  31.033  1.00  0.00     0.134 A 
ATOM     67  C   UNL A   1      49.299  26.767  28.838  1.00  0.00     0.134 A 
ATOM     68  F   UNL A   1      47.963  25.761  32.062  1.00  0.00    -0.206 F 
ATOM     69  C   UNL A   1      50.124  25.523  31.181  1.00  0.00     0.040 A 
ATOM     70  C   UNL A   1      50.616  26.324  28.964  1.00  0.00     0.040 A 
ATOM     71  F   UNL A   1      48.945  27.371  27.694  1.00  0.00    -0.206 F 
ATOM     72  C   UNL A   1      51.035  25.707  30.142  1.00  0.00     0.006 A 
ENDBRANCH  51  65
BRANCH  52  73
ATOM     73  C   UNL A   1      38.750  29.124  29.175  1.00  0.00     0.057 A 
ATOM     74  C   UNL A   1      37.940  29.006  30.310  1.00  0.00     0.134 A 
ATOM     75  C   UNL A   1      38.160  29.615  28.005  1.00  0.00     0.134 A 
ATOM     76  F   UNL A   1      38.447  28.527  31.455  1.00  0.00    -0.206 F 
ATOM     77  C   UNL A   1      36.588  29.356  30.281  1.00  0.00     0.040 A 
ATOM     78  C   UNL A   1      36.815  29.985  27.967  1.00  0.00     0.040 A 
ATOM     79  F   UNL A   1      38.888  29.758  26.888  1.00  0.00    -0.206 F 
ATOM     80  C   UNL A   1      36.025  29.852  29.107  1.00  0.00     0.006 A 
ENDBRANCH  52  73
BRANCH  64  81
ATOM     81  C   UNL A   1      44.494  32.553  31.090  1.00  0.00     0.057 A 
ATOM     82  C   UNL A   1      44.485  32.868  32.455  1.00  0.00     0.134 A 
ATOM     83  C   UNL A   1      44.754  33.589  30.186  1.00  0.00     0.134 A 
ATOM     84  F   UNL A   1      44.229  31.920  33.370  1.00  0.00    -0.206 F 
ATOM     85  C   UNL A   1      44.709  34.171  32.902  1.00  0.00     0.040 A 
ATOM     86  C   UNL A   1      44.999  34.892  30.622  1.00  0.00     0.040 A 
ATOM     87  F   UNL A   1      44.782  33.350  28.866  1.00  0.00    -0.206 F 
ATOM     88  C   UNL A   1      44.972  35.186  31.984  1.00  0.00     0.006 A 
ENDBRANCH  64  81
ENDBRANCH  38  39
ENDBRANCH  30  33
ENDBRANCH  28  29
ENDBRANCH  27  28
ENDBRANCH   1  27
TORSDOF 14
ENDMDL
MODEL 2
REMARK VINA RESULT:     -12.1      0.928      6.128
REMARK SMILES COc1ccc(OC)c(NC(=O)[C@@H]2[C@@H](C(=O)NCCCNC(=O)c3ccc(-c4c5nc(c(-c6c(F)cccc6F)c6ccc([nH]6)c(-c6c(F)cccc6F)c6nc(c(-c7c(F)cccc7F)c7ccc4[nH]7)C=C6)C=C5)cc3)[C@H]3C=C[C@@H]2C3)c1
REMARK SMILES IDX 18 1 17 2 15 3 16 4 14 6 13 7 81 8 78 9 80 10 82 11 79 12
REMARK SMILES IDX 11 13 10 14 12 16 9 17 3 18 4 19 83 20 5 21 6 22 2 23 1 24
REMARK SMILES IDX 7 25 8 26 19 27 20 28 21 29 22 30 23 32 24 33 25 34 77 35
REMARK SMILES IDX 26 36 76 37 27 38 28 39 29 40 70 41 30 42 75 43 69 44 71 45
REMARK SMILES IDX 31 46 74 47 68 48 67 49 32 51 58 52 41 53 57 54 42 55 45 56
REMARK SMILES IDX 56 57 72 58 43 59 44 60 55 62 73 63 46 64 33 65 34 66 39 67
REMARK SMILES IDX 35 68 36 69 38 70 40 71 37 72 59 73 60 74 65 75 61 76 62 77
REMARK SMILES IDX 64 78 66 79 63 80 47 81 48 82 53 83 49 84 50 85 52 86 54 87
REMARK SMILES IDX 51 88
REMARK H PARENT 17 5 10 15 21 31 71 50 45 61
REMARK Flexibility Score: inf
ROOT
ATOM      1  C   UNL A   1      37.243  20.860  24.656  1.00  0.00     0.117 C 
ENDROOT
BRANCH   1   2
ATOM      2  N   UNL A   1      37.616  22.009  25.446  1.00  0.00    -0.356 N 
ATOM      3  C   UNL A   1      36.939  23.079  25.902  1.00  0.00     0.224 C 
ATOM      4  O   UNL A   1      37.652  23.936  26.446  1.00  0.00    -0.275 OA
ATOM      5  H   UNL A   1      38.566  22.009  25.706  1.00  0.00     0.163 HD
BRANCH   3   6
ATOM      6  C   UNL A   1      35.423  23.263  25.918  1.00  0.00     0.098 C 
ATOM      7  C   UNL A   1      34.356  22.243  25.439  1.00  0.00     0.099 C 
ATOM      8  C   UNL A   1      33.448  23.083  24.494  1.00  0.00     0.025 C 
ATOM      9  C   UNL A   1      35.121  24.483  24.974  1.00  0.00     0.025 C 
ATOM     10  C   UNL A   1      34.259  23.260  23.217  1.00  0.00    -0.027 C 
ATOM     11  C   UNL A   1      33.600  24.521  24.989  1.00  0.00     0.017 C 
ATOM     12  C   UNL A   1      35.286  24.072  23.520  1.00  0.00    -0.027 C 
BRANCH   7  13
ATOM     13  C   UNL A   1      33.662  21.267  26.405  1.00  0.00     0.229 C 
ATOM     14  N   UNL A   1      33.348  19.965  26.238  1.00  0.00    -0.323 N 
ATOM     15  H   UNL A   1      33.181  19.514  27.098  1.00  0.00     0.170 HD
ATOM     16  O   UNL A   1      33.462  21.657  27.570  1.00  0.00    -0.274 OA
BRANCH  14  17
ATOM     17  C   UNL A   1      33.202  19.096  25.158  1.00  0.00     0.087 A 
ATOM     18  C   UNL A   1      33.475  16.835  24.333  1.00  0.00     0.121 A 
ATOM     19  C   UNL A   1      33.215  17.267  23.037  1.00  0.00     0.050 A 
ATOM     20  C   UNL A   1      33.516  17.750  25.386  1.00  0.00     0.076 A 
ATOM     21  C   UNL A   1      32.778  18.569  22.834  1.00  0.00     0.052 A 
ATOM     22  C   UNL A   1      32.673  19.442  23.917  1.00  0.00     0.142 A 
BRANCH  18  23
ATOM     23  O   UNL A   1      33.745  15.521  24.600  1.00  0.00    -0.497 OA
ATOM     24  C   UNL A   1      32.761  14.972  25.483  1.00  0.00     0.278 C 
ENDBRANCH  18  23
BRANCH  22  25
ATOM     25  O   UNL A   1      31.977  20.592  23.676  1.00  0.00    -0.495 OA
ATOM     26  C   UNL A   1      31.862  20.863  22.275  1.00  0.00     0.278 C 
ENDBRANCH  22  25
ENDBRANCH  14  17
ENDBRANCH   7  13
ENDBRANCH   3   6
ENDBRANCH   1   2
BRANCH   1  27
ATOM     27  C   UNL A   1      38.161  19.668  24.900  1.00  0.00     0.042 C 
BRANCH  27  28
ATOM     28  C   UNL A   1      39.151  19.887  26.035  1.00  0.00     0.118 C 
BRANCH  28  29
ATOM     29  N   UNL A   1      40.317  19.029  25.923  1.00  0.00    -0.352 N 
ATOM     30  C   UNL A   1      41.649  19.350  25.989  1.00  0.00     0.251 C 
ATOM     31  H   UNL A   1      40.123  18.074  25.776  1.00  0.00     0.163 HD
ATOM     32  O   UNL A   1      42.493  18.526  25.656  1.00  0.00    -0.269 OA
BRANCH  30  33
ATOM     33  C   UNL A   1      42.074  20.691  26.449  1.00  0.00     0.039 A 
ATOM     34  C   UNL A   1      42.373  21.665  25.493  1.00  0.00     0.014 A 
ATOM     35  C   UNL A   1      42.224  20.979  27.810  1.00  0.00     0.014 A 
ATOM     36  C   UNL A   1      42.782  22.937  25.899  1.00  0.00     0.010 A 
ATOM     37  C   UNL A   1      42.555  22.269  28.216  1.00  0.00     0.010 A 
ATOM     38  C   UNL A   1      42.857  23.253  27.265  1.00  0.00    -0.014 A 
BRANCH  38  39
ATOM     39  C   UNL A   1      43.284  24.602  27.713  1.00  0.00     0.031 A 
ATOM     40  C   UNL A   1      42.255  25.641  28.062  1.00  0.00     0.074 A 
ATOM     41  C   UNL A   1      44.593  24.910  27.748  1.00  0.00     0.049 A 
ATOM     42  N   UNL A   1      42.427  26.885  28.429  1.00  0.00    -0.248 NA
ATOM     43  C   UNL A   1      40.843  25.237  27.954  1.00  0.00     0.031 C 
ATOM     44  C   UNL A   1      45.685  24.012  27.366  1.00  0.00     0.029 A 
ATOM     45  N   UNL A   1      45.227  26.072  28.109  1.00  0.00    -0.354 N 
ATOM     46  C   UNL A   1      41.152  27.418  28.567  1.00  0.00     0.074 A 
ATOM     47  C   UNL A   1      40.216  26.376  28.205  1.00  0.00     0.031 C 
ATOM     48  C   UNL A   1      46.854  24.652  27.528  1.00  0.00     0.029 A 
ATOM     49  C   UNL A   1      46.594  26.009  28.002  1.00  0.00     0.049 A 
ATOM     50  H   UNL A   1      44.747  26.875  28.415  1.00  0.00     0.167 HD
ATOM     51  C   UNL A   1      40.792  28.656  28.979  1.00  0.00     0.037 A 
ATOM     52  C   UNL A   1      47.532  26.939  28.257  1.00  0.00     0.037 A 
ATOM     53  C   UNL A   1      41.721  29.675  29.386  1.00  0.00     0.049 A 
ATOM     54  C   UNL A   1      47.111  28.286  28.771  1.00  0.00     0.074 A 
ATOM     55  C   UNL A   1      41.456  30.928  29.910  1.00  0.00     0.029 A 
ATOM     56  N   UNL A   1      43.100  29.557  29.311  1.00  0.00    -0.354 N 
ATOM     57  N   UNL A   1      45.903  28.748  28.979  1.00  0.00    -0.248 NA
ATOM     58  C   UNL A   1      48.184  29.236  29.094  1.00  0.00     0.031 C 
ATOM     59  C   UNL A   1      42.675  31.579  30.126  1.00  0.00     0.029 A 
ATOM     60  C   UNL A   1      43.701  30.720  29.763  1.00  0.00     0.049 A 
ATOM     61  H   UNL A   1      43.583  28.762  28.985  1.00  0.00     0.167 HD
ATOM     62  C   UNL A   1      46.068  30.036  29.470  1.00  0.00     0.074 A 
ATOM     63  C   UNL A   1      47.495  30.276  29.545  1.00  0.00     0.031 C 
ATOM     64  C   UNL A   1      45.122  30.941  29.824  1.00  0.00     0.037 A 
BRANCH  51  65
ATOM     65  C   UNL A   1      39.325  28.969  29.015  1.00  0.00     0.057 A 
ATOM     66  C   UNL A   1      38.562  28.806  30.178  1.00  0.00     0.134 A 
ATOM     67  C   UNL A   1      38.670  29.448  27.873  1.00  0.00     0.134 A 
ATOM     68  F   UNL A   1      39.127  28.337  31.301  1.00  0.00    -0.206 F 
ATOM     69  C   UNL A   1      37.194  29.081  30.198  1.00  0.00     0.040 A 
ATOM     70  C   UNL A   1      37.308  29.749  27.888  1.00  0.00     0.040 A 
ATOM     71  F   UNL A   1      39.343  29.631  26.728  1.00  0.00    -0.206 F 
ATOM     72  C   UNL A   1      36.563  29.558  29.050  1.00  0.00     0.006 A 
ENDBRANCH  51  65
BRANCH  52  73
ATOM     73  C   UNL A   1      48.964  26.610  28.061  1.00  0.00     0.057 A 
ATOM     74  C   UNL A   1      49.618  26.925  26.865  1.00  0.00     0.134 A 
ATOM     75  C   UNL A   1      49.714  25.996  29.069  1.00  0.00     0.134 A 
ATOM     76  F   UNL A   1      48.945  27.499  25.858  1.00  0.00    -0.206 F 
ATOM     77  C   UNL A   1      50.970  26.633  26.675  1.00  0.00     0.040 A 
ATOM     78  C   UNL A   1      51.071  25.716  28.900  1.00  0.00     0.040 A 
ATOM     79  F   UNL A   1      49.144  25.678  30.240  1.00  0.00    -0.206 F 
ATOM     80  C   UNL A   1      51.701  26.032  27.697  1.00  0.00     0.006 A 
ENDBRANCH  52  73
BRANCH  64  81
ATOM     81  C   UNL A   1      45.605  32.266  30.331  1.00  0.00     0.057 A 
ATOM     82  C   UNL A   1      45.884  32.474  31.688  1.00  0.00     0.134 A 
ATOM     83  C   UNL A   1      45.822  33.332  29.451  1.00  0.00     0.134 A 
ATOM     84  F   UNL A   1      45.683  31.494  32.582  1.00  0.00    -0.206 F 
ATOM     85  C   UNL A   1      46.347  33.705  32.154  1.00  0.00     0.040 A 
ATOM     86  C   UNL A   1      46.303  34.561  29.903  1.00  0.00     0.040 A 
ATOM     87  F   UNL A   1      45.579  33.193  28.139  1.00  0.00    -0.206 F 
ATOM     88  C   UNL A   1      46.563  34.751  31.258  1.00  0.00     0.006 A 
ENDBRANCH  64  81
ENDBRANCH  38  39
ENDBRANCH  30  33
ENDBRANCH  28  29
ENDBRANCH  27  28
ENDBRANCH   1  27
TORSDOF 14
ENDMDL
MODEL 3
REMARK VINA RESULT:     -12.1      5.505     10.163
REMARK SMILES COc1ccc(OC)c(NC(=O)[C@@H]2[C@@H](C(=O)NCCCNC(=O)c3ccc(-c4c5nc(c(-c6c(F)cccc6F)c6ccc([nH]6)c(-c6c(F)cccc6F)c6nc(c(-c7c(F)cccc7F)c7ccc4[nH]7)C=C6)C=C5)cc3)[C@H]3C=C[C@@H]2C3)c1
REMARK SMILES IDX 18 1 17 2 15 3 16 4 14 6 13 7 81 8 78 9 80 10 82 11 79 12
REMARK SMILES IDX 11 13 10 14 12 16 9 17 3 18 4 19 83 20 5 21 6 22 2 23 1 24
REMARK SMILES IDX 7 25 8 26 19 27 20 28 21 29 22 30 23 32 24 33 25 34 77 35
REMARK SMILES IDX 26 36 76 37 27 38 28 39 29 40 70 41 30 42 75 43 69 44 71 45
REMARK SMILES IDX 31 46 74 47 68 48 67 49 32 51 58 52 41 53 57 54 42 55 45 56
REMARK SMILES IDX 56 57 72 58 43 59 44 60 55 62 73 63 46 64 33 65 34 66 39 67
REMARK SMILES IDX 35 68 36 69 38 70 40 71 37 72 59 73 60 74 65 75 61 76 62 77
REMARK SMILES IDX 64 78 66 79 63 80 47 81 48 82 53 83 49 84 50 85 52 86 54 87
REMARK SMILES IDX 51 88
REMARK H PARENT 17 5 10 15 21 31 71 50 45 61
REMARK Flexibility Score: inf
ROOT
ATOM      1  C   UNL A   1      31.794  30.677  26.518  1.00  0.00     0.117 C 
ENDROOT
BRANCH   1   2
ATOM      2  N   UNL A   1      33.181  30.335  26.724  1.00  0.00    -0.356 N 
ATOM      3  C   UNL A   1      33.941  29.286  26.359  1.00  0.00     0.224 C 
ATOM      4  O   UNL A   1      35.081  29.291  26.847  1.00  0.00    -0.275 OA
ATOM      5  H   UNL A   1      33.676  31.012  27.240  1.00  0.00     0.163 HD
BRANCH   3   6
ATOM      6  C   UNL A   1      33.580  28.205  25.341  1.00  0.00     0.098 C 
ATOM      7  C   UNL A   1      32.308  28.151  24.453  1.00  0.00     0.099 C 
ATOM      8  C   UNL A   1      31.764  26.711  24.686  1.00  0.00     0.025 C 
ATOM      9  C   UNL A   1      33.438  26.869  26.155  1.00  0.00     0.025 C 
ATOM     10  C   UNL A   1      31.136  26.743  26.072  1.00  0.00    -0.027 C 
ATOM     11  C   UNL A   1      32.993  25.891  25.077  1.00  0.00     0.017 C 
ATOM     12  C   UNL A   1      32.144  26.876  26.951  1.00  0.00    -0.027 C 
BRANCH   7  13
ATOM     13  C   UNL A   1      32.289  28.691  23.013  1.00  0.00     0.229 C 
ATOM     14  N   UNL A   1      31.333  29.392  22.366  1.00  0.00    -0.323 N 
ATOM     15  H   UNL A   1      31.689  29.854  21.572  1.00  0.00     0.170 HD
ATOM     16  O   UNL A   1      33.343  28.608  22.354  1.00  0.00    -0.274 OA
BRANCH  14  17
ATOM     17  C   UNL A   1      29.970  29.628  22.538  1.00  0.00     0.087 A 
ATOM     18  C   UNL A   1      28.164  31.235  22.386  1.00  0.00     0.121 A 
ATOM     19  C   UNL A   1      27.317  30.360  23.057  1.00  0.00     0.050 A 
ATOM     20  C   UNL A   1      29.499  30.894  22.166  1.00  0.00     0.076 A 
ATOM     21  C   UNL A   1      27.746  29.063  23.306  1.00  0.00     0.052 A 
ATOM     22  C   UNL A   1      29.037  28.678  22.945  1.00  0.00     0.142 A 
BRANCH  18  23
ATOM     23  O   UNL A   1      27.728  32.463  21.971  1.00  0.00    -0.497 OA
ATOM     24  C   UNL A   1      27.892  32.607  20.556  1.00  0.00     0.278 C 
ENDBRANCH  18  23
BRANCH  22  25
ATOM     25  O   UNL A   1      29.274  27.333  22.965  1.00  0.00    -0.495 OA
ATOM     26  C   UNL A   1      28.299  26.631  23.743  1.00  0.00     0.278 C 
ENDBRANCH  22  25
ENDBRANCH  14  17
ENDBRANCH   7  13
ENDBRANCH   3   6
ENDBRANCH   1   2
BRANCH   1  27
ATOM     27  C   UNL A   1      31.498  32.129  26.873  1.00  0.00     0.042 C 
BRANCH  27  28
ATOM     28  C   UNL A   1      32.735  33.016  26.880  1.00  0.00     0.118 C 
BRANCH  28  29
ATOM     29  N   UNL A   1      32.531  34.242  27.632  1.00  0.00    -0.352 N 
ATOM     30  C   UNL A   1      33.130  34.668  28.790  1.00  0.00     0.251 C 
ATOM     31  H   UNL A   1      31.862  34.859  27.255  1.00  0.00     0.163 HD
ATOM     32  O   UNL A   1      32.673  35.631  29.395  1.00  0.00    -0.269 OA
BRANCH  30  33
ATOM     33  C   UNL A   1      34.318  33.963  29.322  1.00  0.00     0.039 A 
ATOM     34  C   UNL A   1      34.130  32.948  30.263  1.00  0.00     0.014 A 
ATOM     35  C   UNL A   1      35.612  34.327  28.935  1.00  0.00     0.014 A 
ATOM     36  C   UNL A   1      35.234  32.271  30.785  1.00  0.00     0.010 A 
ATOM     37  C   UNL A   1      36.707  33.600  29.396  1.00  0.00     0.010 A 
ATOM     38  C   UNL A   1      36.529  32.579  30.340  1.00  0.00    -0.014 A 
BRANCH  38  39
ATOM     39  C   UNL A   1      37.712  31.865  30.881  1.00  0.00     0.031 A 
ATOM     40  C   UNL A   1      38.255  32.224  32.237  1.00  0.00     0.074 A 
ATOM     41  C   UNL A   1      38.335  30.940  30.128  1.00  0.00     0.049 A 
ATOM     42  N   UNL A   1      39.302  31.749  32.861  1.00  0.00    -0.248 NA
ATOM     43  C   UNL A   1      37.543  33.280  32.976  1.00  0.00     0.031 C 
ATOM     44  C   UNL A   1      37.948  30.554  28.770  1.00  0.00     0.029 A 
ATOM     45  N   UNL A   1      39.436  30.166  30.396  1.00  0.00    -0.354 N 
ATOM     46  C   UNL A   1      39.390  32.464  34.048  1.00  0.00     0.074 A 
ATOM     47  C   UNL A   1      38.317  33.434  34.040  1.00  0.00     0.031 C 
ATOM     48  C   UNL A   1      38.790  29.605  28.329  1.00  0.00     0.029 A 
ATOM     49  C   UNL A   1      39.785  29.332  29.363  1.00  0.00     0.049 A 
ATOM     50  H   UNL A   1      39.927  30.205  31.247  1.00  0.00     0.167 HD
ATOM     51  C   UNL A   1      40.273  32.314  35.064  1.00  0.00     0.037 A 
ATOM     52  C   UNL A   1      40.794  28.449  29.260  1.00  0.00     0.037 A 
ATOM     53  C   UNL A   1      41.310  31.317  35.093  1.00  0.00     0.049 A 
ATOM     54  C   UNL A   1      41.725  28.256  30.422  1.00  0.00     0.074 A 
ATOM     55  C   UNL A   1      42.193  31.019  36.115  1.00  0.00     0.029 A 
ATOM     56  N   UNL A   1      41.602  30.456  34.047  1.00  0.00    -0.354 N 
ATOM     57  N   UNL A   1      41.744  28.879  31.575  1.00  0.00    -0.248 NA
ATOM     58  C   UNL A   1      42.766  27.230  30.274  1.00  0.00     0.031 C 
ATOM     59  C   UNL A   1      43.041  29.996  35.676  1.00  0.00     0.029 A 
ATOM     60  C   UNL A   1      42.664  29.637  34.391  1.00  0.00     0.049 A 
ATOM     61  H   UNL A   1      41.125  30.430  33.186  1.00  0.00     0.167 HD
ATOM     62  C   UNL A   1      42.788  28.315  32.295  1.00  0.00     0.074 A 
ATOM     63  C   UNL A   1      43.366  27.285  31.456  1.00  0.00     0.031 C 
ATOM     64  C   UNL A   1      43.229  28.623  33.540  1.00  0.00     0.037 A 
BRANCH  51  65
ATOM     65  C   UNL A   1      40.145  33.249  36.230  1.00  0.00     0.057 A 
ATOM     66  C   UNL A   1      40.890  34.432  36.314  1.00  0.00     0.134 A 
ATOM     67  C   UNL A   1      39.258  32.966  37.277  1.00  0.00     0.134 A 
ATOM     68  F   UNL A   1      41.768  34.753  35.351  1.00  0.00    -0.206 F 
ATOM     69  C   UNL A   1      40.780  35.287  37.412  1.00  0.00     0.040 A 
ATOM     70  C   UNL A   1      39.122  33.826  38.367  1.00  0.00     0.040 A 
ATOM     71  F   UNL A   1      38.512  31.852  37.256  1.00  0.00    -0.206 F 
ATOM     72  C   UNL A   1      39.890  34.986  38.442  1.00  0.00     0.006 A 
ENDBRANCH  51  65
BRANCH  52  73
ATOM     73  C   UNL A   1      40.952  27.657  28.016  1.00  0.00     0.057 A 
ATOM     74  C   UNL A   1      40.328  26.414  27.870  1.00  0.00     0.134 A 
ATOM     75  C   UNL A   1      41.708  28.134  26.941  1.00  0.00     0.134 A 
ATOM     76  F   UNL A   1      39.603  25.899  28.874  1.00  0.00    -0.206 F 
ATOM     77  C   UNL A   1      40.457  25.666  26.698  1.00  0.00     0.040 A 
ATOM     78  C   UNL A   1      41.831  27.406  25.756  1.00  0.00     0.040 A 
ATOM     79  F   UNL A   1      42.323  29.323  27.019  1.00  0.00    -0.206 F 
ATOM     80  C   UNL A   1      41.206  26.166  25.635  1.00  0.00     0.006 A 
ENDBRANCH  52  73
BRANCH  64  81
ATOM     81  C   UNL A   1      44.387  27.830  34.066  1.00  0.00     0.057 A 
ATOM     82  C   UNL A   1      44.200  26.611  34.729  1.00  0.00     0.134 A 
ATOM     83  C   UNL A   1      45.701  28.274  33.879  1.00  0.00     0.134 A 
ATOM     84  F   UNL A   1      42.963  26.140  34.951  1.00  0.00    -0.206 F 
ATOM     85  C   UNL A   1      45.282  25.869  35.206  1.00  0.00     0.040 A 
ATOM     86  C   UNL A   1      46.791  27.531  34.333  1.00  0.00     0.040 A 
ATOM     87  F   UNL A   1      45.946  29.431  33.245  1.00  0.00    -0.206 F 
ATOM     88  C   UNL A   1      46.582  26.327  35.003  1.00  0.00     0.006 A 
ENDBRANCH  64  81
ENDBRANCH  38  39
ENDBRANCH  30  33
ENDBRANCH  28  29
ENDBRANCH  27  28
ENDBRANCH   1  27
TORSDOF 14
ENDMDL
