MODEL 1
REMARK VINA RESULT:     -13.7      0.000      0.000
REMARK SMILES O=C(NCCCNC(=O)c1nnn(-c2cccc(C(F)(F)F)c2)c1[C@@H]1COc2ccccc2O1)c1ccc(-c2c3nc(c(-c4c(F)cccc4F)c4ccc([nH]4)c(-c4c(F)cccc4F)c4nc(c(-c5c(F)cccc5F)c5ccc2[nH]5)C=C4)C=C3)cc1
REMARK SMILES IDX 5 1 4 2 3 3 1 4 2 5 35 7 36 8 88 9 37 10 87 11 38 12 39 13
REMARK SMILES IDX 40 14 81 15 41 16 86 17 80 18 82 19 42 20 85 21 79 22 78 23
REMARK SMILES IDX 43 25 69 26 52 27 68 28 53 29 56 30 67 31 83 32 54 33 55 34
REMARK SMILES IDX 66 36 84 37 57 38 44 39 45 40 50 41 46 42 47 43 49 44 51 45
REMARK SMILES IDX 48 46 70 47 71 48 76 49 72 50 73 51 75 52 77 53 74 54 58 55
REMARK SMILES IDX 59 56 64 57 60 58 61 59 63 60 65 61 62 62 6 63 7 64 8 65
REMARK SMILES IDX 9 67 10 68 11 69 24 70 12 71 13 72 25 73 26 74 34 75 27 76
REMARK SMILES IDX 33 77 28 78 32 79 29 80 31 81 30 82 14 83 15 84 23 85 16 86
REMARK SMILES IDX 18 87 17 88 19 89 20 90 21 91 22 92
REMARK H PARENT 3 6 82 24 56 35 7 66
REMARK Flexibility Score: inf
ROOT
ATOM      1  C   UNL A   1      32.836  29.492  25.802  1.00  0.00     0.042 C 
ENDROOT
BRANCH   1   2
ATOM      2  C   UNL A   1      33.167  29.922  27.230  1.00  0.00     0.118 C 
BRANCH   2   3
ATOM      3  N   UNL A   1      33.767  31.242  27.321  1.00  0.00    -0.352 N 
ATOM      4  O   UNL A   1      35.076  32.982  27.639  1.00  0.00    -0.269 OA
ATOM      5  C   UNL A   1      34.986  31.751  27.672  1.00  0.00     0.251 C 
ATOM      6  H   UNL A   1      33.134  31.951  27.065  1.00  0.00     0.163 HD
BRANCH   5   7
ATOM      7  C   UNL A   1      36.180  30.967  28.100  1.00  0.00     0.039 A 
ATOM      8  C   UNL A   1      36.383  29.603  27.890  1.00  0.00     0.014 A 
ATOM      9  C   UNL A   1      37.208  31.700  28.731  1.00  0.00     0.014 A 
ATOM     10  C   UNL A   1      37.569  28.987  28.310  1.00  0.00     0.010 A 
ATOM     11  C   UNL A   1      38.396  31.094  29.137  1.00  0.00     0.010 A 
ATOM     12  C   UNL A   1      38.580  29.728  28.931  1.00  0.00    -0.014 A 
BRANCH  12  13
ATOM     13  C   UNL A   1      39.851  29.064  29.243  1.00  0.00     0.031 A 
ATOM     14  C   UNL A   1      40.193  28.889  30.690  1.00  0.00     0.074 A 
ATOM     15  C   UNL A   1      40.624  28.429  28.339  1.00  0.00     0.049 A 
ATOM     16  N   UNL A   1      41.265  29.259  31.320  1.00  0.00    -0.248 NA
ATOM     17  C   UNL A   1      39.212  28.198  31.540  1.00  0.00     0.031 C 
ATOM     18  C   UNL A   1      40.319  28.142  26.937  1.00  0.00     0.029 A 
ATOM     19  N   UNL A   1      41.824  27.802  28.535  1.00  0.00    -0.354 N 
ATOM     20  C   UNL A   1      41.166  28.730  32.608  1.00  0.00     0.074 A 
ATOM     21  C   UNL A   1      39.851  28.147  32.709  1.00  0.00     0.031 C 
ATOM     22  C   UNL A   1      41.204  27.235  26.470  1.00  0.00     0.029 A 
ATOM     23  C   UNL A   1      42.205  26.973  27.493  1.00  0.00     0.049 A 
ATOM     24  H   UNL A   1      42.369  27.929  29.346  1.00  0.00     0.167 HD
ATOM     25  C   UNL A   1      42.217  28.675  33.473  1.00  0.00     0.037 A 
ATOM     26  C   UNL A   1      43.232  26.090  27.483  1.00  0.00     0.037 A 
ATOM     27  C   UNL A   1      43.301  29.530  33.083  1.00  0.00     0.049 A 
ATOM     28  C   UNL A   1      44.172  26.444  28.573  1.00  0.00     0.074 A 
ATOM     29  C   UNL A   1      43.459  30.886  32.878  1.00  0.00     0.029 A 
ATOM     30  N   UNL A   1      44.443  28.952  32.591  1.00  0.00    -0.354 N 
ATOM     31  N   UNL A   1      44.965  27.477  28.570  1.00  0.00    -0.248 NA
ATOM     32  C   UNL A   1      44.017  25.782  29.859  1.00  0.00     0.031 C 
ATOM     33  C   UNL A   1      44.445  30.998  31.854  1.00  0.00     0.029 A 
ATOM     34  C   UNL A   1      44.816  29.700  31.506  1.00  0.00     0.049 A 
ATOM     35  H   UNL A   1      44.903  28.158  32.947  1.00  0.00     0.167 HD
ATOM     36  C   UNL A   1      45.082  27.837  29.901  1.00  0.00     0.074 A 
ATOM     37  C   UNL A   1      44.597  26.685  30.651  1.00  0.00     0.031 C 
ATOM     38  C   UNL A   1      45.293  29.135  30.266  1.00  0.00     0.037 A 
BRANCH  25  39
ATOM     39  C   UNL A   1      42.387  27.643  34.557  1.00  0.00     0.057 A 
ATOM     40  C   UNL A   1      42.866  26.357  34.240  1.00  0.00     0.134 A 
ATOM     41  C   UNL A   1      41.834  27.779  35.844  1.00  0.00     0.134 A 
ATOM     42  F   UNL A   1      43.382  26.095  33.029  1.00  0.00    -0.206 F 
ATOM     43  C   UNL A   1      42.765  25.278  35.126  1.00  0.00     0.040 A 
ATOM     44  C   UNL A   1      41.772  26.720  36.755  1.00  0.00     0.040 A 
ATOM     45  F   UNL A   1      41.246  28.917  36.241  1.00  0.00    -0.206 F 
ATOM     46  C   UNL A   1      42.215  25.457  36.388  1.00  0.00     0.006 A 
ENDBRANCH  25  39
BRANCH  26  47
ATOM     47  C   UNL A   1      43.374  24.836  26.713  1.00  0.00     0.057 A 
ATOM     48  C   UNL A   1      42.650  23.685  27.052  1.00  0.00     0.134 A 
ATOM     49  C   UNL A   1      44.041  24.806  25.476  1.00  0.00     0.134 A 
ATOM     50  F   UNL A   1      41.942  23.633  28.189  1.00  0.00    -0.206 F 
ATOM     51  C   UNL A   1      42.584  22.571  26.205  1.00  0.00     0.040 A 
ATOM     52  C   UNL A   1      43.994  23.696  24.627  1.00  0.00     0.040 A 
ATOM     53  F   UNL A   1      44.691  25.883  25.013  1.00  0.00    -0.206 F 
ATOM     54  C   UNL A   1      43.253  22.577  24.985  1.00  0.00     0.006 A 
ENDBRANCH  26  47
BRANCH  38  55
ATOM     55  C   UNL A   1      45.738  30.100  29.209  1.00  0.00     0.057 A 
ATOM     56  C   UNL A   1      44.859  30.753  28.334  1.00  0.00     0.134 A 
ATOM     57  C   UNL A   1      47.081  30.492  29.173  1.00  0.00     0.134 A 
ATOM     58  F   UNL A   1      43.539  30.523  28.376  1.00  0.00    -0.206 F 
ATOM     59  C   UNL A   1      45.309  31.714  27.424  1.00  0.00     0.040 A 
ATOM     60  C   UNL A   1      47.536  31.475  28.291  1.00  0.00     0.040 A 
ATOM     61  F   UNL A   1      47.967  29.955  30.027  1.00  0.00    -0.206 F 
ATOM     62  C   UNL A   1      46.651  32.081  27.405  1.00  0.00     0.006 A 
ENDBRANCH  38  55
ENDBRANCH  12  13
ENDBRANCH   5   7
ENDBRANCH   2   3
ENDBRANCH   1   2
BRANCH   1  63
ATOM     63  C   UNL A   1      31.512  30.056  25.285  1.00  0.00     0.118 C 
BRANCH  63  64
ATOM     64  N   UNL A   1      31.081  29.499  24.020  1.00  0.00    -0.351 N 
ATOM     65  C   UNL A   1      30.816  28.282  23.437  1.00  0.00     0.273 C 
ATOM     66  H   UNL A   1      30.931  30.222  23.370  1.00  0.00     0.163 HD
ATOM     67  O   UNL A   1      30.396  28.416  22.286  1.00  0.00    -0.267 OA
BRANCH  65  68
ATOM     68  C   UNL A   1      30.989  26.921  23.986  1.00  0.00     0.178 A 
ATOM     69  N   UNL A   1      29.816  26.191  24.116  1.00  0.00    -0.124 NA
ATOM     70  C   UNL A   1      32.038  26.088  24.395  1.00  0.00     0.122 A 
ATOM     71  N   UNL A   1      30.097  24.967  24.518  1.00  0.00    -0.061 NA
ATOM     72  N   UNL A   1      31.404  24.922  24.812  1.00  0.00    -0.213 N 
BRANCH  70  73
ATOM     73  C   UNL A   1      33.516  26.215  24.233  1.00  0.00     0.262 C 
ATOM     74  C   UNL A   1      33.919  25.885  22.783  1.00  0.00     0.281 C 
ATOM     75  O   UNL A   1      34.279  25.523  25.227  1.00  0.00    -0.477 OA
ATOM     76  O   UNL A   1      34.028  24.473  22.580  1.00  0.00    -0.485 OA
ATOM     77  C   UNL A   1      35.126  24.569  24.727  1.00  0.00     0.162 A 
ATOM     78  C   UNL A   1      34.956  23.994  23.466  1.00  0.00     0.161 A 
ATOM     79  C   UNL A   1      36.143  24.121  25.563  1.00  0.00     0.050 A 
ATOM     80  C   UNL A   1      35.731  22.910  23.073  1.00  0.00     0.050 A 
ATOM     81  C   UNL A   1      36.962  23.071  25.151  1.00  0.00     0.004 A 
ATOM     82  C   UNL A   1      36.743  22.452  23.917  1.00  0.00     0.004 A 
ENDBRANCH  70  73
BRANCH  72  83
ATOM     83  C   UNL A   1      31.931  23.767  25.419  1.00  0.00     0.067 A 
ATOM     84  C   UNL A   1      32.157  23.767  26.798  1.00  0.00     0.028 A 
ATOM     85  C   UNL A   1      32.170  22.624  24.647  1.00  0.00     0.041 A 
ATOM     86  C   UNL A   1      32.526  22.576  27.423  1.00  0.00     0.003 A 
ATOM     87  C   UNL A   1      32.564  21.431  25.271  1.00  0.00     0.058 A 
ATOM     88  C   UNL A   1      32.713  21.414  26.668  1.00  0.00     0.013 A 
BRANCH  87  89
ATOM     89  C   UNL A   1      32.755  20.169  24.468  1.00  0.00     0.416 C 
ATOM     90  F   UNL A   1      32.191  19.078  25.058  1.00  0.00    -0.166 F 
ATOM     91  F   UNL A   1      32.199  20.249  23.226  1.00  0.00    -0.166 F 
ATOM     92  F   UNL A   1      34.064  19.847  24.266  1.00  0.00    -0.166 F 
ENDBRANCH  87  89
ENDBRANCH  72  83
ENDBRANCH  65  68
ENDBRANCH  63  64
ENDBRANCH   1  63
TORSDOF 13
ENDMDL
MODEL 2
REMARK VINA RESULT:     -13.7      2.005      2.890
REMARK SMILES O=C(NCCCNC(=O)c1nnn(-c2cccc(C(F)(F)F)c2)c1[C@@H]1COc2ccccc2O1)c1ccc(-c2c3nc(c(-c4c(F)cccc4F)c4ccc([nH]4)c(-c4c(F)cccc4F)c4nc(c(-c5c(F)cccc5F)c5ccc2[nH]5)C=C4)C=C3)cc1
REMARK SMILES IDX 5 1 4 2 3 3 1 4 2 5 35 7 36 8 88 9 37 10 87 11 38 12 39 13
REMARK SMILES IDX 40 14 81 15 41 16 86 17 80 18 82 19 42 20 85 21 79 22 78 23
REMARK SMILES IDX 43 25 69 26 52 27 68 28 53 29 56 30 67 31 83 32 54 33 55 34
REMARK SMILES IDX 66 36 84 37 57 38 44 39 45 40 50 41 46 42 47 43 49 44 51 45
REMARK SMILES IDX 48 46 70 47 71 48 76 49 72 50 73 51 75 52 77 53 74 54 58 55
REMARK SMILES IDX 59 56 64 57 60 58 61 59 63 60 65 61 62 62 6 63 7 64 8 65
REMARK SMILES IDX 9 67 10 68 11 69 24 70 12 71 13 72 25 73 26 74 34 75 27 76
REMARK SMILES IDX 33 77 28 78 32 79 29 80 31 81 30 82 14 83 15 84 23 85 16 86
REMARK SMILES IDX 18 87 17 88 19 89 20 90 21 91 22 92
REMARK H PARENT 3 6 82 24 56 35 7 66
REMARK Flexibility Score: inf
ROOT
ATOM      1  C   UNL A   1      32.895  28.978  26.593  1.00  0.00     0.042 C 
ENDROOT
BRANCH   1   2
ATOM      2  C   UNL A   1      34.345  28.928  27.071  1.00  0.00     0.118 C 
BRANCH   2   3
ATOM      3  N   UNL A   1      34.920  30.235  27.340  1.00  0.00    -0.352 N 
ATOM      4  O   UNL A   1      36.195  31.941  27.893  1.00  0.00    -0.269 OA
ATOM      5  C   UNL A   1      36.129  30.716  27.761  1.00  0.00     0.251 C 
ATOM      6  H   UNL A   1      34.274  30.960  27.178  1.00  0.00     0.163 HD
BRANCH   5   7
ATOM      7  C   UNL A   1      37.336  29.903  28.087  1.00  0.00     0.039 A 
ATOM      8  C   UNL A   1      37.481  29.055  29.184  1.00  0.00     0.014 A 
ATOM      9  C   UNL A   1      38.399  29.979  27.162  1.00  0.00     0.014 A 
ATOM     10  C   UNL A   1      38.657  28.314  29.360  1.00  0.00     0.010 A 
ATOM     11  C   UNL A   1      39.565  29.232  27.325  1.00  0.00     0.010 A 
ATOM     12  C   UNL A   1      39.701  28.396  28.432  1.00  0.00    -0.014 A 
BRANCH  12  13
ATOM     13  C   UNL A   1      40.861  27.512  28.595  1.00  0.00     0.031 A 
ATOM     14  C   UNL A   1      41.653  27.648  29.858  1.00  0.00     0.074 A 
ATOM     15  C   UNL A   1      41.141  26.464  27.794  1.00  0.00     0.049 A 
ATOM     16  N   UNL A   1      42.925  27.858  29.999  1.00  0.00    -0.248 NA
ATOM     17  C   UNL A   1      40.926  27.521  31.131  1.00  0.00     0.031 C 
ATOM     18  C   UNL A   1      40.316  25.903  26.723  1.00  0.00     0.029 A 
ATOM     19  N   UNL A   1      42.201  25.601  27.860  1.00  0.00    -0.354 N 
ATOM     20  C   UNL A   1      43.192  27.750  31.365  1.00  0.00     0.074 A 
ATOM     21  C   UNL A   1      41.915  27.612  32.020  1.00  0.00     0.031 C 
ATOM     22  C   UNL A   1      40.805  24.692  26.378  1.00  0.00     0.029 A 
ATOM     23  C   UNL A   1      42.038  24.447  27.112  1.00  0.00     0.049 A 
ATOM     24  H   UNL A   1      43.009  25.785  28.392  1.00  0.00     0.167 HD
ATOM     25  C   UNL A   1      44.452  27.638  31.870  1.00  0.00     0.037 A 
ATOM     26  C   UNL A   1      42.822  23.343  27.129  1.00  0.00     0.037 A 
ATOM     27  C   UNL A   1      45.464  28.013  30.924  1.00  0.00     0.049 A 
ATOM     28  C   UNL A   1      44.131  23.700  27.723  1.00  0.00     0.074 A 
ATOM     29  C   UNL A   1      45.779  29.160  30.223  1.00  0.00     0.029 A 
ATOM     30  N   UNL A   1      46.238  27.025  30.371  1.00  0.00    -0.354 N 
ATOM     31  N   UNL A   1      45.043  24.425  27.142  1.00  0.00    -0.248 NA
ATOM     32  C   UNL A   1      44.322  23.485  29.150  1.00  0.00     0.031 C 
ATOM     33  C   UNL A   1      46.345  28.705  28.996  1.00  0.00     0.029 A 
ATOM     34  C   UNL A   1      46.333  27.312  29.036  1.00  0.00     0.049 A 
ATOM     35  H   UNL A   1      46.644  26.262  30.841  1.00  0.00     0.167 HD
ATOM     36  C   UNL A   1      45.682  25.086  28.177  1.00  0.00     0.074 A 
ATOM     37  C   UNL A   1      45.295  24.367  29.384  1.00  0.00     0.031 C 
ATOM     38  C   UNL A   1      46.235  26.320  27.992  1.00  0.00     0.037 A 
BRANCH  25  39
ATOM     39  C   UNL A   1      44.806  26.936  33.155  1.00  0.00     0.057 A 
ATOM     40  C   UNL A   1      45.529  27.614  34.155  1.00  0.00     0.134 A 
ATOM     41  C   UNL A   1      44.704  25.543  33.325  1.00  0.00     0.134 A 
ATOM     42  F   UNL A   1      45.724  28.940  34.083  1.00  0.00    -0.206 F 
ATOM     43  C   UNL A   1      46.140  26.947  35.223  1.00  0.00     0.040 A 
ATOM     44  C   UNL A   1      45.270  24.872  34.413  1.00  0.00     0.040 A 
ATOM     45  F   UNL A   1      44.135  24.761  32.396  1.00  0.00    -0.206 F 
ATOM     46  C   UNL A   1      46.012  25.570  35.355  1.00  0.00     0.006 A 
ENDBRANCH  25  39
BRANCH  26  47
ATOM     47  C   UNL A   1      42.458  21.940  26.839  1.00  0.00     0.057 A 
ATOM     48  C   UNL A   1      43.177  21.175  25.910  1.00  0.00     0.134 A 
ATOM     49  C   UNL A   1      41.546  21.236  27.645  1.00  0.00     0.134 A 
ATOM     50  F   UNL A   1      44.104  21.745  25.127  1.00  0.00    -0.206 F 
ATOM     51  C   UNL A   1      43.007  19.789  25.796  1.00  0.00     0.040 A 
ATOM     52  C   UNL A   1      41.358  19.856  27.534  1.00  0.00     0.040 A 
ATOM     53  F   UNL A   1      40.870  21.853  28.625  1.00  0.00    -0.206 F 
ATOM     54  C   UNL A   1      42.099  19.124  26.614  1.00  0.00     0.006 A 
ENDBRANCH  26  47
BRANCH  38  55
ATOM     55  C   UNL A   1      46.445  26.794  26.585  1.00  0.00     0.057 A 
ATOM     56  C   UNL A   1      45.460  27.448  25.832  1.00  0.00     0.134 A 
ATOM     57  C   UNL A   1      47.726  26.718  26.030  1.00  0.00     0.134 A 
ATOM     58  F   UNL A   1      44.235  27.667  26.330  1.00  0.00    -0.206 F 
ATOM     59  C   UNL A   1      45.728  27.955  24.556  1.00  0.00     0.040 A 
ATOM     60  C   UNL A   1      48.015  27.250  24.770  1.00  0.00     0.040 A 
ATOM     61  F   UNL A   1      48.734  26.162  26.722  1.00  0.00    -0.206 F 
ATOM     62  C   UNL A   1      47.011  27.860  24.025  1.00  0.00     0.006 A 
ENDBRANCH  38  55
ENDBRANCH  12  13
ENDBRANCH   5   7
ENDBRANCH   2   3
ENDBRANCH   1   2
BRANCH   1  63
ATOM     63  C   UNL A   1      32.735  29.565  25.190  1.00  0.00     0.118 C 
BRANCH  63  64
ATOM     64  N   UNL A   1      31.568  29.089  24.476  1.00  0.00    -0.351 N 
ATOM     65  C   UNL A   1      30.851  27.934  24.274  1.00  0.00     0.273 C 
ATOM     66  H   UNL A   1      31.158  29.830  23.975  1.00  0.00     0.163 HD
ATOM     67  O   UNL A   1      29.852  28.137  23.583  1.00  0.00    -0.267 OA
BRANCH  65  68
ATOM     68  C   UNL A   1      31.137  26.560  24.739  1.00  0.00     0.178 A 
ATOM     69  N   UNL A   1      30.014  25.783  24.988  1.00  0.00    -0.124 NA
ATOM     70  C   UNL A   1      32.255  25.751  24.976  1.00  0.00     0.122 A 
ATOM     71  N   UNL A   1      30.382  24.556  25.299  1.00  0.00    -0.061 NA
ATOM     72  N   UNL A   1      31.718  24.547  25.420  1.00  0.00    -0.213 N 
BRANCH  70  73
ATOM     73  C   UNL A   1      33.695  25.937  24.630  1.00  0.00     0.262 C 
ATOM     74  C   UNL A   1      33.924  25.639  23.137  1.00  0.00     0.281 C 
ATOM     75  O   UNL A   1      34.603  25.266  25.510  1.00  0.00    -0.477 OA
ATOM     76  O   UNL A   1      34.060  24.234  22.900  1.00  0.00    -0.485 OA
ATOM     77  C   UNL A   1      35.416  24.352  24.893  1.00  0.00     0.162 A 
ATOM     78  C   UNL A   1      35.110  23.783  23.655  1.00  0.00     0.161 A 
ATOM     79  C   UNL A   1      36.546  23.936  25.588  1.00  0.00     0.050 A 
ATOM     80  C   UNL A   1      35.870  22.734  23.151  1.00  0.00     0.050 A 
ATOM     81  C   UNL A   1      37.347  22.923  25.060  1.00  0.00     0.004 A 
ATOM     82  C   UNL A   1      36.997  22.308  23.854  1.00  0.00     0.004 A 
ENDBRANCH  70  73
BRANCH  72  83
ATOM     83  C   UNL A   1      32.355  23.391  25.906  1.00  0.00     0.067 A 
ATOM     84  C   UNL A   1      32.831  23.378  27.220  1.00  0.00     0.028 A 
ATOM     85  C   UNL A   1      32.455  22.259  25.090  1.00  0.00     0.041 A 
ATOM     86  C   UNL A   1      33.316  22.183  27.752  1.00  0.00     0.003 A 
ATOM     87  C   UNL A   1      32.965  21.062  25.616  1.00  0.00     0.058 A 
ATOM     88  C   UNL A   1      33.369  21.031  26.961  1.00  0.00     0.013 A 
BRANCH  87  89
ATOM     89  C   UNL A   1      33.013  19.811  24.776  1.00  0.00     0.416 C 
ATOM     90  F   UNL A   1      32.469  18.732  25.405  1.00  0.00    -0.166 F 
ATOM     91  F   UNL A   1      32.330  19.940  23.603  1.00  0.00    -0.166 F 
ATOM     92  F   UNL A   1      34.277  19.439  24.427  1.00  0.00    -0.166 F 
ENDBRANCH  87  89
ENDBRANCH  72  83
ENDBRANCH  65  68
ENDBRANCH  63  64
ENDBRANCH   1  63
TORSDOF 13
ENDMDL
MODEL 3
REMARK VINA RESULT:     -13.5      3.053      7.739
REMARK SMILES O=C(NCCCNC(=O)c1nnn(-c2cccc(C(F)(F)F)c2)c1[C@@H]1COc2ccccc2O1)c1ccc(-c2c3nc(c(-c4c(F)cccc4F)c4ccc([nH]4)c(-c4c(F)cccc4F)c4nc(c(-c5c(F)cccc5F)c5ccc2[nH]5)C=C4)C=C3)cc1
REMARK SMILES IDX 5 1 4 2 3 3 1 4 2 5 35 7 36 8 88 9 37 10 87 11 38 12 39 13
REMARK SMILES IDX 40 14 81 15 41 16 86 17 80 18 82 19 42 20 85 21 79 22 78 23
REMARK SMILES IDX 43 25 69 26 52 27 68 28 53 29 56 30 67 31 83 32 54 33 55 34
REMARK SMILES IDX 66 36 84 37 57 38 44 39 45 40 50 41 46 42 47 43 49 44 51 45
REMARK SMILES IDX 48 46 70 47 71 48 76 49 72 50 73 51 75 52 77 53 74 54 58 55
REMARK SMILES IDX 59 56 64 57 60 58 61 59 63 60 65 61 62 62 6 63 7 64 8 65
REMARK SMILES IDX 9 67 10 68 11 69 24 70 12 71 13 72 25 73 26 74 34 75 27 76
REMARK SMILES IDX 33 77 28 78 32 79 29 80 31 81 30 82 14 83 15 84 23 85 16 86
REMARK SMILES IDX 18 87 17 88 19 89 20 90 21 91 22 92
REMARK H PARENT 3 6 82 24 56 35 7 66
REMARK Flexibility Score: inf
ROOT
ATOM      1  C   UNL A   1      36.258  21.962  25.491  1.00  0.00     0.042 C 
ENDROOT
BRANCH   1   2
ATOM      2  C   UNL A   1      37.679  22.262  25.018  1.00  0.00     0.118 C 
BRANCH   2   3
ATOM      3  N   UNL A   1      38.711  21.636  25.827  1.00  0.00    -0.352 N 
ATOM      4  O   UNL A   1      40.380  21.169  27.183  1.00  0.00    -0.269 OA
ATOM      5  C   UNL A   1      39.652  22.055  26.726  1.00  0.00     0.251 C 
ATOM      6  H   UNL A   1      38.740  20.661  25.694  1.00  0.00     0.163 HD
BRANCH   5   7
ATOM      7  C   UNL A   1      39.882  23.459  27.173  1.00  0.00     0.039 A 
ATOM      8  C   UNL A   1      38.996  24.524  27.015  1.00  0.00     0.014 A 
ATOM      9  C   UNL A   1      41.092  23.698  27.859  1.00  0.00     0.014 A 
ATOM     10  C   UNL A   1      39.314  25.794  27.515  1.00  0.00     0.010 A 
ATOM     11  C   UNL A   1      41.406  24.957  28.370  1.00  0.00     0.010 A 
ATOM     12  C   UNL A   1      40.516  26.016  28.196  1.00  0.00    -0.014 A 
BRANCH  12  13
ATOM     13  C   UNL A   1      40.751  27.330  28.805  1.00  0.00     0.031 A 
ATOM     14  C   UNL A   1      41.914  28.122  28.293  1.00  0.00     0.074 A 
ATOM     15  C   UNL A   1      39.889  27.953  29.634  1.00  0.00     0.049 A 
ATOM     16  N   UNL A   1      42.900  28.636  28.960  1.00  0.00    -0.248 NA
ATOM     17  C   UNL A   1      41.974  28.383  26.846  1.00  0.00     0.031 C 
ATOM     18  C   UNL A   1      38.526  27.551  29.984  1.00  0.00     0.029 A 
ATOM     19  N   UNL A   1      40.030  29.163  30.257  1.00  0.00    -0.354 N 
ATOM     20  C   UNL A   1      43.631  29.404  28.052  1.00  0.00     0.074 A 
ATOM     21  C   UNL A   1      43.057  29.155  26.753  1.00  0.00     0.031 C 
ATOM     22  C   UNL A   1      37.902  28.586  30.587  1.00  0.00     0.029 A 
ATOM     23  C   UNL A   1      38.852  29.673  30.775  1.00  0.00     0.049 A 
ATOM     24  H   UNL A   1      40.895  29.629  30.330  1.00  0.00     0.167 HD
ATOM     25  C   UNL A   1      44.576  30.309  28.433  1.00  0.00     0.037 A 
ATOM     26  C   UNL A   1      38.646  30.916  31.272  1.00  0.00     0.037 A 
ATOM     27  C   UNL A   1      45.001  30.128  29.791  1.00  0.00     0.049 A 
ATOM     28  C   UNL A   1      39.959  31.518  31.601  1.00  0.00     0.074 A 
ATOM     29  C   UNL A   1      45.597  29.109  30.508  1.00  0.00     0.029 A 
ATOM     30  N   UNL A   1      44.598  31.045  30.728  1.00  0.00    -0.354 N 
ATOM     31  N   UNL A   1      40.713  31.165  32.602  1.00  0.00    -0.248 NA
ATOM     32  C   UNL A   1      40.603  32.356  30.601  1.00  0.00     0.031 C 
ATOM     33  C   UNL A   1      45.090  29.239  31.834  1.00  0.00     0.029 A 
ATOM     34  C   UNL A   1      44.219  30.328  31.831  1.00  0.00     0.049 A 
ATOM     35  H   UNL A   1      44.585  32.023  30.627  1.00  0.00     0.167 HD
ATOM     36  C   UNL A   1      42.008  31.384  32.163  1.00  0.00     0.074 A 
ATOM     37  C   UNL A   1      41.873  32.241  30.993  1.00  0.00     0.031 C 
ATOM     38  C   UNL A   1      43.046  30.624  32.618  1.00  0.00     0.037 A 
BRANCH  25  39
ATOM     39  C   UNL A   1      44.946  31.545  27.656  1.00  0.00     0.057 A 
ATOM     40  C   UNL A   1      46.210  31.642  27.043  1.00  0.00     0.134 A 
ATOM     41  C   UNL A   1      44.217  32.746  27.726  1.00  0.00     0.134 A 
ATOM     42  F   UNL A   1      47.013  30.570  26.950  1.00  0.00    -0.206 F 
ATOM     43  C   UNL A   1      46.726  32.855  26.572  1.00  0.00     0.040 A 
ATOM     44  C   UNL A   1      44.702  33.955  27.216  1.00  0.00     0.040 A 
ATOM     45  F   UNL A   1      43.047  32.822  28.376  1.00  0.00    -0.206 F 
ATOM     46  C   UNL A   1      45.971  34.018  26.658  1.00  0.00     0.006 A 
ENDBRANCH  25  39
BRANCH  26  47
ATOM     47  C   UNL A   1      37.398  31.707  31.312  1.00  0.00     0.057 A 
ATOM     48  C   UNL A   1      36.818  32.218  30.143  1.00  0.00     0.134 A 
ATOM     49  C   UNL A   1      36.610  31.775  32.474  1.00  0.00     0.134 A 
ATOM     50  F   UNL A   1      37.471  32.157  28.974  1.00  0.00    -0.206 F 
ATOM     51  C   UNL A   1      35.525  32.757  30.127  1.00  0.00     0.040 A 
ATOM     52  C   UNL A   1      35.323  32.322  32.475  1.00  0.00     0.040 A 
ATOM     53  F   UNL A   1      37.029  31.237  33.628  1.00  0.00    -0.206 F 
ATOM     54  C   UNL A   1      34.771  32.805  31.295  1.00  0.00     0.006 A 
ENDBRANCH  26  47
BRANCH  38  55
ATOM     55  C   UNL A   1      42.824  29.789  33.843  1.00  0.00     0.057 A 
ATOM     56  C   UNL A   1      42.228  28.520  33.820  1.00  0.00     0.134 A 
ATOM     57  C   UNL A   1      43.361  30.218  35.061  1.00  0.00     0.134 A 
ATOM     58  F   UNL A   1      41.787  27.981  32.674  1.00  0.00    -0.206 F 
ATOM     59  C   UNL A   1      42.123  27.737  34.973  1.00  0.00     0.040 A 
ATOM     60  C   UNL A   1      43.292  29.431  36.214  1.00  0.00     0.040 A 
ATOM     61  F   UNL A   1      44.003  31.395  35.142  1.00  0.00    -0.206 F 
ATOM     62  C   UNL A   1      42.661  28.191  36.174  1.00  0.00     0.006 A 
ENDBRANCH  38  55
ENDBRANCH  12  13
ENDBRANCH   5   7
ENDBRANCH   2   3
ENDBRANCH   1   2
BRANCH   1  63
ATOM     63  C   UNL A   1      35.725  20.613  25.008  1.00  0.00     0.118 C 
BRANCH  63  64
ATOM     64  N   UNL A   1      34.307  20.420  25.231  1.00  0.00    -0.351 N 
ATOM     65  C   UNL A   1      33.103  21.030  24.969  1.00  0.00     0.273 C 
ATOM     66  H   UNL A   1      34.158  19.584  25.729  1.00  0.00     0.163 HD
ATOM     67  O   UNL A   1      32.156  20.345  25.360  1.00  0.00    -0.267 OA
BRANCH  65  68
ATOM     68  C   UNL A   1      32.833  22.338  24.337  1.00  0.00     0.178 A 
ATOM     69  N   UNL A   1      32.196  22.270  23.105  1.00  0.00    -0.124 NA
ATOM     70  C   UNL A   1      32.995  23.695  24.640  1.00  0.00     0.122 A 
ATOM     71  N   UNL A   1      31.917  23.487  22.682  1.00  0.00    -0.061 NA
ATOM     72  N   UNL A   1      32.497  24.356  23.522  1.00  0.00    -0.213 N 
BRANCH  70  73
ATOM     73  C   UNL A   1      33.360  24.382  25.913  1.00  0.00     0.262 C 
ATOM     74  C   UNL A   1      32.153  24.401  26.869  1.00  0.00     0.281 C 
ATOM     75  O   UNL A   1      33.991  25.655  25.736  1.00  0.00    -0.477 OA
ATOM     76  O   UNL A   1      31.259  25.475  26.559  1.00  0.00    -0.485 OA
ATOM     77  C   UNL A   1      33.323  26.701  26.316  1.00  0.00     0.162 A 
ATOM     78  C   UNL A   1      31.967  26.645  26.642  1.00  0.00     0.161 A 
ATOM     79  C   UNL A   1      34.033  27.882  26.504  1.00  0.00     0.050 A 
ATOM     80  C   UNL A   1      31.292  27.785  27.063  1.00  0.00     0.050 A 
ATOM     81  C   UNL A   1      33.375  29.015  26.982  1.00  0.00     0.004 A 
ATOM     82  C   UNL A   1      32.002  28.972  27.240  1.00  0.00     0.004 A 
ENDBRANCH  70  73
BRANCH  72  83
ATOM     83  C   UNL A   1      32.487  25.727  23.205  1.00  0.00     0.067 A 
ATOM     84  C   UNL A   1      33.654  26.321  22.715  1.00  0.00     0.028 A 
ATOM     85  C   UNL A   1      31.302  26.461  23.333  1.00  0.00     0.041 A 
ATOM     86  C   UNL A   1      33.602  27.634  22.251  1.00  0.00     0.003 A 
ATOM     87  C   UNL A   1      31.254  27.791  22.888  1.00  0.00     0.058 A 
ATOM     88  C   UNL A   1      32.408  28.359  22.324  1.00  0.00     0.013 A 
BRANCH  87  89
ATOM     89  C   UNL A   1      29.968  28.576  22.948  1.00  0.00     0.416 C 
ATOM     90  F   UNL A   1      29.914  29.420  24.016  1.00  0.00    -0.166 F 
ATOM     91  F   UNL A   1      29.778  29.357  21.847  1.00  0.00    -0.166 F 
ATOM     92  F   UNL A   1      28.857  27.792  23.039  1.00  0.00    -0.166 F 
ENDBRANCH  87  89
ENDBRANCH  72  83
ENDBRANCH  65  68
ENDBRANCH  63  64
ENDBRANCH   1  63
TORSDOF 13
ENDMDL
