MODEL 1
REMARK VINA RESULT:      -9.8      0.000      0.000
REMARK SMILES [NH3+][C@@H](CC(=O)NCCCNC(=O)c1ccc(-c2c3nc(c(-c4c(F)cccc4F)c4ccc([nH]4)c(-c4c(F)cccc4F)c4nc(c(-c5c(F)cccc5F)c5ccc2[nH]5)C=C4)C=C3)cc1)Cc1ccc(F)cc1
REMARK SMILES IDX 7 1 6 2 4 3 5 4 3 6 2 7 1 8 67 12 68 13 69 14 74 15 70 16
REMARK SMILES IDX 73 17 71 18 72 19 8 20 9 21 10 22 11 23 12 25 13 26 14 27
REMARK SMILES IDX 66 28 15 29 65 30 16 31 17 32 18 33 59 34 19 35 64 36 58 37
REMARK SMILES IDX 60 38 20 39 63 40 57 41 56 42 21 44 47 45 30 46 46 47 31 48
REMARK SMILES IDX 34 49 45 50 61 51 32 52 33 53 44 55 62 56 35 57 22 58 23 59
REMARK SMILES IDX 28 60 24 61 25 62 27 63 29 64 26 65 48 66 49 67 54 68 50 69
REMARK SMILES IDX 51 70 53 71 55 72 52 73 36 74 37 75 42 76 38 77 39 78 41 79
REMARK SMILES IDX 43 80 40 81
REMARK H PARENT 6 5 1 9 1 10 1 11 10 24 60 43 34 54
REMARK Flexibility Score: inf
ROOT
ATOM      1  C   UNL A   1      33.797  35.433  29.121  1.00  0.00     0.117 C 
ENDROOT
BRANCH   1   2
ATOM      2  N   UNL A   1      32.895  35.933  30.142  1.00  0.00    -0.356 N 
ATOM      3  C   UNL A   1      32.999  35.898  31.498  1.00  0.00     0.225 C 
ATOM      4  O   UNL A   1      32.059  36.338  32.161  1.00  0.00    -0.275 OA
ATOM      5  H   UNL A   1      32.079  36.365  29.800  1.00  0.00     0.163 HD
BRANCH   3   6
ATOM      6  C   UNL A   1      34.231  35.333  32.176  1.00  0.00     0.165 C 
BRANCH   6   7
ATOM      7  C   UNL A   1      34.246  33.814  32.430  1.00  0.00     0.194 C 
BRANCH   7   8
ATOM      8  N   UNL A   1      33.203  33.398  33.378  1.00  0.00    -0.354 N 
ATOM      9  H   UNL A   1      32.612  34.198  33.606  1.00  0.00     0.344 HD
ATOM     10  H   UNL A   1      33.638  33.042  34.229  1.00  0.00     0.344 HD
ATOM     11  H   UNL A   1      32.632  32.665  32.956  1.00  0.00     0.344 HD
ENDBRANCH   7   8
BRANCH   7  12
ATOM     12  C   UNL A   1      35.657  33.247  32.754  1.00  0.00     0.101 C 
BRANCH  12  13
ATOM     13  C   UNL A   1      36.732  33.632  31.757  1.00  0.00    -0.042 A 
ATOM     14  C   UNL A   1      36.652  33.224  30.417  1.00  0.00     0.007 A 
ATOM     15  C   UNL A   1      37.856  34.355  32.189  1.00  0.00     0.007 A 
ATOM     16  C   UNL A   1      37.693  33.514  29.534  1.00  0.00     0.039 A 
ATOM     17  C   UNL A   1      38.896  34.640  31.306  1.00  0.00     0.039 A 
ATOM     18  C   UNL A   1      38.807  34.210  29.987  1.00  0.00     0.123 A 
ATOM     19  F   UNL A   1      39.815  34.466  29.144  1.00  0.00    -0.207 F 
ENDBRANCH  12  13
ENDBRANCH   7  12
ENDBRANCH   6   7
ENDBRANCH   3   6
ENDBRANCH   1   2
BRANCH   1  20
ATOM     20  C   UNL A   1      33.227  34.202  28.421  1.00  0.00     0.042 C 
BRANCH  20  21
ATOM     21  C   UNL A   1      34.192  33.022  28.335  1.00  0.00     0.118 C 
BRANCH  21  22
ATOM     22  N   UNL A   1      33.601  31.862  27.690  1.00  0.00    -0.352 N 
ATOM     23  C   UNL A   1      34.116  30.612  27.461  1.00  0.00     0.251 C 
ATOM     24  H   UNL A   1      32.680  31.995  27.363  1.00  0.00     0.163 HD
ATOM     25  O   UNL A   1      33.495  29.836  26.734  1.00  0.00    -0.269 OA
BRANCH  23  26
ATOM     26  C   UNL A   1      35.402  30.178  28.058  1.00  0.00     0.039 A 
ATOM     27  C   UNL A   1      36.558  30.248  27.271  1.00  0.00     0.014 A 
ATOM     28  C   UNL A   1      35.478  29.641  29.345  1.00  0.00     0.014 A 
ATOM     29  C   UNL A   1      37.785  29.817  27.784  1.00  0.00     0.010 A 
ATOM     30  C   UNL A   1      36.715  29.281  29.883  1.00  0.00     0.010 A 
ATOM     31  C   UNL A   1      37.880  29.347  29.103  1.00  0.00    -0.014 A 
BRANCH  31  32
ATOM     32  C   UNL A   1      39.178  28.884  29.662  1.00  0.00     0.031 A 
ATOM     33  C   UNL A   1      39.780  29.581  30.855  1.00  0.00     0.074 A 
ATOM     34  C   UNL A   1      39.841  27.869  29.072  1.00  0.00     0.049 A 
ATOM     35  N   UNL A   1      40.927  29.364  31.448  1.00  0.00    -0.248 NA
ATOM     36  C   UNL A   1      39.004  30.685  31.443  1.00  0.00     0.031 C 
ATOM     37  C   UNL A   1      39.394  27.142  27.883  1.00  0.00     0.029 A 
ATOM     38  N   UNL A   1      41.041  27.282  29.389  1.00  0.00    -0.354 N 
ATOM     39  C   UNL A   1      41.021  30.317  32.455  1.00  0.00     0.074 A 
ATOM     40  C   UNL A   1      39.834  31.139  32.371  1.00  0.00     0.031 C 
ATOM     41  C   UNL A   1      40.301  26.198  27.579  1.00  0.00     0.029 A 
ATOM     42  C   UNL A   1      41.404  26.271  28.532  1.00  0.00     0.049 A 
ATOM     43  H   UNL A   1      41.589  27.559  30.158  1.00  0.00     0.167 HD
ATOM     44  C   UNL A   1      41.997  30.481  33.380  1.00  0.00     0.037 A 
ATOM     45  C   UNL A   1      42.505  25.494  28.513  1.00  0.00     0.037 A 
ATOM     46  C   UNL A   1      43.152  29.631  33.501  1.00  0.00     0.049 A 
ATOM     47  C   UNL A   1      43.551  25.670  29.580  1.00  0.00     0.074 A 
ATOM     48  C   UNL A   1      44.156  29.672  34.453  1.00  0.00     0.029 A 
ATOM     49  N   UNL A   1      43.453  28.583  32.646  1.00  0.00    -0.354 N 
ATOM     50  N   UNL A   1      43.585  26.528  30.570  1.00  0.00    -0.248 NA
ATOM     51  C   UNL A   1      44.704  24.761  29.534  1.00  0.00     0.031 C 
ATOM     52  C   UNL A   1      45.082  28.669  34.156  1.00  0.00     0.029 A 
ATOM     53  C   UNL A   1      44.633  27.976  33.044  1.00  0.00     0.049 A 
ATOM     54  H   UNL A   1      42.910  28.309  31.872  1.00  0.00     0.167 HD
ATOM     55  C   UNL A   1      44.741  26.237  31.284  1.00  0.00     0.074 A 
ATOM     56  C   UNL A   1      45.373  25.116  30.622  1.00  0.00     0.031 C 
ATOM     57  C   UNL A   1      45.235  26.843  32.391  1.00  0.00     0.037 A 
BRANCH  44  58
ATOM     58  C   UNL A   1      41.860  31.617  34.351  1.00  0.00     0.057 A 
ATOM     59  C   UNL A   1      42.356  32.894  34.065  1.00  0.00     0.134 A 
ATOM     60  C   UNL A   1      41.163  31.446  35.554  1.00  0.00     0.134 A 
ATOM     61  F   UNL A   1      43.042  33.122  32.935  1.00  0.00    -0.206 F 
ATOM     62  C   UNL A   1      42.175  33.961  34.948  1.00  0.00     0.040 A 
ATOM     63  C   UNL A   1      40.955  32.511  36.433  1.00  0.00     0.040 A 
ATOM     64  F   UNL A   1      40.658  30.249  35.885  1.00  0.00    -0.206 F 
ATOM     65  C   UNL A   1      41.464  33.772  36.132  1.00  0.00     0.006 A 
ENDBRANCH  44  58
BRANCH  45  66
ATOM     66  C   UNL A   1      42.675  24.460  27.461  1.00  0.00     0.057 A 
ATOM     67  C   UNL A   1      42.329  23.123  27.695  1.00  0.00     0.134 A 
ATOM     68  C   UNL A   1      43.225  24.773  26.213  1.00  0.00     0.134 A 
ATOM     69  F   UNL A   1      41.815  22.757  28.880  1.00  0.00    -0.206 F 
ATOM     70  C   UNL A   1      42.554  22.130  26.742  1.00  0.00     0.040 A 
ATOM     71  C   UNL A   1      43.431  23.795  25.238  1.00  0.00     0.040 A 
ATOM     72  F   UNL A   1      43.570  26.036  25.923  1.00  0.00    -0.206 F 
ATOM     73  C   UNL A   1      43.106  22.467  25.507  1.00  0.00     0.006 A 
ENDBRANCH  45  66
BRANCH  57  74
ATOM     74  C   UNL A   1      46.486  26.273  32.988  1.00  0.00     0.057 A 
ATOM     75  C   UNL A   1      46.456  25.214  33.903  1.00  0.00     0.134 A 
ATOM     76  C   UNL A   1      47.741  26.773  32.616  1.00  0.00     0.134 A 
ATOM     77  F   UNL A   1      45.286  24.699  34.309  1.00  0.00    -0.206 F 
ATOM     78  C   UNL A   1      47.629  24.689  34.449  1.00  0.00     0.040 A 
ATOM     79  C   UNL A   1      48.921  26.239  33.135  1.00  0.00     0.040 A 
ATOM     80  F   UNL A   1      47.840  27.781  31.736  1.00  0.00    -0.206 F 
ATOM     81  C   UNL A   1      48.867  25.198  34.060  1.00  0.00     0.006 A 
ENDBRANCH  57  74
ENDBRANCH  31  32
ENDBRANCH  23  26
ENDBRANCH  21  22
ENDBRANCH  20  21
ENDBRANCH   1  20
TORSDOF 14
ENDMDL
MODEL 2
REMARK VINA RESULT:      -9.7      3.377     11.005
REMARK SMILES [NH3+][C@@H](CC(=O)NCCCNC(=O)c1ccc(-c2c3nc(c(-c4c(F)cccc4F)c4ccc([nH]4)c(-c4c(F)cccc4F)c4nc(c(-c5c(F)cccc5F)c5ccc2[nH]5)C=C4)C=C3)cc1)Cc1ccc(F)cc1
REMARK SMILES IDX 7 1 6 2 4 3 5 4 3 6 2 7 1 8 67 12 68 13 69 14 74 15 70 16
REMARK SMILES IDX 73 17 71 18 72 19 8 20 9 21 10 22 11 23 12 25 13 26 14 27
REMARK SMILES IDX 66 28 15 29 65 30 16 31 17 32 18 33 59 34 19 35 64 36 58 37
REMARK SMILES IDX 60 38 20 39 63 40 57 41 56 42 21 44 47 45 30 46 46 47 31 48
REMARK SMILES IDX 34 49 45 50 61 51 32 52 33 53 44 55 62 56 35 57 22 58 23 59
REMARK SMILES IDX 28 60 24 61 25 62 27 63 29 64 26 65 48 66 49 67 54 68 50 69
REMARK SMILES IDX 51 70 53 71 55 72 52 73 36 74 37 75 42 76 38 77 39 78 41 79
REMARK SMILES IDX 43 80 40 81
REMARK H PARENT 6 5 1 9 1 10 1 11 10 24 60 43 34 54
REMARK Flexibility Score: inf
ROOT
ATOM      1  C   UNL A   1      42.355  20.312  27.802  1.00  0.00     0.117 C 
ENDROOT
BRANCH   1   2
ATOM      2  N   UNL A   1      42.338  18.976  27.237  1.00  0.00    -0.356 N 
ATOM      3  C   UNL A   1      42.793  18.525  26.037  1.00  0.00     0.225 C 
ATOM      4  O   UNL A   1      42.605  17.340  25.756  1.00  0.00    -0.275 OA
ATOM      5  H   UNL A   1      41.934  18.286  27.813  1.00  0.00     0.163 HD
BRANCH   3   6
ATOM      6  C   UNL A   1      43.507  19.449  25.071  1.00  0.00     0.165 C 
BRANCH   6   7
ATOM      7  C   UNL A   1      45.024  19.241  24.910  1.00  0.00     0.194 C 
BRANCH   7   8
ATOM      8  N   UNL A   1      45.592  18.417  25.986  1.00  0.00    -0.354 N 
ATOM      9  H   UNL A   1      45.125  17.510  26.002  1.00  0.00     0.344 HD
ATOM     10  H   UNL A   1      45.456  18.886  26.882  1.00  0.00     0.344 HD
ATOM     11  H   UNL A   1      46.589  18.282  25.821  1.00  0.00     0.344 HD
ENDBRANCH   7   8
BRANCH   7  12
ATOM     12  C   UNL A   1      45.810  20.555  24.638  1.00  0.00     0.101 C 
BRANCH  12  13
ATOM     13  C   UNL A   1      45.124  21.812  25.133  1.00  0.00    -0.042 A 
ATOM     14  C   UNL A   1      44.406  22.636  24.254  1.00  0.00     0.007 A 
ATOM     15  C   UNL A   1      45.254  22.192  26.480  1.00  0.00     0.007 A 
ATOM     16  C   UNL A   1      43.854  23.833  24.711  1.00  0.00     0.039 A 
ATOM     17  C   UNL A   1      44.705  23.390  26.932  1.00  0.00     0.039 A 
ATOM     18  C   UNL A   1      44.015  24.204  26.041  1.00  0.00     0.123 A 
ATOM     19  F   UNL A   1      43.504  25.364  26.471  1.00  0.00    -0.207 F 
ENDBRANCH  12  13
ENDBRANCH   7  12
ENDBRANCH   6   7
ENDBRANCH   3   6
ENDBRANCH   1   2
BRANCH   1  20
ATOM     20  C   UNL A   1      41.044  21.050  27.538  1.00  0.00     0.042 C 
BRANCH  20  21
ATOM     21  C   UNL A   1      41.089  22.013  26.354  1.00  0.00     0.118 C 
BRANCH  21  22
ATOM     22  N   UNL A   1      39.773  22.283  25.803  1.00  0.00    -0.352 N 
ATOM     23  C   UNL A   1      38.913  23.329  26.025  1.00  0.00     0.251 C 
ATOM     24  H   UNL A   1      39.444  21.607  25.166  1.00  0.00     0.163 HD
ATOM     25  O   UNL A   1      37.767  23.262  25.579  1.00  0.00    -0.269 OA
BRANCH  23  26
ATOM     26  C   UNL A   1      39.326  24.528  26.793  1.00  0.00     0.039 A 
ATOM     27  C   UNL A   1      38.941  24.622  28.136  1.00  0.00     0.014 A 
ATOM     28  C   UNL A   1      40.018  25.586  26.200  1.00  0.00     0.014 A 
ATOM     29  C   UNL A   1      39.280  25.752  28.886  1.00  0.00     0.010 A 
ATOM     30  C   UNL A   1      40.421  26.679  26.968  1.00  0.00     0.010 A 
ATOM     31  C   UNL A   1      40.041  26.784  28.315  1.00  0.00    -0.014 A 
BRANCH  31  32
ATOM     32  C   UNL A   1      40.409  27.992  29.101  1.00  0.00     0.031 A 
ATOM     33  C   UNL A   1      41.769  28.093  29.743  1.00  0.00     0.074 A 
ATOM     34  C   UNL A   1      39.508  28.979  29.279  1.00  0.00     0.049 A 
ATOM     35  N   UNL A   1      42.252  29.036  30.513  1.00  0.00    -0.248 NA
ATOM     36  C   UNL A   1      42.698  26.975  29.512  1.00  0.00     0.031 C 
ATOM     37  C   UNL A   1      38.141  28.984  28.754  1.00  0.00     0.029 A 
ATOM     38  N   UNL A   1      39.605  30.166  29.962  1.00  0.00    -0.354 N 
ATOM     39  C   UNL A   1      43.524  28.612  30.878  1.00  0.00     0.074 A 
ATOM     40  C   UNL A   1      43.726  27.312  30.278  1.00  0.00     0.031 C 
ATOM     41  C   UNL A   1      37.533  30.124  29.124  1.00  0.00     0.029 A 
ATOM     42  C   UNL A   1      38.454  30.916  29.933  1.00  0.00     0.049 A 
ATOM     43  H   UNL A   1      40.423  30.452  30.430  1.00  0.00     0.167 HD
ATOM     44  C   UNL A   1      44.450  29.257  31.628  1.00  0.00     0.037 A 
ATOM     45  C   UNL A   1      38.171  32.106  30.499  1.00  0.00     0.037 A 
ATOM     46  C   UNL A   1      44.273  30.574  32.180  1.00  0.00     0.049 A 
ATOM     47  C   UNL A   1      39.234  32.818  31.291  1.00  0.00     0.074 A 
ATOM     48  C   UNL A   1      45.183  31.340  32.889  1.00  0.00     0.029 A 
ATOM     49  N   UNL A   1      43.112  31.323  32.079  1.00  0.00    -0.354 N 
ATOM     50  N   UNL A   1      40.459  32.435  31.561  1.00  0.00    -0.248 NA
ATOM     51  C   UNL A   1      38.881  34.133  31.842  1.00  0.00     0.031 C 
ATOM     52  C   UNL A   1      44.561  32.540  33.246  1.00  0.00     0.029 A 
ATOM     53  C   UNL A   1      43.279  32.538  32.723  1.00  0.00     0.049 A 
ATOM     54  H   UNL A   1      42.291  31.035  31.619  1.00  0.00     0.167 HD
ATOM     55  C   UNL A   1      41.030  33.477  32.281  1.00  0.00     0.074 A 
ATOM     56  C   UNL A   1      40.025  34.512  32.394  1.00  0.00     0.031 C 
ATOM     57  C   UNL A   1      42.278  33.569  32.802  1.00  0.00     0.037 A 
BRANCH  44  58
ATOM     58  C   UNL A   1      45.751  28.557  31.892  1.00  0.00     0.057 A 
ATOM     59  C   UNL A   1      45.927  27.720  33.000  1.00  0.00     0.134 A 
ATOM     60  C   UNL A   1      46.816  28.668  30.988  1.00  0.00     0.134 A 
ATOM     61  F   UNL A   1      44.950  27.579  33.908  1.00  0.00    -0.206 F 
ATOM     62  C   UNL A   1      47.121  27.026  33.208  1.00  0.00     0.040 A 
ATOM     63  C   UNL A   1      48.006  27.961  31.172  1.00  0.00     0.040 A 
ATOM     64  F   UNL A   1      46.710  29.449  29.903  1.00  0.00    -0.206 F 
ATOM     65  C   UNL A   1      48.161  27.139  32.287  1.00  0.00     0.006 A 
ENDBRANCH  44  58
BRANCH  45  66
ATOM     66  C   UNL A   1      36.829  32.717  30.329  1.00  0.00     0.057 A 
ATOM     67  C   UNL A   1      36.540  33.537  29.230  1.00  0.00     0.134 A 
ATOM     68  C   UNL A   1      35.817  32.532  31.277  1.00  0.00     0.134 A 
ATOM     69  F   UNL A   1      37.476  33.768  28.297  1.00  0.00    -0.206 F 
ATOM     70  C   UNL A   1      35.307  34.177  29.098  1.00  0.00     0.040 A 
ATOM     71  C   UNL A   1      34.569  33.143  31.145  1.00  0.00     0.040 A 
ATOM     72  F   UNL A   1      36.027  31.752  32.348  1.00  0.00    -0.206 F 
ATOM     73  C   UNL A   1      34.317  33.978  30.058  1.00  0.00     0.006 A 
ENDBRANCH  45  66
BRANCH  57  74
ATOM     74  C   UNL A   1      42.644  34.851  33.488  1.00  0.00     0.057 A 
ATOM     75  C   UNL A   1      43.218  35.925  32.797  1.00  0.00     0.134 A 
ATOM     76  C   UNL A   1      42.390  35.022  34.855  1.00  0.00     0.134 A 
ATOM     77  F   UNL A   1      43.499  35.821  31.490  1.00  0.00    -0.206 F 
ATOM     78  C   UNL A   1      43.552  37.114  33.448  1.00  0.00     0.040 A 
ATOM     79  C   UNL A   1      42.695  36.215  35.510  1.00  0.00     0.040 A 
ATOM     80  F   UNL A   1      41.833  34.034  35.573  1.00  0.00    -0.206 F 
ATOM     81  C   UNL A   1      43.283  37.264  34.807  1.00  0.00     0.006 A 
ENDBRANCH  57  74
ENDBRANCH  31  32
ENDBRANCH  23  26
ENDBRANCH  21  22
ENDBRANCH  20  21
ENDBRANCH   1  20
TORSDOF 14
ENDMDL
MODEL 3
REMARK VINA RESULT:      -9.7      3.758      6.138
REMARK SMILES [NH3+][C@@H](CC(=O)NCCCNC(=O)c1ccc(-c2c3nc(c(-c4c(F)cccc4F)c4ccc([nH]4)c(-c4c(F)cccc4F)c4nc(c(-c5c(F)cccc5F)c5ccc2[nH]5)C=C4)C=C3)cc1)Cc1ccc(F)cc1
REMARK SMILES IDX 7 1 6 2 4 3 5 4 3 6 2 7 1 8 67 12 68 13 69 14 74 15 70 16
REMARK SMILES IDX 73 17 71 18 72 19 8 20 9 21 10 22 11 23 12 25 13 26 14 27
REMARK SMILES IDX 66 28 15 29 65 30 16 31 17 32 18 33 59 34 19 35 64 36 58 37
REMARK SMILES IDX 60 38 20 39 63 40 57 41 56 42 21 44 47 45 30 46 46 47 31 48
REMARK SMILES IDX 34 49 45 50 61 51 32 52 33 53 44 55 62 56 35 57 22 58 23 59
REMARK SMILES IDX 28 60 24 61 25 62 27 63 29 64 26 65 48 66 49 67 54 68 50 69
REMARK SMILES IDX 51 70 53 71 55 72 52 73 36 74 37 75 42 76 38 77 39 78 41 79
REMARK SMILES IDX 43 80 40 81
REMARK H PARENT 6 5 1 9 1 10 1 11 10 24 60 43 34 54
REMARK Flexibility Score: inf
ROOT
ATOM      1  C   UNL A   1      31.413  30.351  26.280  1.00  0.00     0.117 C 
ENDROOT
BRANCH   1   2
ATOM      2  N   UNL A   1      32.562  30.066  25.441  1.00  0.00    -0.356 N 
ATOM      3  C   UNL A   1      32.759  29.076  24.530  1.00  0.00     0.225 C 
ATOM      4  O   UNL A   1      33.860  29.005  23.982  1.00  0.00    -0.275 OA
ATOM      5  H   UNL A   1      33.319  30.687  25.549  1.00  0.00     0.163 HD
BRANCH   3   6
ATOM      6  C   UNL A   1      31.661  28.086  24.197  1.00  0.00     0.165 C 
BRANCH   6   7
ATOM      7  C   UNL A   1      30.837  28.368  22.926  1.00  0.00     0.194 C 
BRANCH   7   8
ATOM      8  N   UNL A   1      31.472  29.375  22.064  1.00  0.00    -0.354 N 
ATOM      9  H   UNL A   1      30.752  29.963  21.642  1.00  0.00     0.344 HD
ATOM     10  H   UNL A   1      32.003  28.907  21.329  1.00  0.00     0.344 HD
ATOM     11  H   UNL A   1      32.099  29.954  22.621  1.00  0.00     0.344 HD
ENDBRANCH   7   8
BRANCH   7  12
ATOM     12  C   UNL A   1      29.330  28.631  23.202  1.00  0.00     0.101 C 
BRANCH  12  13
ATOM     13  C   UNL A   1      28.814  29.951  22.665  1.00  0.00    -0.042 A 
ATOM     14  C   UNL A   1      28.417  30.078  21.326  1.00  0.00     0.007 A 
ATOM     15  C   UNL A   1      28.786  31.080  23.500  1.00  0.00     0.007 A 
ATOM     16  C   UNL A   1      28.026  31.322  20.827  1.00  0.00     0.039 A 
ATOM     17  C   UNL A   1      28.399  32.321  22.998  1.00  0.00     0.039 A 
ATOM     18  C   UNL A   1      28.029  32.431  21.664  1.00  0.00     0.123 A 
ATOM     19  F   UNL A   1      27.675  33.628  21.177  1.00  0.00    -0.207 F 
ENDBRANCH  12  13
ENDBRANCH   7  12
ENDBRANCH   6   7
ENDBRANCH   3   6
ENDBRANCH   1   2
BRANCH   1  20
ATOM     20  C   UNL A   1      31.238  31.851  26.503  1.00  0.00     0.042 C 
BRANCH  20  21
ATOM     21  C   UNL A   1      32.543  32.642  26.526  1.00  0.00     0.118 C 
BRANCH  21  22
ATOM     22  N   UNL A   1      32.425  33.896  27.250  1.00  0.00    -0.352 N 
ATOM     23  C   UNL A   1      33.098  34.353  28.355  1.00  0.00     0.251 C 
ATOM     24  H   UNL A   1      31.753  34.520  26.890  1.00  0.00     0.163 HD
ATOM     25  O   UNL A   1      32.707  35.382  28.907  1.00  0.00    -0.269 OA
BRANCH  23  26
ATOM     26  C   UNL A   1      34.273  33.635  28.903  1.00  0.00     0.039 A 
ATOM     27  C   UNL A   1      34.055  32.459  29.631  1.00  0.00     0.014 A 
ATOM     28  C   UNL A   1      35.572  34.133  28.775  1.00  0.00     0.014 A 
ATOM     29  C   UNL A   1      35.133  31.770  30.194  1.00  0.00     0.010 A 
ATOM     30  C   UNL A   1      36.655  33.405  29.273  1.00  0.00     0.010 A 
ATOM     31  C   UNL A   1      36.447  32.226  30.005  1.00  0.00    -0.014 A 
BRANCH  31  32
ATOM     32  C   UNL A   1      37.603  31.504  30.598  1.00  0.00     0.031 A 
ATOM     33  C   UNL A   1      38.004  31.761  32.028  1.00  0.00     0.074 A 
ATOM     34  C   UNL A   1      38.325  30.652  29.841  1.00  0.00     0.049 A 
ATOM     35  N   UNL A   1      39.016  31.276  32.704  1.00  0.00    -0.248 NA
ATOM     36  C   UNL A   1      37.176  32.709  32.791  1.00  0.00     0.031 C 
ATOM     37  C   UNL A   1      38.075  30.351  28.430  1.00  0.00     0.029 A 
ATOM     38  N   UNL A   1      39.424  29.892  30.153  1.00  0.00    -0.354 N 
ATOM     39  C   UNL A   1      38.961  31.878  33.955  1.00  0.00     0.074 A 
ATOM     40  C   UNL A   1      37.840  32.792  33.935  1.00  0.00     0.031 C 
ATOM     41  C   UNL A   1      38.986  29.461  28.004  1.00  0.00     0.029 A 
ATOM     42  C   UNL A   1      39.900  29.150  29.099  1.00  0.00     0.049 A 
ATOM     43  H   UNL A   1      39.834  29.879  31.048  1.00  0.00     0.167 HD
ATOM     44  C   UNL A   1      39.758  31.672  35.031  1.00  0.00     0.037 A 
ATOM     45  C   UNL A   1      40.955  28.316  29.022  1.00  0.00     0.037 A 
ATOM     46  C   UNL A   1      40.838  30.724  35.071  1.00  0.00     0.049 A 
ATOM     47  C   UNL A   1      41.796  28.075  30.245  1.00  0.00     0.074 A 
ATOM     48  C   UNL A   1      41.654  30.391  36.140  1.00  0.00     0.029 A 
ATOM     49  N   UNL A   1      41.251  29.951  33.998  1.00  0.00    -0.354 N 
ATOM     50  N   UNL A   1      41.682  28.597  31.443  1.00  0.00    -0.248 NA
ATOM     51  C   UNL A   1      42.904  27.119  30.111  1.00  0.00     0.031 C 
ATOM     52  C   UNL A   1      42.581  29.440  35.705  1.00  0.00     0.029 A 
ATOM     53  C   UNL A   1      42.316  29.150  34.377  1.00  0.00     0.049 A 
ATOM     54  H   UNL A   1      40.848  29.968  33.100  1.00  0.00     0.167 HD
ATOM     55  C   UNL A   1      42.677  28.004  32.211  1.00  0.00     0.074 A 
ATOM     56  C   UNL A   1      43.376  27.076  31.349  1.00  0.00     0.031 C 
ATOM     57  C   UNL A   1      42.983  28.211  33.514  1.00  0.00     0.037 A 
BRANCH  44  58
ATOM     58  C   UNL A   1      39.489  32.479  36.267  1.00  0.00     0.057 A 
ATOM     59  C   UNL A   1      40.174  33.671  36.533  1.00  0.00     0.134 A 
ATOM     60  C   UNL A   1      38.485  32.095  37.165  1.00  0.00     0.134 A 
ATOM     61  F   UNL A   1      41.154  34.089  35.719  1.00  0.00    -0.206 F 
ATOM     62  C   UNL A   1      39.879  34.447  37.656  1.00  0.00     0.040 A 
ATOM     63  C   UNL A   1      38.164  32.875  38.278  1.00  0.00     0.040 A 
ATOM     64  F   UNL A   1      37.787  30.967  36.965  1.00  0.00    -0.206 F 
ATOM     65  C   UNL A   1      38.864  34.053  38.527  1.00  0.00     0.006 A 
ENDBRANCH  44  58
BRANCH  45  66
ATOM     66  C   UNL A   1      41.276  27.628  27.746  1.00  0.00     0.057 A 
ATOM     67  C   UNL A   1      40.781  26.346  27.469  1.00  0.00     0.134 A 
ATOM     68  C   UNL A   1      42.115  28.212  26.791  1.00  0.00     0.134 A 
ATOM     69  F   UNL A   1      39.986  25.725  28.355  1.00  0.00    -0.206 F 
ATOM     70  C   UNL A   1      41.135  25.659  26.308  1.00  0.00     0.040 A 
ATOM     71  C   UNL A   1      42.457  27.549  25.612  1.00  0.00     0.040 A 
ATOM     72  F   UNL A   1      42.615  29.440  26.992  1.00  0.00    -0.206 F 
ATOM     73  C   UNL A   1      41.975  26.262  25.375  1.00  0.00     0.006 A 
ENDBRANCH  45  66
BRANCH  57  74
ATOM     74  C   UNL A   1      44.084  27.378  34.103  1.00  0.00     0.057 A 
ATOM     75  C   UNL A   1      43.842  26.120  34.666  1.00  0.00     0.134 A 
ATOM     76  C   UNL A   1      45.408  27.834  34.076  1.00  0.00     0.134 A 
ATOM     77  F   UNL A   1      42.594  25.633  34.733  1.00  0.00    -0.206 F 
ATOM     78  C   UNL A   1      44.876  25.354  35.207  1.00  0.00     0.040 A 
ATOM     79  C   UNL A   1      46.453  27.065  34.591  1.00  0.00     0.040 A 
ATOM     80  F   UNL A   1      45.708  29.027  33.543  1.00  0.00    -0.206 F 
ATOM     81  C   UNL A   1      46.187  25.824  35.164  1.00  0.00     0.006 A 
ENDBRANCH  57  74
ENDBRANCH  31  32
ENDBRANCH  23  26
ENDBRANCH  21  22
ENDBRANCH  20  21
ENDBRANCH   1  20
TORSDOF 14
ENDMDL
