MODEL 1
REMARK VINA RESULT:     -12.3      0.000      0.000
REMARK SMILES CCc1ccc(N2C(=O)C[C@@H](SC[C@@H](NC(C)=O)C(=O)NCCCNC(=O)c3ccc(-c4c5nc(c(-c6c(F)cccc6F)c6ccc([nH]6)c(-c6c(F)cccc6F)c6nc(c(-c7c(F)cccc7F)c7ccc4[nH]7)C=C6)C=C5)cc3)C2=O)cc1
REMARK SMILES IDX 19 1 20 2 21 3 14 5 13 6 12 7 11 8 7 9 8 10 82 11 9 12 10 13
REMARK SMILES IDX 83 14 6 15 3 16 4 17 85 18 5 19 84 20 2 21 1 22 15 23 16 24
REMARK SMILES IDX 17 26 18 27 22 28 23 29 24 30 25 31 26 32 27 34 28 35 29 36
REMARK SMILES IDX 81 37 30 38 80 39 31 40 32 41 33 42 74 43 34 44 79 45 73 46
REMARK SMILES IDX 75 47 35 48 78 49 72 50 71 51 36 53 62 54 45 55 61 56 46 57
REMARK SMILES IDX 49 58 60 59 76 60 47 61 48 62 59 64 77 65 50 66 37 67 38 68
REMARK SMILES IDX 43 69 39 70 40 71 42 72 44 73 41 74 63 75 64 76 69 77 65 78
REMARK SMILES IDX 66 79 68 80 70 81 67 82 51 83 52 84 57 85 53 86 54 87 56 88
REMARK SMILES IDX 58 89 55 90
REMARK H PARENT 21 4 15 25 25 33 75 52 49 63
REMARK Flexibility Score: inf
ROOT
ATOM      1  C   UNL A   1      30.924  28.959  23.859  1.00  0.00     0.243 C 
ATOM      2  O   UNL A   1      30.231  29.054  22.841  1.00  0.00    -0.273 OA
ATOM      3  N   UNL A   1      31.114  30.090  24.598  1.00  0.00    -0.354 N 
ATOM      4  H   UNL A   1      30.609  30.878  24.293  1.00  0.00     0.163 HD
ENDROOT
BRANCH   1   5
ATOM      5  C   UNL A   1      31.710  27.666  24.158  1.00  0.00     0.181 C 
BRANCH   5   6
ATOM      6  C   UNL A   1      31.001  27.038  25.400  1.00  0.00     0.105 C 
BRANCH   6   7
ATOM      7  S   UNL A   1      30.295  25.328  25.442  1.00  0.00    -0.145 SA
BRANCH   7   8
ATOM      8  C   UNL A   1      31.489  24.426  26.490  1.00  0.00     0.146 C 
ATOM      9  N   UNL A   1      32.503  22.539  25.534  1.00  0.00    -0.250 N 
ATOM     10  C   UNL A   1      33.532  23.427  25.708  1.00  0.00     0.235 C 
ATOM     11  C   UNL A   1      31.357  22.972  26.126  1.00  0.00     0.247 C 
ATOM     12  O   UNL A   1      34.718  23.263  25.507  1.00  0.00    -0.274 OA
ATOM     13  C   UNL A   1      32.956  24.724  26.220  1.00  0.00     0.125 C 
ATOM     14  O   UNL A   1      30.367  22.304  26.415  1.00  0.00    -0.273 OA
BRANCH   9  15
ATOM     15  C   UNL A   1      32.595  21.268  24.938  1.00  0.00     0.052 A 
ATOM     16  C   UNL A   1      32.741  18.765  23.668  1.00  0.00    -0.048 A 
ATOM     17  C   UNL A   1      32.299  19.885  22.961  1.00  0.00     0.006 A 
ATOM     18  C   UNL A   1      33.096  18.907  25.018  1.00  0.00     0.006 A 
ATOM     19  C   UNL A   1      32.203  21.121  23.597  1.00  0.00     0.027 A 
ATOM     20  C   UNL A   1      33.057  20.158  25.641  1.00  0.00     0.027 A 
BRANCH  16  21
ATOM     21  C   UNL A   1      32.848  17.429  22.979  1.00  0.00     0.032 C 
ATOM     22  C   UNL A   1      34.026  16.618  23.501  1.00  0.00     0.009 C 
ENDBRANCH  16  21
ENDBRANCH   9  15
ENDBRANCH   7   8
ENDBRANCH   6   7
ENDBRANCH   5   6
BRANCH   5  23
ATOM     23  N   UNL A   1      31.829  26.734  23.026  1.00  0.00    -0.344 N 
ATOM     24  C   UNL A   1      32.829  26.695  22.082  1.00  0.00     0.217 C 
ATOM     25  H   UNL A   1      31.114  26.063  22.933  1.00  0.00     0.164 HD
ATOM     26  C   UNL A   1      32.594  25.641  21.027  1.00  0.00     0.114 C 
ATOM     27  O   UNL A   1      33.762  27.481  22.008  1.00  0.00    -0.275 OA
ENDBRANCH   5  23
ENDBRANCH   1   5
BRANCH   3  28
ATOM     28  C   UNL A   1      31.949  30.310  25.764  1.00  0.00     0.117 C 
BRANCH  28  29
ATOM     29  C   UNL A   1      31.532  31.570  26.501  1.00  0.00     0.042 C 
BRANCH  29  30
ATOM     30  C   UNL A   1      32.693  32.238  27.221  1.00  0.00     0.118 C 
BRANCH  30  31
ATOM     31  N   UNL A   1      32.436  33.646  27.491  1.00  0.00    -0.352 N 
ATOM     32  C   UNL A   1      33.013  34.469  28.425  1.00  0.00     0.251 C 
ATOM     33  H   UNL A   1      31.752  34.067  26.922  1.00  0.00     0.163 HD
ATOM     34  O   UNL A   1      32.533  35.573  28.660  1.00  0.00    -0.269 OA
BRANCH  32  35
ATOM     35  C   UNL A   1      34.203  34.004  29.162  1.00  0.00     0.039 A 
ATOM     36  C   UNL A   1      34.029  33.251  30.326  1.00  0.00     0.014 A 
ATOM     37  C   UNL A   1      35.488  34.296  28.695  1.00  0.00     0.014 A 
ATOM     38  C   UNL A   1      35.145  32.736  30.984  1.00  0.00     0.010 A 
ATOM     39  C   UNL A   1      36.592  33.708  29.300  1.00  0.00     0.010 A 
ATOM     40  C   UNL A   1      36.432  32.929  30.454  1.00  0.00    -0.014 A 
BRANCH  40  41
ATOM     41  C   UNL A   1      37.627  32.325  31.093  1.00  0.00     0.031 A 
ATOM     42  C   UNL A   1      38.318  31.159  30.442  1.00  0.00     0.074 A 
ATOM     43  C   UNL A   1      38.037  32.776  32.294  1.00  0.00     0.049 A 
ATOM     44  N   UNL A   1      39.323  30.446  30.881  1.00  0.00    -0.248 NA
ATOM     45  C   UNL A   1      37.790  30.715  29.141  1.00  0.00     0.031 C 
ATOM     46  C   UNL A   1      37.406  33.857  33.055  1.00  0.00     0.029 A 
ATOM     47  N   UNL A   1      39.074  32.369  33.095  1.00  0.00    -0.354 N 
ATOM     48  C   UNL A   1      39.529  29.458  29.927  1.00  0.00     0.074 A 
ATOM     49  C   UNL A   1      38.518  29.632  28.908  1.00  0.00     0.031 C 
ATOM     50  C   UNL A   1      38.078  34.036  34.204  1.00  0.00     0.029 A 
ATOM     51  C   UNL A   1      39.161  33.062  34.278  1.00  0.00     0.049 A 
ATOM     52  H   UNL A   1      39.696  31.647  32.846  1.00  0.00     0.167 HD
ATOM     53  C   UNL A   1      40.488  28.503  29.895  1.00  0.00     0.037 A 
ATOM     54  C   UNL A   1      40.013  32.919  35.311  1.00  0.00     0.037 A 
ATOM     55  C   UNL A   1      41.519  28.362  30.888  1.00  0.00     0.049 A 
ATOM     56  C   UNL A   1      41.088  31.871  35.233  1.00  0.00     0.074 A 
ATOM     57  C   UNL A   1      42.593  27.490  30.896  1.00  0.00     0.029 A 
ATOM     58  N   UNL A   1      41.603  29.114  32.049  1.00  0.00    -0.354 N 
ATOM     59  N   UNL A   1      41.329  31.004  34.279  1.00  0.00    -0.248 NA
ATOM     60  C   UNL A   1      42.018  31.787  36.369  1.00  0.00     0.031 C 
ATOM     61  C   UNL A   1      43.301  27.682  32.086  1.00  0.00     0.029 A 
ATOM     62  C   UNL A   1      42.696  28.708  32.796  1.00  0.00     0.049 A 
ATOM     63  H   UNL A   1      40.978  29.830  32.307  1.00  0.00     0.167 HD
ATOM     64  C   UNL A   1      42.449  30.291  34.687  1.00  0.00     0.074 A 
ATOM     65  C   UNL A   1      42.851  30.839  35.966  1.00  0.00     0.031 C 
ATOM     66  C   UNL A   1      43.086  29.272  34.061  1.00  0.00     0.037 A 
BRANCH  53  67
ATOM     67  C   UNL A   1      40.478  27.539  28.745  1.00  0.00     0.057 A 
ATOM     68  C   UNL A   1      39.662  26.401  28.739  1.00  0.00     0.134 A 
ATOM     69  C   UNL A   1      41.254  27.783  27.605  1.00  0.00     0.134 A 
ATOM     70  F   UNL A   1      38.903  26.103  29.805  1.00  0.00    -0.206 F 
ATOM     71  C   UNL A   1      39.630  25.531  27.648  1.00  0.00     0.040 A 
ATOM     72  C   UNL A   1      41.211  26.937  26.497  1.00  0.00     0.040 A 
ATOM     73  F   UNL A   1      42.055  28.859  27.543  1.00  0.00    -0.206 F 
ATOM     74  C   UNL A   1      40.399  25.804  26.518  1.00  0.00     0.006 A 
ENDBRANCH  53  67
BRANCH  54  75
ATOM     75  C   UNL A   1      39.893  33.794  36.504  1.00  0.00     0.057 A 
ATOM     76  C   UNL A   1      39.092  33.430  37.593  1.00  0.00     0.134 A 
ATOM     77  C   UNL A   1      40.559  35.024  36.578  1.00  0.00     0.134 A 
ATOM     78  F   UNL A   1      38.416  32.273  37.575  1.00  0.00    -0.206 F 
ATOM     79  C   UNL A   1      38.934  34.268  38.698  1.00  0.00     0.040 A 
ATOM     80  C   UNL A   1      40.431  35.860  37.688  1.00  0.00     0.040 A 
ATOM     81  F   UNL A   1      41.351  35.426  35.573  1.00  0.00    -0.206 F 
ATOM     82  C   UNL A   1      39.609  35.487  38.748  1.00  0.00     0.006 A 
ENDBRANCH  54  75
BRANCH  66  83
ATOM     83  C   UNL A   1      44.302  28.708  34.733  1.00  0.00     0.057 A 
ATOM     84  C   UNL A   1      45.578  29.246  34.525  1.00  0.00     0.134 A 
ATOM     85  C   UNL A   1      44.188  27.640  35.632  1.00  0.00     0.134 A 
ATOM     86  F   UNL A   1      45.756  30.262  33.667  1.00  0.00    -0.206 F 
ATOM     87  C   UNL A   1      46.701  28.727  35.171  1.00  0.00     0.040 A 
ATOM     88  C   UNL A   1      45.298  27.130  36.305  1.00  0.00     0.040 A 
ATOM     89  F   UNL A   1      42.991  27.086  35.884  1.00  0.00    -0.206 F 
ATOM     90  C   UNL A   1      46.561  27.670  36.070  1.00  0.00     0.006 A 
ENDBRANCH  66  83
ENDBRANCH  40  41
ENDBRANCH  32  35
ENDBRANCH  30  31
ENDBRANCH  29  30
ENDBRANCH  28  29
ENDBRANCH   3  28
TORSDOF 16
ENDMDL
MODEL 2
REMARK VINA RESULT:     -12.2      0.569      6.172
REMARK SMILES CCc1ccc(N2C(=O)C[C@@H](SC[C@@H](NC(C)=O)C(=O)NCCCNC(=O)c3ccc(-c4c5nc(c(-c6c(F)cccc6F)c6ccc([nH]6)c(-c6c(F)cccc6F)c6nc(c(-c7c(F)cccc7F)c7ccc4[nH]7)C=C6)C=C5)cc3)C2=O)cc1
REMARK SMILES IDX 19 1 20 2 21 3 14 5 13 6 12 7 11 8 7 9 8 10 82 11 9 12 10 13
REMARK SMILES IDX 83 14 6 15 3 16 4 17 85 18 5 19 84 20 2 21 1 22 15 23 16 24
REMARK SMILES IDX 17 26 18 27 22 28 23 29 24 30 25 31 26 32 27 34 28 35 29 36
REMARK SMILES IDX 81 37 30 38 80 39 31 40 32 41 33 42 74 43 34 44 79 45 73 46
REMARK SMILES IDX 75 47 35 48 78 49 72 50 71 51 36 53 62 54 45 55 61 56 46 57
REMARK SMILES IDX 49 58 60 59 76 60 47 61 48 62 59 64 77 65 50 66 37 67 38 68
REMARK SMILES IDX 43 69 39 70 40 71 42 72 44 73 41 74 63 75 64 76 69 77 65 78
REMARK SMILES IDX 66 79 68 80 70 81 67 82 51 83 52 84 57 85 53 86 54 87 56 88
REMARK SMILES IDX 58 89 55 90
REMARK H PARENT 21 4 15 25 25 33 75 52 49 63
REMARK Flexibility Score: inf
ROOT
ATOM      1  C   UNL A   1      31.000  29.085  23.787  1.00  0.00     0.243 C 
ATOM      2  O   UNL A   1      30.472  29.182  22.675  1.00  0.00    -0.273 OA
ATOM      3  N   UNL A   1      31.030  30.204  24.568  1.00  0.00    -0.354 N 
ATOM      4  H   UNL A   1      30.550  30.982  24.202  1.00  0.00     0.163 HD
ENDROOT
BRANCH   1   5
ATOM      5  C   UNL A   1      31.776  27.813  24.182  1.00  0.00     0.181 C 
BRANCH   5   6
ATOM      6  C   UNL A   1      31.028  27.253  25.435  1.00  0.00     0.105 C 
BRANCH   6   7
ATOM      7  S   UNL A   1      30.311  25.551  25.545  1.00  0.00    -0.145 SA
BRANCH   7   8
ATOM      8  C   UNL A   1      31.579  24.640  26.492  1.00  0.00     0.146 C 
ATOM      9  N   UNL A   1      32.544  22.784  25.431  1.00  0.00    -0.250 N 
ATOM     10  C   UNL A   1      33.575  23.679  25.555  1.00  0.00     0.235 C 
ATOM     11  C   UNL A   1      31.437  23.193  26.108  1.00  0.00     0.247 C 
ATOM     12  O   UNL A   1      34.746  23.532  25.272  1.00  0.00    -0.274 OA
ATOM     13  C   UNL A   1      33.022  24.959  26.131  1.00  0.00     0.125 C 
ATOM     14  O   UNL A   1      30.474  22.510  26.447  1.00  0.00    -0.273 OA
BRANCH   9  15
ATOM     15  C   UNL A   1      32.607  21.527  24.804  1.00  0.00     0.052 A 
ATOM     16  C   UNL A   1      32.687  19.051  23.474  1.00  0.00    -0.048 A 
ATOM     17  C   UNL A   1      32.153  20.173  22.836  1.00  0.00     0.006 A 
ATOM     18  C   UNL A   1      33.169  19.179  24.786  1.00  0.00     0.006 A 
ATOM     19  C   UNL A   1      32.091  21.394  23.504  1.00  0.00     0.027 A 
ATOM     20  C   UNL A   1      33.161  20.416  25.435  1.00  0.00     0.027 A 
BRANCH  16  21
ATOM     21  C   UNL A   1      32.758  17.731  22.752  1.00  0.00     0.032 C 
ATOM     22  C   UNL A   1      33.925  16.883  23.238  1.00  0.00     0.009 C 
ENDBRANCH  16  21
ENDBRANCH   9  15
ENDBRANCH   7   8
ENDBRANCH   6   7
ENDBRANCH   5   6
BRANCH   5  23
ATOM     23  N   UNL A   1      31.931  26.819  23.109  1.00  0.00    -0.344 N 
ATOM     24  C   UNL A   1      32.931  26.761  22.166  1.00  0.00     0.217 C 
ATOM     25  H   UNL A   1      31.243  26.116  23.059  1.00  0.00     0.164 HD
ATOM     26  C   UNL A   1      32.737  25.637  21.177  1.00  0.00     0.114 C 
ATOM     27  O   UNL A   1      33.833  27.578  22.042  1.00  0.00    -0.275 OA
ENDBRANCH   5  23
ENDBRANCH   1   5
BRANCH   3  28
ATOM     28  C   UNL A   1      31.661  30.423  25.855  1.00  0.00     0.117 C 
BRANCH  28  29
ATOM     29  C   UNL A   1      31.395  31.831  26.359  1.00  0.00     0.042 C 
BRANCH  29  30
ATOM     30  C   UNL A   1      32.549  32.388  27.177  1.00  0.00     0.118 C 
BRANCH  30  31
ATOM     31  N   UNL A   1      32.358  33.793  27.510  1.00  0.00    -0.352 N 
ATOM     32  C   UNL A   1      32.999  34.554  28.455  1.00  0.00     0.251 C 
ATOM     33  H   UNL A   1      31.673  34.263  26.983  1.00  0.00     0.163 HD
ATOM     34  O   UNL A   1      32.573  35.666  28.750  1.00  0.00    -0.269 OA
BRANCH  32  35
ATOM     35  C   UNL A   1      34.194  34.013  29.131  1.00  0.00     0.039 A 
ATOM     36  C   UNL A   1      34.027  33.123  30.194  1.00  0.00     0.014 A 
ATOM     37  C   UNL A   1      35.476  34.373  28.704  1.00  0.00     0.014 A 
ATOM     38  C   UNL A   1      35.148  32.542  30.785  1.00  0.00     0.010 A 
ATOM     39  C   UNL A   1      36.585  33.725  29.233  1.00  0.00     0.010 A 
ATOM     40  C   UNL A   1      36.433  32.809  30.284  1.00  0.00    -0.014 A 
BRANCH  40  41
ATOM     41  C   UNL A   1      37.633  32.143  30.846  1.00  0.00     0.031 A 
ATOM     42  C   UNL A   1      38.277  32.683  32.093  1.00  0.00     0.074 A 
ATOM     43  C   UNL A   1      38.186  31.106  30.188  1.00  0.00     0.049 A 
ATOM     44  N   UNL A   1      39.373  32.293  32.691  1.00  0.00    -0.248 NA
ATOM     45  C   UNL A   1      37.621  33.835  32.735  1.00  0.00     0.031 C 
ATOM     46  C   UNL A   1      37.691  30.536  28.933  1.00  0.00     0.029 A 
ATOM     47  N   UNL A   1      39.298  30.356  30.476  1.00  0.00    -0.354 N 
ATOM     48  C   UNL A   1      39.550  33.164  33.759  1.00  0.00     0.074 A 
ATOM     49  C   UNL A   1      38.477  34.130  33.702  1.00  0.00     0.031 C 
ATOM     50  C   UNL A   1      38.487  29.518  28.568  1.00  0.00     0.029 A 
ATOM     51  C   UNL A   1      39.567  29.386  29.541  1.00  0.00     0.049 A 
ATOM     52  H   UNL A   1      39.852  30.499  31.278  1.00  0.00     0.167 HD
ATOM     53  C   UNL A   1      40.511  33.145  34.712  1.00  0.00     0.037 A 
ATOM     54  C   UNL A   1      40.576  28.499  29.470  1.00  0.00     0.037 A 
ATOM     55  C   UNL A   1      41.549  32.153  34.790  1.00  0.00     0.049 A 
ATOM     56  C   UNL A   1      41.611  28.480  30.561  1.00  0.00     0.074 A 
ATOM     57  C   UNL A   1      42.512  31.989  35.770  1.00  0.00     0.029 A 
ATOM     58  N   UNL A   1      41.761  31.157  33.849  1.00  0.00    -0.354 N 
ATOM     59  N   UNL A   1      41.713  29.251  31.617  1.00  0.00    -0.248 NA
ATOM     60  C   UNL A   1      42.668  27.463  30.457  1.00  0.00     0.031 C 
ATOM     61  C   UNL A   1      43.335  30.923  35.399  1.00  0.00     0.029 A 
ATOM     62  C   UNL A   1      42.856  30.390  34.212  1.00  0.00     0.049 A 
ATOM     63  H   UNL A   1      41.215  31.015  33.042  1.00  0.00     0.167 HD
ATOM     64  C   UNL A   1      42.825  28.796  32.314  1.00  0.00     0.074 A 
ATOM     65  C   UNL A   1      43.354  27.672  31.571  1.00  0.00     0.031 C 
ATOM     66  C   UNL A   1      43.361  29.269  33.465  1.00  0.00     0.037 A 
BRANCH  53  67
ATOM     67  C   UNL A   1      40.482  34.221  35.757  1.00  0.00     0.057 A 
ATOM     68  C   UNL A   1      41.146  35.441  35.583  1.00  0.00     0.134 A 
ATOM     69  C   UNL A   1      39.732  34.055  36.928  1.00  0.00     0.134 A 
ATOM     70  F   UNL A   1      41.892  35.659  34.488  1.00  0.00    -0.206 F 
ATOM     71  C   UNL A   1      41.081  36.452  36.544  1.00  0.00     0.040 A 
ATOM     72  C   UNL A   1      39.636  35.068  37.884  1.00  0.00     0.040 A 
ATOM     73  F   UNL A   1      39.066  32.912  37.156  1.00  0.00    -0.206 F 
ATOM     74  C   UNL A   1      40.315  36.270  37.694  1.00  0.00     0.006 A 
ENDBRANCH  53  67
BRANCH  54  75
ATOM     75  C   UNL A   1      40.657  27.547  28.333  1.00  0.00     0.057 A 
ATOM     76  C   UNL A   1      41.403  27.847  27.188  1.00  0.00     0.134 A 
ATOM     77  C   UNL A   1      39.973  26.325  28.355  1.00  0.00     0.134 A 
ATOM     78  F   UNL A   1      42.066  29.009  27.100  1.00  0.00    -0.206 F 
ATOM     79  C   UNL A   1      41.445  26.981  26.094  1.00  0.00     0.040 A 
ATOM     80  C   UNL A   1      40.027  25.438  27.279  1.00  0.00     0.040 A 
ATOM     81  F   UNL A   1      39.249  25.973  29.427  1.00  0.00    -0.206 F 
ATOM     82  C   UNL A   1      40.757  25.770  26.140  1.00  0.00     0.006 A 
ENDBRANCH  54  75
BRANCH  66  83
ATOM     83  C   UNL A   1      44.561  28.551  34.007  1.00  0.00     0.057 A 
ATOM     84  C   UNL A   1      44.438  27.443  34.855  1.00  0.00     0.134 A 
ATOM     85  C   UNL A   1      45.853  28.948  33.642  1.00  0.00     0.134 A 
ATOM     86  F   UNL A   1      43.228  27.021  35.252  1.00  0.00    -0.206 F 
ATOM     87  C   UNL A   1      45.561  26.769  35.338  1.00  0.00     0.040 A 
ATOM     88  C   UNL A   1      46.982  28.266  34.096  1.00  0.00     0.040 A 
ATOM     89  F   UNL A   1      46.039  29.996  32.824  1.00  0.00    -0.206 F 
ATOM     90  C   UNL A   1      46.837  27.176  34.953  1.00  0.00     0.006 A 
ENDBRANCH  66  83
ENDBRANCH  40  41
ENDBRANCH  32  35
ENDBRANCH  30  31
ENDBRANCH  29  30
ENDBRANCH  28  29
ENDBRANCH   3  28
TORSDOF 16
ENDMDL
MODEL 3
REMARK VINA RESULT:     -12.2      4.128      8.198
REMARK SMILES CCc1ccc(N2C(=O)C[C@@H](SC[C@@H](NC(C)=O)C(=O)NCCCNC(=O)c3ccc(-c4c5nc(c(-c6c(F)cccc6F)c6ccc([nH]6)c(-c6c(F)cccc6F)c6nc(c(-c7c(F)cccc7F)c7ccc4[nH]7)C=C6)C=C5)cc3)C2=O)cc1
REMARK SMILES IDX 19 1 20 2 21 3 14 5 13 6 12 7 11 8 7 9 8 10 82 11 9 12 10 13
REMARK SMILES IDX 83 14 6 15 3 16 4 17 85 18 5 19 84 20 2 21 1 22 15 23 16 24
REMARK SMILES IDX 17 26 18 27 22 28 23 29 24 30 25 31 26 32 27 34 28 35 29 36
REMARK SMILES IDX 81 37 30 38 80 39 31 40 32 41 33 42 74 43 34 44 79 45 73 46
REMARK SMILES IDX 75 47 35 48 78 49 72 50 71 51 36 53 62 54 45 55 61 56 46 57
REMARK SMILES IDX 49 58 60 59 76 60 47 61 48 62 59 64 77 65 50 66 37 67 38 68
REMARK SMILES IDX 43 69 39 70 40 71 42 72 44 73 41 74 63 75 64 76 69 77 65 78
REMARK SMILES IDX 66 79 68 80 70 81 67 82 51 83 52 84 57 85 53 86 54 87 56 88
REMARK SMILES IDX 58 89 55 90
REMARK H PARENT 21 4 15 25 25 33 75 52 49 63
REMARK Flexibility Score: inf
ROOT
ATOM      1  C   UNL A   1      32.937  20.742  25.052  1.00  0.00     0.243 C 
ATOM      2  O   UNL A   1      32.253  19.797  24.650  1.00  0.00    -0.273 OA
ATOM      3  N   UNL A   1      34.197  20.464  25.496  1.00  0.00    -0.354 N 
ATOM      4  H   UNL A   1      34.483  19.528  25.380  1.00  0.00     0.163 HD
ENDROOT
BRANCH   1   5
ATOM      5  C   UNL A   1      32.314  22.140  25.242  1.00  0.00     0.181 C 
BRANCH   5   6
ATOM      6  C   UNL A   1      32.223  22.744  23.804  1.00  0.00     0.105 C 
BRANCH   6   7
ATOM      7  S   UNL A   1      33.684  23.061  22.713  1.00  0.00    -0.145 SA
BRANCH   7   8
ATOM      8  C   UNL A   1      34.243  24.712  23.262  1.00  0.00     0.146 C 
ATOM      9  N   UNL A   1      32.572  26.323  23.601  1.00  0.00    -0.250 N 
ATOM     10  C   UNL A   1      33.091  26.101  24.851  1.00  0.00     0.235 C 
ATOM     11  C   UNL A   1      33.305  25.707  22.635  1.00  0.00     0.247 C 
ATOM     12  O   UNL A   1      32.826  26.664  25.893  1.00  0.00    -0.274 OA
ATOM     13  C   UNL A   1      34.106  24.990  24.751  1.00  0.00     0.125 C 
ATOM     14  O   UNL A   1      33.298  25.941  21.429  1.00  0.00    -0.273 OA
BRANCH   9  15
ATOM     15  C   UNL A   1      31.498  27.174  23.288  1.00  0.00     0.052 A 
ATOM     16  C   UNL A   1      29.290  28.806  22.687  1.00  0.00    -0.048 A 
ATOM     17  C   UNL A   1      29.096  27.544  23.252  1.00  0.00     0.006 A 
ATOM     18  C   UNL A   1      30.597  29.237  22.415  1.00  0.00     0.006 A 
ATOM     19  C   UNL A   1      30.189  26.725  23.527  1.00  0.00     0.027 A 
ATOM     20  C   UNL A   1      31.697  28.441  22.745  1.00  0.00     0.027 A 
BRANCH  16  21
ATOM     21  C   UNL A   1      28.108  29.694  22.393  1.00  0.00     0.032 C 
ATOM     22  C   UNL A   1      27.954  30.792  23.436  1.00  0.00     0.009 C 
ENDBRANCH  16  21
ENDBRANCH   9  15
ENDBRANCH   7   8
ENDBRANCH   6   7
ENDBRANCH   5   6
BRANCH   5  23
ATOM     23  N   UNL A   1      31.028  22.157  25.958  1.00  0.00    -0.344 N 
ATOM     24  C   UNL A   1      30.605  23.080  26.886  1.00  0.00     0.217 C 
ATOM     25  H   UNL A   1      30.401  21.427  25.751  1.00  0.00     0.164 HD
ATOM     26  C   UNL A   1      29.250  22.748  27.463  1.00  0.00     0.114 C 
ATOM     27  O   UNL A   1      31.271  24.017  27.305  1.00  0.00    -0.275 OA
ENDBRANCH   5  23
ENDBRANCH   1   5
BRANCH   3  28
ATOM     28  C   UNL A   1      35.180  21.333  26.114  1.00  0.00     0.117 C 
BRANCH  28  29
ATOM     29  C   UNL A   1      36.169  21.853  25.087  1.00  0.00     0.042 C 
BRANCH  29  30
ATOM     30  C   UNL A   1      37.337  22.593  25.721  1.00  0.00     0.118 C 
BRANCH  30  31
ATOM     31  N   UNL A   1      38.463  21.710  25.995  1.00  0.00    -0.352 N 
ATOM     32  C   UNL A   1      39.719  22.023  26.446  1.00  0.00     0.251 C 
ATOM     33  H   UNL A   1      38.299  20.753  25.832  1.00  0.00     0.163 HD
ATOM     34  O   UNL A   1      40.614  21.184  26.424  1.00  0.00    -0.269 OA
BRANCH  32  35
ATOM     35  C   UNL A   1      39.993  23.387  26.939  1.00  0.00     0.039 A 
ATOM     36  C   UNL A   1      40.718  23.549  28.120  1.00  0.00     0.014 A 
ATOM     37  C   UNL A   1      39.547  24.503  26.224  1.00  0.00     0.014 A 
ATOM     38  C   UNL A   1      41.054  24.832  28.550  1.00  0.00     0.010 A 
ATOM     39  C   UNL A   1      39.959  25.774  26.604  1.00  0.00     0.010 A 
ATOM     40  C   UNL A   1      40.710  25.952  27.775  1.00  0.00    -0.014 A 
BRANCH  40  41
ATOM     41  C   UNL A   1      41.123  27.320  28.171  1.00  0.00     0.031 A 
ATOM     42  C   UNL A   1      42.571  27.720  28.093  1.00  0.00     0.074 A 
ATOM     43  C   UNL A   1      40.208  28.171  28.674  1.00  0.00     0.049 A 
ATOM     44  N   UNL A   1      43.140  28.836  28.468  1.00  0.00    -0.248 NA
ATOM     45  C   UNL A   1      43.509  26.720  27.553  1.00  0.00     0.031 C 
ATOM     46  C   UNL A   1      38.786  27.874  28.861  1.00  0.00     0.029 A 
ATOM     47  N   UNL A   1      40.342  29.456  29.137  1.00  0.00    -0.354 N 
ATOM     48  C   UNL A   1      44.498  28.663  28.234  1.00  0.00     0.074 A 
ATOM     49  C   UNL A   1      44.676  27.321  27.729  1.00  0.00     0.031 C 
ATOM     50  C   UNL A   1      38.178  28.951  29.385  1.00  0.00     0.029 A 
ATOM     51  C   UNL A   1      39.170  29.998  29.604  1.00  0.00     0.049 A 
ATOM     52  H   UNL A   1      41.198  29.943  29.135  1.00  0.00     0.167 HD
ATOM     53  C   UNL A   1      45.504  29.553  28.407  1.00  0.00     0.037 A 
ATOM     54  C   UNL A   1      38.925  31.200  30.158  1.00  0.00     0.037 A 
ATOM     55  C   UNL A   1      45.315  30.903  28.866  1.00  0.00     0.049 A 
ATOM     56  C   UNL A   1      40.055  32.180  30.308  1.00  0.00     0.074 A 
ATOM     57  C   UNL A   1      46.255  31.911  28.984  1.00  0.00     0.029 A 
ATOM     58  N   UNL A   1      44.104  31.431  29.286  1.00  0.00    -0.354 N 
ATOM     59  N   UNL A   1      41.321  32.036  29.995  1.00  0.00    -0.248 NA
ATOM     60  C   UNL A   1      39.725  33.494  30.879  1.00  0.00     0.031 C 
ATOM     61  C   UNL A   1      45.622  33.037  29.518  1.00  0.00     0.029 A 
ATOM     62  C   UNL A   1      44.278  32.745  29.688  1.00  0.00     0.049 A 
ATOM     63  H   UNL A   1      43.248  30.945  29.298  1.00  0.00     0.167 HD
ATOM     64  C   UNL A   1      41.929  33.245  30.306  1.00  0.00     0.074 A 
ATOM     65  C   UNL A   1      40.892  34.117  30.815  1.00  0.00     0.031 C 
ATOM     66  C   UNL A   1      43.231  33.601  30.183  1.00  0.00     0.037 A 
BRANCH  53  67
ATOM     67  C   UNL A   1      46.900  29.103  28.089  1.00  0.00     0.057 A 
ATOM     68  C   UNL A   1      47.732  28.531  29.058  1.00  0.00     0.134 A 
ATOM     69  C   UNL A   1      47.395  29.192  26.783  1.00  0.00     0.134 A 
ATOM     70  F   UNL A   1      47.322  28.427  30.332  1.00  0.00    -0.206 F 
ATOM     71  C   UNL A   1      49.015  28.079  28.744  1.00  0.00     0.040 A 
ATOM     72  C   UNL A   1      48.665  28.720  26.449  1.00  0.00     0.040 A 
ATOM     73  F   UNL A   1      46.647  29.726  25.804  1.00  0.00    -0.206 F 
ATOM     74  C   UNL A   1      49.481  28.164  27.433  1.00  0.00     0.006 A 
ENDBRANCH  53  67
BRANCH  54  75
ATOM     75  C   UNL A   1      37.553  31.552  30.604  1.00  0.00     0.057 A 
ATOM     76  C   UNL A   1      36.621  32.104  29.717  1.00  0.00     0.134 A 
ATOM     77  C   UNL A   1      37.147  31.366  31.931  1.00  0.00     0.134 A 
ATOM     78  F   UNL A   1      36.956  32.323  28.438  1.00  0.00    -0.206 F 
ATOM     79  C   UNL A   1      35.346  32.484  30.139  1.00  0.00     0.040 A 
ATOM     80  C   UNL A   1      35.866  31.717  32.361  1.00  0.00     0.040 A 
ATOM     81  F   UNL A   1      37.989  30.831  32.828  1.00  0.00    -0.206 F 
ATOM     82  C   UNL A   1      34.965  32.287  31.465  1.00  0.00     0.006 A 
ENDBRANCH  54  75
BRANCH  66  83
ATOM     83  C   UNL A   1      43.599  35.001  30.574  1.00  0.00     0.057 A 
ATOM     84  C   UNL A   1      43.532  36.064  29.665  1.00  0.00     0.134 A 
ATOM     85  C   UNL A   1      43.984  35.294  31.888  1.00  0.00     0.134 A 
ATOM     86  F   UNL A   1      43.182  35.846  28.389  1.00  0.00    -0.206 F 
ATOM     87  C   UNL A   1      43.857  37.367  30.045  1.00  0.00     0.040 A 
ATOM     88  C   UNL A   1      44.285  36.597  32.286  1.00  0.00     0.040 A 
ATOM     89  F   UNL A   1      44.059  34.322  32.811  1.00  0.00    -0.206 F 
ATOM     90  C   UNL A   1      44.228  37.637  31.361  1.00  0.00     0.006 A 
ENDBRANCH  66  83
ENDBRANCH  40  41
ENDBRANCH  32  35
ENDBRANCH  30  31
ENDBRANCH  29  30
ENDBRANCH  28  29
ENDBRANCH   3  28
TORSDOF 16
ENDMDL
