MODEL 1
REMARK VINA RESULT:     -12.3      0.000      0.000
REMARK SMILES O=C(NCCCNC(=O)c1c(S(=O)(=O)N2CCO[C@@H](CCO)C2)sc2c1CC[NH2+]C2)c1ccc(-c2c3nc(c(-c4c(F)cccc4F)c4ccc([nH]4)c(-c4c(F)cccc4F)c4nc(c(-c5c(F)cccc5F)c5ccc2[nH]5)C=C4)C=C3)cc1
REMARK SMILES IDX 7 1 8 2 9 3 6 5 5 6 4 7 3 8 1 9 2 10 31 12 32 13 84 14 33 15
REMARK SMILES IDX 83 16 34 17 35 18 36 19 77 20 37 21 82 22 76 23 78 24 38 25
REMARK SMILES IDX 81 26 75 27 74 28 39 30 65 31 48 32 64 33 49 34 52 35 63 36
REMARK SMILES IDX 79 37 50 38 51 39 62 41 80 42 53 43 40 44 41 45 46 46 42 47
REMARK SMILES IDX 43 48 45 49 47 50 44 51 66 52 67 53 72 54 68 55 69 56 71 57
REMARK SMILES IDX 73 58 70 59 54 60 55 61 60 62 56 63 57 64 59 65 61 66 58 67
REMARK SMILES IDX 10 68 11 69 26 70 24 71 25 72 27 73 30 74 28 75 29 76 12 79
REMARK SMILES IDX 13 80 14 81 15 82 16 83 23 84 17 85 19 86 18 87 20 88 21 89
REMARK SMILES IDX 22 90
REMARK H PARENT 7 4 3 11 78 29 52 40 29 77 29 78 22 91
REMARK Flexibility Score: inf
ROOT
ATOM      1  N   UNL A   1      33.840  27.801  25.507  1.00  0.00    -0.352 N 
ATOM      2  C   UNL A   1      33.710  26.619  24.826  1.00  0.00     0.253 C 
ATOM      3  O   UNL A   1      33.909  26.617  23.614  1.00  0.00    -0.269 OA
ATOM      4  H   UNL A   1      34.081  28.574  24.947  1.00  0.00     0.163 HD
ENDROOT
BRANCH   1   5
ATOM      5  C   UNL A   1      33.680  28.100  26.916  1.00  0.00     0.118 C 
BRANCH   5   6
ATOM      6  C   UNL A   1      33.055  29.456  27.202  1.00  0.00     0.042 C 
BRANCH   6   7
ATOM      7  C   UNL A   1      34.010  30.650  27.144  1.00  0.00     0.118 C 
BRANCH   7   8
ATOM      8  N   UNL A   1      34.061  31.479  28.335  1.00  0.00    -0.352 N 
ATOM      9  O   UNL A   1      34.713  32.705  30.049  1.00  0.00    -0.269 OA
ATOM     10  C   UNL A   1      35.006  31.791  29.274  1.00  0.00     0.251 C 
ATOM     11  H   UNL A   1      33.202  31.928  28.510  1.00  0.00     0.163 HD
BRANCH  10  12
ATOM     12  C   UNL A   1      36.316  31.101  29.454  1.00  0.00     0.039 A 
ATOM     13  C   UNL A   1      37.569  31.700  29.357  1.00  0.00     0.014 A 
ATOM     14  C   UNL A   1      36.265  29.715  29.706  1.00  0.00     0.014 A 
ATOM     15  C   UNL A   1      38.735  30.936  29.424  1.00  0.00     0.010 A 
ATOM     16  C   UNL A   1      37.428  28.951  29.810  1.00  0.00     0.010 A 
ATOM     17  C   UNL A   1      38.671  29.556  29.635  1.00  0.00    -0.014 A 
BRANCH  17  18
ATOM     18  C   UNL A   1      39.936  28.820  29.745  1.00  0.00     0.031 A 
ATOM     19  C   UNL A   1      40.547  28.710  31.107  1.00  0.00     0.074 A 
ATOM     20  C   UNL A   1      40.491  28.103  28.748  1.00  0.00     0.049 A 
ATOM     21  N   UNL A   1      41.757  28.992  31.479  1.00  0.00    -0.248 NA
ATOM     22  C   UNL A   1      39.690  28.206  32.190  1.00  0.00     0.031 C 
ATOM     23  C   UNL A   1      39.911  27.774  27.446  1.00  0.00     0.029 A 
ATOM     24  N   UNL A   1      41.676  27.416  28.751  1.00  0.00    -0.354 N 
ATOM     25  C   UNL A   1      41.870  28.551  32.798  1.00  0.00     0.074 A 
ATOM     26  C   UNL A   1      40.550  28.142  33.208  1.00  0.00     0.031 C 
ATOM     27  C   UNL A   1      40.639  26.790  26.876  1.00  0.00     0.029 A 
ATOM     28  C   UNL A   1      41.801  26.514  27.708  1.00  0.00     0.049 A 
ATOM     29  H   UNL A   1      42.375  27.551  29.431  1.00  0.00     0.167 HD
ATOM     30  C   UNL A   1      43.067  28.398  33.430  1.00  0.00     0.037 A 
ATOM     31  C   UNL A   1      42.750  25.561  27.557  1.00  0.00     0.037 A 
ATOM     32  C   UNL A   1      44.121  29.150  32.810  1.00  0.00     0.049 A 
ATOM     33  C   UNL A   1      43.906  25.890  28.421  1.00  0.00     0.074 A 
ATOM     34  C   UNL A   1      44.344  30.483  32.523  1.00  0.00     0.029 A 
ATOM     35  N   UNL A   1      45.120  28.472  32.162  1.00  0.00    -0.354 N 
ATOM     36  N   UNL A   1      44.754  26.853  28.203  1.00  0.00    -0.248 NA
ATOM     37  C   UNL A   1      43.977  25.281  29.741  1.00  0.00     0.031 C 
ATOM     38  C   UNL A   1      45.163  30.490  31.357  1.00  0.00     0.029 A 
ATOM     39  C   UNL A   1      45.366  29.156  31.002  1.00  0.00     0.049 A 
ATOM     40  H   UNL A   1      45.573  27.654  32.471  1.00  0.00     0.167 HD
ATOM     41  C   UNL A   1      45.187  27.234  29.463  1.00  0.00     0.074 A 
ATOM     42  C   UNL A   1      44.796  26.144  30.344  1.00  0.00     0.031 C 
ATOM     43  C   UNL A   1      45.562  28.521  29.722  1.00  0.00     0.037 A 
BRANCH  30  44
ATOM     44  C   UNL A   1      43.350  27.340  34.470  1.00  0.00     0.057 A 
ATOM     45  C   UNL A   1      43.438  25.987  34.093  1.00  0.00     0.134 A 
ATOM     46  C   UNL A   1      43.257  27.573  35.856  1.00  0.00     0.134 A 
ATOM     47  F   UNL A   1      43.495  25.634  32.800  1.00  0.00    -0.206 F 
ATOM     48  C   UNL A   1      43.392  24.942  35.024  1.00  0.00     0.040 A 
ATOM     49  C   UNL A   1      43.261  26.538  36.798  1.00  0.00     0.040 A 
ATOM     50  F   UNL A   1      43.064  28.799  36.358  1.00  0.00    -0.206 F 
ATOM     51  C   UNL A   1      43.301  25.216  36.383  1.00  0.00     0.006 A 
ENDBRANCH  30  44
BRANCH  31  52
ATOM     52  C   UNL A   1      42.654  24.272  26.841  1.00  0.00     0.057 A 
ATOM     53  C   UNL A   1      43.515  23.958  25.782  1.00  0.00     0.134 A 
ATOM     54  C   UNL A   1      41.863  23.219  27.332  1.00  0.00     0.134 A 
ATOM     55  F   UNL A   1      44.348  24.881  25.282  1.00  0.00    -0.206 F 
ATOM     56  C   UNL A   1      43.584  22.669  25.239  1.00  0.00     0.040 A 
ATOM     57  C   UNL A   1      41.912  21.932  26.791  1.00  0.00     0.040 A 
ATOM     58  F   UNL A   1      41.076  23.385  28.404  1.00  0.00    -0.206 F 
ATOM     59  C   UNL A   1      42.782  21.650  25.745  1.00  0.00     0.006 A 
ENDBRANCH  31  52
BRANCH  43  60
ATOM     60  C   UNL A   1      45.854  29.414  28.556  1.00  0.00     0.057 A 
ATOM     61  C   UNL A   1      44.865  30.105  27.844  1.00  0.00     0.134 A 
ATOM     62  C   UNL A   1      47.187  29.692  28.230  1.00  0.00     0.134 A 
ATOM     63  F   UNL A   1      43.569  29.983  28.164  1.00  0.00    -0.206 F 
ATOM     64  C   UNL A   1      45.187  30.992  26.815  1.00  0.00     0.040 A 
ATOM     65  C   UNL A   1      47.523  30.602  27.225  1.00  0.00     0.040 A 
ATOM     66  F   UNL A   1      48.187  29.115  28.915  1.00  0.00    -0.206 F 
ATOM     67  C   UNL A   1      46.520  31.246  26.504  1.00  0.00     0.006 A 
ENDBRANCH  43  60
ENDBRANCH  17  18
ENDBRANCH  10  12
ENDBRANCH   7   8
ENDBRANCH   6   7
ENDBRANCH   5   6
ENDBRANCH   1   5
BRANCH   2  68
ATOM     68  C   UNL A   1      33.462  25.379  25.551  1.00  0.00     0.074 A 
ATOM     69  C   UNL A   1      32.219  24.979  26.047  1.00  0.00     0.148 A 
ATOM     70  C   UNL A   1      34.444  24.319  25.699  1.00  0.00    -0.009 A 
ATOM     71  S   UNL A   1      32.333  23.458  26.805  1.00  0.00    -0.120 S 
ATOM     72  C   UNL A   1      33.937  23.233  26.378  1.00  0.00     0.064 A 
ATOM     73  C   UNL A   1      35.864  24.281  25.207  1.00  0.00     0.099 C 
ATOM     74  C   UNL A   1      34.661  21.951  26.656  1.00  0.00     0.308 C 
ATOM     75  C   UNL A   1      36.415  22.832  25.236  1.00  0.00     0.265 C 
ATOM     76  N   UNL A   1      36.116  22.123  26.500  1.00  0.00    -0.342 N 
ATOM     77  H   UNL A   1      36.476  22.668  27.284  1.00  0.00     0.346 HD
ATOM     78  H   UNL A   1      36.560  21.205  26.479  1.00  0.00     0.346 HD
BRANCH  69  79
ATOM     79  S   UNL A   1      30.568  25.683  25.963  1.00  0.00     0.253 S 
ATOM     80  O   UNL A   1      29.702  24.657  26.501  1.00  0.00    -0.206 OA
ATOM     81  O   UNL A   1      30.707  26.964  26.620  1.00  0.00    -0.206 OA
BRANCH  79  82
ATOM     82  N   UNL A   1      30.038  25.943  24.393  1.00  0.00    -0.192 NA
ATOM     83  C   UNL A   1      30.658  25.317  23.208  1.00  0.00     0.131 C 
ATOM     84  C   UNL A   1      29.134  27.055  24.065  1.00  0.00     0.134 C 
ATOM     85  C   UNL A   1      31.167  26.373  22.196  1.00  0.00     0.177 C 
ATOM     86  C   UNL A   1      29.927  28.093  23.271  1.00  0.00     0.135 C 
ATOM     87  O   UNL A   1      30.285  27.501  22.004  1.00  0.00    -0.375 OA
BRANCH  86  88
ATOM     88  C   UNL A   1      29.194  29.417  23.080  1.00  0.00     0.061 C 
BRANCH  88  89
ATOM     89  C   UNL A   1      29.282  29.945  21.647  1.00  0.00     0.159 C 
BRANCH  89  90
ATOM     90  O   UNL A   1      30.642  30.079  21.250  1.00  0.00    -0.396 OA
ATOM     91  H   UNL A   1      31.141  29.299  21.539  1.00  0.00     0.210 HD
ENDBRANCH  89  90
ENDBRANCH  88  89
ENDBRANCH  86  88
ENDBRANCH  79  82
ENDBRANCH  69  79
ENDBRANCH   2  68
TORSDOF 15
ENDMDL
MODEL 2
REMARK VINA RESULT:     -12.1      1.686      3.704
REMARK SMILES O=C(NCCCNC(=O)c1c(S(=O)(=O)N2CCO[C@@H](CCO)C2)sc2c1CC[NH2+]C2)c1ccc(-c2c3nc(c(-c4c(F)cccc4F)c4ccc([nH]4)c(-c4c(F)cccc4F)c4nc(c(-c5c(F)cccc5F)c5ccc2[nH]5)C=C4)C=C3)cc1
REMARK SMILES IDX 7 1 8 2 9 3 6 5 5 6 4 7 3 8 1 9 2 10 31 12 32 13 84 14 33 15
REMARK SMILES IDX 83 16 34 17 35 18 36 19 77 20 37 21 82 22 76 23 78 24 38 25
REMARK SMILES IDX 81 26 75 27 74 28 39 30 65 31 48 32 64 33 49 34 52 35 63 36
REMARK SMILES IDX 79 37 50 38 51 39 62 41 80 42 53 43 40 44 41 45 46 46 42 47
REMARK SMILES IDX 43 48 45 49 47 50 44 51 66 52 67 53 72 54 68 55 69 56 71 57
REMARK SMILES IDX 73 58 70 59 54 60 55 61 60 62 56 63 57 64 59 65 61 66 58 67
REMARK SMILES IDX 10 68 11 69 26 70 24 71 25 72 27 73 30 74 28 75 29 76 12 79
REMARK SMILES IDX 13 80 14 81 15 82 16 83 23 84 17 85 19 86 18 87 20 88 21 89
REMARK SMILES IDX 22 90
REMARK H PARENT 7 4 3 11 78 29 52 40 29 77 29 78 22 91
REMARK Flexibility Score: inf
ROOT
ATOM      1  N   UNL A   1      32.986  28.799  27.465  1.00  0.00    -0.352 N 
ATOM      2  C   UNL A   1      31.911  28.033  27.097  1.00  0.00     0.253 C 
ATOM      3  O   UNL A   1      31.049  27.792  27.940  1.00  0.00    -0.269 OA
ATOM      4  H   UNL A   1      32.980  29.093  28.404  1.00  0.00     0.163 HD
ENDROOT
BRANCH   1   5
ATOM      5  C   UNL A   1      34.131  29.246  26.696  1.00  0.00     0.118 C 
BRANCH   5   6
ATOM      6  C   UNL A   1      35.132  30.074  27.488  1.00  0.00     0.042 C 
BRANCH   6   7
ATOM      7  C   UNL A   1      34.678  31.489  27.851  1.00  0.00     0.118 C 
BRANCH   7   8
ATOM      8  N   UNL A   1      34.549  31.768  29.271  1.00  0.00    -0.352 N 
ATOM      9  O   UNL A   1      34.936  32.196  31.400  1.00  0.00    -0.269 OA
ATOM     10  C   UNL A   1      35.360  31.669  30.368  1.00  0.00     0.251 C 
ATOM     11  H   UNL A   1      33.656  32.116  29.500  1.00  0.00     0.163 HD
BRANCH  10  12
ATOM     12  C   UNL A   1      36.668  30.955  30.423  1.00  0.00     0.039 A 
ATOM     13  C   UNL A   1      37.914  31.523  30.172  1.00  0.00     0.014 A 
ATOM     14  C   UNL A   1      36.618  29.577  30.716  1.00  0.00     0.014 A 
ATOM     15  C   UNL A   1      39.065  30.735  30.132  1.00  0.00     0.010 A 
ATOM     16  C   UNL A   1      37.770  28.790  30.713  1.00  0.00     0.010 A 
ATOM     17  C   UNL A   1      38.998  29.363  30.386  1.00  0.00    -0.014 A 
BRANCH  17  18
ATOM     18  C   UNL A   1      40.253  28.602  30.378  1.00  0.00     0.031 A 
ATOM     19  C   UNL A   1      41.004  28.506  31.669  1.00  0.00     0.074 A 
ATOM     20  C   UNL A   1      40.684  27.853  29.343  1.00  0.00     0.049 A 
ATOM     21  N   UNL A   1      42.252  28.769  31.903  1.00  0.00    -0.248 NA
ATOM     22  C   UNL A   1      40.258  28.042  32.848  1.00  0.00     0.031 C 
ATOM     23  C   UNL A   1      39.961  27.511  28.118  1.00  0.00     0.029 A 
ATOM     24  N   UNL A   1      41.849  27.141  29.235  1.00  0.00    -0.354 N 
ATOM     25  C   UNL A   1      42.497  28.352  33.212  1.00  0.00     0.074 A 
ATOM     26  C   UNL A   1      41.221  27.980  33.769  1.00  0.00     0.031 C 
ATOM     27  C   UNL A   1      40.606  26.500  27.495  1.00  0.00     0.029 A 
ATOM     28  C   UNL A   1      41.844  26.216  28.205  1.00  0.00     0.049 A 
ATOM     29  H   UNL A   1      42.619  27.274  29.833  1.00  0.00     0.167 HD
ATOM     30  C   UNL A   1      43.752  28.186  33.716  1.00  0.00     0.037 A 
ATOM     31  C   UNL A   1      42.753  25.239  27.975  1.00  0.00     0.037 A 
ATOM     32  C   UNL A   1      44.748  28.902  32.971  1.00  0.00     0.049 A 
ATOM     33  C   UNL A   1      44.000  25.560  28.703  1.00  0.00     0.074 A 
ATOM     34  C   UNL A   1      44.964  30.224  32.632  1.00  0.00     0.029 A 
ATOM     35  N   UNL A   1      45.659  28.189  32.236  1.00  0.00    -0.354 N 
ATOM     36  N   UNL A   1      44.839  26.500  28.375  1.00  0.00    -0.248 NA
ATOM     37  C   UNL A   1      44.201  24.977  30.021  1.00  0.00     0.031 C 
ATOM     38  C   UNL A   1      45.654  30.189  31.385  1.00  0.00     0.029 A 
ATOM     39  C   UNL A   1      45.792  28.845  31.041  1.00  0.00     0.049 A 
ATOM     40  H   UNL A   1      46.126  27.368  32.512  1.00  0.00     0.167 HD
ATOM     41  C   UNL A   1      45.412  26.897  29.572  1.00  0.00     0.074 A 
ATOM     42  C   UNL A   1      45.097  25.833  30.514  1.00  0.00     0.031 C 
ATOM     43  C   UNL A   1      45.837  28.180  29.762  1.00  0.00     0.037 A 
BRANCH  30  44
ATOM     44  C   UNL A   1      44.123  27.143  34.743  1.00  0.00     0.057 A 
ATOM     45  C   UNL A   1      44.759  27.526  35.939  1.00  0.00     0.134 A 
ATOM     46  C   UNL A   1      44.135  25.760  34.474  1.00  0.00     0.134 A 
ATOM     47  F   UNL A   1      44.847  28.818  36.288  1.00  0.00    -0.206 F 
ATOM     48  C   UNL A   1      45.397  26.607  36.781  1.00  0.00     0.040 A 
ATOM     49  C   UNL A   1      44.725  24.827  35.334  1.00  0.00     0.040 A 
ATOM     50  F   UNL A   1      43.660  25.257  33.327  1.00  0.00    -0.206 F 
ATOM     51  C   UNL A   1      45.382  25.251  36.479  1.00  0.00     0.006 A 
ENDBRANCH  30  44
BRANCH  31  52
ATOM     52  C   UNL A   1      42.556  23.939  27.302  1.00  0.00     0.057 A 
ATOM     53  C   UNL A   1      42.901  23.751  25.958  1.00  0.00     0.134 A 
ATOM     54  C   UNL A   1      42.237  22.779  28.029  1.00  0.00     0.134 A 
ATOM     55  F   UNL A   1      43.273  24.789  25.196  1.00  0.00    -0.206 F 
ATOM     56  C   UNL A   1      42.926  22.480  25.368  1.00  0.00     0.040 A 
ATOM     57  C   UNL A   1      42.245  21.507  27.450  1.00  0.00     0.040 A 
ATOM     58  F   UNL A   1      41.986  22.833  29.345  1.00  0.00    -0.206 F 
ATOM     59  C   UNL A   1      42.599  21.353  26.116  1.00  0.00     0.006 A 
ENDBRANCH  31  52
BRANCH  43  60
ATOM     60  C   UNL A   1      46.021  29.043  28.551  1.00  0.00     0.057 A 
ATOM     61  C   UNL A   1      44.974  29.744  27.935  1.00  0.00     0.134 A 
ATOM     62  C   UNL A   1      47.316  29.283  28.077  1.00  0.00     0.134 A 
ATOM     63  F   UNL A   1      43.719  29.658  28.396  1.00  0.00    -0.206 F 
ATOM     64  C   UNL A   1      45.202  30.603  26.858  1.00  0.00     0.040 A 
ATOM     65  C   UNL A   1      47.560  30.165  27.022  1.00  0.00     0.040 A 
ATOM     66  F   UNL A   1      48.372  28.696  28.663  1.00  0.00    -0.206 F 
ATOM     67  C   UNL A   1      46.499  30.818  26.400  1.00  0.00     0.006 A 
ENDBRANCH  43  60
ENDBRANCH  17  18
ENDBRANCH  10  12
ENDBRANCH   7   8
ENDBRANCH   6   7
ENDBRANCH   5   6
ENDBRANCH   1   5
BRANCH   2  68
ATOM     68  C   UNL A   1      31.743  27.622  25.710  1.00  0.00     0.074 A 
ATOM     69  C   UNL A   1      31.955  26.327  25.229  1.00  0.00     0.148 A 
ATOM     70  C   UNL A   1      31.167  28.469  24.680  1.00  0.00    -0.009 A 
ATOM     71  S   UNL A   1      31.623  26.242  23.560  1.00  0.00    -0.120 S 
ATOM     72  C   UNL A   1      31.069  27.820  23.469  1.00  0.00     0.064 A 
ATOM     73  C   UNL A   1      30.683  29.887  24.795  1.00  0.00     0.099 C 
ATOM     74  C   UNL A   1      30.473  28.381  22.214  1.00  0.00     0.308 C 
ATOM     75  C   UNL A   1      29.797  30.264  23.580  1.00  0.00     0.265 C 
ATOM     76  N   UNL A   1      30.381  29.850  22.286  1.00  0.00    -0.342 N 
ATOM     77  H   UNL A   1      31.316  30.250  22.196  1.00  0.00     0.346 HD
ATOM     78  H   UNL A   1      29.784  30.184  21.529  1.00  0.00     0.346 HD
BRANCH  69  79
ATOM     79  S   UNL A   1      32.399  24.773  26.013  1.00  0.00     0.253 S 
ATOM     80  O   UNL A   1      33.729  24.991  26.538  1.00  0.00    -0.206 OA
ATOM     81  O   UNL A   1      31.283  24.501  26.892  1.00  0.00    -0.206 OA
BRANCH  79  82
ATOM     82  N   UNL A   1      32.545  23.502  24.928  1.00  0.00    -0.192 NA
ATOM     83  C   UNL A   1      31.595  22.374  24.860  1.00  0.00     0.131 C 
ATOM     84  C   UNL A   1      33.797  23.262  24.196  1.00  0.00     0.134 C 
ATOM     85  C   UNL A   1      32.299  21.012  25.082  1.00  0.00     0.177 C 
ATOM     86  C   UNL A   1      34.439  21.994  24.757  1.00  0.00     0.135 C 
ATOM     87  O   UNL A   1      33.581  20.881  24.430  1.00  0.00    -0.375 OA
BRANCH  86  88
ATOM     88  C   UNL A   1      35.867  21.757  24.274  1.00  0.00     0.061 C 
BRANCH  88  89
ATOM     89  C   UNL A   1      36.545  23.033  23.771  1.00  0.00     0.159 C 
BRANCH  89  90
ATOM     90  O   UNL A   1      36.739  22.970  22.363  1.00  0.00    -0.396 OA
ATOM     91  H   UNL A   1      36.557  22.069  22.052  1.00  0.00     0.210 HD
ENDBRANCH  89  90
ENDBRANCH  88  89
ENDBRANCH  86  88
ENDBRANCH  79  82
ENDBRANCH  69  79
ENDBRANCH   2  68
TORSDOF 15
ENDMDL
MODEL 3
REMARK VINA RESULT:     -12.0      2.122      6.863
REMARK SMILES O=C(NCCCNC(=O)c1c(S(=O)(=O)N2CCO[C@@H](CCO)C2)sc2c1CC[NH2+]C2)c1ccc(-c2c3nc(c(-c4c(F)cccc4F)c4ccc([nH]4)c(-c4c(F)cccc4F)c4nc(c(-c5c(F)cccc5F)c5ccc2[nH]5)C=C4)C=C3)cc1
REMARK SMILES IDX 7 1 8 2 9 3 6 5 5 6 4 7 3 8 1 9 2 10 31 12 32 13 84 14 33 15
REMARK SMILES IDX 83 16 34 17 35 18 36 19 77 20 37 21 82 22 76 23 78 24 38 25
REMARK SMILES IDX 81 26 75 27 74 28 39 30 65 31 48 32 64 33 49 34 52 35 63 36
REMARK SMILES IDX 79 37 50 38 51 39 62 41 80 42 53 43 40 44 41 45 46 46 42 47
REMARK SMILES IDX 43 48 45 49 47 50 44 51 66 52 67 53 72 54 68 55 69 56 71 57
REMARK SMILES IDX 73 58 70 59 54 60 55 61 60 62 56 63 57 64 59 65 61 66 58 67
REMARK SMILES IDX 10 68 11 69 26 70 24 71 25 72 27 73 30 74 28 75 29 76 12 79
REMARK SMILES IDX 13 80 14 81 15 82 16 83 23 84 17 85 19 86 18 87 20 88 21 89
REMARK SMILES IDX 22 90
REMARK H PARENT 7 4 3 11 78 29 52 40 29 77 29 78 22 91
REMARK Flexibility Score: inf
ROOT
ATOM      1  N   UNL A   1      33.315  29.325  24.277  1.00  0.00    -0.352 N 
ATOM      2  C   UNL A   1      32.782  28.602  23.243  1.00  0.00     0.253 C 
ATOM      3  O   UNL A   1      33.479  28.395  22.253  1.00  0.00    -0.269 OA
ATOM      4  H   UNL A   1      34.239  29.634  24.130  1.00  0.00     0.163 HD
ENDROOT
BRANCH   1   5
ATOM      5  C   UNL A   1      32.743  29.710  25.552  1.00  0.00     0.118 C 
BRANCH   5   6
ATOM      6  C   UNL A   1      33.150  28.819  26.716  1.00  0.00     0.042 C 
BRANCH   6   7
ATOM      7  C   UNL A   1      34.603  28.955  27.175  1.00  0.00     0.118 C 
BRANCH   7   8
ATOM      8  N   UNL A   1      34.818  29.758  28.366  1.00  0.00    -0.352 N 
ATOM      9  O   UNL A   1      35.693  30.988  29.974  1.00  0.00    -0.269 OA
ATOM     10  C   UNL A   1      35.898  30.117  29.126  1.00  0.00     0.251 C 
ATOM     11  H   UNL A   1      33.978  30.139  28.713  1.00  0.00     0.163 HD
BRANCH  10  12
ATOM     12  C   UNL A   1      37.262  29.521  29.037  1.00  0.00     0.039 A 
ATOM     13  C   UNL A   1      37.878  28.753  30.021  1.00  0.00     0.014 A 
ATOM     14  C   UNL A   1      37.993  29.802  27.865  1.00  0.00     0.014 A 
ATOM     15  C   UNL A   1      39.206  28.346  29.885  1.00  0.00     0.010 A 
ATOM     16  C   UNL A   1      39.310  29.366  27.706  1.00  0.00     0.010 A 
ATOM     17  C   UNL A   1      39.934  28.663  28.735  1.00  0.00    -0.014 A 
BRANCH  17  18
ATOM     18  C   UNL A   1      41.310  28.161  28.634  1.00  0.00     0.031 A 
ATOM     19  C   UNL A   1      41.507  26.833  27.973  1.00  0.00     0.074 A 
ATOM     20  C   UNL A   1      42.408  28.879  28.940  1.00  0.00     0.049 A 
ATOM     21  N   UNL A   1      42.152  25.796  28.410  1.00  0.00    -0.248 NA
ATOM     22  C   UNL A   1      40.910  26.649  26.642  1.00  0.00     0.031 C 
ATOM     23  C   UNL A   1      42.490  30.303  29.269  1.00  0.00     0.029 A 
ATOM     24  N   UNL A   1      43.719  28.485  28.908  1.00  0.00    -0.354 N 
ATOM     25  C   UNL A   1      42.189  24.888  27.352  1.00  0.00     0.074 A 
ATOM     26  C   UNL A   1      41.349  25.433  26.314  1.00  0.00     0.031 C 
ATOM     27  C   UNL A   1      43.780  30.697  29.197  1.00  0.00     0.029 A 
ATOM     28  C   UNL A   1      44.620  29.535  28.947  1.00  0.00     0.049 A 
ATOM     29  H   UNL A   1      43.997  27.542  28.862  1.00  0.00     0.167 HD
ATOM     30  C   UNL A   1      43.028  23.816  27.322  1.00  0.00     0.037 A 
ATOM     31  C   UNL A   1      45.955  29.481  28.730  1.00  0.00     0.037 A 
ATOM     32  C   UNL A   1      43.508  23.451  28.625  1.00  0.00     0.049 A 
ATOM     33  C   UNL A   1      46.412  28.082  28.883  1.00  0.00     0.074 A 
ATOM     34  C   UNL A   1      42.926  23.072  29.819  1.00  0.00     0.029 A 
ATOM     35  N   UNL A   1      44.832  23.649  28.918  1.00  0.00    -0.354 N 
ATOM     36  N   UNL A   1      46.510  27.445  30.016  1.00  0.00    -0.248 NA
ATOM     37  C   UNL A   1      46.520  27.255  27.691  1.00  0.00     0.031 C 
ATOM     38  C   UNL A   1      43.820  23.518  30.836  1.00  0.00     0.029 A 
ATOM     39  C   UNL A   1      44.877  24.156  30.189  1.00  0.00     0.049 A 
ATOM     40  H   UNL A   1      45.600  23.463  28.330  1.00  0.00     0.167 HD
ATOM     41  C   UNL A   1      46.296  26.115  29.693  1.00  0.00     0.074 A 
ATOM     42  C   UNL A   1      46.459  26.044  28.248  1.00  0.00     0.031 C 
ATOM     43  C   UNL A   1      45.724  25.255  30.584  1.00  0.00     0.037 A 
BRANCH  30  44
ATOM     44  C   UNL A   1      43.638  23.250  26.062  1.00  0.00     0.057 A 
ATOM     45  C   UNL A   1      43.540  21.873  25.788  1.00  0.00     0.134 A 
ATOM     46  C   UNL A   1      44.555  23.957  25.259  1.00  0.00     0.134 A 
ATOM     47  F   UNL A   1      42.730  21.083  26.509  1.00  0.00    -0.206 F 
ATOM     48  C   UNL A   1      44.328  21.239  24.819  1.00  0.00     0.040 A 
ATOM     49  C   UNL A   1      45.310  23.344  24.253  1.00  0.00     0.040 A 
ATOM     50  F   UNL A   1      44.831  25.250  25.470  1.00  0.00    -0.206 F 
ATOM     51  C   UNL A   1      45.218  21.976  24.048  1.00  0.00     0.006 A 
ENDBRANCH  30  44
BRANCH  31  52
ATOM     52  C   UNL A   1      46.848  30.540  28.217  1.00  0.00     0.057 A 
ATOM     53  C   UNL A   1      46.684  31.078  26.934  1.00  0.00     0.134 A 
ATOM     54  C   UNL A   1      47.743  31.216  29.063  1.00  0.00     0.134 A 
ATOM     55  F   UNL A   1      45.811  30.536  26.073  1.00  0.00    -0.206 F 
ATOM     56  C   UNL A   1      47.374  32.222  26.515  1.00  0.00     0.040 A 
ATOM     57  C   UNL A   1      48.449  32.351  28.653  1.00  0.00     0.040 A 
ATOM     58  F   UNL A   1      47.903  30.845  30.342  1.00  0.00    -0.206 F 
ATOM     59  C   UNL A   1      48.259  32.863  27.376  1.00  0.00     0.006 A 
ENDBRANCH  31  52
BRANCH  43  60
ATOM     60  C   UNL A   1      45.678  25.667  32.024  1.00  0.00     0.057 A 
ATOM     61  C   UNL A   1      46.737  25.467  32.920  1.00  0.00     0.134 A 
ATOM     62  C   UNL A   1      44.585  26.411  32.484  1.00  0.00     0.134 A 
ATOM     63  F   UNL A   1      47.868  24.862  32.530  1.00  0.00    -0.206 F 
ATOM     64  C   UNL A   1      46.685  25.940  34.233  1.00  0.00     0.040 A 
ATOM     65  C   UNL A   1      44.535  26.916  33.785  1.00  0.00     0.040 A 
ATOM     66  F   UNL A   1      43.564  26.696  31.660  1.00  0.00    -0.206 F 
ATOM     67  C   UNL A   1      45.583  26.670  34.669  1.00  0.00     0.006 A 
ENDBRANCH  43  60
ENDBRANCH  17  18
ENDBRANCH  10  12
ENDBRANCH   7   8
ENDBRANCH   6   7
ENDBRANCH   5   6
ENDBRANCH   1   5
BRANCH   2  68
ATOM     68  C   UNL A   1      31.464  27.995  23.376  1.00  0.00     0.074 A 
ATOM     69  C   UNL A   1      31.203  26.787  24.030  1.00  0.00     0.148 A 
ATOM     70  C   UNL A   1      30.227  28.654  22.995  1.00  0.00    -0.009 A 
ATOM     71  S   UNL A   1      29.537  26.432  23.998  1.00  0.00    -0.120 S 
ATOM     72  C   UNL A   1      29.120  27.886  23.278  1.00  0.00     0.064 A 
ATOM     73  C   UNL A   1      30.042  30.011  22.376  1.00  0.00     0.099 C 
ATOM     74  C   UNL A   1      27.692  28.285  23.065  1.00  0.00     0.308 C 
ATOM     75  C   UNL A   1      28.566  30.473  22.500  1.00  0.00     0.265 C 
ATOM     76  N   UNL A   1      27.597  29.419  22.128  1.00  0.00    -0.342 N 
ATOM     77  H   UNL A   1      27.800  29.093  21.183  1.00  0.00     0.346 HD
ATOM     78  H   UNL A   1      26.654  29.806  22.169  1.00  0.00     0.346 HD
BRANCH  69  79
ATOM     79  S   UNL A   1      32.227  25.629  24.944  1.00  0.00     0.253 S 
ATOM     80  O   UNL A   1      33.564  26.174  24.864  1.00  0.00    -0.206 OA
ATOM     81  O   UNL A   1      31.548  25.499  26.215  1.00  0.00    -0.206 OA
BRANCH  79  82
ATOM     82  N   UNL A   1      32.314  24.114  24.229  1.00  0.00    -0.192 NA
ATOM     83  C   UNL A   1      31.278  23.075  24.389  1.00  0.00     0.131 C 
ATOM     84  C   UNL A   1      33.572  23.607  23.662  1.00  0.00     0.134 C 
ATOM     85  C   UNL A   1      31.855  21.770  24.993  1.00  0.00     0.177 C 
ATOM     86  C   UNL A   1      34.082  22.485  24.566  1.00  0.00     0.135 C 
ATOM     87  O   UNL A   1      33.149  21.387  24.478  1.00  0.00    -0.375 OA
BRANCH  86  88
ATOM     88  C   UNL A   1      35.505  22.033  24.250  1.00  0.00     0.061 C 
BRANCH  88  89
ATOM     89  C   UNL A   1      36.394  23.173  23.750  1.00  0.00     0.159 C 
BRANCH  89  90
ATOM     90  O   UNL A   1      36.773  22.949  22.396  1.00  0.00    -0.396 OA
ATOM     91  H   UNL A   1      37.735  22.829  22.346  1.00  0.00     0.210 HD
ENDBRANCH  89  90
ENDBRANCH  88  89
ENDBRANCH  86  88
ENDBRANCH  79  82
ENDBRANCH  69  79
ENDBRANCH   2  68
TORSDOF 15
ENDMDL
