MODEL 1
REMARK VINA RESULT:     -12.7      0.000      0.000
REMARK SMILES COc1cc(NC(=O)C2CCN(S(=O)(=O)c3cccs3)CC2)c(Cl)cc1C(=O)NCCCNC(=O)c1ccc(-c2c3nc(c(-c4c(F)cccc4F)c4ccc([nH]4)c(-c4c(F)cccc4F)c4nc(c(-c5c(F)cccc5F)c5ccc2[nH]5)C=C4)C=C3)cc1
REMARK SMILES IDX 30 1 29 2 27 3 28 4 26 6 3 7 4 8 5 9 25 10 23 11 24 12 2 13
REMARK SMILES IDX 1 14 6 15 7 16 8 18 9 19 10 20 22 21 11 22 21 23 12 24 13 25
REMARK SMILES IDX 14 26 15 27 16 28 17 29 20 30 18 31 19 32 31 33 32 34 33 35
REMARK SMILES IDX 34 36 35 38 36 39 37 40 89 41 38 42 88 43 39 44 40 45 41 46
REMARK SMILES IDX 82 47 42 48 87 49 81 50 83 51 43 52 86 53 80 54 79 55 44 57
REMARK SMILES IDX 70 58 53 59 69 60 54 61 57 62 68 63 84 64 55 65 56 66 67 68
REMARK SMILES IDX 85 69 58 70 45 71 46 72 51 73 47 74 48 75 50 76 52 77 49 78
REMARK SMILES IDX 71 79 72 80 77 81 73 82 74 83 76 84 78 85 75 86 59 87 60 88
REMARK SMILES IDX 65 89 61 90 62 91 64 92 66 93 63 94
REMARK H PARENT 29 5 6 17 33 37 83 56 57 67
REMARK Flexibility Score: inf
ROOT
ATOM      1  C   UNL A   1      36.401  20.063  25.012  1.00  0.00     0.118 C 
ENDROOT
BRANCH   1   2
ATOM      2  N   UNL A   1      35.448  18.998  24.747  1.00  0.00    -0.352 N 
ATOM      3  C   UNL A   1      34.077  18.965  24.721  1.00  0.00     0.255 C 
ATOM      4  O   UNL A   1      33.539  17.900  24.419  1.00  0.00    -0.269 OA
ATOM      5  H   UNL A   1      35.870  18.131  24.545  1.00  0.00     0.163 HD
BRANCH   3   6
ATOM      6  C   UNL A   1      33.207  20.157  24.910  1.00  0.00     0.083 A 
ATOM      7  C   UNL A   1      32.346  20.714  23.953  1.00  0.00     0.133 A 
ATOM      8  C   UNL A   1      31.577  21.834  24.298  1.00  0.00     0.075 A 
ATOM      9  C   UNL A   1      31.552  22.319  25.605  1.00  0.00     0.063 A 
ATOM     10  C   UNL A   1      33.340  20.794  26.161  1.00  0.00     0.040 A 
ATOM     11  C   UNL A   1      32.523  21.872  26.505  1.00  0.00     0.065 A 
ATOM     12  Cl  UNL A   1      32.652  22.540  28.092  1.00  0.00    -0.082 Cl
BRANCH   7  13
ATOM     13  O   UNL A   1      32.288  20.174  22.701  1.00  0.00    -0.496 OA
ATOM     14  C   UNL A   1      31.881  21.039  21.636  1.00  0.00     0.278 C 
ENDBRANCH   7  13
BRANCH   9  15
ATOM     15  N   UNL A   1      30.511  23.156  26.055  1.00  0.00    -0.324 N 
ATOM     16  C   UNL A   1      30.535  24.490  26.392  1.00  0.00     0.227 C 
ATOM     17  H   UNL A   1      29.633  22.720  26.141  1.00  0.00     0.169 HD
ATOM     18  O   UNL A   1      29.477  25.002  26.764  1.00  0.00    -0.274 OA
BRANCH  16  19
ATOM     19  C   UNL A   1      31.818  25.337  26.259  1.00  0.00     0.081 C 
ATOM     20  C   UNL A   1      31.551  26.850  26.399  1.00  0.00     0.030 C 
ATOM     21  C   UNL A   1      32.575  25.113  24.945  1.00  0.00     0.030 C 
ATOM     22  C   UNL A   1      30.939  27.493  25.148  1.00  0.00     0.103 C 
ATOM     23  C   UNL A   1      31.810  25.675  23.764  1.00  0.00     0.103 C 
ATOM     24  N   UNL A   1      31.727  27.137  23.925  1.00  0.00    -0.197 NA
BRANCH  24  25
ATOM     25  S   UNL A   1      31.157  27.960  22.521  1.00  0.00     0.252 S 
ATOM     26  O   UNL A   1      31.925  29.182  22.408  1.00  0.00    -0.206 OA
ATOM     27  O   UNL A   1      31.098  27.000  21.440  1.00  0.00    -0.206 OA
BRANCH  25  28
ATOM     28  C   UNL A   1      29.489  28.532  22.842  1.00  0.00     0.135 A 
ATOM     29  C   UNL A   1      28.329  27.825  23.116  1.00  0.00     0.033 A 
ATOM     30  S   UNL A   1      29.197  30.214  22.821  1.00  0.00    -0.131 S 
ATOM     31  C   UNL A   1      27.196  28.668  23.284  1.00  0.00     0.013 A 
ATOM     32  C   UNL A   1      27.534  29.999  23.178  1.00  0.00     0.066 A 
ENDBRANCH  25  28
ENDBRANCH  24  25
ENDBRANCH  16  19
ENDBRANCH   9  15
ENDBRANCH   3   6
ENDBRANCH   1   2
BRANCH   1  33
ATOM     33  C   UNL A   1      37.832  19.625  24.698  1.00  0.00     0.042 C 
BRANCH  33  34
ATOM     34  C   UNL A   1      38.887  20.130  25.670  1.00  0.00     0.118 C 
BRANCH  34  35
ATOM     35  N   UNL A   1      40.031  19.237  25.762  1.00  0.00    -0.352 N 
ATOM     36  C   UNL A   1      41.346  19.497  26.070  1.00  0.00     0.251 C 
ATOM     37  H   UNL A   1      39.831  18.292  25.574  1.00  0.00     0.163 HD
ATOM     38  O   UNL A   1      42.185  18.621  25.876  1.00  0.00    -0.269 OA
BRANCH  36  39
ATOM     39  C   UNL A   1      41.779  20.811  26.611  1.00  0.00     0.039 A 
ATOM     40  C   UNL A   1      42.213  21.796  25.716  1.00  0.00     0.014 A 
ATOM     41  C   UNL A   1      41.828  21.067  27.983  1.00  0.00     0.014 A 
ATOM     42  C   UNL A   1      42.635  23.045  26.189  1.00  0.00     0.010 A 
ATOM     43  C   UNL A   1      42.165  22.338  28.449  1.00  0.00     0.010 A 
ATOM     44  C   UNL A   1      42.583  23.339  27.559  1.00  0.00    -0.014 A 
BRANCH  44  45
ATOM     45  C   UNL A   1      42.985  24.668  28.095  1.00  0.00     0.031 A 
ATOM     46  C   UNL A   1      41.941  25.721  28.360  1.00  0.00     0.074 A 
ATOM     47  C   UNL A   1      44.290  24.959  28.269  1.00  0.00     0.049 A 
ATOM     48  N   UNL A   1      42.097  26.977  28.694  1.00  0.00    -0.248 NA
ATOM     49  C   UNL A   1      40.537  25.313  28.199  1.00  0.00     0.031 C 
ATOM     50  C   UNL A   1      45.403  24.041  28.023  1.00  0.00     0.029 A 
ATOM     51  N   UNL A   1      44.901  26.120  28.674  1.00  0.00    -0.354 N 
ATOM     52  C   UNL A   1      40.816  27.513  28.756  1.00  0.00     0.074 A 
ATOM     53  C   UNL A   1      39.898  26.459  28.382  1.00  0.00     0.031 C 
ATOM     54  C   UNL A   1      46.559  24.669  28.293  1.00  0.00     0.029 A 
ATOM     55  C   UNL A   1      46.273  26.045  28.687  1.00  0.00     0.049 A 
ATOM     56  H   UNL A   1      44.403  26.929  28.931  1.00  0.00     0.167 HD
ATOM     57  C   UNL A   1      40.436  28.765  29.110  1.00  0.00     0.037 A 
ATOM     58  C   UNL A   1      47.199  26.983  28.967  1.00  0.00     0.037 A 
ATOM     59  C   UNL A   1      41.346  29.802  29.516  1.00  0.00     0.049 A 
ATOM     60  C   UNL A   1      46.754  28.369  29.345  1.00  0.00     0.074 A 
ATOM     61  C   UNL A   1      41.055  31.082  29.953  1.00  0.00     0.029 A 
ATOM     62  N   UNL A   1      42.727  29.677  29.537  1.00  0.00    -0.354 N 
ATOM     63  N   UNL A   1      45.536  28.846  29.448  1.00  0.00    -0.248 NA
ATOM     64  C   UNL A   1      47.809  29.347  29.648  1.00  0.00     0.031 C 
ATOM     65  C   UNL A   1      42.261  31.746  30.198  1.00  0.00     0.029 A 
ATOM     66  C   UNL A   1      43.302  30.863  29.959  1.00  0.00     0.049 A 
ATOM     67  H   UNL A   1      43.225  28.864  29.288  1.00  0.00     0.167 HD
ATOM     68  C   UNL A   1      45.679  30.167  29.856  1.00  0.00     0.074 A 
ATOM     69  C   UNL A   1      47.099  30.414  29.988  1.00  0.00     0.031 C 
ATOM     70  C   UNL A   1      44.717  31.090  30.101  1.00  0.00     0.037 A 
BRANCH  57  71
ATOM     71  C   UNL A   1      38.969  29.081  29.076  1.00  0.00     0.057 A 
ATOM     72  C   UNL A   1      38.162  28.977  30.216  1.00  0.00     0.134 A 
ATOM     73  C   UNL A   1      38.362  29.532  27.896  1.00  0.00     0.134 A 
ATOM     74  F   UNL A   1      38.678  28.540  31.375  1.00  0.00    -0.206 F 
ATOM     75  C   UNL A   1      36.800  29.281  30.179  1.00  0.00     0.040 A 
ATOM     76  C   UNL A   1      37.007  29.867  27.854  1.00  0.00     0.040 A 
ATOM     77  F   UNL A   1      39.077  29.664  26.769  1.00  0.00    -0.206 F 
ATOM     78  C   UNL A   1      36.220  29.734  28.996  1.00  0.00     0.006 A 
ENDBRANCH  57  71
BRANCH  58  79
ATOM     79  C   UNL A   1      48.643  26.642  28.910  1.00  0.00     0.057 A 
ATOM     80  C   UNL A   1      49.294  26.083  30.016  1.00  0.00     0.134 A 
ATOM     81  C   UNL A   1      49.405  26.867  27.758  1.00  0.00     0.134 A 
ATOM     82  F   UNL A   1      48.620  25.861  31.154  1.00  0.00    -0.206 F 
ATOM     83  C   UNL A   1      50.655  25.774  29.985  1.00  0.00     0.040 A 
ATOM     84  C   UNL A   1      50.762  26.541  27.705  1.00  0.00     0.040 A 
ATOM     85  F   UNL A   1      48.840  27.393  26.662  1.00  0.00    -0.206 F 
ATOM     86  C   UNL A   1      51.392  25.999  28.824  1.00  0.00     0.006 A 
ENDBRANCH  58  79
BRANCH  70  87
ATOM     87  C   UNL A   1      45.161  32.440  30.577  1.00  0.00     0.057 A 
ATOM     88  C   UNL A   1      45.388  33.500  29.691  1.00  0.00     0.134 A 
ATOM     89  C   UNL A   1      45.302  32.699  31.947  1.00  0.00     0.134 A 
ATOM     90  F   UNL A   1      45.283  33.312  28.366  1.00  0.00    -0.206 F 
ATOM     91  C   UNL A   1      45.753  34.767  30.149  1.00  0.00     0.040 A 
ATOM     92  C   UNL A   1      45.643  33.968  32.418  1.00  0.00     0.040 A 
ATOM     93  F   UNL A   1      45.091  31.729  32.849  1.00  0.00    -0.206 F 
ATOM     94  C   UNL A   1      45.872  35.005  31.517  1.00  0.00     0.006 A 
ENDBRANCH  70  87
ENDBRANCH  44  45
ENDBRANCH  36  39
ENDBRANCH  34  35
ENDBRANCH  33  34
ENDBRANCH   1  33
TORSDOF 15
ENDMDL
MODEL 2
REMARK VINA RESULT:     -12.6      4.653      6.471
REMARK SMILES COc1cc(NC(=O)C2CCN(S(=O)(=O)c3cccs3)CC2)c(Cl)cc1C(=O)NCCCNC(=O)c1ccc(-c2c3nc(c(-c4c(F)cccc4F)c4ccc([nH]4)c(-c4c(F)cccc4F)c4nc(c(-c5c(F)cccc5F)c5ccc2[nH]5)C=C4)C=C3)cc1
REMARK SMILES IDX 30 1 29 2 27 3 28 4 26 6 3 7 4 8 5 9 25 10 23 11 24 12 2 13
REMARK SMILES IDX 1 14 6 15 7 16 8 18 9 19 10 20 22 21 11 22 21 23 12 24 13 25
REMARK SMILES IDX 14 26 15 27 16 28 17 29 20 30 18 31 19 32 31 33 32 34 33 35
REMARK SMILES IDX 34 36 35 38 36 39 37 40 89 41 38 42 88 43 39 44 40 45 41 46
REMARK SMILES IDX 82 47 42 48 87 49 81 50 83 51 43 52 86 53 80 54 79 55 44 57
REMARK SMILES IDX 70 58 53 59 69 60 54 61 57 62 68 63 84 64 55 65 56 66 67 68
REMARK SMILES IDX 85 69 58 70 45 71 46 72 51 73 47 74 48 75 50 76 52 77 49 78
REMARK SMILES IDX 71 79 72 80 77 81 73 82 74 83 76 84 78 85 75 86 59 87 60 88
REMARK SMILES IDX 65 89 61 90 62 91 64 92 66 93 63 94
REMARK H PARENT 29 5 6 17 33 37 83 56 57 67
REMARK Flexibility Score: inf
ROOT
ATOM      1  C   UNL A   1      36.534  23.193  26.494  1.00  0.00     0.118 C 
ENDROOT
BRANCH   1   2
ATOM      2  N   UNL A   1      36.736  21.828  26.037  1.00  0.00    -0.352 N 
ATOM      3  C   UNL A   1      35.981  20.990  25.257  1.00  0.00     0.255 C 
ATOM      4  O   UNL A   1      36.443  19.877  25.003  1.00  0.00    -0.269 OA
ATOM      5  H   UNL A   1      37.580  21.427  26.348  1.00  0.00     0.163 HD
BRANCH   3   6
ATOM      6  C   UNL A   1      34.706  21.381  24.597  1.00  0.00     0.083 A 
ATOM      7  C   UNL A   1      33.444  20.814  24.828  1.00  0.00     0.133 A 
ATOM      8  C   UNL A   1      32.335  21.313  24.133  1.00  0.00     0.075 A 
ATOM      9  C   UNL A   1      32.438  22.442  23.320  1.00  0.00     0.063 A 
ATOM     10  C   UNL A   1      34.835  22.375  23.604  1.00  0.00     0.040 A 
ATOM     11  C   UNL A   1      33.710  22.899  22.966  1.00  0.00     0.065 A 
ATOM     12  Cl  UNL A   1      33.918  24.193  21.843  1.00  0.00    -0.082 Cl
BRANCH   7  13
ATOM     13  O   UNL A   1      33.321  19.776  25.706  1.00  0.00    -0.496 OA
ATOM     14  C   UNL A   1      32.910  18.515  25.170  1.00  0.00     0.278 C 
ENDBRANCH   7  13
BRANCH   9  15
ATOM     15  N   UNL A   1      31.298  23.182  22.949  1.00  0.00    -0.324 N 
ATOM     16  C   UNL A   1      30.552  24.078  23.679  1.00  0.00     0.227 C 
ATOM     17  H   UNL A   1      30.988  23.036  22.026  1.00  0.00     0.169 HD
ATOM     18  O   UNL A   1      29.584  24.601  23.122  1.00  0.00    -0.274 OA
BRANCH  16  19
ATOM     19  C   UNL A   1      30.934  24.465  25.123  1.00  0.00     0.081 C 
ATOM     20  C   UNL A   1      30.036  25.580  25.700  1.00  0.00     0.030 C 
ATOM     21  C   UNL A   1      32.393  24.906  25.281  1.00  0.00     0.030 C 
ATOM     22  C   UNL A   1      30.378  26.984  25.182  1.00  0.00     0.103 C 
ATOM     23  C   UNL A   1      32.640  26.245  24.616  1.00  0.00     0.103 C 
ATOM     24  N   UNL A   1      31.843  27.263  25.324  1.00  0.00    -0.197 NA
BRANCH  24  25
ATOM     25  S   UNL A   1      32.242  28.883  24.890  1.00  0.00     0.252 S 
ATOM     26  O   UNL A   1      33.055  28.811  23.695  1.00  0.00    -0.206 OA
ATOM     27  O   UNL A   1      31.024  29.664  24.931  1.00  0.00    -0.206 OA
BRANCH  25  28
ATOM     28  C   UNL A   1      33.359  29.538  26.128  1.00  0.00     0.135 A 
ATOM     29  C   UNL A   1      34.556  29.040  26.619  1.00  0.00     0.033 A 
ATOM     30  S   UNL A   1      32.953  31.018  26.878  1.00  0.00    -0.131 S 
ATOM     31  C   UNL A   1      35.123  29.864  27.630  1.00  0.00     0.013 A 
ATOM     32  C   UNL A   1      34.366  30.993  27.849  1.00  0.00     0.066 A 
ENDBRANCH  25  28
ENDBRANCH  24  25
ENDBRANCH  16  19
ENDBRANCH   9  15
ENDBRANCH   3   6
ENDBRANCH   1   2
BRANCH   1  33
ATOM     33  C   UNL A   1      37.723  24.085  26.134  1.00  0.00     0.042 C 
BRANCH  33  34
ATOM     34  C   UNL A   1      39.055  23.653  26.730  1.00  0.00     0.118 C 
BRANCH  34  35
ATOM     35  N   UNL A   1      40.191  24.169  25.984  1.00  0.00    -0.352 N 
ATOM     36  C   UNL A   1      40.902  25.336  26.131  1.00  0.00     0.251 C 
ATOM     37  H   UNL A   1      40.502  23.586  25.254  1.00  0.00     0.163 HD
ATOM     38  O   UNL A   1      41.689  25.668  25.248  1.00  0.00    -0.269 OA
BRANCH  36  39
ATOM     39  C   UNL A   1      40.730  26.213  27.318  1.00  0.00     0.039 A 
ATOM     40  C   UNL A   1      41.441  27.419  27.371  1.00  0.00     0.014 A 
ATOM     41  C   UNL A   1      39.938  25.841  28.406  1.00  0.00     0.014 A 
ATOM     42  C   UNL A   1      41.310  28.268  28.476  1.00  0.00     0.010 A 
ATOM     43  C   UNL A   1      39.739  26.725  29.466  1.00  0.00     0.010 A 
ATOM     44  C   UNL A   1      40.431  27.944  29.520  1.00  0.00    -0.014 A 
BRANCH  44  45
ATOM     45  C   UNL A   1      40.236  28.841  30.692  1.00  0.00     0.031 A 
ATOM     46  C   UNL A   1      39.197  29.931  30.641  1.00  0.00     0.074 A 
ATOM     47  C   UNL A   1      41.040  28.731  31.768  1.00  0.00     0.049 A 
ATOM     48  N   UNL A   1      38.965  30.896  31.495  1.00  0.00    -0.248 NA
ATOM     49  C   UNL A   1      38.322  29.955  29.458  1.00  0.00     0.031 C 
ATOM     50  C   UNL A   1      42.103  27.739  31.933  1.00  0.00     0.029 A 
ATOM     51  N   UNL A   1      41.101  29.477  32.919  1.00  0.00    -0.354 N 
ATOM     52  C   UNL A   1      37.941  31.654  30.941  1.00  0.00     0.074 A 
ATOM     53  C   UNL A   1      37.625  31.064  29.658  1.00  0.00     0.031 C 
ATOM     54  C   UNL A   1      42.702  27.930  33.120  1.00  0.00     0.029 A 
ATOM     55  C   UNL A   1      42.098  29.084  33.779  1.00  0.00     0.049 A 
ATOM     56  H   UNL A   1      40.488  30.224  33.110  1.00  0.00     0.167 HD
ATOM     57  C   UNL A   1      37.306  32.733  31.460  1.00  0.00     0.037 A 
ATOM     58  C   UNL A   1      42.494  29.604  34.957  1.00  0.00     0.037 A 
ATOM     59  C   UNL A   1      37.596  33.298  32.752  1.00  0.00     0.049 A 
ATOM     60  C   UNL A   1      41.783  30.809  35.508  1.00  0.00     0.074 A 
ATOM     61  C   UNL A   1      36.968  34.350  33.392  1.00  0.00     0.029 A 
ATOM     62  N   UNL A   1      38.599  32.854  33.600  1.00  0.00    -0.354 N 
ATOM     63  N   UNL A   1      40.782  31.483  34.995  1.00  0.00    -0.248 NA
ATOM     64  C   UNL A   1      42.254  31.325  36.802  1.00  0.00     0.031 C 
ATOM     65  C   UNL A   1      37.617  34.571  34.611  1.00  0.00     0.029 A 
ATOM     66  C   UNL A   1      38.619  33.625  34.749  1.00  0.00     0.049 A 
ATOM     67  H   UNL A   1      39.207  32.102  33.412  1.00  0.00     0.167 HD
ATOM     68  C   UNL A   1      40.485  32.482  35.915  1.00  0.00     0.074 A 
ATOM     69  C   UNL A   1      41.406  32.321  37.021  1.00  0.00     0.031 C 
ATOM     70  C   UNL A   1      39.532  33.443  35.849  1.00  0.00     0.037 A 
BRANCH  57  71
ATOM     71  C   UNL A   1      36.232  33.373  30.629  1.00  0.00     0.057 A 
ATOM     72  C   UNL A   1      36.533  34.160  29.511  1.00  0.00     0.134 A 
ATOM     73  C   UNL A   1      34.879  33.169  30.929  1.00  0.00     0.134 A 
ATOM     74  F   UNL A   1      37.809  34.405  29.175  1.00  0.00    -0.206 F 
ATOM     75  C   UNL A   1      35.528  34.745  28.737  1.00  0.00     0.040 A 
ATOM     76  C   UNL A   1      33.865  33.725  30.146  1.00  0.00     0.040 A 
ATOM     77  F   UNL A   1      34.520  32.417  31.981  1.00  0.00    -0.206 F 
ATOM     78  C   UNL A   1      34.189  34.522  29.050  1.00  0.00     0.006 A 
ENDBRANCH  57  71
BRANCH  58  79
ATOM     79  C   UNL A   1      43.615  28.980  35.704  1.00  0.00     0.057 A 
ATOM     80  C   UNL A   1      43.390  27.915  36.584  1.00  0.00     0.134 A 
ATOM     81  C   UNL A   1      44.932  29.431  35.562  1.00  0.00     0.134 A 
ATOM     82  F   UNL A   1      42.146  27.451  36.777  1.00  0.00    -0.206 F 
ATOM     83  C   UNL A   1      44.431  27.330  37.308  1.00  0.00     0.040 A 
ATOM     84  C   UNL A   1      45.987  28.841  36.262  1.00  0.00     0.040 A 
ATOM     85  F   UNL A   1      45.217  30.443  34.729  1.00  0.00    -0.206 F 
ATOM     86  C   UNL A   1      45.735  27.792  37.144  1.00  0.00     0.006 A 
ENDBRANCH  58  79
BRANCH  70  87
ATOM     87  C   UNL A   1      39.406  34.372  37.019  1.00  0.00     0.057 A 
ATOM     88  C   UNL A   1      38.705  34.012  38.176  1.00  0.00     0.134 A 
ATOM     89  C   UNL A   1      40.048  35.617  37.010  1.00  0.00     0.134 A 
ATOM     90  F   UNL A   1      38.057  32.839  38.242  1.00  0.00    -0.206 F 
ATOM     91  C   UNL A   1      38.636  34.865  39.280  1.00  0.00     0.040 A 
ATOM     92  C   UNL A   1      40.007  36.467  38.116  1.00  0.00     0.040 A 
ATOM     93  F   UNL A   1      40.744  36.017  35.935  1.00  0.00    -0.206 F 
ATOM     94  C   UNL A   1      39.296  36.092  39.254  1.00  0.00     0.006 A 
ENDBRANCH  70  87
ENDBRANCH  44  45
ENDBRANCH  36  39
ENDBRANCH  34  35
ENDBRANCH  33  34
ENDBRANCH   1  33
TORSDOF 15
ENDMDL
MODEL 3
REMARK VINA RESULT:     -12.5      0.678      6.033
REMARK SMILES COc1cc(NC(=O)C2CCN(S(=O)(=O)c3cccs3)CC2)c(Cl)cc1C(=O)NCCCNC(=O)c1ccc(-c2c3nc(c(-c4c(F)cccc4F)c4ccc([nH]4)c(-c4c(F)cccc4F)c4nc(c(-c5c(F)cccc5F)c5ccc2[nH]5)C=C4)C=C3)cc1
REMARK SMILES IDX 30 1 29 2 27 3 28 4 26 6 3 7 4 8 5 9 25 10 23 11 24 12 2 13
REMARK SMILES IDX 1 14 6 15 7 16 8 18 9 19 10 20 22 21 11 22 21 23 12 24 13 25
REMARK SMILES IDX 14 26 15 27 16 28 17 29 20 30 18 31 19 32 31 33 32 34 33 35
REMARK SMILES IDX 34 36 35 38 36 39 37 40 89 41 38 42 88 43 39 44 40 45 41 46
REMARK SMILES IDX 82 47 42 48 87 49 81 50 83 51 43 52 86 53 80 54 79 55 44 57
REMARK SMILES IDX 70 58 53 59 69 60 54 61 57 62 68 63 84 64 55 65 56 66 67 68
REMARK SMILES IDX 85 69 58 70 45 71 46 72 51 73 47 74 48 75 50 76 52 77 49 78
REMARK SMILES IDX 71 79 72 80 77 81 73 82 74 83 76 84 78 85 75 86 59 87 60 88
REMARK SMILES IDX 65 89 61 90 62 91 64 92 66 93 63 94
REMARK H PARENT 29 5 6 17 33 37 83 56 57 67
REMARK Flexibility Score: inf
ROOT
ATOM      1  C   UNL A   1      36.414  19.848  24.996  1.00  0.00     0.118 C 
ENDROOT
BRANCH   1   2
ATOM      2  N   UNL A   1      35.418  18.828  24.713  1.00  0.00    -0.352 N 
ATOM      3  C   UNL A   1      34.047  18.852  24.687  1.00  0.00     0.255 C 
ATOM      4  O   UNL A   1      33.464  17.816  24.366  1.00  0.00    -0.269 OA
ATOM      5  H   UNL A   1      35.804  17.948  24.496  1.00  0.00     0.163 HD
BRANCH   3   6
ATOM      6  C   UNL A   1      33.226  20.076  24.897  1.00  0.00     0.083 A 
ATOM      7  C   UNL A   1      32.395  20.689  23.948  1.00  0.00     0.133 A 
ATOM      8  C   UNL A   1      31.672  21.833  24.314  1.00  0.00     0.075 A 
ATOM      9  C   UNL A   1      31.661  22.291  25.631  1.00  0.00     0.063 A 
ATOM     10  C   UNL A   1      33.380  20.681  26.162  1.00  0.00     0.040 A 
ATOM     11  C   UNL A   1      32.607  21.784  26.526  1.00  0.00     0.065 A 
ATOM     12  Cl  UNL A   1      32.755  22.413  28.127  1.00  0.00    -0.082 Cl
BRANCH   7  13
ATOM     13  O   UNL A   1      32.321  20.178  22.685  1.00  0.00    -0.496 OA
ATOM     14  C   UNL A   1      31.812  21.040  21.663  1.00  0.00     0.278 C 
ENDBRANCH   7  13
BRANCH   9  15
ATOM     15  N   UNL A   1      30.654  23.162  26.094  1.00  0.00    -0.324 N 
ATOM     16  C   UNL A   1      30.717  24.502  26.396  1.00  0.00     0.227 C 
ATOM     17  H   UNL A   1      29.770  22.747  26.221  1.00  0.00     0.169 HD
ATOM     18  O   UNL A   1      29.684  25.047  26.790  1.00  0.00    -0.274 OA
BRANCH  16  19
ATOM     19  C   UNL A   1      32.013  25.317  26.198  1.00  0.00     0.081 C 
ATOM     20  C   UNL A   1      31.790  26.837  26.349  1.00  0.00     0.030 C 
ATOM     21  C   UNL A   1      32.699  25.074  24.850  1.00  0.00     0.030 C 
ATOM     22  C   UNL A   1      31.133  27.494  25.127  1.00  0.00     0.103 C 
ATOM     23  C   UNL A   1      31.891  25.653  23.706  1.00  0.00     0.103 C 
ATOM     24  N   UNL A   1      31.851  27.118  23.868  1.00  0.00    -0.197 NA
BRANCH  24  25
ATOM     25  S   UNL A   1      31.234  27.953  22.492  1.00  0.00     0.252 S 
ATOM     26  O   UNL A   1      31.964  29.199  22.393  1.00  0.00    -0.206 OA
ATOM     27  O   UNL A   1      31.184  27.015  21.391  1.00  0.00    -0.206 OA
BRANCH  25  28
ATOM     28  C   UNL A   1      29.556  28.469  22.853  1.00  0.00     0.135 A 
ATOM     29  C   UNL A   1      28.419  27.722  23.125  1.00  0.00     0.033 A 
ATOM     30  S   UNL A   1      29.217  30.142  22.884  1.00  0.00    -0.131 S 
ATOM     31  C   UNL A   1      27.267  28.528  23.332  1.00  0.00     0.013 A 
ATOM     32  C   UNL A   1      27.565  29.870  23.259  1.00  0.00     0.066 A 
ENDBRANCH  25  28
ENDBRANCH  24  25
ENDBRANCH  16  19
ENDBRANCH   9  15
ENDBRANCH   3   6
ENDBRANCH   1   2
BRANCH   1  33
ATOM     33  C   UNL A   1      37.833  19.314  24.803  1.00  0.00     0.042 C 
BRANCH  33  34
ATOM     34  C   UNL A   1      38.893  19.970  25.675  1.00  0.00     0.118 C 
BRANCH  34  35
ATOM     35  N   UNL A   1      40.103  19.171  25.776  1.00  0.00    -0.352 N 
ATOM     36  C   UNL A   1      41.393  19.536  26.081  1.00  0.00     0.251 C 
ATOM     37  H   UNL A   1      39.978  18.211  25.598  1.00  0.00     0.163 HD
ATOM     38  O   UNL A   1      42.299  18.727  25.896  1.00  0.00    -0.269 OA
BRANCH  36  39
ATOM     39  C   UNL A   1      41.721  20.886  26.608  1.00  0.00     0.039 A 
ATOM     40  C   UNL A   1      42.175  21.864  25.714  1.00  0.00     0.014 A 
ATOM     41  C   UNL A   1      41.655  21.185  27.970  1.00  0.00     0.014 A 
ATOM     42  C   UNL A   1      42.500  23.146  26.175  1.00  0.00     0.010 A 
ATOM     43  C   UNL A   1      41.895  22.485  28.417  1.00  0.00     0.010 A 
ATOM     44  C   UNL A   1      42.331  23.478  27.527  1.00  0.00    -0.014 A 
BRANCH  44  45
ATOM     45  C   UNL A   1      42.628  24.841  28.046  1.00  0.00     0.031 A 
ATOM     46  C   UNL A   1      44.024  25.188  28.496  1.00  0.00     0.074 A 
ATOM     47  C   UNL A   1      41.635  25.740  28.190  1.00  0.00     0.049 A 
ATOM     48  N   UNL A   1      44.456  26.265  29.100  1.00  0.00    -0.248 NA
ATOM     49  C   UNL A   1      45.064  24.174  28.258  1.00  0.00     0.031 C 
ATOM     50  C   UNL A   1      40.235  25.523  27.821  1.00  0.00     0.029 A 
ATOM     51  N   UNL A   1      41.648  27.013  28.706  1.00  0.00    -0.354 N 
ATOM     52  C   UNL A   1      45.808  26.048  29.338  1.00  0.00     0.074 A 
ATOM     53  C   UNL A   1      46.115  24.720  28.853  1.00  0.00     0.031 C 
ATOM     54  C   UNL A   1      39.528  26.627  28.111  1.00  0.00     0.029 A 
ATOM     55  C   UNL A   1      40.412  27.612  28.727  1.00  0.00     0.049 A 
ATOM     56  H   UNL A   1      42.467  27.454  29.029  1.00  0.00     0.167 HD
ATOM     57  C   UNL A   1      46.718  26.885  29.894  1.00  0.00     0.037 A 
ATOM     58  C   UNL A   1      40.029  28.813  29.204  1.00  0.00     0.037 A 
ATOM     59  C   UNL A   1      46.420  28.219  30.344  1.00  0.00     0.049 A 
ATOM     60  C   UNL A   1      41.053  29.720  29.827  1.00  0.00     0.074 A 
ATOM     61  C   UNL A   1      47.285  29.166  30.862  1.00  0.00     0.029 A 
ATOM     62  N   UNL A   1      45.159  28.795  30.326  1.00  0.00    -0.354 N 
ATOM     63  N   UNL A   1      42.338  29.520  29.999  1.00  0.00    -0.248 NA
ATOM     64  C   UNL A   1      40.577  31.020  30.322  1.00  0.00     0.031 C 
ATOM     65  C   UNL A   1      46.540  30.302  31.198  1.00  0.00     0.029 A 
ATOM     66  C   UNL A   1      45.219  30.077  30.844  1.00  0.00     0.049 A 
ATOM     67  H   UNL A   1      44.341  28.357  29.994  1.00  0.00     0.167 HD
ATOM     68  C   UNL A   1      42.827  30.678  30.593  1.00  0.00     0.074 A 
ATOM     69  C   UNL A   1      41.703  31.578  30.745  1.00  0.00     0.031 C 
ATOM     70  C   UNL A   1      44.094  30.968  30.974  1.00  0.00     0.037 A 
BRANCH  57  71
ATOM     71  C   UNL A   1      48.124  26.381  30.045  1.00  0.00     0.057 A 
ATOM     72  C   UNL A   1      49.088  26.568  29.046  1.00  0.00     0.134 A 
ATOM     73  C   UNL A   1      48.530  25.736  31.220  1.00  0.00     0.134 A 
ATOM     74  F   UNL A   1      48.762  27.169  27.891  1.00  0.00    -0.206 F 
ATOM     75  C   UNL A   1      50.396  26.106  29.197  1.00  0.00     0.040 A 
ATOM     76  C   UNL A   1      49.843  25.294  31.395  1.00  0.00     0.040 A 
ATOM     77  F   UNL A   1      47.661  25.533  32.221  1.00  0.00    -0.206 F 
ATOM     78  C   UNL A   1      50.779  25.472  30.378  1.00  0.00     0.006 A 
ENDBRANCH  57  71
BRANCH  58  79
ATOM     79  C   UNL A   1      38.608  29.233  29.102  1.00  0.00     0.057 A 
ATOM     80  C   UNL A   1      38.074  29.674  27.885  1.00  0.00     0.134 A 
ATOM     81  C   UNL A   1      37.754  29.209  30.210  1.00  0.00     0.134 A 
ATOM     82  F   UNL A   1      38.849  29.737  26.792  1.00  0.00    -0.206 F 
ATOM     83  C   UNL A   1      36.746  30.090  27.778  1.00  0.00     0.040 A 
ATOM     84  C   UNL A   1      36.418  29.600  30.112  1.00  0.00     0.040 A 
ATOM     85  F   UNL A   1      38.202  28.790  31.403  1.00  0.00    -0.206 F 
ATOM     86  C   UNL A   1      35.912  30.049  28.894  1.00  0.00     0.006 A 
ENDBRANCH  58  79
BRANCH  70  87
ATOM     87  C   UNL A   1      44.347  32.327  31.554  1.00  0.00     0.057 A 
ATOM     88  C   UNL A   1      44.288  32.566  32.932  1.00  0.00     0.134 A 
ATOM     89  C   UNL A   1      44.716  33.396  30.726  1.00  0.00     0.134 A 
ATOM     90  F   UNL A   1      43.929  31.588  33.777  1.00  0.00    -0.206 F 
ATOM     91  C   UNL A   1      44.575  33.824  33.466  1.00  0.00     0.040 A 
ATOM     92  C   UNL A   1      45.028  34.651  31.250  1.00  0.00     0.040 A 
ATOM     93  F   UNL A   1      44.798  33.230  29.397  1.00  0.00    -0.206 F 
ATOM     94  C   UNL A   1      44.955  34.868  32.624  1.00  0.00     0.006 A 
ENDBRANCH  70  87
ENDBRANCH  44  45
ENDBRANCH  36  39
ENDBRANCH  34  35
ENDBRANCH  33  34
ENDBRANCH   1  33
TORSDOF 15
ENDMDL
