MODEL 1
REMARK VINA RESULT:     -11.6      0.000      0.000
REMARK SMILES O=C(CC1(NC(=O)c2csc(-c3ccsc3)n2)CCC1)NCCCNC(=O)c1ccc(-c2c3nc(c(-c4c(F)cccc4F)c4ccc([nH]4)c(-c4c(F)cccc4F)c4nc(c(-c5c(F)cccc5F)c5ccc2[nH]5)C=C4)C=C3)cc1
REMARK SMILES IDX 22 1 21 2 1 3 2 4 3 6 4 7 18 8 20 9 19 10 5 11 6 12 7 14
REMARK SMILES IDX 8 15 9 16 17 17 10 18 11 19 12 20 13 21 16 22 14 23 15 24
REMARK SMILES IDX 23 25 24 26 25 27 26 28 27 30 28 31 29 32 81 33 30 34 80 35
REMARK SMILES IDX 31 36 32 37 33 38 74 39 34 40 79 41 73 42 75 43 35 44 78 45
REMARK SMILES IDX 72 46 71 47 36 49 62 50 45 51 61 52 46 53 49 54 60 55 76 56
REMARK SMILES IDX 47 57 48 58 59 60 77 61 50 62 37 63 38 64 43 65 39 66 40 67
REMARK SMILES IDX 42 68 44 69 41 70 63 71 64 72 69 73 65 74 66 75 68 76 70 77
REMARK SMILES IDX 67 78 51 79 52 80 57 81 53 82 54 83 56 84 58 85 55 86
REMARK H PARENT 21 5 5 13 25 29 75 48 49 59
REMARK Flexibility Score: inf
ROOT
ATOM      1  C   UNL A   1      31.435  30.835  25.741  1.00  0.00     0.117 C 
ENDROOT
BRANCH   1   2
ATOM      2  N   UNL A   1      31.915  29.573  26.260  1.00  0.00    -0.356 N 
ATOM      3  O   UNL A   1      33.281  29.286  24.485  1.00  0.00    -0.275 OA
ATOM      4  C   UNL A   1      32.818  28.845  25.530  1.00  0.00     0.222 C 
ATOM      5  H   UNL A   1      31.596  29.240  27.129  1.00  0.00     0.163 HD
BRANCH   4   6
ATOM      6  C   UNL A   1      33.152  27.488  26.099  1.00  0.00     0.128 C 
BRANCH   6   7
ATOM      7  C   UNL A   1      32.396  26.309  25.499  1.00  0.00     0.049 C 
ATOM      8  C   UNL A   1      32.978  24.983  26.101  1.00  0.00     0.029 C 
ATOM      9  C   UNL A   1      31.048  25.939  26.186  1.00  0.00     0.029 C 
ATOM     10  C   UNL A   1      31.555  24.501  26.390  1.00  0.00     0.005 C 
BRANCH   7  11
ATOM     11  N   UNL A   1      32.284  26.224  24.020  1.00  0.00    -0.345 N 
ATOM     12  C   UNL A   1      31.361  26.602  23.062  1.00  0.00     0.271 C 
ATOM     13  H   UNL A   1      33.069  25.786  23.618  1.00  0.00     0.164 HD
ATOM     14  O   UNL A   1      31.627  26.259  21.905  1.00  0.00    -0.267 OA
BRANCH  12  15
ATOM     15  C   UNL A   1      30.203  27.455  23.344  1.00  0.00     0.139 A 
ATOM     16  C   UNL A   1      28.938  26.903  23.502  1.00  0.00     0.101 A 
ATOM     17  N   UNL A   1      30.212  28.845  23.413  1.00  0.00    -0.231 NA
ATOM     18  S   UNL A   1      27.742  28.116  23.326  1.00  0.00    -0.122 S 
ATOM     19  C   UNL A   1      28.991  29.277  23.141  1.00  0.00     0.125 A 
BRANCH  19  20
ATOM     20  C   UNL A   1      28.780  30.622  22.500  1.00  0.00     0.021 A 
ATOM     21  C   UNL A   1      28.789  31.870  23.202  1.00  0.00     0.023 A 
ATOM     22  C   UNL A   1      28.382  30.774  21.190  1.00  0.00     0.076 A 
ATOM     23  C   UNL A   1      28.353  32.911  22.413  1.00  0.00     0.065 A 
ATOM     24  S   UNL A   1      28.027  32.406  20.811  1.00  0.00    -0.152 S 
ENDBRANCH  19  20
ENDBRANCH  12  15
ENDBRANCH   7  11
ENDBRANCH   6   7
ENDBRANCH   4   6
ENDBRANCH   1   2
BRANCH   1  25
ATOM     25  C   UNL A   1      31.380  31.899  26.833  1.00  0.00     0.042 C 
BRANCH  25  26
ATOM     26  C   UNL A   1      32.717  32.592  27.061  1.00  0.00     0.118 C 
BRANCH  26  27
ATOM     27  N   UNL A   1      32.555  33.933  27.606  1.00  0.00    -0.352 N 
ATOM     28  C   UNL A   1      33.187  34.524  28.664  1.00  0.00     0.251 C 
ATOM     29  H   UNL A   1      31.892  34.497  27.145  1.00  0.00     0.163 HD
ATOM     30  O   UNL A   1      32.778  35.589  29.112  1.00  0.00    -0.269 OA
BRANCH  28  31
ATOM     31  C   UNL A   1      34.365  33.868  29.255  1.00  0.00     0.039 A 
ATOM     32  C   UNL A   1      35.633  34.223  28.794  1.00  0.00     0.014 A 
ATOM     33  C   UNL A   1      34.208  32.889  30.241  1.00  0.00     0.014 A 
ATOM     34  C   UNL A   1      36.753  33.601  29.338  1.00  0.00     0.010 A 
ATOM     35  C   UNL A   1      35.328  32.331  30.839  1.00  0.00     0.010 A 
ATOM     36  C   UNL A   1      36.606  32.656  30.367  1.00  0.00    -0.014 A 
BRANCH  36  37
ATOM     37  C   UNL A   1      37.786  31.947  30.907  1.00  0.00     0.031 A 
ATOM     38  C   UNL A   1      38.267  32.256  32.296  1.00  0.00     0.074 A 
ATOM     39  C   UNL A   1      38.427  31.046  30.140  1.00  0.00     0.049 A 
ATOM     40  N   UNL A   1      39.267  31.736  32.960  1.00  0.00    -0.248 NA
ATOM     41  C   UNL A   1      37.549  33.314  33.027  1.00  0.00     0.031 C 
ATOM     42  C   UNL A   1      38.083  30.715  28.756  1.00  0.00     0.029 A 
ATOM     43  N   UNL A   1      39.499  30.241  30.420  1.00  0.00    -0.354 N 
ATOM     44  C   UNL A   1      39.302  32.411  34.174  1.00  0.00     0.074 A 
ATOM     45  C   UNL A   1      38.272  33.422  34.131  1.00  0.00     0.031 C 
ATOM     46  C   UNL A   1      38.905  29.744  28.321  1.00  0.00     0.029 A 
ATOM     47  C   UNL A   1      39.842  29.405  29.387  1.00  0.00     0.049 A 
ATOM     48  H   UNL A   1      39.977  30.259  31.282  1.00  0.00     0.167 HD
ATOM     49  C   UNL A   1      40.102  32.185  35.243  1.00  0.00     0.037 A 
ATOM     50  C   UNL A   1      40.796  28.460  29.321  1.00  0.00     0.037 A 
ATOM     51  C   UNL A   1      41.102  31.152  35.287  1.00  0.00     0.049 A 
ATOM     52  C   UNL A   1      41.642  28.196  30.536  1.00  0.00     0.074 A 
ATOM     53  C   UNL A   1      41.937  30.801  36.333  1.00  0.00     0.029 A 
ATOM     54  N   UNL A   1      41.396  30.299  34.234  1.00  0.00    -0.354 N 
ATOM     55  N   UNL A   1      41.621  28.793  31.703  1.00  0.00    -0.248 NA
ATOM     56  C   UNL A   1      42.627  27.114  30.429  1.00  0.00     0.031 C 
ATOM     57  C   UNL A   1      42.757  29.752  35.901  1.00  0.00     0.029 A 
ATOM     58  C   UNL A   1      42.402  29.423  34.602  1.00  0.00     0.049 A 
ATOM     59  H   UNL A   1      40.953  30.313  33.355  1.00  0.00     0.167 HD
ATOM     60  C   UNL A   1      42.566  28.138  32.482  1.00  0.00     0.074 A 
ATOM     61  C   UNL A   1      43.129  27.089  31.656  1.00  0.00     0.031 C 
ATOM     62  C   UNL A   1      42.937  28.381  33.763  1.00  0.00     0.037 A 
BRANCH  49  63
ATOM     63  C   UNL A   1      39.911  33.064  36.444  1.00  0.00     0.057 A 
ATOM     64  C   UNL A   1      40.646  34.245  36.619  1.00  0.00     0.134 A 
ATOM     65  C   UNL A   1      38.981  32.731  37.435  1.00  0.00     0.134 A 
ATOM     66  F   UNL A   1      41.568  34.613  35.716  1.00  0.00    -0.206 F 
ATOM     67  C   UNL A   1      40.484  35.047  37.750  1.00  0.00     0.040 A 
ATOM     68  C   UNL A   1      38.788  33.540  38.558  1.00  0.00     0.040 A 
ATOM     69  F   UNL A   1      38.243  31.616  37.331  1.00  0.00    -0.206 F 
ATOM     70  C   UNL A   1      39.547  34.697  38.721  1.00  0.00     0.006 A 
ENDBRANCH  49  63
BRANCH  50  71
ATOM     71  C   UNL A   1      40.960  27.654  28.085  1.00  0.00     0.057 A 
ATOM     72  C   UNL A   1      40.310  26.423  27.936  1.00  0.00     0.134 A 
ATOM     73  C   UNL A   1      41.766  28.091  27.029  1.00  0.00     0.134 A 
ATOM     74  F   UNL A   1      39.533  25.946  28.920  1.00  0.00    -0.206 F 
ATOM     75  C   UNL A   1      40.475  25.642  26.791  1.00  0.00     0.040 A 
ATOM     76  C   UNL A   1      41.921  27.332  25.868  1.00  0.00     0.040 A 
ATOM     77  F   UNL A   1      42.404  29.267  27.105  1.00  0.00    -0.206 F 
ATOM     78  C   UNL A   1      41.281  26.099  25.750  1.00  0.00     0.006 A 
ENDBRANCH  50  71
BRANCH  62  79
ATOM     79  C   UNL A   1      43.967  27.465  34.356  1.00  0.00     0.057 A 
ATOM     80  C   UNL A   1      45.334  27.758  34.308  1.00  0.00     0.134 A 
ATOM     81  C   UNL A   1      43.577  26.282  34.998  1.00  0.00     0.134 A 
ATOM     82  F   UNL A   1      45.771  28.870  33.698  1.00  0.00    -0.206 F 
ATOM     83  C   UNL A   1      46.283  26.889  34.848  1.00  0.00     0.040 A 
ATOM     84  C   UNL A   1      44.514  25.420  35.565  1.00  0.00     0.040 A 
ATOM     85  F   UNL A   1      42.280  25.949  35.087  1.00  0.00    -0.206 F 
ATOM     86  C   UNL A   1      45.874  25.719  35.484  1.00  0.00     0.006 A 
ENDBRANCH  62  79
ENDBRANCH  36  37
ENDBRANCH  28  31
ENDBRANCH  26  27
ENDBRANCH  25  26
ENDBRANCH   1  25
TORSDOF 14
ENDMDL
MODEL 2
REMARK VINA RESULT:     -11.6      5.324     10.076
REMARK SMILES O=C(CC1(NC(=O)c2csc(-c3ccsc3)n2)CCC1)NCCCNC(=O)c1ccc(-c2c3nc(c(-c4c(F)cccc4F)c4ccc([nH]4)c(-c4c(F)cccc4F)c4nc(c(-c5c(F)cccc5F)c5ccc2[nH]5)C=C4)C=C3)cc1
REMARK SMILES IDX 22 1 21 2 1 3 2 4 3 6 4 7 18 8 20 9 19 10 5 11 6 12 7 14
REMARK SMILES IDX 8 15 9 16 17 17 10 18 11 19 12 20 13 21 16 22 14 23 15 24
REMARK SMILES IDX 23 25 24 26 25 27 26 28 27 30 28 31 29 32 81 33 30 34 80 35
REMARK SMILES IDX 31 36 32 37 33 38 74 39 34 40 79 41 73 42 75 43 35 44 78 45
REMARK SMILES IDX 72 46 71 47 36 49 62 50 45 51 61 52 46 53 49 54 60 55 76 56
REMARK SMILES IDX 47 57 48 58 59 60 77 61 50 62 37 63 38 64 43 65 39 66 40 67
REMARK SMILES IDX 42 68 44 69 41 70 63 71 64 72 69 73 65 74 66 75 68 76 70 77
REMARK SMILES IDX 67 78 51 79 52 80 57 81 53 82 54 83 56 84 58 85 55 86
REMARK H PARENT 21 5 5 13 25 29 75 48 49 59
REMARK Flexibility Score: inf
ROOT
ATOM      1  C   UNL A   1      37.305  20.595  24.627  1.00  0.00     0.117 C 
ENDROOT
BRANCH   1   2
ATOM      2  N   UNL A   1      36.060  20.541  25.362  1.00  0.00    -0.356 N 
ATOM      3  O   UNL A   1      35.942  22.795  25.458  1.00  0.00    -0.275 OA
ATOM      4  C   UNL A   1      35.470  21.708  25.773  1.00  0.00     0.222 C 
ATOM      5  H   UNL A   1      35.640  19.675  25.566  1.00  0.00     0.163 HD
BRANCH   4   6
ATOM      6  C   UNL A   1      34.249  21.534  26.641  1.00  0.00     0.128 C 
BRANCH   6   7
ATOM      7  C   UNL A   1      32.927  21.356  25.906  1.00  0.00     0.049 C 
ATOM      8  C   UNL A   1      33.121  21.796  24.413  1.00  0.00     0.029 C 
ATOM      9  C   UNL A   1      32.632  19.924  25.364  1.00  0.00     0.029 C 
ATOM     10  C   UNL A   1      32.439  20.506  23.953  1.00  0.00     0.005 C 
BRANCH   7  11
ATOM     11  N   UNL A   1      31.706  21.967  26.492  1.00  0.00    -0.345 N 
ATOM     12  C   UNL A   1      31.167  23.237  26.582  1.00  0.00     0.271 C 
ATOM     13  H   UNL A   1      31.134  21.296  26.928  1.00  0.00     0.164 HD
ATOM     14  O   UNL A   1      30.131  23.328  27.251  1.00  0.00    -0.267 OA
BRANCH  12  15
ATOM     15  C   UNL A   1      31.688  24.394  25.849  1.00  0.00     0.139 A 
ATOM     16  C   UNL A   1      32.885  24.990  26.224  1.00  0.00     0.101 A 
ATOM     17  N   UNL A   1      31.055  25.044  24.794  1.00  0.00    -0.231 NA
ATOM     18  S   UNL A   1      32.998  26.559  25.547  1.00  0.00    -0.122 S 
ATOM     19  C   UNL A   1      31.503  26.288  24.749  1.00  0.00     0.125 A 
BRANCH  19  20
ATOM     20  C   UNL A   1      30.631  27.399  24.231  1.00  0.00     0.021 A 
ATOM     21  C   UNL A   1      29.415  27.205  23.500  1.00  0.00     0.023 A 
ATOM     22  C   UNL A   1      31.008  28.724  24.257  1.00  0.00     0.076 A 
ATOM     23  C   UNL A   1      28.942  28.382  22.961  1.00  0.00     0.065 A 
ATOM     24  S   UNL A   1      29.903  29.724  23.412  1.00  0.00    -0.152 S 
ENDBRANCH  19  20
ENDBRANCH  12  15
ENDBRANCH   7  11
ENDBRANCH   6   7
ENDBRANCH   4   6
ENDBRANCH   1   2
BRANCH   1  25
ATOM     25  C   UNL A   1      38.219  19.431  25.000  1.00  0.00     0.042 C 
BRANCH  25  26
ATOM     26  C   UNL A   1      39.296  19.816  26.007  1.00  0.00     0.118 C 
BRANCH  26  27
ATOM     27  N   UNL A   1      40.435  18.910  25.965  1.00  0.00    -0.352 N 
ATOM     28  C   UNL A   1      41.772  19.191  26.010  1.00  0.00     0.251 C 
ATOM     29  H   UNL A   1      40.210  17.954  25.892  1.00  0.00     0.163 HD
ATOM     30  O   UNL A   1      42.596  18.321  25.755  1.00  0.00    -0.269 OA
BRANCH  28  31
ATOM     31  C   UNL A   1      42.209  20.549  26.373  1.00  0.00     0.039 A 
ATOM     32  C   UNL A   1      42.285  20.892  27.723  1.00  0.00     0.014 A 
ATOM     33  C   UNL A   1      42.514  21.483  25.377  1.00  0.00     0.014 A 
ATOM     34  C   UNL A   1      42.685  22.177  28.077  1.00  0.00     0.010 A 
ATOM     35  C   UNL A   1      42.992  22.736  25.733  1.00  0.00     0.010 A 
ATOM     36  C   UNL A   1      43.046  23.104  27.084  1.00  0.00    -0.014 A 
BRANCH  36  37
ATOM     37  C   UNL A   1      43.413  24.488  27.449  1.00  0.00     0.031 A 
ATOM     38  C   UNL A   1      44.846  24.928  27.346  1.00  0.00     0.074 A 
ATOM     39  C   UNL A   1      42.462  25.333  27.888  1.00  0.00     0.049 A 
ATOM     40  N   UNL A   1      45.372  26.099  27.600  1.00  0.00    -0.248 NA
ATOM     41  C   UNL A   1      45.826  23.909  26.933  1.00  0.00     0.031 C 
ATOM     42  C   UNL A   1      41.052  24.992  28.086  1.00  0.00     0.029 A 
ATOM     43  N   UNL A   1      42.540  26.654  28.241  1.00  0.00    -0.354 N 
ATOM     44  C   UNL A   1      46.738  25.950  27.390  1.00  0.00     0.074 A 
ATOM     45  C   UNL A   1      46.970  24.564  27.055  1.00  0.00     0.031 C 
ATOM     46  C   UNL A   1      40.389  26.090  28.488  1.00  0.00     0.029 A 
ATOM     47  C   UNL A   1      41.331  27.199  28.594  1.00  0.00     0.049 A 
ATOM     48  H   UNL A   1      43.383  27.165  28.240  1.00  0.00     0.167 HD
ATOM     49  C   UNL A   1      47.707  26.893  27.439  1.00  0.00     0.037 A 
ATOM     50  C   UNL A   1      41.021  28.459  28.948  1.00  0.00     0.037 A 
ATOM     51  C   UNL A   1      47.459  28.278  27.740  1.00  0.00     0.049 A 
ATOM     52  C   UNL A   1      42.108  29.499  28.951  1.00  0.00     0.074 A 
ATOM     53  C   UNL A   1      48.357  29.330  27.771  1.00  0.00     0.029 A 
ATOM     54  N   UNL A   1      46.215  28.801  28.056  1.00  0.00    -0.354 N 
ATOM     55  N   UNL A   1      43.383  29.362  28.683  1.00  0.00    -0.248 NA
ATOM     56  C   UNL A   1      41.705  30.870  29.285  1.00  0.00     0.031 C 
ATOM     57  C   UNL A   1      47.658  30.487  28.135  1.00  0.00     0.029 A 
ATOM     58  C   UNL A   1      46.319  30.162  28.288  1.00  0.00     0.049 A 
ATOM     59  H   UNL A   1      45.380  28.282  28.106  1.00  0.00     0.167 HD
ATOM     60  C   UNL A   1      43.932  30.635  28.784  1.00  0.00     0.074 A 
ATOM     61  C   UNL A   1      42.842  31.530  29.122  1.00  0.00     0.031 C 
ATOM     62  C   UNL A   1      45.217  31.030  28.613  1.00  0.00     0.037 A 
BRANCH  49  63
ATOM     63  C   UNL A   1      49.112  26.453  27.149  1.00  0.00     0.057 A 
ATOM     64  C   UNL A   1      49.612  26.392  25.840  1.00  0.00     0.134 A 
ATOM     65  C   UNL A   1      49.978  26.089  28.187  1.00  0.00     0.134 A 
ATOM     66  F   UNL A   1      48.828  26.709  24.798  1.00  0.00    -0.206 F 
ATOM     67  C   UNL A   1      50.911  25.957  25.573  1.00  0.00     0.040 A 
ATOM     68  C   UNL A   1      51.290  25.680  27.934  1.00  0.00     0.040 A 
ATOM     69  F   UNL A   1      49.566  26.125  29.462  1.00  0.00    -0.206 F 
ATOM     70  C   UNL A   1      51.756  25.606  26.623  1.00  0.00     0.006 A 
ENDBRANCH  49  63
BRANCH  50  71
ATOM     71  C   UNL A   1      39.617  28.819  29.264  1.00  0.00     0.057 A 
ATOM     72  C   UNL A   1      38.746  29.275  28.266  1.00  0.00     0.134 A 
ATOM     73  C   UNL A   1      39.111  28.718  30.564  1.00  0.00     0.134 A 
ATOM     74  F   UNL A   1      39.177  29.404  27.003  1.00  0.00    -0.206 F 
ATOM     75  C   UNL A   1      37.431  29.642  28.555  1.00  0.00     0.040 A 
ATOM     76  C   UNL A   1      37.791  29.058  30.863  1.00  0.00     0.040 A 
ATOM     77  F   UNL A   1      39.890  28.275  31.562  1.00  0.00    -0.206 F 
ATOM     78  C   UNL A   1      36.949  29.529  29.857  1.00  0.00     0.006 A 
ENDBRANCH  50  71
BRANCH  62  79
ATOM     79  C   UNL A   1      45.498  32.498  28.746  1.00  0.00     0.057 A 
ATOM     80  C   UNL A   1      45.399  33.373  27.658  1.00  0.00     0.134 A 
ATOM     81  C   UNL A   1      45.855  33.041  29.987  1.00  0.00     0.134 A 
ATOM     82  F   UNL A   1      45.072  32.912  26.441  1.00  0.00    -0.206 F 
ATOM     83  C   UNL A   1      45.680  34.733  27.791  1.00  0.00     0.040 A 
ATOM     84  C   UNL A   1      46.111  34.403  30.138  1.00  0.00     0.040 A 
ATOM     85  F   UNL A   1      45.957  32.257  31.071  1.00  0.00    -0.206 F 
ATOM     86  C   UNL A   1      46.032  35.253  29.035  1.00  0.00     0.006 A 
ENDBRANCH  62  79
ENDBRANCH  36  37
ENDBRANCH  28  31
ENDBRANCH  26  27
ENDBRANCH  25  26
ENDBRANCH   1  25
TORSDOF 14
ENDMDL
MODEL 3
REMARK VINA RESULT:     -11.5      4.531      9.189
REMARK SMILES O=C(CC1(NC(=O)c2csc(-c3ccsc3)n2)CCC1)NCCCNC(=O)c1ccc(-c2c3nc(c(-c4c(F)cccc4F)c4ccc([nH]4)c(-c4c(F)cccc4F)c4nc(c(-c5c(F)cccc5F)c5ccc2[nH]5)C=C4)C=C3)cc1
REMARK SMILES IDX 22 1 21 2 1 3 2 4 3 6 4 7 18 8 20 9 19 10 5 11 6 12 7 14
REMARK SMILES IDX 8 15 9 16 17 17 10 18 11 19 12 20 13 21 16 22 14 23 15 24
REMARK SMILES IDX 23 25 24 26 25 27 26 28 27 30 28 31 29 32 81 33 30 34 80 35
REMARK SMILES IDX 31 36 32 37 33 38 74 39 34 40 79 41 73 42 75 43 35 44 78 45
REMARK SMILES IDX 72 46 71 47 36 49 62 50 45 51 61 52 46 53 49 54 60 55 76 56
REMARK SMILES IDX 47 57 48 58 59 60 77 61 50 62 37 63 38 64 43 65 39 66 40 67
REMARK SMILES IDX 42 68 44 69 41 70 63 71 64 72 69 73 65 74 66 75 68 76 70 77
REMARK SMILES IDX 67 78 51 79 52 80 57 81 53 82 54 83 56 84 58 85 55 86
REMARK H PARENT 21 5 5 13 25 29 75 48 49 59
REMARK Flexibility Score: inf
ROOT
ATOM      1  C   UNL A   1      38.111  21.662  25.285  1.00  0.00     0.117 C 
ENDROOT
BRANCH   1   2
ATOM      2  N   UNL A   1      36.924  21.940  24.505  1.00  0.00    -0.356 N 
ATOM      3  O   UNL A   1      35.928  22.957  26.259  1.00  0.00    -0.275 OA
ATOM      4  C   UNL A   1      35.858  22.564  25.101  1.00  0.00     0.222 C 
ATOM      5  H   UNL A   1      36.882  21.684  23.556  1.00  0.00     0.163 HD
BRANCH   4   6
ATOM      6  C   UNL A   1      34.627  22.687  24.237  1.00  0.00     0.128 C 
BRANCH   6   7
ATOM      7  C   UNL A   1      33.399  21.924  24.715  1.00  0.00     0.049 C 
ATOM      8  C   UNL A   1      32.472  21.645  23.481  1.00  0.00     0.029 C 
ATOM      9  C   UNL A   1      33.560  20.379  24.845  1.00  0.00     0.029 C 
ATOM     10  C   UNL A   1      32.352  20.182  23.913  1.00  0.00     0.005 C 
BRANCH   7  11
ATOM     11  N   UNL A   1      32.623  22.479  25.854  1.00  0.00    -0.345 N 
ATOM     12  C   UNL A   1      32.286  23.737  26.317  1.00  0.00     0.271 C 
ATOM     13  H   UNL A   1      32.254  21.768  26.426  1.00  0.00     0.164 HD
ATOM     14  O   UNL A   1      31.670  23.761  27.388  1.00  0.00    -0.267 OA
BRANCH  12  15
ATOM     15  C   UNL A   1      32.516  24.970  25.558  1.00  0.00     0.139 A 
ATOM     16  C   UNL A   1      33.597  25.791  25.853  1.00  0.00     0.101 A 
ATOM     17  N   UNL A   1      31.694  25.477  24.557  1.00  0.00    -0.231 NA
ATOM     18  S   UNL A   1      33.351  27.348  25.182  1.00  0.00    -0.122 S 
ATOM     19  C   UNL A   1      31.885  26.784  24.491  1.00  0.00     0.125 A 
BRANCH  19  20
ATOM     20  C   UNL A   1      30.777  27.699  24.045  1.00  0.00     0.021 A 
ATOM     21  C   UNL A   1      29.506  27.259  23.553  1.00  0.00     0.023 A 
ATOM     22  C   UNL A   1      30.938  29.059  23.901  1.00  0.00     0.076 A 
ATOM     23  C   UNL A   1      28.774  28.293  23.012  1.00  0.00     0.065 A 
ATOM     24  S   UNL A   1      29.569  29.798  23.184  1.00  0.00    -0.152 S 
ENDBRANCH  19  20
ENDBRANCH  12  15
ENDBRANCH   7  11
ENDBRANCH   6   7
ENDBRANCH   4   6
ENDBRANCH   1   2
BRANCH   1  25
ATOM     25  C   UNL A   1      38.663  20.274  24.977  1.00  0.00     0.042 C 
BRANCH  25  26
ATOM     26  C   UNL A   1      39.362  19.631  26.168  1.00  0.00     0.118 C 
BRANCH  26  27
ATOM     27  N   UNL A   1      40.651  19.059  25.805  1.00  0.00    -0.352 N 
ATOM     28  C   UNL A   1      41.886  19.645  25.777  1.00  0.00     0.251 C 
ATOM     29  H   UNL A   1      40.631  18.111  25.540  1.00  0.00     0.163 HD
ATOM     30  O   UNL A   1      42.831  19.071  25.248  1.00  0.00    -0.269 OA
BRANCH  28  31
ATOM     31  C   UNL A   1      42.067  20.969  26.394  1.00  0.00     0.039 A 
ATOM     32  C   UNL A   1      42.303  22.069  25.567  1.00  0.00     0.014 A 
ATOM     33  C   UNL A   1      42.029  21.113  27.785  1.00  0.00     0.014 A 
ATOM     34  C   UNL A   1      42.487  23.323  26.140  1.00  0.00     0.010 A 
ATOM     35  C   UNL A   1      42.130  22.376  28.348  1.00  0.00     0.010 A 
ATOM     36  C   UNL A   1      42.396  23.484  27.533  1.00  0.00    -0.014 A 
BRANCH  36  37
ATOM     37  C   UNL A   1      42.651  24.802  28.153  1.00  0.00     0.031 A 
ATOM     38  C   UNL A   1      44.044  25.165  28.583  1.00  0.00     0.074 A 
ATOM     39  C   UNL A   1      41.627  25.654  28.343  1.00  0.00     0.049 A 
ATOM     40  N   UNL A   1      44.480  26.271  29.127  1.00  0.00    -0.248 NA
ATOM     41  C   UNL A   1      45.083  24.135  28.406  1.00  0.00     0.031 C 
ATOM     42  C   UNL A   1      40.226  25.380  28.020  1.00  0.00     0.029 A 
ATOM     43  N   UNL A   1      41.611  26.927  28.848  1.00  0.00    -0.354 N 
ATOM     44  C   UNL A   1      45.833  26.063  29.367  1.00  0.00     0.074 A 
ATOM     45  C   UNL A   1      46.132  24.706  28.975  1.00  0.00     0.031 C 
ATOM     46  C   UNL A   1      39.491  26.470  28.300  1.00  0.00     0.029 A 
ATOM     47  C   UNL A   1      40.366  27.505  28.838  1.00  0.00     0.049 A 
ATOM     48  H   UNL A   1      42.416  27.385  29.185  1.00  0.00     0.167 HD
ATOM     49  C   UNL A   1      46.750  26.938  29.842  1.00  0.00     0.037 A 
ATOM     50  C   UNL A   1      39.984  28.741  29.208  1.00  0.00     0.037 A 
ATOM     51  C   UNL A   1      46.447  28.298  30.197  1.00  0.00     0.049 A 
ATOM     52  C   UNL A   1      41.029  29.709  29.690  1.00  0.00     0.074 A 
ATOM     53  C   UNL A   1      47.305  29.288  30.644  1.00  0.00     0.029 A 
ATOM     54  N   UNL A   1      45.181  28.861  30.139  1.00  0.00    -0.354 N 
ATOM     55  N   UNL A   1      42.317  29.524  29.848  1.00  0.00    -0.248 NA
ATOM     56  C   UNL A   1      40.568  31.062  30.023  1.00  0.00     0.031 C 
ATOM     57  C   UNL A   1      46.551  30.442  30.883  1.00  0.00     0.029 A 
ATOM     58  C   UNL A   1      45.232  30.184  30.544  1.00  0.00     0.049 A 
ATOM     59  H   UNL A   1      44.366  28.390  29.850  1.00  0.00     0.167 HD
ATOM     60  C   UNL A   1      42.828  30.746  30.268  1.00  0.00     0.074 A 
ATOM     61  C   UNL A   1      41.709  31.666  30.323  1.00  0.00     0.031 C 
ATOM     62  C   UNL A   1      44.105  31.079  30.579  1.00  0.00     0.037 A 
BRANCH  49  63
ATOM     63  C   UNL A   1      48.160  26.446  29.988  1.00  0.00     0.057 A 
ATOM     64  C   UNL A   1      48.616  25.849  31.172  1.00  0.00     0.134 A 
ATOM     65  C   UNL A   1      49.073  26.564  28.934  1.00  0.00     0.134 A 
ATOM     66  F   UNL A   1      47.797  25.722  32.228  1.00  0.00    -0.206 F 
ATOM     67  C   UNL A   1      49.935  25.415  31.313  1.00  0.00     0.040 A 
ATOM     68  C   UNL A   1      50.389  26.108  29.052  1.00  0.00     0.040 A 
ATOM     69  F   UNL A   1      48.705  27.124  27.772  1.00  0.00    -0.206 F 
ATOM     70  C   UNL A   1      50.824  25.539  30.247  1.00  0.00     0.006 A 
ENDBRANCH  49  63
BRANCH  50  71
ATOM     71  C   UNL A   1      38.564  29.150  29.077  1.00  0.00     0.057 A 
ATOM     72  C   UNL A   1      38.055  29.613  27.858  1.00  0.00     0.134 A 
ATOM     73  C   UNL A   1      37.683  29.090  30.163  1.00  0.00     0.134 A 
ATOM     74  F   UNL A   1      38.855  29.704  26.785  1.00  0.00    -0.206 F 
ATOM     75  C   UNL A   1      36.728  30.026  27.728  1.00  0.00     0.040 A 
ATOM     76  C   UNL A   1      36.348  29.477  30.041  1.00  0.00     0.040 A 
ATOM     77  F   UNL A   1      38.105  28.643  31.354  1.00  0.00    -0.206 F 
ATOM     78  C   UNL A   1      35.869  29.954  28.822  1.00  0.00     0.006 A 
ENDBRANCH  50  71
BRANCH  62  79
ATOM     79  C   UNL A   1      44.357  32.508  30.963  1.00  0.00     0.057 A 
ATOM     80  C   UNL A   1      44.373  32.924  32.299  1.00  0.00     0.134 A 
ATOM     81  C   UNL A   1      44.607  33.472  29.978  1.00  0.00     0.134 A 
ATOM     82  F   UNL A   1      44.130  32.050  33.288  1.00  0.00    -0.206 F 
ATOM     83  C   UNL A   1      44.592  34.259  32.641  1.00  0.00     0.040 A 
ATOM     84  C   UNL A   1      44.855  34.803  30.310  1.00  0.00     0.040 A 
ATOM     85  F   UNL A   1      44.617  33.134  28.679  1.00  0.00    -0.206 F 
ATOM     86  C   UNL A   1      44.840  35.202  31.646  1.00  0.00     0.006 A 
ENDBRANCH  62  79
ENDBRANCH  36  37
ENDBRANCH  28  31
ENDBRANCH  26  27
ENDBRANCH  25  26
ENDBRANCH   1  25
TORSDOF 14
ENDMDL
