MODEL 1
REMARK VINA RESULT:     -11.6      0.000      0.000
REMARK SMILES [NH3+]C[C@@H]1CC[C@H](C(=O)N[C@@H](Cc2ccccc2)C(=O)NCCCNC(=O)c2ccc(-c3c4nc(c(-c5c(F)cccc5F)c5ccc([nH]5)c(-c5c(F)cccc5F)c5nc(c(-c6c(F)cccc6F)c6ccc3[nH]6)C=C5)C=C4)cc2)O1
REMARK SMILES IDX 21 1 20 2 18 3 19 4 10 6 9 7 7 8 8 9 6 11 3 12 4 13 81 14
REMARK SMILES IDX 5 15 2 16 1 17 11 21 12 22 13 23 17 24 14 25 16 26 15 27
REMARK SMILES IDX 22 28 23 29 24 30 25 31 26 33 27 34 28 35 80 36 29 37 79 38
REMARK SMILES IDX 30 39 31 40 32 41 73 42 33 43 78 44 72 45 74 46 34 47 77 48
REMARK SMILES IDX 71 49 70 50 35 52 61 53 44 54 60 55 45 56 48 57 59 58 75 59
REMARK SMILES IDX 46 60 47 61 58 63 76 64 49 65 36 66 37 67 42 68 38 69 39 70
REMARK SMILES IDX 41 71 43 72 40 73 62 74 63 75 68 76 64 77 65 78 67 79 69 80
REMARK SMILES IDX 66 81 50 82 51 83 56 84 52 85 53 86 55 87 57 88 54 89
REMARK H PARENT 20 5 9 10 1 18 1 19 1 20 24 32 74 51 48 62
REMARK Flexibility Score: inf
ROOT
ATOM      1  C   UNL A   1      32.135  29.568  25.693  1.00  0.00     0.117 C 
ENDROOT
BRANCH   1   2
ATOM      2  N   UNL A   1      33.210  29.717  24.749  1.00  0.00    -0.354 N 
ATOM      3  C   UNL A   1      33.533  28.783  23.806  1.00  0.00     0.242 C 
ATOM      4  O   UNL A   1      33.834  29.196  22.681  1.00  0.00    -0.273 OA
ATOM      5  H   UNL A   1      33.745  30.543  24.785  1.00  0.00     0.163 HD
BRANCH   3   6
ATOM      6  C   UNL A   1      33.407  27.262  24.076  1.00  0.00     0.175 C 
BRANCH   6   7
ATOM      7  N   UNL A   1      33.596  26.347  22.946  1.00  0.00    -0.342 N 
ATOM      8  C   UNL A   1      32.685  25.727  22.146  1.00  0.00     0.249 C 
ATOM      9  O   UNL A   1      33.131  24.912  21.331  1.00  0.00    -0.272 OA
ATOM     10  H   UNL A   1      34.536  26.146  22.732  1.00  0.00     0.164 HD
BRANCH   8  11
ATOM     11  C   UNL A   1      31.174  26.020  22.215  1.00  0.00     0.207 C 
ATOM     12  C   UNL A   1      29.853  27.900  22.624  1.00  0.00     0.174 C 
ATOM     13  C   UNL A   1      29.859  27.112  23.923  1.00  0.00     0.041 C 
ATOM     14  O   UNL A   1      30.905  27.362  21.809  1.00  0.00    -0.359 OA
ATOM     15  C   UNL A   1      30.485  25.782  23.550  1.00  0.00     0.045 C 
BRANCH  12  16
ATOM     16  C   UNL A   1      30.109  29.405  22.799  1.00  0.00     0.291 C 
BRANCH  16  17
ATOM     17  N   UNL A   1      30.901  29.947  21.685  1.00  0.00    -0.355 N 
ATOM     18  H   UNL A   1      30.545  30.869  21.433  1.00  0.00     0.344 HD
ATOM     19  H   UNL A   1      30.829  29.322  20.882  1.00  0.00     0.344 HD
ATOM     20  H   UNL A   1      31.877  30.025  21.969  1.00  0.00     0.344 HD
ENDBRANCH  16  17
ENDBRANCH  12  16
ENDBRANCH   8  11
ENDBRANCH   6   7
BRANCH   6  21
ATOM     21  C   UNL A   1      34.120  26.780  25.363  1.00  0.00     0.070 C 
BRANCH  21  22
ATOM     22  C   UNL A   1      34.055  25.309  25.707  1.00  0.00    -0.045 A 
ATOM     23  C   UNL A   1      32.847  24.752  26.155  1.00  0.00     0.004 A 
ATOM     24  C   UNL A   1      35.179  24.473  25.610  1.00  0.00     0.004 A 
ATOM     25  C   UNL A   1      32.787  23.423  26.576  1.00  0.00     0.000 A 
ATOM     26  C   UNL A   1      35.130  23.158  26.083  1.00  0.00     0.000 A 
ATOM     27  C   UNL A   1      33.936  22.637  26.573  1.00  0.00     0.000 A 
ENDBRANCH  21  22
ENDBRANCH   6  21
ENDBRANCH   3   6
ENDBRANCH   1   2
BRANCH   1  28
ATOM     28  C   UNL A   1      31.665  30.840  26.351  1.00  0.00     0.042 C 
BRANCH  28  29
ATOM     29  C   UNL A   1      32.727  31.495  27.209  1.00  0.00     0.118 C 
BRANCH  29  30
ATOM     30  N   UNL A   1      32.450  32.905  27.500  1.00  0.00    -0.352 N 
ATOM     31  C   UNL A   1      33.117  33.829  28.269  1.00  0.00     0.251 C 
ATOM     32  H   UNL A   1      31.638  33.252  27.067  1.00  0.00     0.163 HD
ATOM     33  O   UNL A   1      32.593  34.914  28.510  1.00  0.00    -0.269 OA
BRANCH  31  34
ATOM     34  C   UNL A   1      34.443  33.514  28.833  1.00  0.00     0.039 A 
ATOM     35  C   UNL A   1      34.542  32.766  30.011  1.00  0.00     0.014 A 
ATOM     36  C   UNL A   1      35.599  33.941  28.186  1.00  0.00     0.014 A 
ATOM     37  C   UNL A   1      35.798  32.361  30.470  1.00  0.00     0.010 A 
ATOM     38  C   UNL A   1      36.822  33.405  28.545  1.00  0.00     0.010 A 
ATOM     39  C   UNL A   1      36.943  32.628  29.705  1.00  0.00    -0.014 A 
BRANCH  39  40
ATOM     40  C   UNL A   1      38.301  32.171  30.093  1.00  0.00     0.031 A 
ATOM     41  C   UNL A   1      38.822  30.872  29.533  1.00  0.00     0.074 A 
ATOM     42  C   UNL A   1      39.002  32.838  31.032  1.00  0.00     0.049 A 
ATOM     43  N   UNL A   1      39.859  30.166  29.898  1.00  0.00    -0.248 NA
ATOM     44  C   UNL A   1      38.026  30.253  28.458  1.00  0.00     0.031 C 
ATOM     45  C   UNL A   1      38.583  34.075  31.693  1.00  0.00     0.029 A 
ATOM     46  N   UNL A   1      40.213  32.549  31.607  1.00  0.00    -0.354 N 
ATOM     47  C   UNL A   1      39.803  29.001  29.143  1.00  0.00     0.074 A 
ATOM     48  C   UNL A   1      38.597  29.064  28.350  1.00  0.00     0.031 C 
ATOM     49  C   UNL A   1      39.535  34.456  32.560  1.00  0.00     0.029 A 
ATOM     50  C   UNL A   1      40.605  33.465  32.553  1.00  0.00     0.049 A 
ATOM     51  H   UNL A   1      40.750  31.760  31.366  1.00  0.00     0.167 HD
ATOM     52  C   UNL A   1      40.692  27.983  29.090  1.00  0.00     0.037 A 
ATOM     53  C   UNL A   1      41.703  33.492  33.333  1.00  0.00     0.037 A 
ATOM     54  C   UNL A   1      41.929  27.968  29.823  1.00  0.00     0.049 A 
ATOM     55  C   UNL A   1      42.704  32.376  33.220  1.00  0.00     0.074 A 
ATOM     56  C   UNL A   1      42.946  27.033  29.779  1.00  0.00     0.029 A 
ATOM     57  N   UNL A   1      42.321  28.951  30.719  1.00  0.00    -0.354 N 
ATOM     58  N   UNL A   1      42.665  31.304  32.465  1.00  0.00    -0.248 NA
ATOM     59  C   UNL A   1      43.902  32.473  34.065  1.00  0.00     0.031 C 
ATOM     60  C   UNL A   1      43.944  27.436  30.672  1.00  0.00     0.029 A 
ATOM     61  C   UNL A   1      43.565  28.643  31.239  1.00  0.00     0.049 A 
ATOM     62  H   UNL A   1      41.793  29.748  30.950  1.00  0.00     0.167 HD
ATOM     63  C   UNL A   1      43.848  30.620  32.715  1.00  0.00     0.074 A 
ATOM     64  C   UNL A   1      44.585  31.401  33.688  1.00  0.00     0.031 C 
ATOM     65  C   UNL A   1      44.287  29.453  32.185  1.00  0.00     0.037 A 
BRANCH  52  66
ATOM     66  C   UNL A   1      40.364  26.820  28.198  1.00  0.00     0.057 A 
ATOM     67  C   UNL A   1      39.490  25.801  28.599  1.00  0.00     0.134 A 
ATOM     68  C   UNL A   1      40.924  26.722  26.917  1.00  0.00     0.134 A 
ATOM     69  F   UNL A   1      38.931  25.825  29.818  1.00  0.00    -0.206 F 
ATOM     70  C   UNL A   1      39.214  24.708  27.775  1.00  0.00     0.040 A 
ATOM     71  C   UNL A   1      40.629  25.651  26.073  1.00  0.00     0.040 A 
ATOM     72  F   UNL A   1      41.766  27.664  26.467  1.00  0.00    -0.206 F 
ATOM     73  C   UNL A   1      39.779  24.634  26.505  1.00  0.00     0.006 A 
ENDBRANCH  52  66
BRANCH  53  74
ATOM     74  C   UNL A   1      41.934  34.632  34.256  1.00  0.00     0.057 A 
ATOM     75  C   UNL A   1      41.554  34.551  35.601  1.00  0.00     0.134 A 
ATOM     76  C   UNL A   1      42.531  35.822  33.827  1.00  0.00     0.134 A 
ATOM     77  F   UNL A   1      40.962  33.441  36.069  1.00  0.00    -0.206 F 
ATOM     78  C   UNL A   1      41.739  35.618  36.482  1.00  0.00     0.040 A 
ATOM     79  C   UNL A   1      42.744  36.889  34.702  1.00  0.00     0.040 A 
ATOM     80  F   UNL A   1      42.928  35.960  32.553  1.00  0.00    -0.206 F 
ATOM     81  C   UNL A   1      42.341  36.791  36.032  1.00  0.00     0.006 A 
ENDBRANCH  53  74
BRANCH  65  82
ATOM     82  C   UNL A   1      45.648  28.979  32.598  1.00  0.00     0.057 A 
ATOM     83  C   UNL A   1      45.834  28.110  33.679  1.00  0.00     0.134 A 
ATOM     84  C   UNL A   1      46.779  29.350  31.859  1.00  0.00     0.134 A 
ATOM     85  F   UNL A   1      44.790  27.729  34.432  1.00  0.00    -0.206 F 
ATOM     86  C   UNL A   1      47.101  27.639  34.023  1.00  0.00     0.040 A 
ATOM     87  C   UNL A   1      48.048  28.866  32.177  1.00  0.00     0.040 A 
ATOM     88  F   UNL A   1      46.665  30.172  30.806  1.00  0.00    -0.206 F 
ATOM     89  C   UNL A   1      48.211  28.011  33.265  1.00  0.00     0.006 A 
ENDBRANCH  65  82
ENDBRANCH  39  40
ENDBRANCH  31  34
ENDBRANCH  29  30
ENDBRANCH  28  29
ENDBRANCH   1  28
TORSDOF 16
ENDMDL
MODEL 2
REMARK VINA RESULT:     -11.4      3.698      8.591
REMARK SMILES [NH3+]C[C@@H]1CC[C@H](C(=O)N[C@@H](Cc2ccccc2)C(=O)NCCCNC(=O)c2ccc(-c3c4nc(c(-c5c(F)cccc5F)c5ccc([nH]5)c(-c5c(F)cccc5F)c5nc(c(-c6c(F)cccc6F)c6ccc3[nH]6)C=C5)C=C4)cc2)O1
REMARK SMILES IDX 21 1 20 2 18 3 19 4 10 6 9 7 7 8 8 9 6 11 3 12 4 13 81 14
REMARK SMILES IDX 5 15 2 16 1 17 11 21 12 22 13 23 17 24 14 25 16 26 15 27
REMARK SMILES IDX 22 28 23 29 24 30 25 31 26 33 27 34 28 35 80 36 29 37 79 38
REMARK SMILES IDX 30 39 31 40 32 41 73 42 33 43 78 44 72 45 74 46 34 47 77 48
REMARK SMILES IDX 71 49 70 50 35 52 61 53 44 54 60 55 45 56 48 57 59 58 75 59
REMARK SMILES IDX 46 60 47 61 58 63 76 64 49 65 36 66 37 67 42 68 38 69 39 70
REMARK SMILES IDX 41 71 43 72 40 73 62 74 63 75 68 76 64 77 65 78 67 79 69 80
REMARK SMILES IDX 66 81 50 82 51 83 56 84 52 85 53 86 55 87 57 88 54 89
REMARK H PARENT 20 5 9 10 1 18 1 19 1 20 24 32 74 51 48 62
REMARK Flexibility Score: inf
ROOT
ATOM      1  C   UNL A   1      36.130  21.445  25.106  1.00  0.00     0.117 C 
ENDROOT
BRANCH   1   2
ATOM      2  N   UNL A   1      35.775  21.533  26.497  1.00  0.00    -0.354 N 
ATOM      3  C   UNL A   1      34.592  22.040  26.954  1.00  0.00     0.242 C 
ATOM      4  O   UNL A   1      34.048  21.449  27.892  1.00  0.00    -0.273 OA
ATOM      5  H   UNL A   1      36.425  21.205  27.161  1.00  0.00     0.163 HD
BRANCH   3   6
ATOM      6  C   UNL A   1      33.881  23.227  26.255  1.00  0.00     0.175 C 
BRANCH   6   7
ATOM      7  N   UNL A   1      32.542  23.597  26.723  1.00  0.00    -0.342 N 
ATOM      8  C   UNL A   1      31.312  23.244  26.257  1.00  0.00     0.249 C 
ATOM      9  O   UNL A   1      30.342  23.802  26.784  1.00  0.00    -0.272 OA
ATOM     10  H   UNL A   1      32.530  24.200  27.502  1.00  0.00     0.164 HD
BRANCH   8  11
ATOM     11  C   UNL A   1      31.105  22.198  25.146  1.00  0.00     0.207 C 
ATOM     12  C   UNL A   1      32.146  20.207  24.512  1.00  0.00     0.174 C 
ATOM     13  C   UNL A   1      32.665  21.265  23.553  1.00  0.00     0.041 C 
ATOM     14  O   UNL A   1      31.513  20.905  25.595  1.00  0.00    -0.359 OA
ATOM     15  C   UNL A   1      31.777  22.468  23.809  1.00  0.00     0.045 C 
BRANCH  12  16
ATOM     16  C   UNL A   1      33.239  19.303  25.103  1.00  0.00     0.291 C 
BRANCH  16  17
ATOM     17  N   UNL A   1      32.881  18.842  26.452  1.00  0.00    -0.355 N 
ATOM     18  H   UNL A   1      32.997  17.829  26.506  1.00  0.00     0.344 HD
ATOM     19  H   UNL A   1      31.909  19.083  26.647  1.00  0.00     0.344 HD
ATOM     20  H   UNL A   1      33.488  19.290  27.137  1.00  0.00     0.344 HD
ENDBRANCH  16  17
ENDBRANCH  12  16
ENDBRANCH   8  11
ENDBRANCH   6   7
BRANCH   6  21
ATOM     21  C   UNL A   1      34.787  24.457  26.002  1.00  0.00     0.070 C 
BRANCH  21  22
ATOM     22  C   UNL A   1      34.294  25.524  25.052  1.00  0.00    -0.045 A 
ATOM     23  C   UNL A   1      34.044  26.820  25.530  1.00  0.00     0.004 A 
ATOM     24  C   UNL A   1      34.057  25.256  23.694  1.00  0.00     0.004 A 
ATOM     25  C   UNL A   1      33.492  27.793  24.696  1.00  0.00     0.000 A 
ATOM     26  C   UNL A   1      33.453  26.216  22.876  1.00  0.00     0.000 A 
ATOM     27  C   UNL A   1      33.164  27.481  23.379  1.00  0.00     0.000 A 
ENDBRANCH  21  22
ENDBRANCH   6  21
ENDBRANCH   3   6
ENDBRANCH   1   2
BRANCH   1  28
ATOM     28  C   UNL A   1      37.329  20.589  24.792  1.00  0.00     0.042 C 
BRANCH  28  29
ATOM     29  C   UNL A   1      38.540  20.925  25.639  1.00  0.00     0.118 C 
BRANCH  29  30
ATOM     30  N   UNL A   1      39.551  19.864  25.653  1.00  0.00    -0.352 N 
ATOM     31  C   UNL A   1      40.890  19.879  25.965  1.00  0.00     0.251 C 
ATOM     32  H   UNL A   1      39.209  18.980  25.391  1.00  0.00     0.163 HD
ATOM     33  O   UNL A   1      41.582  18.892  25.731  1.00  0.00    -0.269 OA
BRANCH  31  34
ATOM     34  C   UNL A   1      41.506  21.086  26.549  1.00  0.00     0.039 A 
ATOM     35  C   UNL A   1      42.042  22.071  25.714  1.00  0.00     0.014 A 
ATOM     36  C   UNL A   1      41.540  21.256  27.930  1.00  0.00     0.014 A 
ATOM     37  C   UNL A   1      42.508  23.268  26.266  1.00  0.00     0.010 A 
ATOM     38  C   UNL A   1      41.845  22.497  28.459  1.00  0.00     0.010 A 
ATOM     39  C   UNL A   1      42.356  23.512  27.639  1.00  0.00    -0.014 A 
BRANCH  39  40
ATOM     40  C   UNL A   1      42.763  24.785  28.285  1.00  0.00     0.031 A 
ATOM     41  C   UNL A   1      41.718  25.839  28.544  1.00  0.00     0.074 A 
ATOM     42  C   UNL A   1      44.065  25.045  28.516  1.00  0.00     0.049 A 
ATOM     43  N   UNL A   1      41.868  27.094  28.876  1.00  0.00    -0.248 NA
ATOM     44  C   UNL A   1      40.314  25.440  28.335  1.00  0.00     0.031 C 
ATOM     45  C   UNL A   1      45.179  24.130  28.257  1.00  0.00     0.029 A 
ATOM     46  N   UNL A   1      44.672  26.174  29.005  1.00  0.00    -0.354 N 
ATOM     47  C   UNL A   1      40.591  27.641  28.855  1.00  0.00     0.074 A 
ATOM     48  C   UNL A   1      39.689  26.603  28.415  1.00  0.00     0.031 C 
ATOM     49  C   UNL A   1      46.329  24.723  28.618  1.00  0.00     0.029 A 
ATOM     50  C   UNL A   1      46.040  26.074  29.085  1.00  0.00     0.049 A 
ATOM     51  H   UNL A   1      44.174  26.980  29.273  1.00  0.00     0.167 HD
ATOM     52  C   UNL A   1      40.199  28.889  29.203  1.00  0.00     0.037 A 
ATOM     53  C   UNL A   1      46.955  26.978  29.483  1.00  0.00     0.037 A 
ATOM     54  C   UNL A   1      41.093  29.890  29.717  1.00  0.00     0.049 A 
ATOM     55  C   UNL A   1      46.492  28.342  29.915  1.00  0.00     0.074 A 
ATOM     56  C   UNL A   1      40.795  31.155  30.184  1.00  0.00     0.029 A 
ATOM     57  N   UNL A   1      42.464  29.723  29.848  1.00  0.00    -0.354 N 
ATOM     58  N   UNL A   1      45.275  28.832  29.939  1.00  0.00    -0.248 NA
ATOM     59  C   UNL A   1      47.526  29.277  30.375  1.00  0.00     0.031 C 
ATOM     60  C   UNL A   1      41.990  31.768  30.573  1.00  0.00     0.029 A 
ATOM     61  C   UNL A   1      43.027  30.866  30.387  1.00  0.00     0.049 A 
ATOM     62  H   UNL A   1      42.962  28.912  29.596  1.00  0.00     0.167 HD
ATOM     63  C   UNL A   1      45.393  30.116  30.453  1.00  0.00     0.074 A 
ATOM     64  C   UNL A   1      46.799  30.328  30.731  1.00  0.00     0.031 C 
ATOM     65  C   UNL A   1      44.426  31.038  30.678  1.00  0.00     0.037 A 
BRANCH  52  66
ATOM     66  C   UNL A   1      38.743  29.225  29.055  1.00  0.00     0.057 A 
ATOM     67  C   UNL A   1      37.852  29.157  30.134  1.00  0.00     0.134 A 
ATOM     68  C   UNL A   1      38.225  29.631  27.818  1.00  0.00     0.134 A 
ATOM     69  F   UNL A   1      38.278  28.761  31.344  1.00  0.00    -0.206 F 
ATOM     70  C   UNL A   1      36.494  29.442  29.982  1.00  0.00     0.040 A 
ATOM     71  C   UNL A   1      36.876  29.950  27.661  1.00  0.00     0.040 A 
ATOM     72  F   UNL A   1      39.022  29.723  26.743  1.00  0.00    -0.206 F 
ATOM     73  C   UNL A   1      36.004  29.846  28.743  1.00  0.00     0.006 A 
ENDBRANCH  52  66
BRANCH  53  74
ATOM     74  C   UNL A   1      48.393  26.611  29.532  1.00  0.00     0.057 A 
ATOM     75  C   UNL A   1      49.244  26.909  28.461  1.00  0.00     0.134 A 
ATOM     76  C   UNL A   1      48.952  25.958  30.636  1.00  0.00     0.134 A 
ATOM     77  F   UNL A   1      48.763  27.520  27.367  1.00  0.00    -0.206 F 
ATOM     78  C   UNL A   1      50.593  26.552  28.474  1.00  0.00     0.040 A 
ATOM     79  C   UNL A   1      50.306  25.617  30.673  1.00  0.00     0.040 A 
ATOM     80  F   UNL A   1      48.194  25.654  31.699  1.00  0.00    -0.206 F 
ATOM     81  C   UNL A   1      51.129  25.908  29.587  1.00  0.00     0.006 A 
ENDBRANCH  53  74
BRANCH  65  82
ATOM     82  C   UNL A   1      44.843  32.334  31.307  1.00  0.00     0.057 A 
ATOM     83  C   UNL A   1      45.193  33.450  30.541  1.00  0.00     0.134 A 
ATOM     84  C   UNL A   1      44.830  32.478  32.701  1.00  0.00     0.134 A 
ATOM     85  F   UNL A   1      45.235  33.370  29.202  1.00  0.00    -0.206 F 
ATOM     86  C   UNL A   1      45.532  34.664  31.139  1.00  0.00     0.040 A 
ATOM     87  C   UNL A   1      45.143  33.693  33.309  1.00  0.00     0.040 A 
ATOM     88  F   UNL A   1      44.494  31.447  33.489  1.00  0.00    -0.206 F 
ATOM     89  C   UNL A   1      45.499  34.789  32.527  1.00  0.00     0.006 A 
ENDBRANCH  65  82
ENDBRANCH  39  40
ENDBRANCH  31  34
ENDBRANCH  29  30
ENDBRANCH  28  29
ENDBRANCH   1  28
TORSDOF 16
ENDMDL
MODEL 3
REMARK VINA RESULT:     -11.1      4.278      8.885
REMARK SMILES [NH3+]C[C@@H]1CC[C@H](C(=O)N[C@@H](Cc2ccccc2)C(=O)NCCCNC(=O)c2ccc(-c3c4nc(c(-c5c(F)cccc5F)c5ccc([nH]5)c(-c5c(F)cccc5F)c5nc(c(-c6c(F)cccc6F)c6ccc3[nH]6)C=C5)C=C4)cc2)O1
REMARK SMILES IDX 21 1 20 2 18 3 19 4 10 6 9 7 7 8 8 9 6 11 3 12 4 13 81 14
REMARK SMILES IDX 5 15 2 16 1 17 11 21 12 22 13 23 17 24 14 25 16 26 15 27
REMARK SMILES IDX 22 28 23 29 24 30 25 31 26 33 27 34 28 35 80 36 29 37 79 38
REMARK SMILES IDX 30 39 31 40 32 41 73 42 33 43 78 44 72 45 74 46 34 47 77 48
REMARK SMILES IDX 71 49 70 50 35 52 61 53 44 54 60 55 45 56 48 57 59 58 75 59
REMARK SMILES IDX 46 60 47 61 58 63 76 64 49 65 36 66 37 67 42 68 38 69 39 70
REMARK SMILES IDX 41 71 43 72 40 73 62 74 63 75 68 76 64 77 65 78 67 79 69 80
REMARK SMILES IDX 66 81 50 82 51 83 56 84 52 85 53 86 55 87 57 88 54 89
REMARK H PARENT 20 5 9 10 1 18 1 19 1 20 24 32 74 51 48 62
REMARK Flexibility Score: inf
ROOT
ATOM      1  C   UNL A   1      35.991  20.320  24.806  1.00  0.00     0.117 C 
ENDROOT
BRANCH   1   2
ATOM      2  N   UNL A   1      35.632  21.066  25.981  1.00  0.00    -0.354 N 
ATOM      3  C   UNL A   1      34.350  21.407  26.308  1.00  0.00     0.242 C 
ATOM      4  O   UNL A   1      34.027  21.318  27.497  1.00  0.00    -0.273 OA
ATOM      5  H   UNL A   1      36.355  21.348  26.588  1.00  0.00     0.163 HD
BRANCH   3   6
ATOM      6  C   UNL A   1      33.295  21.768  25.232  1.00  0.00     0.175 C 
BRANCH   6   7
ATOM      7  N   UNL A   1      33.775  22.273  23.942  1.00  0.00    -0.342 N 
ATOM      8  C   UNL A   1      33.626  23.495  23.359  1.00  0.00     0.249 C 
ATOM      9  O   UNL A   1      34.047  23.608  22.201  1.00  0.00    -0.272 OA
ATOM     10  H   UNL A   1      34.288  21.622  23.409  1.00  0.00     0.164 HD
BRANCH   8  11
ATOM     11  C   UNL A   1      32.988  24.696  24.081  1.00  0.00     0.207 C 
ATOM     12  C   UNL A   1      32.926  27.006  23.748  1.00  0.00     0.174 C 
ATOM     13  C   UNL A   1      33.962  26.775  24.837  1.00  0.00     0.041 C 
ATOM     14  O   UNL A   1      32.666  25.728  23.148  1.00  0.00    -0.359 OA
ATOM     15  C   UNL A   1      33.784  25.319  25.219  1.00  0.00     0.045 C 
BRANCH  12  16
ATOM     16  C   UNL A   1      33.381  27.967  22.639  1.00  0.00     0.291 C 
BRANCH  16  17
ATOM     17  N   UNL A   1      34.322  28.972  23.153  1.00  0.00    -0.355 N 
ATOM     18  H   UNL A   1      34.957  28.533  23.820  1.00  0.00     0.344 HD
ATOM     19  H   UNL A   1      33.802  29.716  23.619  1.00  0.00     0.344 HD
ATOM     20  H   UNL A   1      34.858  29.363  22.379  1.00  0.00     0.344 HD
ENDBRANCH  16  17
ENDBRANCH  12  16
ENDBRANCH   8  11
ENDBRANCH   6   7
BRANCH   6  21
ATOM     21  C   UNL A   1      32.155  20.730  25.080  1.00  0.00     0.070 C 
BRANCH  21  22
ATOM     22  C   UNL A   1      32.514  19.336  24.618  1.00  0.00    -0.045 A 
ATOM     23  C   UNL A   1      32.889  18.366  25.560  1.00  0.00     0.004 A 
ATOM     24  C   UNL A   1      32.504  18.979  23.260  1.00  0.00     0.004 A 
ATOM     25  C   UNL A   1      33.324  17.105  25.150  1.00  0.00     0.000 A 
ATOM     26  C   UNL A   1      32.991  17.735  22.849  1.00  0.00     0.000 A 
ATOM     27  C   UNL A   1      33.408  16.802  23.794  1.00  0.00     0.000 A 
ENDBRANCH  21  22
ENDBRANCH   6  21
ENDBRANCH   3   6
ENDBRANCH   1   2
BRANCH   1  28
ATOM     28  C   UNL A   1      37.175  19.399  24.955  1.00  0.00     0.042 C 
BRANCH  28  29
ATOM     29  C   UNL A   1      38.400  20.089  25.519  1.00  0.00     0.118 C 
BRANCH  29  30
ATOM     30  N   UNL A   1      39.561  19.204  25.642  1.00  0.00    -0.352 N 
ATOM     31  C   UNL A   1      40.863  19.446  26.010  1.00  0.00     0.251 C 
ATOM     32  H   UNL A   1      39.374  18.264  25.420  1.00  0.00     0.163 HD
ATOM     33  O   UNL A   1      41.712  18.569  25.866  1.00  0.00    -0.269 OA
BRANCH  31  34
ATOM     34  C   UNL A   1      41.254  20.764  26.545  1.00  0.00     0.039 A 
ATOM     35  C   UNL A   1      41.645  20.888  27.882  1.00  0.00     0.014 A 
ATOM     36  C   UNL A   1      41.254  21.884  25.718  1.00  0.00     0.014 A 
ATOM     37  C   UNL A   1      42.136  22.111  28.349  1.00  0.00     0.010 A 
ATOM     38  C   UNL A   1      41.890  23.040  26.131  1.00  0.00     0.010 A 
ATOM     39  C   UNL A   1      42.317  23.179  27.459  1.00  0.00    -0.014 A 
BRANCH  39  40
ATOM     40  C   UNL A   1      42.897  24.484  27.866  1.00  0.00     0.031 A 
ATOM     41  C   UNL A   1      41.971  25.588  28.309  1.00  0.00     0.074 A 
ATOM     42  C   UNL A   1      44.216  24.718  27.718  1.00  0.00     0.049 A 
ATOM     43  N   UNL A   1      42.219  26.859  28.485  1.00  0.00    -0.248 NA
ATOM     44  C   UNL A   1      40.559  25.220  28.516  1.00  0.00     0.031 C 
ATOM     45  C   UNL A   1      45.209  23.752  27.246  1.00  0.00     0.029 A 
ATOM     46  N   UNL A   1      44.943  25.861  27.933  1.00  0.00    -0.354 N 
ATOM     47  C   UNL A   1      40.989  27.444  28.762  1.00  0.00     0.074 A 
ATOM     48  C   UNL A   1      39.990  26.405  28.665  1.00  0.00     0.031 C 
ATOM     49  C   UNL A   1      46.420  24.332  27.237  1.00  0.00     0.029 A 
ATOM     50  C   UNL A   1      46.281  25.723  27.652  1.00  0.00     0.049 A 
ATOM     51  H   UNL A   1      44.545  26.701  28.257  1.00  0.00     0.167 HD
ATOM     52  C   UNL A   1      40.718  28.726  29.099  1.00  0.00     0.037 A 
ATOM     53  C   UNL A   1      47.279  26.625  27.715  1.00  0.00     0.037 A 
ATOM     54  C   UNL A   1      41.729  29.733  29.271  1.00  0.00     0.049 A 
ATOM     55  C   UNL A   1      46.964  28.032  28.143  1.00  0.00     0.074 A 
ATOM     56  C   UNL A   1      41.581  31.040  29.697  1.00  0.00     0.029 A 
ATOM     57  N   UNL A   1      43.083  29.533  29.044  1.00  0.00    -0.354 N 
ATOM     58  N   UNL A   1      45.805  28.561  28.452  1.00  0.00    -0.248 NA
ATOM     59  C   UNL A   1      48.095  28.966  28.231  1.00  0.00     0.031 C 
ATOM     60  C   UNL A   1      42.844  31.641  29.700  1.00  0.00     0.029 A 
ATOM     61  C   UNL A   1      43.782  30.695  29.317  1.00  0.00     0.049 A 
ATOM     62  H   UNL A   1      43.485  28.690  28.735  1.00  0.00     0.167 HD
ATOM     63  C   UNL A   1      46.071  29.876  28.809  1.00  0.00     0.074 A 
ATOM     64  C   UNL A   1      47.502  30.063  28.682  1.00  0.00     0.031 C 
ATOM     65  C   UNL A   1      45.210  30.844  29.209  1.00  0.00     0.037 A 
BRANCH  52  66
ATOM     66  C   UNL A   1      39.280  29.097  29.319  1.00  0.00     0.057 A 
ATOM     67  C   UNL A   1      38.676  29.011  30.581  1.00  0.00     0.134 A 
ATOM     68  C   UNL A   1      38.490  29.554  28.257  1.00  0.00     0.134 A 
ATOM     69  F   UNL A   1      39.372  28.566  31.639  1.00  0.00    -0.206 F 
ATOM     70  C   UNL A   1      37.331  29.329  30.771  1.00  0.00     0.040 A 
ATOM     71  C   UNL A   1      37.152  29.906  28.442  1.00  0.00     0.040 A 
ATOM     72  F   UNL A   1      39.003  29.665  27.023  1.00  0.00    -0.206 F 
ATOM     73  C   UNL A   1      36.566  29.784  29.701  1.00  0.00     0.006 A 
ENDBRANCH  52  66
BRANCH  53  74
ATOM     74  C   UNL A   1      48.673  26.217  27.408  1.00  0.00     0.057 A 
ATOM     75  C   UNL A   1      49.512  25.722  28.415  1.00  0.00     0.134 A 
ATOM     76  C   UNL A   1      49.204  26.309  26.117  1.00  0.00     0.134 A 
ATOM     77  F   UNL A   1      49.065  25.624  29.676  1.00  0.00    -0.206 F 
ATOM     78  C   UNL A   1      50.833  25.354  28.155  1.00  0.00     0.040 A 
ATOM     79  C   UNL A   1      50.517  25.922  25.837  1.00  0.00     0.040 A 
ATOM     80  F   UNL A   1      48.451  26.764  25.105  1.00  0.00    -0.206 F 
ATOM     81  C   UNL A   1      51.337  25.450  26.860  1.00  0.00     0.006 A 
ENDBRANCH  53  74
BRANCH  65  82
ATOM     82  C   UNL A   1      45.794  32.169  29.596  1.00  0.00     0.057 A 
ATOM     83  C   UNL A   1      45.916  33.220  28.680  1.00  0.00     0.134 A 
ATOM     84  C   UNL A   1      46.181  32.410  30.920  1.00  0.00     0.134 A 
ATOM     85  F   UNL A   1      45.573  33.046  27.394  1.00  0.00    -0.206 F 
ATOM     86  C   UNL A   1      46.417  34.463  29.066  1.00  0.00     0.040 A 
ATOM     87  C   UNL A   1      46.659  33.657  31.323  1.00  0.00     0.040 A 
ATOM     88  F   UNL A   1      46.079  31.445  31.846  1.00  0.00    -0.206 F 
ATOM     89  C   UNL A   1      46.782  34.686  30.393  1.00  0.00     0.006 A 
ENDBRANCH  65  82
ENDBRANCH  39  40
ENDBRANCH  31  34
ENDBRANCH  29  30
ENDBRANCH  28  29
ENDBRANCH   1  28
TORSDOF 16
ENDMDL
