MODEL 1
REMARK VINA RESULT:     -13.2      0.000      0.000
REMARK SMILES CS(=O)(=O)c1ccc(/C=C(/C(=O)NCCCNC(=O)c2ccc(-c3c4nc(c(-c5c(F)cccc5F)c5ccc([nH]5)c(-c5c(F)cccc5F)c5nc(c(-c6c(F)cccc6F)c6ccc3[nH]6)C=C5)C=C4)cc2)c2ccc(-c3ccc(F)cc3F)cc2)cc1
REMARK SMILES IDX 15 1 14 2 13 3 11 4 12 5 10 7 9 8 8 9 5 10 6 11 89 12 7 13
REMARK SMILES IDX 88 14 2 15 1 16 3 17 4 18 74 19 75 20 87 21 76 22 86 23
REMARK SMILES IDX 77 24 78 25 79 26 84 27 80 28 83 29 85 30 81 31 82 32 16 33
REMARK SMILES IDX 17 34 18 35 19 37 20 38 21 39 73 40 22 41 72 42 23 43 24 44
REMARK SMILES IDX 25 45 66 46 26 47 71 48 65 49 67 50 27 51 70 52 64 53 63 54
REMARK SMILES IDX 28 56 54 57 37 58 53 59 38 60 41 61 52 62 68 63 39 64 40 65
REMARK SMILES IDX 51 67 69 68 42 69 29 70 30 71 35 72 31 73 32 74 34 75 36 76
REMARK SMILES IDX 33 77 55 78 56 79 61 80 57 81 58 82 60 83 62 84 59 85 43 86
REMARK SMILES IDX 44 87 49 88 45 89 46 90 48 91 50 92 47 93
REMARK H PARENT 13 6 17 36 67 55 41 66
REMARK Flexibility Score: inf
ROOT
ATOM      1  C   UNL A   1      35.389  23.452  24.737  1.00  0.00     0.042 C 
ENDROOT
BRANCH   1   2
ATOM      2  C   UNL A   1      34.082  22.994  24.086  1.00  0.00     0.118 C 
BRANCH   2   3
ATOM      3  N   UNL A   1      33.103  22.658  25.102  1.00  0.00    -0.352 N 
ATOM      4  C   UNL A   1      32.084  23.334  25.693  1.00  0.00     0.251 C 
ATOM      5  O   UNL A   1      31.493  22.728  26.591  1.00  0.00    -0.269 OA
ATOM      6  H   UNL A   1      33.198  21.737  25.437  1.00  0.00     0.163 HD
BRANCH   4   7
ATOM      7  C   UNL A   1      31.620  24.704  25.254  1.00  0.00     0.047 C 
ATOM      8  C   UNL A   1      30.841  24.883  24.161  1.00  0.00     0.022 C 
BRANCH   8   9
ATOM      9  C   UNL A   1      30.194  26.110  23.638  1.00  0.00    -0.025 A 
ATOM     10  C   UNL A   1      28.874  28.474  22.898  1.00  0.00     0.067 A 
ATOM     11  C   UNL A   1      30.200  28.271  22.517  1.00  0.00     0.021 A 
ATOM     12  C   UNL A   1      28.184  27.498  23.613  1.00  0.00     0.021 A 
ATOM     13  C   UNL A   1      30.838  27.073  22.852  1.00  0.00     0.009 A 
ATOM     14  C   UNL A   1      28.847  26.323  23.981  1.00  0.00     0.009 A 
BRANCH  10  15
ATOM     15  S   UNL A   1      28.086  30.010  22.484  1.00  0.00     0.175 S 
ATOM     16  C   UNL A   1      29.237  31.231  23.059  1.00  0.00     0.163 C 
ATOM     17  O   UNL A   1      26.882  30.102  23.283  1.00  0.00    -0.224 OA
ATOM     18  O   UNL A   1      28.033  30.103  21.034  1.00  0.00    -0.224 OA
ENDBRANCH  10  15
ENDBRANCH   8   9
BRANCH   7  19
ATOM     19  C   UNL A   1      32.227  25.865  25.951  1.00  0.00    -0.013 A 
ATOM     20  C   UNL A   1      33.532  26.232  25.594  1.00  0.00     0.009 A 
ATOM     21  C   UNL A   1      31.526  26.673  26.850  1.00  0.00     0.009 A 
ATOM     22  C   UNL A   1      34.096  27.415  26.064  1.00  0.00     0.009 A 
ATOM     23  C   UNL A   1      32.089  27.880  27.299  1.00  0.00     0.009 A 
ATOM     24  C   UNL A   1      33.369  28.289  26.886  1.00  0.00    -0.015 A 
BRANCH  24  25
ATOM     25  C   UNL A   1      33.935  29.606  27.246  1.00  0.00     0.018 A 
ATOM     26  C   UNL A   1      35.298  29.722  27.592  1.00  0.00     0.015 A 
ATOM     27  C   UNL A   1      33.166  30.781  27.264  1.00  0.00     0.133 A 
ATOM     28  C   UNL A   1      35.853  30.949  27.961  1.00  0.00     0.040 A 
ATOM     29  C   UNL A   1      33.713  32.011  27.626  1.00  0.00     0.079 A 
ATOM     30  F   UNL A   1      31.863  30.745  26.944  1.00  0.00    -0.206 F 
ATOM     31  C   UNL A   1      35.051  32.082  27.976  1.00  0.00     0.126 A 
ATOM     32  F   UNL A   1      35.582  33.257  28.335  1.00  0.00    -0.207 F 
ENDBRANCH  24  25
ENDBRANCH   7  19
ENDBRANCH   4   7
ENDBRANCH   2   3
ENDBRANCH   1   2
BRANCH   1  33
ATOM     33  C   UNL A   1      35.688  22.751  26.063  1.00  0.00     0.118 C 
BRANCH  33  34
ATOM     34  N   UNL A   1      36.628  21.653  25.898  1.00  0.00    -0.352 N 
ATOM     35  C   UNL A   1      37.998  21.652  25.873  1.00  0.00     0.251 C 
ATOM     36  H   UNL A   1      36.213  20.768  25.785  1.00  0.00     0.163 HD
ATOM     37  O   UNL A   1      38.587  20.656  25.461  1.00  0.00    -0.269 OA
BRANCH  35  38
ATOM     38  C   UNL A   1      38.775  22.823  26.336  1.00  0.00     0.039 A 
ATOM     39  C   UNL A   1      38.491  24.073  25.778  1.00  0.00     0.014 A 
ATOM     40  C   UNL A   1      39.831  22.690  27.243  1.00  0.00     0.014 A 
ATOM     41  C   UNL A   1      39.241  25.190  26.151  1.00  0.00     0.010 A 
ATOM     42  C   UNL A   1      40.530  23.819  27.671  1.00  0.00     0.010 A 
ATOM     43  C   UNL A   1      40.255  25.077  27.116  1.00  0.00    -0.014 A 
BRANCH  43  44
ATOM     44  C   UNL A   1      41.038  26.269  27.533  1.00  0.00     0.031 A 
ATOM     45  C   UNL A   1      42.468  26.437  27.092  1.00  0.00     0.074 A 
ATOM     46  C   UNL A   1      40.470  27.184  28.344  1.00  0.00     0.049 A 
ATOM     47  N   UNL A   1      43.310  27.400  27.370  1.00  0.00    -0.248 NA
ATOM     48  C   UNL A   1      43.037  25.372  26.250  1.00  0.00     0.031 C 
ATOM     49  C   UNL A   1      39.112  27.105  28.887  1.00  0.00     0.029 A 
ATOM     50  N   UNL A   1      40.965  28.357  28.858  1.00  0.00    -0.354 N 
ATOM     51  C   UNL A   1      44.506  27.048  26.757  1.00  0.00     0.074 A 
ATOM     52  C   UNL A   1      44.298  25.763  26.128  1.00  0.00     0.031 C 
ATOM     53  C   UNL A   1      38.877  28.190  29.641  1.00  0.00     0.029 A 
ATOM     54  C   UNL A   1      40.073  29.025  29.663  1.00  0.00     0.049 A 
ATOM     55  H   UNL A   1      41.872  28.687  28.669  1.00  0.00     0.167 HD
ATOM     56  C   UNL A   1      45.667  27.745  26.704  1.00  0.00     0.037 A 
ATOM     57  C   UNL A   1      40.207  30.178  30.346  1.00  0.00     0.037 A 
ATOM     58  C   UNL A   1      45.857  29.043  27.296  1.00  0.00     0.049 A 
ATOM     59  C   UNL A   1      41.499  30.941  30.247  1.00  0.00     0.074 A 
ATOM     60  C   UNL A   1      46.965  29.870  27.217  1.00  0.00     0.029 A 
ATOM     61  N   UNL A   1      44.921  29.702  28.076  1.00  0.00    -0.354 N 
ATOM     62  N   UNL A   1      42.588  30.642  29.580  1.00  0.00    -0.248 NA
ATOM     63  C   UNL A   1      41.578  32.208  30.987  1.00  0.00     0.031 C 
ATOM     64  C   UNL A   1      46.719  31.005  27.996  1.00  0.00     0.029 A 
ATOM     65  C   UNL A   1      45.438  30.910  28.513  1.00  0.00     0.049 A 
ATOM     66  H   UNL A   1      44.022  29.361  28.288  1.00  0.00     0.167 HD
ATOM     67  C   UNL A   1      43.469  31.692  29.799  1.00  0.00     0.074 A 
ATOM     68  C   UNL A   1      42.780  32.647  30.642  1.00  0.00     0.031 C 
ATOM     69  C   UNL A   1      44.736  31.853  29.347  1.00  0.00     0.037 A 
BRANCH  56  70
ATOM     70  C   UNL A   1      46.828  27.125  25.982  1.00  0.00     0.057 A 
ATOM     71  C   UNL A   1      47.097  27.401  24.635  1.00  0.00     0.134 A 
ATOM     72  C   UNL A   1      47.731  26.298  26.663  1.00  0.00     0.134 A 
ATOM     73  F   UNL A   1      46.267  28.178  23.922  1.00  0.00    -0.206 F 
ATOM     74  C   UNL A   1      48.211  26.864  23.988  1.00  0.00     0.040 A 
ATOM     75  C   UNL A   1      48.862  25.777  26.035  1.00  0.00     0.040 A 
ATOM     76  F   UNL A   1      47.538  25.999  27.956  1.00  0.00    -0.206 F 
ATOM     77  C   UNL A   1      49.104  26.056  24.691  1.00  0.00     0.006 A 
ENDBRANCH  56  70
BRANCH  57  78
ATOM     78  C   UNL A   1      39.088  30.687  31.180  1.00  0.00     0.057 A 
ATOM     79  C   UNL A   1      38.862  30.197  32.472  1.00  0.00     0.134 A 
ATOM     80  C   UNL A   1      38.201  31.655  30.694  1.00  0.00     0.134 A 
ATOM     81  F   UNL A   1      39.666  29.256  32.987  1.00  0.00    -0.206 F 
ATOM     82  C   UNL A   1      37.777  30.627  33.238  1.00  0.00     0.040 A 
ATOM     83  C   UNL A   1      37.129  32.117  31.461  1.00  0.00     0.040 A 
ATOM     84  F   UNL A   1      38.368  32.173  29.468  1.00  0.00    -0.206 F 
ATOM     85  C   UNL A   1      36.909  31.593  32.732  1.00  0.00     0.006 A 
ENDBRANCH  57  78
BRANCH  69  86
ATOM     86  C   UNL A   1      45.449  33.116  29.730  1.00  0.00     0.057 A 
ATOM     87  C   UNL A   1      46.288  33.183  30.849  1.00  0.00     0.134 A 
ATOM     88  C   UNL A   1      45.322  34.272  28.947  1.00  0.00     0.134 A 
ATOM     89  F   UNL A   1      46.441  32.115  31.648  1.00  0.00    -0.206 F 
ATOM     90  C   UNL A   1      46.954  34.360  31.192  1.00  0.00     0.040 A 
ATOM     91  C   UNL A   1      46.007  35.445  29.263  1.00  0.00     0.040 A 
ATOM     92  F   UNL A   1      44.543  34.273  27.855  1.00  0.00    -0.206 F 
ATOM     93  C   UNL A   1      46.820  35.494  30.393  1.00  0.00     0.006 A 
ENDBRANCH  69  86
ENDBRANCH  43  44
ENDBRANCH  35  38
ENDBRANCH  33  34
ENDBRANCH   1  33
TORSDOF 14
ENDMDL
MODEL 2
REMARK VINA RESULT:     -13.1      0.603      5.981
REMARK SMILES CS(=O)(=O)c1ccc(/C=C(/C(=O)NCCCNC(=O)c2ccc(-c3c4nc(c(-c5c(F)cccc5F)c5ccc([nH]5)c(-c5c(F)cccc5F)c5nc(c(-c6c(F)cccc6F)c6ccc3[nH]6)C=C5)C=C4)cc2)c2ccc(-c3ccc(F)cc3F)cc2)cc1
REMARK SMILES IDX 15 1 14 2 13 3 11 4 12 5 10 7 9 8 8 9 5 10 6 11 89 12 7 13
REMARK SMILES IDX 88 14 2 15 1 16 3 17 4 18 74 19 75 20 87 21 76 22 86 23
REMARK SMILES IDX 77 24 78 25 79 26 84 27 80 28 83 29 85 30 81 31 82 32 16 33
REMARK SMILES IDX 17 34 18 35 19 37 20 38 21 39 73 40 22 41 72 42 23 43 24 44
REMARK SMILES IDX 25 45 66 46 26 47 71 48 65 49 67 50 27 51 70 52 64 53 63 54
REMARK SMILES IDX 28 56 54 57 37 58 53 59 38 60 41 61 52 62 68 63 39 64 40 65
REMARK SMILES IDX 51 67 69 68 42 69 29 70 30 71 35 72 31 73 32 74 34 75 36 76
REMARK SMILES IDX 33 77 55 78 56 79 61 80 57 81 58 82 60 83 62 84 59 85 43 86
REMARK SMILES IDX 44 87 49 88 45 89 46 90 48 91 50 92 47 93
REMARK H PARENT 13 6 17 36 67 55 41 66
REMARK Flexibility Score: inf
ROOT
ATOM      1  C   UNL A   1      35.492  23.408  24.633  1.00  0.00     0.042 C 
ENDROOT
BRANCH   1   2
ATOM      2  C   UNL A   1      34.149  22.971  24.046  1.00  0.00     0.118 C 
BRANCH   2   3
ATOM      3  N   UNL A   1      33.215  22.647  25.106  1.00  0.00    -0.352 N 
ATOM      4  C   UNL A   1      32.220  23.327  25.730  1.00  0.00     0.251 C 
ATOM      5  O   UNL A   1      31.670  22.733  26.661  1.00  0.00    -0.269 OA
ATOM      6  H   UNL A   1      33.328  21.732  25.451  1.00  0.00     0.163 HD
BRANCH   4   7
ATOM      7  C   UNL A   1      31.731  24.689  25.291  1.00  0.00     0.047 C 
ATOM      8  C   UNL A   1      30.946  24.854  24.200  1.00  0.00     0.022 C 
BRANCH   8   9
ATOM      9  C   UNL A   1      30.277  26.069  23.678  1.00  0.00    -0.025 A 
ATOM     10  C   UNL A   1      28.911  28.408  22.938  1.00  0.00     0.067 A 
ATOM     11  C   UNL A   1      30.246  28.237  22.570  1.00  0.00     0.021 A 
ATOM     12  C   UNL A   1      28.236  27.412  23.640  1.00  0.00     0.021 A 
ATOM     13  C   UNL A   1      30.907  27.052  22.905  1.00  0.00     0.009 A 
ATOM     14  C   UNL A   1      28.922  26.249  24.007  1.00  0.00     0.009 A 
BRANCH  10  15
ATOM     15  S   UNL A   1      28.093  29.928  22.525  1.00  0.00     0.175 S 
ATOM     16  C   UNL A   1      29.189  31.170  23.159  1.00  0.00     0.163 C 
ATOM     17  O   UNL A   1      26.862  29.971  23.284  1.00  0.00    -0.224 OA
ATOM     18  O   UNL A   1      28.086  30.047  21.075  1.00  0.00    -0.224 OA
ENDBRANCH  10  15
ENDBRANCH   8   9
BRANCH   7  19
ATOM     19  C   UNL A   1      32.321  25.861  25.984  1.00  0.00    -0.013 A 
ATOM     20  C   UNL A   1      33.617  26.251  25.621  1.00  0.00     0.009 A 
ATOM     21  C   UNL A   1      31.610  26.657  26.887  1.00  0.00     0.009 A 
ATOM     22  C   UNL A   1      34.163  27.444  26.089  1.00  0.00     0.009 A 
ATOM     23  C   UNL A   1      32.152  27.873  27.333  1.00  0.00     0.009 A 
ATOM     24  C   UNL A   1      33.424  28.305  26.914  1.00  0.00    -0.015 A 
BRANCH  24  25
ATOM     25  C   UNL A   1      33.967  29.632  27.271  1.00  0.00     0.018 A 
ATOM     26  C   UNL A   1      35.330  29.772  27.612  1.00  0.00     0.015 A 
ATOM     27  C   UNL A   1      33.178  30.794  27.291  1.00  0.00     0.133 A 
ATOM     28  C   UNL A   1      35.865  31.009  27.978  1.00  0.00     0.040 A 
ATOM     29  C   UNL A   1      33.704  32.033  27.651  1.00  0.00     0.079 A 
ATOM     30  F   UNL A   1      31.875  30.734  26.977  1.00  0.00    -0.206 F 
ATOM     31  C   UNL A   1      35.043  32.127  27.996  1.00  0.00     0.126 A 
ATOM     32  F   UNL A   1      35.555  33.312  28.352  1.00  0.00    -0.207 F 
ENDBRANCH  24  25
ENDBRANCH   7  19
ENDBRANCH   4   7
ENDBRANCH   2   3
ENDBRANCH   1   2
BRANCH   1  33
ATOM     33  C   UNL A   1      35.827  22.726  25.961  1.00  0.00     0.118 C 
BRANCH  33  34
ATOM     34  N   UNL A   1      36.707  21.582  25.778  1.00  0.00    -0.352 N 
ATOM     35  C   UNL A   1      38.074  21.501  25.790  1.00  0.00     0.251 C 
ATOM     36  H   UNL A   1      36.244  20.728  25.620  1.00  0.00     0.163 HD
ATOM     37  O   UNL A   1      38.616  20.489  25.355  1.00  0.00    -0.269 OA
BRANCH  35  38
ATOM     38  C   UNL A   1      38.904  22.606  26.319  1.00  0.00     0.039 A 
ATOM     39  C   UNL A   1      38.669  23.900  25.846  1.00  0.00     0.014 A 
ATOM     40  C   UNL A   1      39.960  22.371  27.205  1.00  0.00     0.014 A 
ATOM     41  C   UNL A   1      39.469  24.959  26.283  1.00  0.00     0.010 A 
ATOM     42  C   UNL A   1      40.711  23.439  27.697  1.00  0.00     0.010 A 
ATOM     43  C   UNL A   1      40.485  24.741  27.228  1.00  0.00    -0.014 A 
BRANCH  43  44
ATOM     44  C   UNL A   1      41.321  25.869  27.713  1.00  0.00     0.031 A 
ATOM     45  C   UNL A   1      40.746  26.899  28.649  1.00  0.00     0.074 A 
ATOM     46  C   UNL A   1      42.591  25.987  27.277  1.00  0.00     0.049 A 
ATOM     47  N   UNL A   1      41.319  27.959  29.162  1.00  0.00    -0.248 NA
ATOM     48  C   UNL A   1      39.338  26.733  29.042  1.00  0.00     0.031 C 
ATOM     49  C   UNL A   1      43.244  25.088  26.323  1.00  0.00     0.029 A 
ATOM     50  N   UNL A   1      43.558  26.916  27.573  1.00  0.00    -0.354 N 
ATOM     51  C   UNL A   1      40.339  28.592  29.917  1.00  0.00     0.074 A 
ATOM     52  C   UNL A   1      39.123  27.825  29.762  1.00  0.00     0.031 C 
ATOM     53  C   UNL A   1      44.508  25.497  26.128  1.00  0.00     0.029 A 
ATOM     54  C   UNL A   1      44.746  26.703  26.914  1.00  0.00     0.049 A 
ATOM     55  H   UNL A   1      43.414  27.662  28.197  1.00  0.00     0.167 HD
ATOM     56  C   UNL A   1      40.450  29.701  30.687  1.00  0.00     0.037 A 
ATOM     57  C   UNL A   1      45.895  27.404  26.937  1.00  0.00     0.037 A 
ATOM     58  C   UNL A   1      41.672  30.438  30.872  1.00  0.00     0.049 A 
ATOM     59  C   UNL A   1      45.995  28.616  27.822  1.00  0.00     0.074 A 
ATOM     60  C   UNL A   1      41.908  31.518  31.705  1.00  0.00     0.029 A 
ATOM     61  N   UNL A   1      42.862  30.173  30.214  1.00  0.00    -0.354 N 
ATOM     62  N   UNL A   1      45.088  29.144  28.608  1.00  0.00    -0.248 NA
ATOM     63  C   UNL A   1      47.282  29.324  27.833  1.00  0.00     0.031 C 
ATOM     64  C   UNL A   1      43.226  31.942  31.509  1.00  0.00     0.029 A 
ATOM     65  C   UNL A   1      43.827  31.090  30.597  1.00  0.00     0.049 A 
ATOM     66  H   UNL A   1      43.001  29.442  29.569  1.00  0.00     0.167 HD
ATOM     67  C   UNL A   1      45.700  30.228  29.222  1.00  0.00     0.074 A 
ATOM     68  C   UNL A   1      47.063  30.269  28.736  1.00  0.00     0.031 C 
ATOM     69  C   UNL A   1      45.182  31.113  30.108  1.00  0.00     0.037 A 
BRANCH  56  70
ATOM     70  C   UNL A   1      39.220  30.192  31.395  1.00  0.00     0.057 A 
ATOM     71  C   UNL A   1      38.878  29.753  32.680  1.00  0.00     0.134 A 
ATOM     72  C   UNL A   1      38.407  31.173  30.812  1.00  0.00     0.134 A 
ATOM     73  F   UNL A   1      39.610  28.809  33.293  1.00  0.00    -0.206 F 
ATOM     74  C   UNL A   1      37.764  30.257  33.353  1.00  0.00     0.040 A 
ATOM     75  C   UNL A   1      37.306  31.705  31.484  1.00  0.00     0.040 A 
ATOM     76  F   UNL A   1      38.681  31.644  29.586  1.00  0.00    -0.206 F 
ATOM     77  C   UNL A   1      36.979  31.244  32.758  1.00  0.00     0.006 A 
ENDBRANCH  56  70
BRANCH  57  78
ATOM     78  C   UNL A   1      47.047  26.979  26.103  1.00  0.00     0.057 A 
ATOM     79  C   UNL A   1      48.072  26.183  26.629  1.00  0.00     0.134 A 
ATOM     80  C   UNL A   1      47.167  27.381  24.767  1.00  0.00     0.134 A 
ATOM     81  F   UNL A   1      48.025  25.779  27.907  1.00  0.00    -0.206 F 
ATOM     82  C   UNL A   1      49.188  25.829  25.868  1.00  0.00     0.040 A 
ATOM     83  C   UNL A   1      48.263  27.010  23.985  1.00  0.00     0.040 A 
ATOM     84  F   UNL A   1      46.214  28.135  24.199  1.00  0.00    -0.206 F 
ATOM     85  C   UNL A   1      49.283  26.242  24.540  1.00  0.00     0.006 A 
ENDBRANCH  57  78
BRANCH  69  86
ATOM     86  C   UNL A   1      46.098  32.182  30.629  1.00  0.00     0.057 A 
ATOM     87  C   UNL A   1      46.206  33.432  30.007  1.00  0.00     0.134 A 
ATOM     88  C   UNL A   1      46.854  31.968  31.789  1.00  0.00     0.134 A 
ATOM     89  F   UNL A   1      45.518  33.694  28.885  1.00  0.00    -0.206 F 
ATOM     90  C   UNL A   1      47.053  34.422  30.504  1.00  0.00     0.040 A 
ATOM     91  C   UNL A   1      47.681  32.962  32.313  1.00  0.00     0.040 A 
ATOM     92  F   UNL A   1      46.789  30.798  32.440  1.00  0.00    -0.206 F 
ATOM     93  C   UNL A   1      47.788  34.192  31.666  1.00  0.00     0.006 A 
ENDBRANCH  69  86
ENDBRANCH  43  44
ENDBRANCH  35  38
ENDBRANCH  33  34
ENDBRANCH   1  33
TORSDOF 14
ENDMDL
MODEL 3
REMARK VINA RESULT:     -12.9      3.897      7.199
REMARK SMILES CS(=O)(=O)c1ccc(/C=C(/C(=O)NCCCNC(=O)c2ccc(-c3c4nc(c(-c5c(F)cccc5F)c5ccc([nH]5)c(-c5c(F)cccc5F)c5nc(c(-c6c(F)cccc6F)c6ccc3[nH]6)C=C5)C=C4)cc2)c2ccc(-c3ccc(F)cc3F)cc2)cc1
REMARK SMILES IDX 15 1 14 2 13 3 11 4 12 5 10 7 9 8 8 9 5 10 6 11 89 12 7 13
REMARK SMILES IDX 88 14 2 15 1 16 3 17 4 18 74 19 75 20 87 21 76 22 86 23
REMARK SMILES IDX 77 24 78 25 79 26 84 27 80 28 83 29 85 30 81 31 82 32 16 33
REMARK SMILES IDX 17 34 18 35 19 37 20 38 21 39 73 40 22 41 72 42 23 43 24 44
REMARK SMILES IDX 25 45 66 46 26 47 71 48 65 49 67 50 27 51 70 52 64 53 63 54
REMARK SMILES IDX 28 56 54 57 37 58 53 59 38 60 41 61 52 62 68 63 39 64 40 65
REMARK SMILES IDX 51 67 69 68 42 69 29 70 30 71 35 72 31 73 32 74 34 75 36 76
REMARK SMILES IDX 33 77 55 78 56 79 61 80 57 81 58 82 60 83 62 84 59 85 43 86
REMARK SMILES IDX 44 87 49 88 45 89 46 90 48 91 50 92 47 93
REMARK H PARENT 13 6 17 36 67 55 41 66
REMARK Flexibility Score: inf
ROOT
ATOM      1  C   UNL A   1      32.769  27.697  25.155  1.00  0.00     0.042 C 
ENDROOT
BRANCH   1   2
ATOM      2  C   UNL A   1      31.842  26.579  24.670  1.00  0.00     0.118 C 
BRANCH   2   3
ATOM      3  N   UNL A   1      31.985  26.390  23.240  1.00  0.00    -0.352 N 
ATOM      4  C   UNL A   1      32.473  25.389  22.464  1.00  0.00     0.251 C 
ATOM      5  O   UNL A   1      32.496  25.617  21.251  1.00  0.00    -0.269 OA
ATOM      6  H   UNL A   1      31.656  27.155  22.717  1.00  0.00     0.163 HD
BRANCH   4   7
ATOM      7  C   UNL A   1      32.893  24.039  23.000  1.00  0.00     0.047 C 
ATOM      8  C   UNL A   1      32.019  23.013  23.128  1.00  0.00     0.022 C 
BRANCH   8   9
ATOM      9  C   UNL A   1      32.252  21.601  23.516  1.00  0.00    -0.025 A 
ATOM     10  C   UNL A   1      32.839  18.904  24.025  1.00  0.00     0.067 A 
ATOM     11  C   UNL A   1      32.987  19.850  25.039  1.00  0.00     0.021 A 
ATOM     12  C   UNL A   1      32.367  19.278  22.769  1.00  0.00     0.021 A 
ATOM     13  C   UNL A   1      32.652  21.184  24.791  1.00  0.00     0.009 A 
ATOM     14  C   UNL A   1      32.077  20.623  22.520  1.00  0.00     0.009 A 
BRANCH  10  15
ATOM     15  S   UNL A   1      33.290  17.218  24.350  1.00  0.00     0.175 S 
ATOM     16  C   UNL A   1      35.033  17.313  24.667  1.00  0.00     0.163 C 
ATOM     17  O   UNL A   1      33.086  16.476  23.124  1.00  0.00    -0.224 OA
ATOM     18  O   UNL A   1      32.639  16.816  25.587  1.00  0.00    -0.224 OA
ENDBRANCH  10  15
ENDBRANCH   8   9
BRANCH   7  19
ATOM     19  C   UNL A   1      34.257  23.950  23.578  1.00  0.00    -0.013 A 
ATOM     20  C   UNL A   1      34.434  24.371  24.903  1.00  0.00     0.009 A 
ATOM     21  C   UNL A   1      35.336  23.362  22.912  1.00  0.00     0.009 A 
ATOM     22  C   UNL A   1      35.635  24.145  25.571  1.00  0.00     0.009 A 
ATOM     23  C   UNL A   1      36.535  23.110  23.599  1.00  0.00     0.009 A 
ATOM     24  C   UNL A   1      36.694  23.465  24.951  1.00  0.00    -0.015 A 
BRANCH  24  25
ATOM     25  C   UNL A   1      37.896  23.105  25.729  1.00  0.00     0.018 A 
ATOM     26  C   UNL A   1      38.515  24.062  26.562  1.00  0.00     0.015 A 
ATOM     27  C   UNL A   1      38.474  21.825  25.682  1.00  0.00     0.133 A 
ATOM     28  C   UNL A   1      39.668  23.756  27.289  1.00  0.00     0.040 A 
ATOM     29  C   UNL A   1      39.621  21.511  26.408  1.00  0.00     0.079 A 
ATOM     30  F   UNL A   1      37.937  20.866  24.913  1.00  0.00    -0.206 F 
ATOM     31  C   UNL A   1      40.210  22.482  27.202  1.00  0.00     0.126 A 
ATOM     32  F   UNL A   1      41.318  22.191  27.895  1.00  0.00    -0.207 F 
ENDBRANCH  24  25
ENDBRANCH   7  19
ENDBRANCH   4   7
ENDBRANCH   2   3
ENDBRANCH   1   2
BRANCH   1  33
ATOM     33  C   UNL A   1      32.306  28.349  26.459  1.00  0.00     0.118 C 
BRANCH  33  34
ATOM     34  N   UNL A   1      32.021  29.765  26.286  1.00  0.00    -0.352 N 
ATOM     35  C   UNL A   1      32.612  30.866  26.846  1.00  0.00     0.251 C 
ATOM     36  H   UNL A   1      31.282  29.963  25.666  1.00  0.00     0.163 HD
ATOM     37  O   UNL A   1      32.046  31.954  26.767  1.00  0.00    -0.269 OA
BRANCH  35  38
ATOM     38  C   UNL A   1      33.915  30.769  27.540  1.00  0.00     0.039 A 
ATOM     39  C   UNL A   1      34.355  29.509  27.956  1.00  0.00     0.014 A 
ATOM     40  C   UNL A   1      34.663  31.906  27.858  1.00  0.00     0.014 A 
ATOM     41  C   UNL A   1      35.554  29.386  28.660  1.00  0.00     0.010 A 
ATOM     42  C   UNL A   1      35.897  31.775  28.496  1.00  0.00     0.010 A 
ATOM     43  C   UNL A   1      36.346  30.516  28.920  1.00  0.00    -0.014 A 
BRANCH  43  44
ATOM     44  C   UNL A   1      37.635  30.385  29.648  1.00  0.00     0.031 A 
ATOM     45  C   UNL A   1      38.796  29.660  29.022  1.00  0.00     0.074 A 
ATOM     46  C   UNL A   1      37.746  30.889  30.893  1.00  0.00     0.049 A 
ATOM     47  N   UNL A   1      39.989  29.432  29.511  1.00  0.00    -0.248 NA
ATOM     48  C   UNL A   1      38.584  29.092  27.681  1.00  0.00     0.031 C 
ATOM     49  C   UNL A   1      36.675  31.562  31.632  1.00  0.00     0.029 A 
ATOM     50  N   UNL A   1      38.810  30.908  31.761  1.00  0.00    -0.354 N 
ATOM     51  C   UNL A   1      40.658  28.682  28.552  1.00  0.00     0.074 A 
ATOM     52  C   UNL A   1      39.727  28.454  27.469  1.00  0.00     0.031 C 
ATOM     53  C   UNL A   1      37.141  31.944  32.831  1.00  0.00     0.029 A 
ATOM     54  C   UNL A   1      38.530  31.517  32.962  1.00  0.00     0.049 A 
ATOM     55  H   UNL A   1      39.689  30.523  31.545  1.00  0.00     0.167 HD
ATOM     56  C   UNL A   1      41.939  28.243  28.564  1.00  0.00     0.037 A 
ATOM     57  C   UNL A   1      39.304  31.704  34.047  1.00  0.00     0.037 A 
ATOM     58  C   UNL A   1      42.874  28.508  29.625  1.00  0.00     0.049 A 
ATOM     59  C   UNL A   1      40.730  31.227  34.020  1.00  0.00     0.074 A 
ATOM     60  C   UNL A   1      44.220  28.187  29.686  1.00  0.00     0.029 A 
ATOM     61  N   UNL A   1      42.564  29.155  30.810  1.00  0.00    -0.354 N 
ATOM     62  N   UNL A   1      41.378  30.607  33.063  1.00  0.00    -0.248 NA
ATOM     63  C   UNL A   1      41.539  31.486  35.219  1.00  0.00     0.031 C 
ATOM     64  C   UNL A   1      44.709  28.590  30.932  1.00  0.00     0.029 A 
ATOM     65  C   UNL A   1      43.684  29.213  31.623  1.00  0.00     0.049 A 
ATOM     66  H   UNL A   1      41.678  29.519  31.040  1.00  0.00     0.167 HD
ATOM     67  C   UNL A   1      42.671  30.424  33.534  1.00  0.00     0.074 A 
ATOM     68  C   UNL A   1      42.724  31.019  34.852  1.00  0.00     0.031 C 
ATOM     69  C   UNL A   1      43.721  29.815  32.931  1.00  0.00     0.037 A 
BRANCH  56  70
ATOM     70  C   UNL A   1      42.415  27.429  27.395  1.00  0.00     0.057 A 
ATOM     71  C   UNL A   1      42.497  26.032  27.448  1.00  0.00     0.134 A 
ATOM     72  C   UNL A   1      42.725  28.047  26.177  1.00  0.00     0.134 A 
ATOM     73  F   UNL A   1      42.222  25.378  28.587  1.00  0.00    -0.206 F 
ATOM     74  C   UNL A   1      42.887  25.280  26.338  1.00  0.00     0.040 A 
ATOM     75  C   UNL A   1      43.091  27.305  25.052  1.00  0.00     0.040 A 
ATOM     76  F   UNL A   1      42.660  29.381  26.054  1.00  0.00    -0.206 F 
ATOM     77  C   UNL A   1      43.176  25.917  25.132  1.00  0.00     0.006 A 
ENDBRANCH  56  70
BRANCH  57  78
ATOM     78  C   UNL A   1      38.754  32.378  35.251  1.00  0.00     0.057 A 
ATOM     79  C   UNL A   1      38.782  33.772  35.381  1.00  0.00     0.134 A 
ATOM     80  C   UNL A   1      38.214  31.643  36.313  1.00  0.00     0.134 A 
ATOM     81  F   UNL A   1      39.304  34.530  34.406  1.00  0.00    -0.206 F 
ATOM     82  C   UNL A   1      38.322  34.408  36.535  1.00  0.00     0.040 A 
ATOM     83  C   UNL A   1      37.722  32.268  37.461  1.00  0.00     0.040 A 
ATOM     84  F   UNL A   1      38.147  30.305  36.247  1.00  0.00    -0.206 F 
ATOM     85  C   UNL A   1      37.787  33.654  37.578  1.00  0.00     0.006 A 
ENDBRANCH  57  78
BRANCH  69  86
ATOM     86  C   UNL A   1      45.022  29.788  33.679  1.00  0.00     0.057 A 
ATOM     87  C   UNL A   1      45.959  30.822  33.570  1.00  0.00     0.134 A 
ATOM     88  C   UNL A   1      45.323  28.730  34.547  1.00  0.00     0.134 A 
ATOM     89  F   UNL A   1      45.737  31.857  32.746  1.00  0.00    -0.206 F 
ATOM     90  C   UNL A   1      47.162  30.793  34.277  1.00  0.00     0.040 A 
ATOM     91  C   UNL A   1      46.509  28.704  35.282  1.00  0.00     0.040 A 
ATOM     92  F   UNL A   1      44.463  27.713  34.706  1.00  0.00    -0.206 F 
ATOM     93  C   UNL A   1      47.436  29.735  35.142  1.00  0.00     0.006 A 
ENDBRANCH  69  86
ENDBRANCH  43  44
ENDBRANCH  35  38
ENDBRANCH  33  34
ENDBRANCH   1  33
TORSDOF 14
ENDMDL
