MODEL 1
REMARK VINA RESULT:     -11.1      0.000      0.000
REMARK SMILES C[NH+]1CCC(C[N@H+](C)[C@H]2CC[C@]([NH3+])(C(=O)NCCCNC(=O)c3ccc(-c4c5nc(c(-c6c(F)cccc6F)c6ccc([nH]6)c(-c6c(F)cccc6F)c6nc(c(-c7c(F)cccc7F)c7ccc4[nH]7)C=C6)C=C5)cc3)C2)CC1
REMARK SMILES IDX 17 1 16 2 14 3 15 4 12 6 9 7 10 8 77 9 11 10 7 11 8 12 6 14
REMARK SMILES IDX 5 15 1 16 2 17 3 18 79 19 4 21 78 22 13 23 18 27 19 28 20 29
REMARK SMILES IDX 21 30 22 32 23 33 24 34 76 35 25 36 75 37 26 38 27 39 28 40
REMARK SMILES IDX 69 41 29 42 74 43 68 44 70 45 30 46 73 47 67 48 66 49 31 51
REMARK SMILES IDX 57 52 40 53 56 54 41 55 44 56 55 57 71 58 42 59 43 60 54 62
REMARK SMILES IDX 72 63 45 64 32 65 33 66 38 67 34 68 35 69 37 70 39 71 36 72
REMARK SMILES IDX 58 73 59 74 64 75 60 76 61 77 63 78 65 79 62 80 46 81 47 82
REMARK SMILES IDX 52 83 48 84 49 85 51 86 53 87 50 88
REMARK H PARENT 16 5 7 13 2 20 13 24 13 25 13 26 20 31 70 50 44 61
REMARK Flexibility Score: inf
ROOT
ATOM      1  C   UNL A   1      37.135  20.514  24.632  1.00  0.00     0.118 C 
ENDROOT
BRANCH   1   2
ATOM      2  N   UNL A   1      35.865  20.307  25.294  1.00  0.00    -0.351 N 
ATOM      3  C   UNL A   1      34.772  21.095  25.469  1.00  0.00     0.281 C 
ATOM      4  O   UNL A   1      33.757  20.493  25.848  1.00  0.00    -0.268 OA
ATOM      5  H   UNL A   1      35.774  19.415  25.699  1.00  0.00     0.163 HD
BRANCH   3   6
ATOM      6  C   UNL A   1      34.805  22.666  25.447  1.00  0.00     0.179 C 
ATOM      7  C   UNL A   1      32.970  23.938  24.260  1.00  0.00     0.190 C 
ATOM      8  C   UNL A   1      34.109  23.550  23.304  1.00  0.00     0.072 C 
ATOM      9  C   UNL A   1      33.341  23.206  25.578  1.00  0.00     0.144 C 
ATOM     10  C   UNL A   1      35.326  23.385  24.199  1.00  0.00     0.085 C 
BRANCH   7  11
ATOM     11  N   UNL A   1      32.778  25.415  24.211  1.00  0.00    -0.334 N 
ATOM     12  C   UNL A   1      32.558  25.832  22.816  1.00  0.00     0.332 C 
ATOM     13  H   UNL A   1      33.646  25.773  24.612  1.00  0.00     0.348 HD
BRANCH  11  14
ATOM     14  C   UNL A   1      31.736  26.012  25.063  1.00  0.00     0.266 C 
BRANCH  14  15
ATOM     15  C   UNL A   1      32.190  27.345  25.668  1.00  0.00     0.055 C 
ATOM     16  C   UNL A   1      33.553  30.874  27.482  1.00  0.00     0.332 C 
ATOM     17  N   UNL A   1      33.297  29.432  27.373  1.00  0.00    -0.337 N 
ATOM     18  C   UNL A   1      34.064  28.878  26.247  1.00  0.00     0.262 C 
ATOM     19  C   UNL A   1      31.845  29.199  27.292  1.00  0.00     0.262 C 
ATOM     20  H   UNL A   1      33.618  28.935  28.204  1.00  0.00     0.347 HD
ATOM     21  C   UNL A   1      33.695  27.429  25.909  1.00  0.00     0.071 C 
ATOM     22  C   UNL A   1      31.475  27.749  26.957  1.00  0.00     0.071 C 
ENDBRANCH  14  15
ENDBRANCH  11  14
ENDBRANCH   7  11
BRANCH   6  23
ATOM     23  N   UNL A   1      35.643  23.014  26.624  1.00  0.00    -0.345 N 
ATOM     24  H   UNL A   1      36.559  23.333  26.306  1.00  0.00     0.345 HD
ATOM     25  H   UNL A   1      35.756  22.192  27.216  1.00  0.00     0.345 HD
ATOM     26  H   UNL A   1      35.190  23.757  27.155  1.00  0.00     0.345 HD
ENDBRANCH   6  23
ENDBRANCH   3   6
ENDBRANCH   1   2
BRANCH   1  27
ATOM     27  C   UNL A   1      38.243  19.513  24.950  1.00  0.00     0.042 C 
BRANCH  27  28
ATOM     28  C   UNL A   1      39.258  19.969  25.997  1.00  0.00     0.118 C 
BRANCH  28  29
ATOM     29  N   UNL A   1      40.483  19.184  25.969  1.00  0.00    -0.352 N 
ATOM     30  C   UNL A   1      41.806  19.538  25.969  1.00  0.00     0.251 C 
ATOM     31  H   UNL A   1      40.332  18.212  25.946  1.00  0.00     0.163 HD
ATOM     32  O   UNL A   1      42.633  18.709  25.595  1.00  0.00    -0.269 OA
BRANCH  30  33
ATOM     33  C   UNL A   1      42.275  20.866  26.426  1.00  0.00     0.039 A 
ATOM     34  C   UNL A   1      42.294  21.122  27.805  1.00  0.00     0.014 A 
ATOM     35  C   UNL A   1      42.544  21.907  25.534  1.00  0.00     0.014 A 
ATOM     36  C   UNL A   1      42.589  22.402  28.283  1.00  0.00     0.010 A 
ATOM     37  C   UNL A   1      42.896  23.172  26.012  1.00  0.00     0.010 A 
ATOM     38  C   UNL A   1      42.898  23.438  27.390  1.00  0.00    -0.014 A 
BRANCH  38  39
ATOM     39  C   UNL A   1      43.185  24.809  27.884  1.00  0.00     0.031 A 
ATOM     40  C   UNL A   1      44.604  25.255  28.111  1.00  0.00     0.074 A 
ATOM     41  C   UNL A   1      42.165  25.643  28.164  1.00  0.00     0.049 A 
ATOM     42  N   UNL A   1      45.049  26.395  28.578  1.00  0.00    -0.248 NA
ATOM     43  C   UNL A   1      45.663  24.283  27.794  1.00  0.00     0.031 C 
ATOM     44  C   UNL A   1      40.745  25.318  28.024  1.00  0.00     0.029 A 
ATOM     45  N   UNL A   1      42.168  26.933  28.632  1.00  0.00    -0.354 N 
ATOM     46  C   UNL A   1      46.433  26.270  28.632  1.00  0.00     0.074 A 
ATOM     47  C   UNL A   1      46.751  24.931  28.184  1.00  0.00     0.031 C 
ATOM     48  C   UNL A   1      40.014  26.385  28.380  1.00  0.00     0.029 A 
ATOM     49  C   UNL A   1      40.910  27.460  28.796  1.00  0.00     0.049 A 
ATOM     50  H   UNL A   1      42.993  27.432  28.831  1.00  0.00     0.167 HD
ATOM     51  C   UNL A   1      47.354  27.191  29.002  1.00  0.00     0.037 A 
ATOM     52  C   UNL A   1      40.524  28.673  29.231  1.00  0.00     0.037 A 
ATOM     53  C   UNL A   1      47.040  28.535  29.413  1.00  0.00     0.049 A 
ATOM     54  C   UNL A   1      41.566  29.689  29.604  1.00  0.00     0.074 A 
ATOM     55  C   UNL A   1      47.905  29.560  29.753  1.00  0.00     0.029 A 
ATOM     56  N   UNL A   1      45.754  29.041  29.533  1.00  0.00    -0.354 N 
ATOM     57  N   UNL A   1      42.871  29.573  29.598  1.00  0.00    -0.248 NA
ATOM     58  C   UNL A   1      41.080  31.008  30.032  1.00  0.00     0.031 C 
ATOM     59  C   UNL A   1      47.142  30.679  30.105  1.00  0.00     0.029 A 
ATOM     60  C   UNL A   1      45.803  30.360  29.951  1.00  0.00     0.049 A 
ATOM     61  H   UNL A   1      44.929  28.536  29.350  1.00  0.00     0.167 HD
ATOM     62  C   UNL A   1      43.363  30.807  30.002  1.00  0.00     0.074 A 
ATOM     63  C   UNL A   1      42.217  31.662  30.230  1.00  0.00     0.031 C 
ATOM     64  C   UNL A   1      44.651  31.196  30.170  1.00  0.00     0.037 A 
BRANCH  51  65
ATOM     65  C   UNL A   1      48.795  26.775  28.976  1.00  0.00     0.057 A 
ATOM     66  C   UNL A   1      49.403  26.153  30.075  1.00  0.00     0.134 A 
ATOM     67  C   UNL A   1      49.578  26.972  27.832  1.00  0.00     0.134 A 
ATOM     68  F   UNL A   1      48.712  25.946  31.206  1.00  0.00    -0.206 F 
ATOM     69  C   UNL A   1      50.744  25.766  30.046  1.00  0.00     0.040 A 
ATOM     70  C   UNL A   1      50.914  26.568  27.782  1.00  0.00     0.040 A 
ATOM     71  F   UNL A   1      49.056  27.556  26.742  1.00  0.00    -0.206 F 
ATOM     72  C   UNL A   1      51.502  25.968  28.894  1.00  0.00     0.006 A 
ENDBRANCH  51  65
BRANCH  52  73
ATOM     73  C   UNL A   1      39.081  29.005  29.300  1.00  0.00     0.057 A 
ATOM     74  C   UNL A   1      38.368  28.865  30.496  1.00  0.00     0.134 A 
ATOM     75  C   UNL A   1      38.385  29.481  28.183  1.00  0.00     0.134 A 
ATOM     76  F   UNL A   1      38.979  28.397  31.595  1.00  0.00    -0.206 F 
ATOM     77  C   UNL A   1      37.009  29.173  30.576  1.00  0.00     0.040 A 
ATOM     78  C   UNL A   1      37.031  29.812  28.255  1.00  0.00     0.040 A 
ATOM     79  F   UNL A   1      39.016  29.644  27.011  1.00  0.00    -0.206 F 
ATOM     80  C   UNL A   1      36.338  29.653  29.453  1.00  0.00     0.006 A 
ENDBRANCH  52  73
BRANCH  64  81
ATOM     81  C   UNL A   1      44.881  32.613  30.596  1.00  0.00     0.057 A 
ATOM     82  C   UNL A   1      45.003  33.651  29.663  1.00  0.00     0.134 A 
ATOM     83  C   UNL A   1      44.958  32.947  31.954  1.00  0.00     0.134 A 
ATOM     84  F   UNL A   1      44.953  33.393  28.348  1.00  0.00    -0.206 F 
ATOM     85  C   UNL A   1      45.216  34.970  30.067  1.00  0.00     0.040 A 
ATOM     86  C   UNL A   1      45.150  34.265  32.370  1.00  0.00     0.040 A 
ATOM     87  F   UNL A   1      44.843  31.999  32.896  1.00  0.00    -0.206 F 
ATOM     88  C   UNL A   1      45.284  35.280  31.425  1.00  0.00     0.006 A 
ENDBRANCH  64  81
ENDBRANCH  38  39
ENDBRANCH  30  33
ENDBRANCH  28  29
ENDBRANCH  27  28
ENDBRANCH   1  27
TORSDOF 14
ENDMDL
MODEL 2
REMARK VINA RESULT:     -11.1      1.361      6.374
REMARK SMILES C[NH+]1CCC(C[N@H+](C)[C@H]2CC[C@]([NH3+])(C(=O)NCCCNC(=O)c3ccc(-c4c5nc(c(-c6c(F)cccc6F)c6ccc([nH]6)c(-c6c(F)cccc6F)c6nc(c(-c7c(F)cccc7F)c7ccc4[nH]7)C=C6)C=C5)cc3)C2)CC1
REMARK SMILES IDX 17 1 16 2 14 3 15 4 12 6 9 7 10 8 77 9 11 10 7 11 8 12 6 14
REMARK SMILES IDX 5 15 1 16 2 17 3 18 79 19 4 21 78 22 13 23 18 27 19 28 20 29
REMARK SMILES IDX 21 30 22 32 23 33 24 34 76 35 25 36 75 37 26 38 27 39 28 40
REMARK SMILES IDX 69 41 29 42 74 43 68 44 70 45 30 46 73 47 67 48 66 49 31 51
REMARK SMILES IDX 57 52 40 53 56 54 41 55 44 56 55 57 71 58 42 59 43 60 54 62
REMARK SMILES IDX 72 63 45 64 32 65 33 66 38 67 34 68 35 69 37 70 39 71 36 72
REMARK SMILES IDX 58 73 59 74 64 75 60 76 61 77 63 78 65 79 62 80 46 81 47 82
REMARK SMILES IDX 52 83 48 84 49 85 51 86 53 87 50 88
REMARK H PARENT 16 5 7 13 2 20 13 24 13 25 13 26 20 31 70 50 44 61
REMARK Flexibility Score: inf
ROOT
ATOM      1  C   UNL A   1      36.976  20.375  24.600  1.00  0.00     0.118 C 
ENDROOT
BRANCH   1   2
ATOM      2  N   UNL A   1      35.755  20.331  25.376  1.00  0.00    -0.351 N 
ATOM      3  C   UNL A   1      34.759  21.231  25.587  1.00  0.00     0.281 C 
ATOM      4  O   UNL A   1      33.731  20.753  26.086  1.00  0.00    -0.268 OA
ATOM      5  H   UNL A   1      35.619  19.478  25.846  1.00  0.00     0.163 HD
BRANCH   3   6
ATOM      6  C   UNL A   1      34.935  22.787  25.457  1.00  0.00     0.179 C 
ATOM      7  C   UNL A   1      33.093  24.169  24.409  1.00  0.00     0.190 C 
ATOM      8  C   UNL A   1      34.067  23.617  23.355  1.00  0.00     0.072 C 
ATOM      9  C   UNL A   1      33.553  23.477  25.721  1.00  0.00     0.144 C 
ATOM     10  C   UNL A   1      35.363  23.381  24.111  1.00  0.00     0.085 C 
BRANCH   7  11
ATOM     11  N   UNL A   1      33.035  25.652  24.285  1.00  0.00    -0.334 N 
ATOM     12  C   UNL A   1      33.005  26.022  22.859  1.00  0.00     0.332 C 
ATOM     13  H   UNL A   1      33.880  25.957  24.768  1.00  0.00     0.348 HD
BRANCH  11  14
ATOM     14  C   UNL A   1      31.959  26.370  24.991  1.00  0.00     0.266 C 
BRANCH  14  15
ATOM     15  C   UNL A   1      32.476  27.643  25.670  1.00  0.00     0.055 C 
ATOM     16  C   UNL A   1      33.971  30.996  27.701  1.00  0.00     0.332 C 
ATOM     17  N   UNL A   1      33.567  29.594  27.539  1.00  0.00    -0.337 N 
ATOM     18  C   UNL A   1      34.415  28.949  26.526  1.00  0.00     0.262 C 
ATOM     19  C   UNL A   1      32.123  29.532  27.252  1.00  0.00     0.262 C 
ATOM     20  H   UNL A   1      33.707  29.066  28.401  1.00  0.00     0.347 HD
ATOM     21  C   UNL A   1      33.931  27.551  26.122  1.00  0.00     0.071 C 
ATOM     22  C   UNL A   1      31.638  28.134  26.850  1.00  0.00     0.071 C 
ENDBRANCH  14  15
ENDBRANCH  11  14
ENDBRANCH   7  11
BRANCH   6  23
ATOM     23  N   UNL A   1      35.939  23.114  26.502  1.00  0.00    -0.345 N 
ATOM     24  H   UNL A   1      35.467  23.240  27.398  1.00  0.00     0.345 HD
ATOM     25  H   UNL A   1      36.425  23.973  26.250  1.00  0.00     0.345 HD
ATOM     26  H   UNL A   1      36.611  22.351  26.576  1.00  0.00     0.345 HD
ENDBRANCH   6  23
ENDBRANCH   3   6
ENDBRANCH   1   2
BRANCH   1  27
ATOM     27  C   UNL A   1      38.077  19.396  25.002  1.00  0.00     0.042 C 
BRANCH  27  28
ATOM     28  C   UNL A   1      39.226  19.997  25.812  1.00  0.00     0.118 C 
BRANCH  28  29
ATOM     29  N   UNL A   1      40.301  19.046  26.050  1.00  0.00    -0.352 N 
ATOM     30  C   UNL A   1      41.661  19.191  26.124  1.00  0.00     0.251 C 
ATOM     31  H   UNL A   1      39.992  18.121  26.183  1.00  0.00     0.163 HD
ATOM     32  O   UNL A   1      42.364  18.191  25.990  1.00  0.00    -0.269 OA
BRANCH  30  33
ATOM     33  C   UNL A   1      42.309  20.496  26.387  1.00  0.00     0.039 A 
ATOM     34  C   UNL A   1      42.244  21.017  27.688  1.00  0.00     0.014 A 
ATOM     35  C   UNL A   1      42.837  21.283  25.361  1.00  0.00     0.014 A 
ATOM     36  C   UNL A   1      42.712  22.306  27.958  1.00  0.00     0.010 A 
ATOM     37  C   UNL A   1      43.358  22.549  25.641  1.00  0.00     0.010 A 
ATOM     38  C   UNL A   1      43.279  23.082  26.937  1.00  0.00    -0.014 A 
BRANCH  38  39
ATOM     39  C   UNL A   1      43.753  24.464  27.205  1.00  0.00     0.031 A 
ATOM     40  C   UNL A   1      42.783  25.533  27.630  1.00  0.00     0.074 A 
ATOM     41  C   UNL A   1      45.054  24.767  27.031  1.00  0.00     0.049 A 
ATOM     42  N   UNL A   1      43.001  26.803  27.867  1.00  0.00    -0.248 NA
ATOM     43  C   UNL A   1      41.377  25.127  27.787  1.00  0.00     0.031 C 
ATOM     44  C   UNL A   1      46.086  23.831  26.585  1.00  0.00     0.029 A 
ATOM     45  N   UNL A   1      45.726  25.951  27.201  1.00  0.00    -0.354 N 
ATOM     46  C   UNL A   1      41.761  27.350  28.178  1.00  0.00     0.074 A 
ATOM     47  C   UNL A   1      40.791  26.283  28.065  1.00  0.00     0.031 C 
ATOM     48  C   UNL A   1      47.265  24.472  26.534  1.00  0.00     0.029 A 
ATOM     49  C   UNL A   1      47.067  25.866  26.920  1.00  0.00     0.049 A 
ATOM     50  H   UNL A   1      45.288  26.782  27.497  1.00  0.00     0.167 HD
ATOM     51  C   UNL A   1      41.462  28.620  28.541  1.00  0.00     0.037 A 
ATOM     52  C   UNL A   1      48.029  26.805  26.968  1.00  0.00     0.037 A 
ATOM     53  C   UNL A   1      42.433  29.673  28.689  1.00  0.00     0.049 A 
ATOM     54  C   UNL A   1      47.678  28.199  27.407  1.00  0.00     0.074 A 
ATOM     55  C   UNL A   1      42.237  30.978  29.108  1.00  0.00     0.029 A 
ATOM     56  N   UNL A   1      43.788  29.537  28.427  1.00  0.00    -0.354 N 
ATOM     57  N   UNL A   1      46.511  28.687  27.749  1.00  0.00    -0.248 NA
ATOM     58  C   UNL A   1      48.781  29.167  27.479  1.00  0.00     0.031 C 
ATOM     59  C   UNL A   1      43.470  31.639  29.074  1.00  0.00     0.029 A 
ATOM     60  C   UNL A   1      44.438  30.736  28.666  1.00  0.00     0.049 A 
ATOM     61  H   UNL A   1      44.223  28.711  28.116  1.00  0.00     0.167 HD
ATOM     62  C   UNL A   1      46.741  30.011  28.094  1.00  0.00     0.074 A 
ATOM     63  C   UNL A   1      48.161  30.247  27.936  1.00  0.00     0.031 C 
ATOM     64  C   UNL A   1      45.853  30.950  28.505  1.00  0.00     0.037 A 
BRANCH  51  65
ATOM     65  C   UNL A   1      40.021  28.940  28.809  1.00  0.00     0.057 A 
ATOM     66  C   UNL A   1      39.487  28.908  30.104  1.00  0.00     0.134 A 
ATOM     67  C   UNL A   1      39.163  29.313  27.766  1.00  0.00     0.134 A 
ATOM     68  F   UNL A   1      40.252  28.547  31.146  1.00  0.00    -0.206 F 
ATOM     69  C   UNL A   1      38.145  29.209  30.349  1.00  0.00     0.040 A 
ATOM     70  C   UNL A   1      37.826  29.639  28.002  1.00  0.00     0.040 A 
ATOM     71  F   UNL A   1      39.612  29.371  26.503  1.00  0.00    -0.206 F 
ATOM     72  C   UNL A   1      37.313  29.581  29.296  1.00  0.00     0.006 A 
ENDBRANCH  51  65
BRANCH  52  73
ATOM     73  C   UNL A   1      49.426  26.447  26.626  1.00  0.00     0.057 A 
ATOM     74  C   UNL A   1      49.929  26.660  25.338  1.00  0.00     0.134 A 
ATOM     75  C   UNL A   1      50.295  25.897  27.577  1.00  0.00     0.134 A 
ATOM     76  F   UNL A   1      49.137  27.168  24.381  1.00  0.00    -0.206 F 
ATOM     77  C   UNL A   1      51.242  26.327  25.001  1.00  0.00     0.040 A 
ATOM     78  C   UNL A   1      51.615  25.578  27.259  1.00  0.00     0.040 A 
ATOM     79  F   UNL A   1      49.873  25.677  28.831  1.00  0.00    -0.206 F 
ATOM     80  C   UNL A   1      52.090  25.789  25.966  1.00  0.00     0.006 A 
ENDBRANCH  52  73
BRANCH  64  81
ATOM     81  C   UNL A   1      46.401  32.305  28.834  1.00  0.00     0.057 A 
ATOM     82  C   UNL A   1      46.492  33.315  27.867  1.00  0.00     0.134 A 
ATOM     83  C   UNL A   1      46.818  32.610  30.135  1.00  0.00     0.134 A 
ATOM     84  F   UNL A   1      46.121  33.079  26.600  1.00  0.00    -0.206 F 
ATOM     85  C   UNL A   1      47.002  34.576  28.180  1.00  0.00     0.040 A 
ATOM     86  C   UNL A   1      47.309  33.874  30.464  1.00  0.00     0.040 A 
ATOM     87  F   UNL A   1      46.750  31.688  31.106  1.00  0.00    -0.206 F 
ATOM     88  C   UNL A   1      47.407  34.860  29.483  1.00  0.00     0.006 A 
ENDBRANCH  64  81
ENDBRANCH  38  39
ENDBRANCH  30  33
ENDBRANCH  28  29
ENDBRANCH  27  28
ENDBRANCH   1  27
TORSDOF 14
ENDMDL
MODEL 3
REMARK VINA RESULT:     -11.0      1.315      2.331
REMARK SMILES C[NH+]1CCC(C[N@H+](C)[C@H]2CC[C@]([NH3+])(C(=O)NCCCNC(=O)c3ccc(-c4c5nc(c(-c6c(F)cccc6F)c6ccc([nH]6)c(-c6c(F)cccc6F)c6nc(c(-c7c(F)cccc7F)c7ccc4[nH]7)C=C6)C=C5)cc3)C2)CC1
REMARK SMILES IDX 17 1 16 2 14 3 15 4 12 6 9 7 10 8 77 9 11 10 7 11 8 12 6 14
REMARK SMILES IDX 5 15 1 16 2 17 3 18 79 19 4 21 78 22 13 23 18 27 19 28 20 29
REMARK SMILES IDX 21 30 22 32 23 33 24 34 76 35 25 36 75 37 26 38 27 39 28 40
REMARK SMILES IDX 69 41 29 42 74 43 68 44 70 45 30 46 73 47 67 48 66 49 31 51
REMARK SMILES IDX 57 52 40 53 56 54 41 55 44 56 55 57 71 58 42 59 43 60 54 62
REMARK SMILES IDX 72 63 45 64 32 65 33 66 38 67 34 68 35 69 37 70 39 71 36 72
REMARK SMILES IDX 58 73 59 74 64 75 60 76 61 77 63 78 65 79 62 80 46 81 47 82
REMARK SMILES IDX 52 83 48 84 49 85 51 86 53 87 50 88
REMARK H PARENT 16 5 7 13 2 20 13 24 13 25 13 26 20 31 70 50 44 61
REMARK Flexibility Score: inf
ROOT
ATOM      1  C   UNL A   1      36.359  20.283  24.997  1.00  0.00     0.118 C 
ENDROOT
BRANCH   1   2
ATOM      2  N   UNL A   1      35.116  19.563  24.820  1.00  0.00    -0.351 N 
ATOM      3  C   UNL A   1      33.811  19.935  24.899  1.00  0.00     0.281 C 
ATOM      4  O   UNL A   1      33.014  19.121  24.414  1.00  0.00    -0.268 OA
ATOM      5  H   UNL A   1      35.241  18.613  24.597  1.00  0.00     0.163 HD
BRANCH   3   6
ATOM      6  C   UNL A   1      33.292  21.158  25.739  1.00  0.00     0.179 C 
ATOM      7  C   UNL A   1      31.698  22.812  24.682  1.00  0.00     0.190 C 
ATOM      8  C   UNL A   1      33.166  23.174  24.407  1.00  0.00     0.072 C 
ATOM      9  C   UNL A   1      31.793  21.425  25.372  1.00  0.00     0.144 C 
ATOM     10  C   UNL A   1      33.944  22.530  25.541  1.00  0.00     0.085 C 
BRANCH   7  11
ATOM     11  N   UNL A   1      31.028  23.969  25.340  1.00  0.00    -0.334 N 
ATOM     12  C   UNL A   1      30.500  23.547  26.649  1.00  0.00     0.332 C 
ATOM     13  H   UNL A   1      30.302  24.226  24.671  1.00  0.00     0.348 HD
BRANCH  11  14
ATOM     14  C   UNL A   1      31.795  25.216  25.510  1.00  0.00     0.266 C 
BRANCH  14  15
ATOM     15  C   UNL A   1      31.265  26.336  24.609  1.00  0.00     0.055 C 
ATOM     16  C   UNL A   1      29.751  29.517  22.332  1.00  0.00     0.332 C 
ATOM     17  N   UNL A   1      29.955  28.708  23.540  1.00  0.00    -0.337 N 
ATOM     18  C   UNL A   1      31.378  28.722  23.908  1.00  0.00     0.262 C 
ATOM     19  C   UNL A   1      29.395  27.362  23.327  1.00  0.00     0.262 C 
ATOM     20  H   UNL A   1      29.453  29.101  24.337  1.00  0.00     0.347 HD
ATOM     21  C   UNL A   1      31.732  27.730  25.022  1.00  0.00     0.071 C 
ATOM     22  C   UNL A   1      29.746  26.370  24.441  1.00  0.00     0.071 C 
ENDBRANCH  14  15
ENDBRANCH  11  14
ENDBRANCH   7  11
BRANCH   6  23
ATOM     23  N   UNL A   1      33.459  20.710  27.146  1.00  0.00    -0.345 N 
ATOM     24  H   UNL A   1      34.339  20.202  27.238  1.00  0.00     0.345 HD
ATOM     25  H   UNL A   1      32.685  20.099  27.403  1.00  0.00     0.345 HD
ATOM     26  H   UNL A   1      33.470  21.523  27.761  1.00  0.00     0.345 HD
ENDBRANCH   6  23
ENDBRANCH   3   6
ENDBRANCH   1   2
BRANCH   1  27
ATOM     27  C   UNL A   1      37.639  19.451  24.981  1.00  0.00     0.042 C 
BRANCH  27  28
ATOM     28  C   UNL A   1      38.911  20.194  25.386  1.00  0.00     0.118 C 
BRANCH  28  29
ATOM     29  N   UNL A   1      40.002  19.294  25.728  1.00  0.00    -0.352 N 
ATOM     30  C   UNL A   1      41.309  19.517  26.071  1.00  0.00     0.251 C 
ATOM     31  H   UNL A   1      39.753  18.342  25.709  1.00  0.00     0.163 HD
ATOM     32  O   UNL A   1      42.106  18.586  25.974  1.00  0.00    -0.269 OA
BRANCH  30  33
ATOM     33  C   UNL A   1      41.788  20.823  26.578  1.00  0.00     0.039 A 
ATOM     34  C   UNL A   1      41.627  21.102  27.942  1.00  0.00     0.014 A 
ATOM     35  C   UNL A   1      42.242  21.830  25.722  1.00  0.00     0.014 A 
ATOM     36  C   UNL A   1      41.928  22.371  28.445  1.00  0.00     0.010 A 
ATOM     37  C   UNL A   1      42.599  23.081  26.234  1.00  0.00     0.010 A 
ATOM     38  C   UNL A   1      42.422  23.371  27.595  1.00  0.00    -0.014 A 
BRANCH  38  39
ATOM     39  C   UNL A   1      42.719  24.732  28.112  1.00  0.00     0.031 A 
ATOM     40  C   UNL A   1      44.125  25.114  28.488  1.00  0.00     0.074 A 
ATOM     41  C   UNL A   1      41.715  25.615  28.277  1.00  0.00     0.049 A 
ATOM     42  N   UNL A   1      44.570  26.236  28.995  1.00  0.00    -0.248 NA
ATOM     43  C   UNL A   1      45.165  24.092  28.290  1.00  0.00     0.031 C 
ATOM     44  C   UNL A   1      40.305  25.354  27.987  1.00  0.00     0.029 A 
ATOM     45  N   UNL A   1      41.728  26.907  28.737  1.00  0.00    -0.354 N 
ATOM     46  C   UNL A   1      45.933  26.048  29.197  1.00  0.00     0.074 A 
ATOM     47  C   UNL A   1      46.234  24.692  28.792  1.00  0.00     0.031 C 
ATOM     48  C   UNL A   1      39.591  26.457  28.258  1.00  0.00     0.029 A 
ATOM     49  C   UNL A   1      40.487  27.493  28.763  1.00  0.00     0.049 A 
ATOM     50  H   UNL A   1      42.550  27.370  29.021  1.00  0.00     0.167 HD
ATOM     51  C   UNL A   1      46.852  26.929  29.661  1.00  0.00     0.037 A 
ATOM     52  C   UNL A   1      40.113  28.726  29.149  1.00  0.00     0.037 A 
ATOM     53  C   UNL A   1      46.558  28.290  30.030  1.00  0.00     0.049 A 
ATOM     54  C   UNL A   1      41.155  29.697  29.628  1.00  0.00     0.074 A 
ATOM     55  C   UNL A   1      47.430  29.277  30.457  1.00  0.00     0.029 A 
ATOM     56  N   UNL A   1      45.292  28.855  30.010  1.00  0.00    -0.354 N 
ATOM     57  N   UNL A   1      42.447  29.521  29.763  1.00  0.00    -0.248 NA
ATOM     58  C   UNL A   1      40.689  31.041  29.996  1.00  0.00     0.031 C 
ATOM     59  C   UNL A   1      46.687  30.433  30.721  1.00  0.00     0.029 A 
ATOM     60  C   UNL A   1      45.358  30.175  30.425  1.00  0.00     0.049 A 
ATOM     61  H   UNL A   1      44.469  28.388  29.741  1.00  0.00     0.167 HD
ATOM     62  C   UNL A   1      42.951  30.734  30.212  1.00  0.00     0.074 A 
ATOM     63  C   UNL A   1      41.828  31.643  30.312  1.00  0.00     0.031 C 
ATOM     64  C   UNL A   1      44.230  31.065  30.516  1.00  0.00     0.037 A 
BRANCH  51  65
ATOM     65  C   UNL A   1      48.266  26.447  29.791  1.00  0.00     0.057 A 
ATOM     66  C   UNL A   1      49.206  26.632  28.768  1.00  0.00     0.134 A 
ATOM     67  C   UNL A   1      48.704  25.816  30.963  1.00  0.00     0.134 A 
ATOM     68  F   UNL A   1      48.848  27.218  27.616  1.00  0.00    -0.206 F 
ATOM     69  C   UNL A   1      50.522  26.184  28.895  1.00  0.00     0.040 A 
ATOM     70  C   UNL A   1      50.024  25.384  31.111  1.00  0.00     0.040 A 
ATOM     71  F   UNL A   1      47.857  25.614  31.984  1.00  0.00    -0.206 F 
ATOM     72  C   UNL A   1      50.935  25.563  30.072  1.00  0.00     0.006 A 
ENDBRANCH  51  65
BRANCH  52  73
ATOM     73  C   UNL A   1      38.688  29.126  29.062  1.00  0.00     0.057 A 
ATOM     74  C   UNL A   1      38.147  29.599  27.861  1.00  0.00     0.134 A 
ATOM     75  C   UNL A   1      37.833  29.034  30.166  1.00  0.00     0.134 A 
ATOM     76  F   UNL A   1      38.923  29.725  26.775  1.00  0.00    -0.206 F 
ATOM     77  C   UNL A   1      36.807  29.980  27.765  1.00  0.00     0.040 A 
ATOM     78  C   UNL A   1      36.488  29.392  30.078  1.00  0.00     0.040 A 
ATOM     79  F   UNL A   1      38.293  28.581  31.342  1.00  0.00    -0.206 F 
ATOM     80  C   UNL A   1      35.973  29.872  28.875  1.00  0.00     0.006 A 
ENDBRANCH  52  73
BRANCH  64  81
ATOM     81  C   UNL A   1      44.479  32.474  30.959  1.00  0.00     0.057 A 
ATOM     82  C   UNL A   1      44.376  32.850  32.305  1.00  0.00     0.134 A 
ATOM     83  C   UNL A   1      44.851  33.458  30.035  1.00  0.00     0.134 A 
ATOM     84  F   UNL A   1      44.011  31.956  33.235  1.00  0.00    -0.206 F 
ATOM     85  C   UNL A   1      44.613  34.164  32.712  1.00  0.00     0.040 A 
ATOM     86  C   UNL A   1      45.110  34.770  30.434  1.00  0.00     0.040 A 
ATOM     87  F   UNL A   1      44.973  33.159  28.734  1.00  0.00    -0.206 F 
ATOM     88  C   UNL A   1      44.986  35.127  31.775  1.00  0.00     0.006 A 
ENDBRANCH  64  81
ENDBRANCH  38  39
ENDBRANCH  30  33
ENDBRANCH  28  29
ENDBRANCH  27  28
ENDBRANCH   1  27
TORSDOF 14
ENDMDL
