MODEL 1
REMARK VINA RESULT:     -13.3      0.000      0.000
REMARK SMILES O=C(NCCCNC(=O)c1ccc(-n2cc(CSc3nc4ccccc4c(=O)n3-c3ccccc3)nn2)cc1)c1ccc(-c2c3nc(c(-c4c(F)cccc4F)c4ccc([nH]4)c(-c4c(F)cccc4F)c4nc(c(-c5c(F)cccc5F)c5ccc2[nH]5)C=C4)C=C3)cc1
REMARK SMILES IDX 7 1 8 2 9 3 6 5 5 6 4 7 3 8 1 9 2 10 40 12 41 13 93 14 42 15
REMARK SMILES IDX 92 16 43 17 44 18 45 19 86 20 46 21 91 22 85 23 87 24 47 25
REMARK SMILES IDX 90 26 84 27 83 28 48 30 74 31 57 32 73 33 58 34 61 35 72 36
REMARK SMILES IDX 88 37 59 38 60 39 71 41 89 42 62 43 49 44 50 45 55 46 51 47
REMARK SMILES IDX 52 48 54 49 56 50 53 51 75 52 76 53 81 54 77 55 78 56 80 57
REMARK SMILES IDX 82 58 79 59 63 60 64 61 69 62 65 63 66 64 68 65 70 66 67 67
REMARK SMILES IDX 10 68 11 69 39 70 12 71 38 72 13 73 14 74 15 75 37 76 16 77
REMARK SMILES IDX 36 78 17 79 18 80 19 81 20 82 29 83 21 84 27 85 22 86 26 87
REMARK SMILES IDX 28 88 23 89 25 90 24 91 30 92 31 93 35 94 32 95 34 96 33 97
REMARK H PARENT 7 4 3 11 87 29 61 40
REMARK Flexibility Score: inf
ROOT
ATOM      1  N   UNL A   1      38.406  21.403  25.639  1.00  0.00    -0.352 N 
ATOM      2  C   UNL A   1      37.435  20.748  24.915  1.00  0.00     0.251 C 
ATOM      3  O   UNL A   1      37.543  19.559  24.672  1.00  0.00    -0.269 OA
ATOM      4  H   UNL A   1      39.191  20.855  25.868  1.00  0.00     0.163 HD
ENDROOT
BRANCH   1   5
ATOM      5  C   UNL A   1      38.458  22.775  26.119  1.00  0.00     0.118 C 
BRANCH   5   6
ATOM      6  C   UNL A   1      39.701  23.086  26.953  1.00  0.00     0.042 C 
BRANCH   6   7
ATOM      7  C   UNL A   1      40.873  22.134  26.729  1.00  0.00     0.118 C 
BRANCH   7   8
ATOM      8  N   UNL A   1      41.851  22.607  25.767  1.00  0.00    -0.352 N 
ATOM      9  O   UNL A   1      43.371  23.733  24.644  1.00  0.00    -0.269 OA
ATOM     10  C   UNL A   1      42.555  23.762  25.569  1.00  0.00     0.251 C 
ATOM     11  H   UNL A   1      42.060  21.926  25.089  1.00  0.00     0.163 HD
BRANCH  10  12
ATOM     12  C   UNL A   1      42.397  25.032  26.336  1.00  0.00     0.039 A 
ATOM     13  C   UNL A   1      42.983  25.331  27.566  1.00  0.00     0.014 A 
ATOM     14  C   UNL A   1      41.567  26.004  25.744  1.00  0.00     0.014 A 
ATOM     15  C   UNL A   1      42.707  26.543  28.207  1.00  0.00     0.010 A 
ATOM     16  C   UNL A   1      41.301  27.221  26.372  1.00  0.00     0.010 A 
ATOM     17  C   UNL A   1      41.853  27.484  27.622  1.00  0.00    -0.014 A 
BRANCH  17  18
ATOM     18  C   UNL A   1      41.639  28.760  28.312  1.00  0.00     0.031 A 
ATOM     19  C   UNL A   1      42.714  29.793  28.173  1.00  0.00     0.074 A 
ATOM     20  C   UNL A   1      40.485  29.119  28.913  1.00  0.00     0.049 A 
ATOM     21  N   UNL A   1      43.384  30.397  29.104  1.00  0.00    -0.248 NA
ATOM     22  C   UNL A   1      43.094  30.191  26.810  1.00  0.00     0.031 C 
ATOM     23  C   UNL A   1      39.191  28.434  28.884  1.00  0.00     0.029 A 
ATOM     24  N   UNL A   1      40.220  30.258  29.619  1.00  0.00    -0.354 N 
ATOM     25  C   UNL A   1      44.173  31.353  28.461  1.00  0.00     0.074 A 
ATOM     26  C   UNL A   1      44.008  31.133  27.046  1.00  0.00     0.031 C 
ATOM     27  C   UNL A   1      38.239  29.263  29.373  1.00  0.00     0.029 A 
ATOM     28  C   UNL A   1      38.875  30.470  29.874  1.00  0.00     0.049 A 
ATOM     29  H   UNL A   1      40.924  30.875  29.921  1.00  0.00     0.167 HD
ATOM     30  C   UNL A   1      44.815  32.356  29.124  1.00  0.00     0.037 A 
ATOM     31  C   UNL A   1      38.315  31.578  30.415  1.00  0.00     0.037 A 
ATOM     32  C   UNL A   1      44.940  32.090  30.529  1.00  0.00     0.049 A 
ATOM     33  C   UNL A   1      39.371  32.340  31.119  1.00  0.00     0.074 A 
ATOM     34  C   UNL A   1      45.555  31.112  31.287  1.00  0.00     0.029 A 
ATOM     35  N   UNL A   1      44.126  32.764  31.403  1.00  0.00    -0.354 N 
ATOM     36  N   UNL A   1      39.945  31.962  32.225  1.00  0.00    -0.248 NA
ATOM     37  C   UNL A   1      40.055  33.396  30.389  1.00  0.00     0.031 C 
ATOM     38  C   UNL A   1      44.708  30.933  32.420  1.00  0.00     0.029 A 
ATOM     39  C   UNL A   1      43.646  31.827  32.281  1.00  0.00     0.049 A 
ATOM     40  H   UNL A   1      43.927  33.728  31.401  1.00  0.00     0.167 HD
ATOM     41  C   UNL A   1      41.247  32.426  32.124  1.00  0.00     0.074 A 
ATOM     42  C   UNL A   1      41.221  33.398  31.036  1.00  0.00     0.031 C 
ATOM     43  C   UNL A   1      42.280  31.782  32.743  1.00  0.00     0.037 A 
BRANCH  30  44
ATOM     44  C   UNL A   1      45.129  33.706  28.537  1.00  0.00     0.057 A 
ATOM     45  C   UNL A   1      46.455  34.175  28.502  1.00  0.00     0.134 A 
ATOM     46  C   UNL A   1      44.143  34.668  28.244  1.00  0.00     0.134 A 
ATOM     47  F   UNL A   1      47.482  33.363  28.798  1.00  0.00    -0.206 F 
ATOM     48  C   UNL A   1      46.773  35.512  28.227  1.00  0.00     0.040 A 
ATOM     49  C   UNL A   1      44.451  35.995  27.923  1.00  0.00     0.040 A 
ATOM     50  F   UNL A   1      42.836  34.392  28.346  1.00  0.00    -0.206 F 
ATOM     51  C   UNL A   1      45.768  36.427  27.937  1.00  0.00     0.006 A 
ENDBRANCH  30  44
BRANCH  31  52
ATOM     52  C   UNL A   1      36.977  32.153  30.164  1.00  0.00     0.057 A 
ATOM     53  C   UNL A   1      35.911  31.940  31.049  1.00  0.00     0.134 A 
ATOM     54  C   UNL A   1      36.786  33.147  29.189  1.00  0.00     0.134 A 
ATOM     55  F   UNL A   1      36.016  31.043  32.040  1.00  0.00    -0.206 F 
ATOM     56  C   UNL A   1      34.728  32.687  30.980  1.00  0.00     0.040 A 
ATOM     57  C   UNL A   1      35.607  33.893  29.105  1.00  0.00     0.040 A 
ATOM     58  F   UNL A   1      37.771  33.485  28.346  1.00  0.00    -0.206 F 
ATOM     59  C   UNL A   1      34.578  33.675  30.011  1.00  0.00     0.006 A 
ENDBRANCH  31  52
BRANCH  43  60
ATOM     60  C   UNL A   1      41.941  30.731  33.762  1.00  0.00     0.057 A 
ATOM     61  C   UNL A   1      41.678  29.391  33.437  1.00  0.00     0.134 A 
ATOM     62  C   UNL A   1      42.031  31.046  35.123  1.00  0.00     0.134 A 
ATOM     63  F   UNL A   1      41.681  28.973  32.166  1.00  0.00    -0.206 F 
ATOM     64  C   UNL A   1      41.461  28.422  34.422  1.00  0.00     0.040 A 
ATOM     65  C   UNL A   1      41.851  30.080  36.117  1.00  0.00     0.040 A 
ATOM     66  F   UNL A   1      42.341  32.292  35.510  1.00  0.00    -0.206 F 
ATOM     67  C   UNL A   1      41.553  28.764  35.767  1.00  0.00     0.006 A 
ENDBRANCH  43  60
ENDBRANCH  17  18
ENDBRANCH  10  12
ENDBRANCH   7   8
ENDBRANCH   6   7
ENDBRANCH   5   6
ENDBRANCH   1   5
BRANCH   2  68
ATOM     68  C   UNL A   1      36.229  21.483  24.474  1.00  0.00     0.039 A 
ATOM     69  C   UNL A   1      36.404  22.627  23.686  1.00  0.00     0.016 A 
ATOM     70  C   UNL A   1      34.948  21.057  24.839  1.00  0.00     0.016 A 
ATOM     71  C   UNL A   1      35.294  23.283  23.151  1.00  0.00     0.029 A 
ATOM     72  C   UNL A   1      33.833  21.727  24.335  1.00  0.00     0.029 A 
ATOM     73  C   UNL A   1      34.018  22.812  23.462  1.00  0.00     0.066 A 
BRANCH  73  74
ATOM     74  N   UNL A   1      32.894  23.486  22.958  1.00  0.00    -0.220 N 
ATOM     75  C   UNL A   1      32.894  24.764  22.477  1.00  0.00     0.141 A 
ATOM     76  N   UNL A   1      31.629  23.077  23.172  1.00  0.00    -0.062 NA
ATOM     77  C   UNL A   1      31.586  25.173  22.473  1.00  0.00     0.093 A 
ATOM     78  N   UNL A   1      30.825  24.107  22.910  1.00  0.00    -0.134 NA
BRANCH  77  79
ATOM     79  C   UNL A   1      30.994  26.533  22.397  1.00  0.00     0.138 C 
BRANCH  79  80
ATOM     80  S   UNL A   1      30.332  27.465  23.773  1.00  0.00    -0.081 SA
BRANCH  80  81
ATOM     81  C   UNL A   1      31.489  27.766  25.036  1.00  0.00     0.176 A 
ATOM     82  N   UNL A   1      31.615  29.041  25.265  1.00  0.00    -0.223 NA
ATOM     83  N   UNL A   1      32.194  26.815  25.763  1.00  0.00    -0.255 N 
ATOM     84  C   UNL A   1      32.558  29.469  26.201  1.00  0.00     0.079 A 
ATOM     85  C   UNL A   1      33.481  27.236  26.132  1.00  0.00     0.266 A 
ATOM     86  C   UNL A   1      32.526  30.765  26.715  1.00  0.00     0.029 A 
ATOM     87  C   UNL A   1      33.604  28.635  26.559  1.00  0.00     0.066 A 
ATOM     88  O   UNL A   1      34.508  26.561  26.084  1.00  0.00    -0.268 OA
ATOM     89  C   UNL A   1      33.565  31.224  27.533  1.00  0.00     0.002 A 
ATOM     90  C   UNL A   1      34.677  29.092  27.330  1.00  0.00     0.016 A 
ATOM     91  C   UNL A   1      34.656  30.398  27.814  1.00  0.00     0.001 A 
BRANCH  83  92
ATOM     92  C   UNL A   1      31.799  25.448  26.078  1.00  0.00     0.051 A 
ATOM     93  C   UNL A   1      30.432  25.089  26.090  1.00  0.00     0.027 A 
ATOM     94  C   UNL A   1      32.689  24.424  26.425  1.00  0.00     0.027 A 
ATOM     95  C   UNL A   1      29.976  23.880  26.625  1.00  0.00     0.002 A 
ATOM     96  C   UNL A   1      32.242  23.224  27.001  1.00  0.00     0.002 A 
ATOM     97  C   UNL A   1      30.885  22.966  27.132  1.00  0.00     0.000 A 
ENDBRANCH  83  92
ENDBRANCH  80  81
ENDBRANCH  79  80
ENDBRANCH  77  79
ENDBRANCH  73  74
ENDBRANCH   2  68
TORSDOF 15
ENDMDL
MODEL 2
REMARK VINA RESULT:     -12.9      3.060      8.458
REMARK SMILES O=C(NCCCNC(=O)c1ccc(-n2cc(CSc3nc4ccccc4c(=O)n3-c3ccccc3)nn2)cc1)c1ccc(-c2c3nc(c(-c4c(F)cccc4F)c4ccc([nH]4)c(-c4c(F)cccc4F)c4nc(c(-c5c(F)cccc5F)c5ccc2[nH]5)C=C4)C=C3)cc1
REMARK SMILES IDX 7 1 8 2 9 3 6 5 5 6 4 7 3 8 1 9 2 10 40 12 41 13 93 14 42 15
REMARK SMILES IDX 92 16 43 17 44 18 45 19 86 20 46 21 91 22 85 23 87 24 47 25
REMARK SMILES IDX 90 26 84 27 83 28 48 30 74 31 57 32 73 33 58 34 61 35 72 36
REMARK SMILES IDX 88 37 59 38 60 39 71 41 89 42 62 43 49 44 50 45 55 46 51 47
REMARK SMILES IDX 52 48 54 49 56 50 53 51 75 52 76 53 81 54 77 55 78 56 80 57
REMARK SMILES IDX 82 58 79 59 63 60 64 61 69 62 65 63 66 64 68 65 70 66 67 67
REMARK SMILES IDX 10 68 11 69 39 70 12 71 38 72 13 73 14 74 15 75 37 76 16 77
REMARK SMILES IDX 36 78 17 79 18 80 19 81 20 82 29 83 21 84 27 85 22 86 26 87
REMARK SMILES IDX 28 88 23 89 25 90 24 91 30 92 31 93 35 94 32 95 34 96 33 97
REMARK H PARENT 7 4 3 11 87 29 61 40
REMARK Flexibility Score: inf
ROOT
ATOM      1  N   UNL A   1      33.013  30.981  27.560  1.00  0.00    -0.352 N 
ATOM      2  C   UNL A   1      32.064  30.711  26.600  1.00  0.00     0.251 C 
ATOM      3  O   UNL A   1      31.075  31.415  26.494  1.00  0.00    -0.269 OA
ATOM      4  H   UNL A   1      32.788  31.721  28.168  1.00  0.00     0.163 HD
ENDROOT
BRANCH   1   5
ATOM      5  C   UNL A   1      34.296  30.346  27.822  1.00  0.00     0.118 C 
BRANCH   5   6
ATOM      6  C   UNL A   1      35.479  31.311  27.768  1.00  0.00     0.042 C 
BRANCH   6   7
ATOM      7  C   UNL A   1      35.254  32.638  28.490  1.00  0.00     0.118 C 
BRANCH   7   8
ATOM      8  N   UNL A   1      35.025  32.509  29.917  1.00  0.00    -0.352 N 
ATOM      9  O   UNL A   1      35.153  32.082  32.071  1.00  0.00    -0.269 OA
ATOM     10  C   UNL A   1      35.641  31.872  30.957  1.00  0.00     0.251 C 
ATOM     11  H   UNL A   1      34.227  33.006  30.209  1.00  0.00     0.163 HD
BRANCH  10  12
ATOM     12  C   UNL A   1      36.801  30.941  30.857  1.00  0.00     0.039 A 
ATOM     13  C   UNL A   1      36.747  29.547  30.898  1.00  0.00     0.014 A 
ATOM     14  C   UNL A   1      38.064  31.549  30.715  1.00  0.00     0.014 A 
ATOM     15  C   UNL A   1      37.922  28.790  30.849  1.00  0.00     0.010 A 
ATOM     16  C   UNL A   1      39.237  30.798  30.650  1.00  0.00     0.010 A 
ATOM     17  C   UNL A   1      39.171  29.411  30.742  1.00  0.00    -0.014 A 
BRANCH  17  18
ATOM     18  C   UNL A   1      40.367  28.569  30.642  1.00  0.00     0.031 A 
ATOM     19  C   UNL A   1      41.181  28.401  31.886  1.00  0.00     0.074 A 
ATOM     20  C   UNL A   1      40.683  27.816  29.568  1.00  0.00     0.049 A 
ATOM     21  N   UNL A   1      42.438  28.656  32.074  1.00  0.00    -0.248 NA
ATOM     22  C   UNL A   1      40.491  27.889  33.079  1.00  0.00     0.031 C 
ATOM     23  C   UNL A   1      39.876  27.544  28.376  1.00  0.00     0.029 A 
ATOM     24  N   UNL A   1      41.796  27.050  29.373  1.00  0.00    -0.354 N 
ATOM     25  C   UNL A   1      42.740  28.211  33.363  1.00  0.00     0.074 A 
ATOM     26  C   UNL A   1      41.489  27.814  33.961  1.00  0.00     0.031 C 
ATOM     27  C   UNL A   1      40.439  26.528  27.681  1.00  0.00     0.029 A 
ATOM     28  C   UNL A   1      41.708  26.179  28.299  1.00  0.00     0.049 A 
ATOM     29  H   UNL A   1      42.594  27.111  29.946  1.00  0.00     0.167 HD
ATOM     30  C   UNL A   1      44.016  28.069  33.822  1.00  0.00     0.037 A 
ATOM     31  C   UNL A   1      42.590  25.207  27.965  1.00  0.00     0.037 A 
ATOM     32  C   UNL A   1      44.966  28.796  33.029  1.00  0.00     0.049 A 
ATOM     33  C   UNL A   1      43.882  25.501  28.625  1.00  0.00     0.074 A 
ATOM     34  C   UNL A   1      45.161  30.128  32.717  1.00  0.00     0.029 A 
ATOM     35  N   UNL A   1      45.773  28.102  32.165  1.00  0.00    -0.354 N 
ATOM     36  N   UNL A   1      44.676  26.480  28.297  1.00  0.00    -0.248 NA
ATOM     37  C   UNL A   1      44.144  24.892  29.919  1.00  0.00     0.031 C 
ATOM     38  C   UNL A   1      45.662  30.126  31.382  1.00  0.00     0.029 A 
ATOM     39  C   UNL A   1      45.754  28.792  30.981  1.00  0.00     0.049 A 
ATOM     40  H   UNL A   1      46.268  27.272  32.357  1.00  0.00     0.167 HD
ATOM     41  C   UNL A   1      45.259  26.878  29.490  1.00  0.00     0.074 A 
ATOM     42  C   UNL A   1      44.988  25.792  30.426  1.00  0.00     0.031 C 
ATOM     43  C   UNL A   1      45.668  28.166  29.684  1.00  0.00     0.037 A 
BRANCH  30  44
ATOM     44  C   UNL A   1      44.444  27.070  34.863  1.00  0.00     0.057 A 
ATOM     45  C   UNL A   1      45.124  27.495  36.019  1.00  0.00     0.134 A 
ATOM     46  C   UNL A   1      44.443  25.679  34.644  1.00  0.00     0.134 A 
ATOM     47  F   UNL A   1      45.226  28.799  36.318  1.00  0.00    -0.206 F 
ATOM     48  C   UNL A   1      45.782  26.603  36.876  1.00  0.00     0.040 A 
ATOM     49  C   UNL A   1      45.057  24.774  35.517  1.00  0.00     0.040 A 
ATOM     50  F   UNL A   1      43.930  25.141  33.529  1.00  0.00    -0.206 F 
ATOM     51  C   UNL A   1      45.750  25.236  36.625  1.00  0.00     0.006 A 
ENDBRANCH  30  44
BRANCH  31  52
ATOM     52  C   UNL A   1      42.329  23.909  27.310  1.00  0.00     0.057 A 
ATOM     53  C   UNL A   1      42.581  23.713  25.945  1.00  0.00     0.134 A 
ATOM     54  C   UNL A   1      42.081  22.751  28.067  1.00  0.00     0.134 A 
ATOM     55  F   UNL A   1      42.872  24.754  25.150  1.00  0.00    -0.206 F 
ATOM     56  C   UNL A   1      42.603  22.437  25.369  1.00  0.00     0.040 A 
ATOM     57  C   UNL A   1      42.092  21.472  27.503  1.00  0.00     0.040 A 
ATOM     58  F   UNL A   1      41.908  22.818  29.395  1.00  0.00    -0.206 F 
ATOM     59  C   UNL A   1      42.368  21.310  26.152  1.00  0.00     0.006 A 
ENDBRANCH  31  52
BRANCH  43  60
ATOM     60  C   UNL A   1      45.731  29.071  28.486  1.00  0.00     0.057 A 
ATOM     61  C   UNL A   1      44.639  29.819  28.020  1.00  0.00     0.134 A 
ATOM     62  C   UNL A   1      46.969  29.310  27.878  1.00  0.00     0.134 A 
ATOM     63  F   UNL A   1      43.441  29.739  28.611  1.00  0.00    -0.206 F 
ATOM     64  C   UNL A   1      44.764  30.723  26.960  1.00  0.00     0.040 A 
ATOM     65  C   UNL A   1      47.114  30.236  26.842  1.00  0.00     0.040 A 
ATOM     66  F   UNL A   1      48.070  28.679  28.312  1.00  0.00    -0.206 F 
ATOM     67  C   UNL A   1      46.006  30.938  26.371  1.00  0.00     0.006 A 
ENDBRANCH  43  60
ENDBRANCH  17  18
ENDBRANCH  10  12
ENDBRANCH   7   8
ENDBRANCH   6   7
ENDBRANCH   5   6
ENDBRANCH   1   5
BRANCH   2  68
ATOM     68  C   UNL A   1      32.272  29.588  25.659  1.00  0.00     0.039 A 
ATOM     69  C   UNL A   1      31.499  28.433  25.828  1.00  0.00     0.016 A 
ATOM     70  C   UNL A   1      33.220  29.669  24.634  1.00  0.00     0.016 A 
ATOM     71  C   UNL A   1      31.579  27.397  24.895  1.00  0.00     0.029 A 
ATOM     72  C   UNL A   1      33.329  28.624  23.717  1.00  0.00     0.029 A 
ATOM     73  C   UNL A   1      32.477  27.513  23.834  1.00  0.00     0.066 A 
BRANCH  73  74
ATOM     74  N   UNL A   1      32.591  26.462  22.911  1.00  0.00    -0.220 N 
ATOM     75  C   UNL A   1      32.188  25.176  23.130  1.00  0.00     0.141 A 
ATOM     76  N   UNL A   1      33.386  26.513  21.825  1.00  0.00    -0.062 NA
ATOM     77  C   UNL A   1      32.825  24.408  22.190  1.00  0.00     0.093 A 
ATOM     78  N   UNL A   1      33.561  25.264  21.396  1.00  0.00    -0.134 NA
BRANCH  77  79
ATOM     79  C   UNL A   1      33.063  22.943  22.133  1.00  0.00     0.138 C 
BRANCH  79  80
ATOM     80  S   UNL A   1      32.950  21.810  23.512  1.00  0.00    -0.081 SA
BRANCH  80  81
ATOM     81  C   UNL A   1      34.439  21.623  24.389  1.00  0.00     0.176 A 
ATOM     82  N   UNL A   1      34.944  22.779  24.712  1.00  0.00    -0.223 NA
ATOM     83  N   UNL A   1      35.046  20.428  24.753  1.00  0.00    -0.255 N 
ATOM     84  C   UNL A   1      36.180  22.819  25.359  1.00  0.00     0.079 A 
ATOM     85  C   UNL A   1      36.449  20.493  24.759  1.00  0.00     0.266 A 
ATOM     86  C   UNL A   1      36.619  23.976  26.004  1.00  0.00     0.029 A 
ATOM     87  C   UNL A   1      37.035  21.732  25.285  1.00  0.00     0.066 A 
ATOM     88  O   UNL A   1      37.218  19.637  24.324  1.00  0.00    -0.268 OA
ATOM     89  C   UNL A   1      37.921  24.047  26.513  1.00  0.00     0.002 A 
ATOM     90  C   UNL A   1      38.355  21.802  25.740  1.00  0.00     0.016 A 
ATOM     91  C   UNL A   1      38.799  22.972  26.353  1.00  0.00     0.001 A 
BRANCH  83  92
ATOM     92  C   UNL A   1      34.415  19.141  25.016  1.00  0.00     0.051 A 
ATOM     93  C   UNL A   1      34.921  17.967  24.413  1.00  0.00     0.027 A 
ATOM     94  C   UNL A   1      33.278  18.961  25.813  1.00  0.00     0.027 A 
ATOM     95  C   UNL A   1      34.220  16.757  24.417  1.00  0.00     0.002 A 
ATOM     96  C   UNL A   1      32.546  17.763  25.792  1.00  0.00     0.002 A 
ATOM     97  C   UNL A   1      33.000  16.671  25.067  1.00  0.00     0.000 A 
ENDBRANCH  83  92
ENDBRANCH  80  81
ENDBRANCH  79  80
ENDBRANCH  77  79
ENDBRANCH  73  74
ENDBRANCH   2  68
TORSDOF 15
ENDMDL
MODEL 3
REMARK VINA RESULT:     -12.3      5.409     12.252
REMARK SMILES O=C(NCCCNC(=O)c1ccc(-n2cc(CSc3nc4ccccc4c(=O)n3-c3ccccc3)nn2)cc1)c1ccc(-c2c3nc(c(-c4c(F)cccc4F)c4ccc([nH]4)c(-c4c(F)cccc4F)c4nc(c(-c5c(F)cccc5F)c5ccc2[nH]5)C=C4)C=C3)cc1
REMARK SMILES IDX 7 1 8 2 9 3 6 5 5 6 4 7 3 8 1 9 2 10 40 12 41 13 93 14 42 15
REMARK SMILES IDX 92 16 43 17 44 18 45 19 86 20 46 21 91 22 85 23 87 24 47 25
REMARK SMILES IDX 90 26 84 27 83 28 48 30 74 31 57 32 73 33 58 34 61 35 72 36
REMARK SMILES IDX 88 37 59 38 60 39 71 41 89 42 62 43 49 44 50 45 55 46 51 47
REMARK SMILES IDX 52 48 54 49 56 50 53 51 75 52 76 53 81 54 77 55 78 56 80 57
REMARK SMILES IDX 82 58 79 59 63 60 64 61 69 62 65 63 66 64 68 65 70 66 67 67
REMARK SMILES IDX 10 68 11 69 39 70 12 71 38 72 13 73 14 74 15 75 37 76 16 77
REMARK SMILES IDX 36 78 17 79 18 80 19 81 20 82 29 83 21 84 27 85 22 86 26 87
REMARK SMILES IDX 28 88 23 89 25 90 24 91 30 92 31 93 35 94 32 95 34 96 33 97
REMARK H PARENT 7 4 3 11 87 29 61 40
REMARK Flexibility Score: inf
ROOT
ATOM      1  N   UNL A   1      36.261  32.200  33.591  1.00  0.00    -0.352 N 
ATOM      2  C   UNL A   1      37.496  32.726  33.895  1.00  0.00     0.251 C 
ATOM      3  O   UNL A   1      37.859  32.820  35.055  1.00  0.00    -0.269 OA
ATOM      4  H   UNL A   1      35.701  31.981  34.371  1.00  0.00     0.163 HD
ENDROOT
BRANCH   1   5
ATOM      5  C   UNL A   1      35.650  31.914  32.302  1.00  0.00     0.118 C 
BRANCH   5   6
ATOM      6  C   UNL A   1      34.440  32.794  31.989  1.00  0.00     0.042 C 
BRANCH   6   7
ATOM      7  C   UNL A   1      34.620  33.724  30.791  1.00  0.00     0.118 C 
BRANCH   7   8
ATOM      8  N   UNL A   1      34.182  33.160  29.528  1.00  0.00    -0.352 N 
ATOM      9  O   UNL A   1      33.886  31.940  27.721  1.00  0.00    -0.269 OA
ATOM     10  C   UNL A   1      34.605  32.158  28.700  1.00  0.00     0.251 C 
ATOM     11  H   UNL A   1      33.380  33.611  29.181  1.00  0.00     0.163 HD
BRANCH  10  12
ATOM     12  C   UNL A   1      35.850  31.352  28.858  1.00  0.00     0.039 A 
ATOM     13  C   UNL A   1      35.932  29.959  28.893  1.00  0.00     0.014 A 
ATOM     14  C   UNL A   1      37.044  32.088  28.991  1.00  0.00     0.014 A 
ATOM     15  C   UNL A   1      37.162  29.326  29.104  1.00  0.00     0.010 A 
ATOM     16  C   UNL A   1      38.274  31.461  29.185  1.00  0.00     0.010 A 
ATOM     17  C   UNL A   1      38.333  30.073  29.267  1.00  0.00    -0.014 A 
BRANCH  17  18
ATOM     18  C   UNL A   1      39.603  29.359  29.433  1.00  0.00     0.031 A 
ATOM     19  C   UNL A   1      40.038  29.072  30.836  1.00  0.00     0.074 A 
ATOM     20  C   UNL A   1      40.307  28.809  28.423  1.00  0.00     0.049 A 
ATOM     21  N   UNL A   1      41.146  29.400  31.426  1.00  0.00    -0.248 NA
ATOM     22  C   UNL A   1      39.103  28.328  31.693  1.00  0.00     0.031 C 
ATOM     23  C   UNL A   1      39.919  28.655  27.019  1.00  0.00     0.029 A 
ATOM     24  N   UNL A   1      41.516  28.177  28.483  1.00  0.00    -0.354 N 
ATOM     25  C   UNL A   1      41.116  28.790  32.682  1.00  0.00     0.074 A 
ATOM     26  C   UNL A   1      39.806  28.203  32.820  1.00  0.00     0.031 C 
ATOM     27  C   UNL A   1      40.781  27.808  26.410  1.00  0.00     0.029 A 
ATOM     28  C   UNL A   1      41.852  27.476  27.336  1.00  0.00     0.049 A 
ATOM     29  H   UNL A   1      42.101  28.216  29.274  1.00  0.00     0.167 HD
ATOM     30  C   UNL A   1      42.213  28.687  33.485  1.00  0.00     0.037 A 
ATOM     31  C   UNL A   1      42.907  26.644  27.170  1.00  0.00     0.037 A 
ATOM     32  C   UNL A   1      43.252  29.603  33.111  1.00  0.00     0.049 A 
ATOM     33  C   UNL A   1      43.906  26.941  28.221  1.00  0.00     0.074 A 
ATOM     34  C   UNL A   1      43.360  30.979  33.036  1.00  0.00     0.029 A 
ATOM     35  N   UNL A   1      44.355  29.119  32.455  1.00  0.00    -0.354 N 
ATOM     36  N   UNL A   1      44.632  28.021  28.270  1.00  0.00    -0.248 NA
ATOM     37  C   UNL A   1      43.858  26.165  29.450  1.00  0.00     0.031 C 
ATOM     38  C   UNL A   1      44.222  31.222  31.926  1.00  0.00     0.029 A 
ATOM     39  C   UNL A   1      44.591  29.978  31.414  1.00  0.00     0.049 A 
ATOM     40  H   UNL A   1      44.873  28.314  32.687  1.00  0.00     0.167 HD
ATOM     41  C   UNL A   1      44.791  28.279  29.622  1.00  0.00     0.074 A 
ATOM     42  C   UNL A   1      44.400  27.044  30.294  1.00  0.00     0.031 C 
ATOM     43  C   UNL A   1      44.962  29.552  30.086  1.00  0.00     0.037 A 
BRANCH  30  44
ATOM     44  C   UNL A   1      42.445  27.579  34.478  1.00  0.00     0.057 A 
ATOM     45  C   UNL A   1      42.952  26.339  34.054  1.00  0.00     0.134 A 
ATOM     46  C   UNL A   1      41.941  27.605  35.793  1.00  0.00     0.134 A 
ATOM     47  F   UNL A   1      43.427  26.177  32.809  1.00  0.00    -0.206 F 
ATOM     48  C   UNL A   1      42.929  25.198  34.868  1.00  0.00     0.040 A 
ATOM     49  C   UNL A   1      41.955  26.485  36.632  1.00  0.00     0.040 A 
ATOM     50  F   UNL A   1      41.329  28.687  36.293  1.00  0.00    -0.206 F 
ATOM     51  C   UNL A   1      42.428  25.270  36.162  1.00  0.00     0.006 A 
ENDBRANCH  30  44
BRANCH  31  52
ATOM     52  C   UNL A   1      43.011  25.443  26.315  1.00  0.00     0.057 A 
ATOM     53  C   UNL A   1      44.030  25.309  25.363  1.00  0.00     0.134 A 
ATOM     54  C   UNL A   1      42.270  24.283  26.600  1.00  0.00     0.134 A 
ATOM     55  F   UNL A   1      44.818  26.350  25.056  1.00  0.00    -0.206 F 
ATOM     56  C   UNL A   1      44.310  24.085  24.742  1.00  0.00     0.040 A 
ATOM     57  C   UNL A   1      42.534  23.058  25.982  1.00  0.00     0.040 A 
ATOM     58  F   UNL A   1      41.327  24.283  27.553  1.00  0.00    -0.206 F 
ATOM     59  C   UNL A   1      43.567  22.952  25.059  1.00  0.00     0.006 A 
ENDBRANCH  31  52
BRANCH  43  60
ATOM     60  C   UNL A   1      45.254  30.631  29.082  1.00  0.00     0.057 A 
ATOM     61  C   UNL A   1      44.258  31.343  28.395  1.00  0.00     0.134 A 
ATOM     62  C   UNL A   1      46.573  31.069  28.916  1.00  0.00     0.134 A 
ATOM     63  F   UNL A   1      42.961  31.069  28.576  1.00  0.00    -0.206 F 
ATOM     64  C   UNL A   1      44.568  32.406  27.541  1.00  0.00     0.040 A 
ATOM     65  C   UNL A   1      46.893  32.152  28.093  1.00  0.00     0.040 A 
ATOM     66  F   UNL A   1      47.572  30.478  29.590  1.00  0.00    -0.206 F 
ATOM     67  C   UNL A   1      45.889  32.817  27.392  1.00  0.00     0.006 A 
ENDBRANCH  43  60
ENDBRANCH  17  18
ENDBRANCH  10  12
ENDBRANCH   7   8
ENDBRANCH   6   7
ENDBRANCH   5   6
ENDBRANCH   1   5
BRANCH   2  68
ATOM     68  C   UNL A   1      38.407  33.136  32.804  1.00  0.00     0.039 A 
ATOM     69  C   UNL A   1      38.038  34.230  32.011  1.00  0.00     0.016 A 
ATOM     70  C   UNL A   1      39.599  32.448  32.560  1.00  0.00     0.016 A 
ATOM     71  C   UNL A   1      38.920  34.722  31.047  1.00  0.00     0.029 A 
ATOM     72  C   UNL A   1      40.471  32.914  31.576  1.00  0.00     0.029 A 
ATOM     73  C   UNL A   1      40.139  34.073  30.855  1.00  0.00     0.066 A 
BRANCH  73  74
ATOM     74  N   UNL A   1      41.018  34.539  29.864  1.00  0.00    -0.220 N 
ATOM     75  C   UNL A   1      42.374  34.626  29.994  1.00  0.00     0.141 A 
ATOM     76  N   UNL A   1      40.615  35.242  28.789  1.00  0.00    -0.062 NA
ATOM     77  C   UNL A   1      42.801  35.479  29.009  1.00  0.00     0.093 A 
ATOM     78  N   UNL A   1      41.688  35.845  28.278  1.00  0.00    -0.134 NA
BRANCH  77  79
ATOM     79  C   UNL A   1      44.076  36.225  28.856  1.00  0.00     0.138 C 
BRANCH  79  80
ATOM     80  S   UNL A   1      44.283  37.777  27.991  1.00  0.00    -0.081 SA
BRANCH  80  81
ATOM     81  C   UNL A   1      43.677  39.152  28.867  1.00  0.00     0.176 A 
ATOM     82  N   UNL A   1      44.100  39.149  30.099  1.00  0.00    -0.223 NA
ATOM     83  N   UNL A   1      42.872  40.168  28.368  1.00  0.00    -0.255 N 
ATOM     84  C   UNL A   1      43.651  40.144  30.969  1.00  0.00     0.079 A 
ATOM     85  C   UNL A   1      41.973  40.683  29.315  1.00  0.00     0.266 A 
ATOM     86  C   UNL A   1      44.294  40.383  32.183  1.00  0.00     0.029 A 
ATOM     87  C   UNL A   1      42.494  40.847  30.677  1.00  0.00     0.066 A 
ATOM     88  O   UNL A   1      40.790  40.960  29.118  1.00  0.00    -0.268 OA
ATOM     89  C   UNL A   1      43.742  41.276  33.109  1.00  0.00     0.002 A 
ATOM     90  C   UNL A   1      41.898  41.702  31.609  1.00  0.00     0.016 A 
ATOM     91  C   UNL A   1      42.528  41.911  32.835  1.00  0.00     0.001 A 
BRANCH  83  92
ATOM     92  C   UNL A   1      42.790  40.662  27.000  1.00  0.00     0.051 A 
ATOM     93  C   UNL A   1      43.899  41.314  26.414  1.00  0.00     0.027 A 
ATOM     94  C   UNL A   1      41.649  40.581  26.192  1.00  0.00     0.027 A 
ATOM     95  C   UNL A   1      43.804  42.028  25.215  1.00  0.00     0.002 A 
ATOM     96  C   UNL A   1      41.530  41.326  25.008  1.00  0.00     0.002 A 
ATOM     97  C   UNL A   1      42.598  42.077  24.536  1.00  0.00     0.000 A 
ENDBRANCH  83  92
ENDBRANCH  80  81
ENDBRANCH  79  80
ENDBRANCH  77  79
ENDBRANCH  73  74
ENDBRANCH   2  68
TORSDOF 15
ENDMDL
