MODEL 1
REMARK VINA RESULT:      -9.2      0.000      0.000
REMARK SMILES O=C(CCCC[C@@H]1CCSS1)NCCCNC(=O)c1ccc(-c2c3nc(c(-c4c(F)cccc4F)c4ccc([nH]4)c(-c4c(F)cccc4F)c4nc(c(-c5c(F)cccc5F)c5ccc2[nH]5)C=C4)C=C3)cc1
REMARK SMILES IDX 13 1 12 2 1 3 2 4 3 6 4 7 5 8 6 9 7 10 8 11 11 12 9 13 10 14
REMARK SMILES IDX 14 15 15 16 16 17 17 18 18 20 19 21 20 22 72 23 21 24 71 25
REMARK SMILES IDX 22 26 23 27 24 28 65 29 25 30 70 31 64 32 66 33 26 34 69 35
REMARK SMILES IDX 63 36 62 37 27 39 53 40 36 41 52 42 37 43 40 44 51 45 67 46
REMARK SMILES IDX 38 47 39 48 50 50 68 51 41 52 28 53 29 54 34 55 30 56 31 57
REMARK SMILES IDX 33 58 35 59 32 60 54 61 55 62 60 63 56 64 57 65 59 66 61 67
REMARK SMILES IDX 58 68 42 69 43 70 48 71 44 72 45 73 47 74 49 75 46 76
REMARK H PARENT 12 5 16 19 66 38 40 49
REMARK Flexibility Score: inf
ROOT
ATOM      1  C   UNL A   1      46.265  19.758  24.577  1.00  0.00     0.117 C 
ENDROOT
BRANCH   1   2
ATOM      2  N   UNL A   1      46.310  21.128  24.119  1.00  0.00    -0.356 N 
ATOM      3  O   UNL A   1      45.890  22.114  26.152  1.00  0.00    -0.275 OA
ATOM      4  C   UNL A   1      46.171  22.203  24.963  1.00  0.00     0.219 C 
ATOM      5  H   UNL A   1      46.448  21.299  23.159  1.00  0.00     0.163 HD
BRANCH   4   6
ATOM      6  C   UNL A   1      46.438  23.526  24.281  1.00  0.00     0.100 C 
BRANCH   6   7
ATOM      7  C   UNL A   1      45.725  24.679  24.989  1.00  0.00     0.010 C 
BRANCH   7   8
ATOM      8  C   UNL A   1      46.572  25.917  25.317  1.00  0.00     0.002 C 
BRANCH   8   9
ATOM      9  C   UNL A   1      45.853  27.272  25.424  1.00  0.00     0.015 C 
BRANCH   9  10
ATOM     10  C   UNL A   1      44.417  27.301  25.982  1.00  0.00     0.059 C 
ATOM     11  C   UNL A   1      43.297  27.132  24.944  1.00  0.00     0.027 C 
ATOM     12  S   UNL A   1      44.103  28.823  26.942  1.00  0.00    -0.091 SA
ATOM     13  C   UNL A   1      41.955  27.607  25.493  1.00  0.00     0.083 C 
ATOM     14  S   UNL A   1      42.256  29.247  26.183  1.00  0.00    -0.094 SA
ENDBRANCH   9  10
ENDBRANCH   8   9
ENDBRANCH   7   8
ENDBRANCH   6   7
ENDBRANCH   4   6
ENDBRANCH   1   2
BRANCH   1  15
ATOM     15  C   UNL A   1      44.872  19.163  24.439  1.00  0.00     0.042 C 
BRANCH  15  16
ATOM     16  C   UNL A   1      44.107  19.033  25.752  1.00  0.00     0.118 C 
BRANCH  16  17
ATOM     17  N   UNL A   1      42.697  18.723  25.574  1.00  0.00    -0.352 N 
ATOM     18  C   UNL A   1      41.589  19.455  25.934  1.00  0.00     0.251 C 
ATOM     19  H   UNL A   1      42.508  17.864  25.132  1.00  0.00     0.163 HD
ATOM     20  O   UNL A   1      40.470  18.970  25.822  1.00  0.00    -0.269 OA
BRANCH  18  21
ATOM     21  C   UNL A   1      41.749  20.820  26.484  1.00  0.00     0.039 A 
ATOM     22  C   UNL A   1      41.496  21.032  27.842  1.00  0.00     0.014 A 
ATOM     23  C   UNL A   1      42.146  21.886  25.673  1.00  0.00     0.014 A 
ATOM     24  C   UNL A   1      41.707  22.296  28.399  1.00  0.00     0.010 A 
ATOM     25  C   UNL A   1      42.436  23.123  26.244  1.00  0.00     0.010 A 
ATOM     26  C   UNL A   1      42.215  23.344  27.612  1.00  0.00    -0.014 A 
BRANCH  26  27
ATOM     27  C   UNL A   1      42.510  24.677  28.202  1.00  0.00     0.031 A 
ATOM     28  C   UNL A   1      43.895  24.994  28.698  1.00  0.00     0.074 A 
ATOM     29  C   UNL A   1      41.522  25.581  28.346  1.00  0.00     0.049 A 
ATOM     30  N   UNL A   1      44.332  26.072  29.297  1.00  0.00    -0.248 NA
ATOM     31  C   UNL A   1      44.918  23.951  28.521  1.00  0.00     0.031 C 
ATOM     32  C   UNL A   1      40.127  25.383  27.949  1.00  0.00     0.029 A 
ATOM     33  N   UNL A   1      41.539  26.848  28.876  1.00  0.00    -0.354 N 
ATOM     34  C   UNL A   1      45.672  25.832  29.579  1.00  0.00     0.074 A 
ATOM     35  C   UNL A   1      45.961  24.485  29.140  1.00  0.00     0.031 C 
ATOM     36  C   UNL A   1      39.429  26.496  28.224  1.00  0.00     0.029 A 
ATOM     37  C   UNL A   1      40.314  27.471  28.855  1.00  0.00     0.049 A 
ATOM     38  H   UNL A   1      42.352  27.270  29.236  1.00  0.00     0.167 HD
ATOM     39  C   UNL A   1      46.586  26.666  30.131  1.00  0.00     0.037 A 
ATOM     40  C   UNL A   1      39.944  28.686  29.301  1.00  0.00     0.037 A 
ATOM     41  C   UNL A   1      46.304  28.015  30.550  1.00  0.00     0.049 A 
ATOM     42  C   UNL A   1      40.974  29.588  29.926  1.00  0.00     0.074 A 
ATOM     43  C   UNL A   1      47.176  28.956  31.068  1.00  0.00     0.029 A 
ATOM     44  N   UNL A   1      45.053  28.611  30.502  1.00  0.00    -0.354 N 
ATOM     45  N   UNL A   1      42.252  29.372  30.123  1.00  0.00    -0.248 NA
ATOM     46  C   UNL A   1      40.510  30.905  30.386  1.00  0.00     0.031 C 
ATOM     47  C   UNL A   1      46.444  30.105  31.381  1.00  0.00     0.029 A 
ATOM     48  C   UNL A   1      45.126  29.901  31.005  1.00  0.00     0.049 A 
ATOM     49  H   UNL A   1      44.235  28.184  30.162  1.00  0.00     0.167 HD
ATOM     50  C   UNL A   1      42.750  30.535  30.698  1.00  0.00     0.074 A 
ATOM     51  C   UNL A   1      41.639  31.457  30.806  1.00  0.00     0.031 C 
ATOM     52  C   UNL A   1      44.015  30.813  31.099  1.00  0.00     0.037 A 
BRANCH  39  53
ATOM     53  C   UNL A   1      47.981  26.141  30.313  1.00  0.00     0.057 A 
ATOM     54  C   UNL A   1      48.429  25.639  31.542  1.00  0.00     0.134 A 
ATOM     55  C   UNL A   1      48.878  26.106  29.237  1.00  0.00     0.134 A 
ATOM     56  F   UNL A   1      47.626  25.653  32.616  1.00  0.00    -0.206 F 
ATOM     57  C   UNL A   1      49.727  25.148  31.702  1.00  0.00     0.040 A 
ATOM     58  C   UNL A   1      50.168  25.591  29.378  1.00  0.00     0.040 A 
ATOM     59  F   UNL A   1      48.514  26.564  28.030  1.00  0.00    -0.206 F 
ATOM     60  C   UNL A   1      50.598  25.117  30.616  1.00  0.00     0.006 A 
ENDBRANCH  39  53
BRANCH  40  61
ATOM     61  C   UNL A   1      38.535  29.135  29.158  1.00  0.00     0.057 A 
ATOM     62  C   UNL A   1      38.060  29.649  27.946  1.00  0.00     0.134 A 
ATOM     63  C   UNL A   1      37.636  29.079  30.230  1.00  0.00     0.134 A 
ATOM     64  F   UNL A   1      38.879  29.747  26.888  1.00  0.00    -0.206 F 
ATOM     65  C   UNL A   1      36.750  30.112  27.809  1.00  0.00     0.040 A 
ATOM     66  C   UNL A   1      36.315  29.512  30.099  1.00  0.00     0.040 A 
ATOM     67  F   UNL A   1      38.025  28.592  31.416  1.00  0.00    -0.206 F 
ATOM     68  C   UNL A   1      35.872  30.039  28.888  1.00  0.00     0.006 A 
ENDBRANCH  40  61
BRANCH  52  69
ATOM     69  C   UNL A   1      44.276  32.184  31.653  1.00  0.00     0.057 A 
ATOM     70  C   UNL A   1      44.627  33.263  30.832  1.00  0.00     0.134 A 
ATOM     71  C   UNL A   1      44.134  32.436  33.024  1.00  0.00     0.134 A 
ATOM     72  F   UNL A   1      44.791  33.088  29.512  1.00  0.00    -0.206 F 
ATOM     73  C   UNL A   1      44.852  34.537  31.358  1.00  0.00     0.040 A 
ATOM     74  C   UNL A   1      44.328  33.710  33.557  1.00  0.00     0.040 A 
ATOM     75  F   UNL A   1      43.790  31.449  33.866  1.00  0.00    -0.206 F 
ATOM     76  C   UNL A   1      44.694  34.765  32.724  1.00  0.00     0.006 A 
ENDBRANCH  52  69
ENDBRANCH  26  27
ENDBRANCH  18  21
ENDBRANCH  16  17
ENDBRANCH  15  16
ENDBRANCH   1  15
TORSDOF 14
ENDMDL
MODEL 2
REMARK VINA RESULT:      -8.6      6.407     11.489
REMARK SMILES O=C(CCCC[C@@H]1CCSS1)NCCCNC(=O)c1ccc(-c2c3nc(c(-c4c(F)cccc4F)c4ccc([nH]4)c(-c4c(F)cccc4F)c4nc(c(-c5c(F)cccc5F)c5ccc2[nH]5)C=C4)C=C3)cc1
REMARK SMILES IDX 13 1 12 2 1 3 2 4 3 6 4 7 5 8 6 9 7 10 8 11 11 12 9 13 10 14
REMARK SMILES IDX 14 15 15 16 16 17 17 18 18 20 19 21 20 22 72 23 21 24 71 25
REMARK SMILES IDX 22 26 23 27 24 28 65 29 25 30 70 31 64 32 66 33 26 34 69 35
REMARK SMILES IDX 63 36 62 37 27 39 53 40 36 41 52 42 37 43 40 44 51 45 67 46
REMARK SMILES IDX 38 47 39 48 50 50 68 51 41 52 28 53 29 54 34 55 30 56 31 57
REMARK SMILES IDX 33 58 35 59 32 60 54 61 55 62 60 63 56 64 57 65 59 66 61 67
REMARK SMILES IDX 58 68 42 69 43 70 48 71 44 72 45 73 47 74 49 75 46 76
REMARK H PARENT 12 5 16 19 66 38 40 49
REMARK Flexibility Score: inf
ROOT
ATOM      1  C   UNL A   1      31.549  30.580  26.653  1.00  0.00     0.117 C 
ENDROOT
BRANCH   1   2
ATOM      2  N   UNL A   1      31.583  30.101  25.290  1.00  0.00    -0.356 N 
ATOM      3  O   UNL A   1      33.624  29.054  25.415  1.00  0.00    -0.275 OA
ATOM      4  C   UNL A   1      32.603  29.324  24.796  1.00  0.00     0.219 C 
ATOM      5  H   UNL A   1      30.842  30.341  24.688  1.00  0.00     0.163 HD
BRANCH   4   6
ATOM      6  C   UNL A   1      32.323  28.798  23.407  1.00  0.00     0.100 C 
BRANCH   6   7
ATOM      7  C   UNL A   1      31.028  27.987  23.362  1.00  0.00     0.010 C 
BRANCH   7   8
ATOM      8  C   UNL A   1      29.950  28.459  22.376  1.00  0.00     0.002 C 
BRANCH   8   9
ATOM      9  C   UNL A   1      28.558  28.793  22.937  1.00  0.00     0.015 C 
BRANCH   9  10
ATOM     10  C   UNL A   1      27.934  30.159  22.593  1.00  0.00     0.059 C 
ATOM     11  C   UNL A   1      28.313  30.737  21.220  1.00  0.00     0.027 C 
ATOM     12  S   UNL A   1      28.303  31.405  23.876  1.00  0.00    -0.091 SA
ATOM     13  C   UNL A   1      28.030  32.234  21.150  1.00  0.00     0.083 C 
ATOM     14  S   UNL A   1      28.779  32.949  22.627  1.00  0.00    -0.094 SA
ENDBRANCH   9  10
ENDBRANCH   8   9
ENDBRANCH   7   8
ENDBRANCH   6   7
ENDBRANCH   4   6
ENDBRANCH   1   2
BRANCH   1  15
ATOM     15  C   UNL A   1      31.406  32.093  26.716  1.00  0.00     0.042 C 
BRANCH  15  16
ATOM     16  C   UNL A   1      32.639  32.825  27.236  1.00  0.00     0.118 C 
BRANCH  16  17
ATOM     17  N   UNL A   1      32.376  34.201  27.627  1.00  0.00    -0.352 N 
ATOM     18  C   UNL A   1      32.975  34.961  28.605  1.00  0.00     0.251 C 
ATOM     19  H   UNL A   1      31.666  34.654  27.118  1.00  0.00     0.163 HD
ATOM     20  O   UNL A   1      32.528  36.067  28.882  1.00  0.00    -0.269 OA
BRANCH  18  21
ATOM     21  C   UNL A   1      34.144  34.432  29.343  1.00  0.00     0.039 A 
ATOM     22  C   UNL A   1      33.933  33.802  30.573  1.00  0.00     0.014 A 
ATOM     23  C   UNL A   1      35.438  34.552  28.832  1.00  0.00     0.014 A 
ATOM     24  C   UNL A   1      35.012  33.233  31.255  1.00  0.00     0.010 A 
ATOM     25  C   UNL A   1      36.499  33.914  29.471  1.00  0.00     0.010 A 
ATOM     26  C   UNL A   1      36.299  33.252  30.692  1.00  0.00    -0.014 A 
BRANCH  26  27
ATOM     27  C   UNL A   1      37.446  32.592  31.371  1.00  0.00     0.031 A 
ATOM     28  C   UNL A   1      38.152  31.438  30.713  1.00  0.00     0.074 A 
ATOM     29  C   UNL A   1      37.818  32.992  32.603  1.00  0.00     0.049 A 
ATOM     30  N   UNL A   1      39.129  30.696  31.171  1.00  0.00    -0.248 NA
ATOM     31  C   UNL A   1      37.681  31.048  29.375  1.00  0.00     0.031 C 
ATOM     32  C   UNL A   1      37.188  34.069  33.370  1.00  0.00     0.029 A 
ATOM     33  N   UNL A   1      38.811  32.532  33.432  1.00  0.00    -0.354 N 
ATOM     34  C   UNL A   1      39.378  29.747  30.186  1.00  0.00     0.074 A 
ATOM     35  C   UNL A   1      38.412  29.969  29.133  1.00  0.00     0.031 C 
ATOM     36  C   UNL A   1      37.826  34.203  34.544  1.00  0.00     0.029 A 
ATOM     37  C   UNL A   1      38.880  33.197  34.632  1.00  0.00     0.049 A 
ATOM     38  H   UNL A   1      39.416  31.795  33.188  1.00  0.00     0.167 HD
ATOM     39  C   UNL A   1      40.339  28.793  30.150  1.00  0.00     0.037 A 
ATOM     40  C   UNL A   1      39.696  33.013  35.687  1.00  0.00     0.037 A 
ATOM     41  C   UNL A   1      41.314  28.586  31.189  1.00  0.00     0.049 A 
ATOM     42  C   UNL A   1      40.745  31.936  35.630  1.00  0.00     0.074 A 
ATOM     43  C   UNL A   1      42.362  27.683  31.219  1.00  0.00     0.029 A 
ATOM     44  N   UNL A   1      41.357  29.287  32.384  1.00  0.00    -0.354 N 
ATOM     45  N   UNL A   1      41.012  31.092  34.664  1.00  0.00    -0.248 NA
ATOM     46  C   UNL A   1      41.609  31.789  36.810  1.00  0.00     0.031 C 
ATOM     47  C   UNL A   1      43.009  27.803  32.453  1.00  0.00     0.029 A 
ATOM     48  C   UNL A   1      42.400  28.820  33.169  1.00  0.00     0.049 A 
ATOM     49  H   UNL A   1      40.739  30.010  32.638  1.00  0.00     0.167 HD
ATOM     50  C   UNL A   1      42.093  30.339  35.104  1.00  0.00     0.074 A 
ATOM     51  C   UNL A   1      42.440  30.834  36.419  1.00  0.00     0.031 C 
ATOM     52  C   UNL A   1      42.741  29.328  34.473  1.00  0.00     0.037 A 
BRANCH  39  53
ATOM     53  C   UNL A   1      40.384  27.901  28.943  1.00  0.00     0.057 A 
ATOM     54  C   UNL A   1      41.163  28.213  27.820  1.00  0.00     0.134 A 
ATOM     55  C   UNL A   1      39.665  26.699  28.914  1.00  0.00     0.134 A 
ATOM     56  F   UNL A   1      41.867  29.354  27.776  1.00  0.00    -0.206 F 
ATOM     57  C   UNL A   1      41.203  27.376  26.703  1.00  0.00     0.040 A 
ATOM     58  C   UNL A   1      39.721  25.841  27.815  1.00  0.00     0.040 A 
ATOM     59  F   UNL A   1      38.904  26.334  29.957  1.00  0.00    -0.206 F 
ATOM     60  C   UNL A   1      40.485  26.183  26.701  1.00  0.00     0.006 A 
ENDBRANCH  39  53
BRANCH  40  61
ATOM     61  C   UNL A   1      39.569  33.880  36.887  1.00  0.00     0.057 A 
ATOM     62  C   UNL A   1      38.785  33.493  37.979  1.00  0.00     0.134 A 
ATOM     63  C   UNL A   1      40.212  35.122  36.965  1.00  0.00     0.134 A 
ATOM     64  F   UNL A   1      38.127  32.324  37.956  1.00  0.00    -0.206 F 
ATOM     65  C   UNL A   1      38.625  34.316  39.096  1.00  0.00     0.040 A 
ATOM     66  C   UNL A   1      40.085  35.942  38.088  1.00  0.00     0.040 A 
ATOM     67  F   UNL A   1      40.984  35.549  35.956  1.00  0.00    -0.206 F 
ATOM     68  C   UNL A   1      39.280  35.543  39.153  1.00  0.00     0.006 A 
ENDBRANCH  40  61
BRANCH  52  69
ATOM     69  C   UNL A   1      43.918  28.717  35.179  1.00  0.00     0.057 A 
ATOM     70  C   UNL A   1      45.216  29.221  35.032  1.00  0.00     0.134 A 
ATOM     71  C   UNL A   1      43.740  27.634  36.050  1.00  0.00     0.134 A 
ATOM     72  F   UNL A   1      45.456  30.250  34.205  1.00  0.00    -0.206 F 
ATOM     73  C   UNL A   1      46.299  28.654  35.706  1.00  0.00     0.040 A 
ATOM     74  C   UNL A   1      44.810  27.077  36.751  1.00  0.00     0.040 A 
ATOM     75  F   UNL A   1      42.521  27.108  36.244  1.00  0.00    -0.206 F 
ATOM     76  C   UNL A   1      46.095  27.584  36.576  1.00  0.00     0.006 A 
ENDBRANCH  52  69
ENDBRANCH  26  27
ENDBRANCH  18  21
ENDBRANCH  16  17
ENDBRANCH  15  16
ENDBRANCH   1  15
TORSDOF 14
ENDMDL
MODEL 3
REMARK VINA RESULT:      -8.5      6.044     11.457
REMARK SMILES O=C(CCCC[C@@H]1CCSS1)NCCCNC(=O)c1ccc(-c2c3nc(c(-c4c(F)cccc4F)c4ccc([nH]4)c(-c4c(F)cccc4F)c4nc(c(-c5c(F)cccc5F)c5ccc2[nH]5)C=C4)C=C3)cc1
REMARK SMILES IDX 13 1 12 2 1 3 2 4 3 6 4 7 5 8 6 9 7 10 8 11 11 12 9 13 10 14
REMARK SMILES IDX 14 15 15 16 16 17 17 18 18 20 19 21 20 22 72 23 21 24 71 25
REMARK SMILES IDX 22 26 23 27 24 28 65 29 25 30 70 31 64 32 66 33 26 34 69 35
REMARK SMILES IDX 63 36 62 37 27 39 53 40 36 41 52 42 37 43 40 44 51 45 67 46
REMARK SMILES IDX 38 47 39 48 50 50 68 51 41 52 28 53 29 54 34 55 30 56 31 57
REMARK SMILES IDX 33 58 35 59 32 60 54 61 55 62 60 63 56 64 57 65 59 66 61 67
REMARK SMILES IDX 58 68 42 69 43 70 48 71 44 72 45 73 47 74 49 75 46 76
REMARK H PARENT 12 5 16 19 66 38 40 49
REMARK Flexibility Score: inf
ROOT
ATOM      1  C   UNL A   1      31.531  30.697  26.631  1.00  0.00     0.117 C 
ENDROOT
BRANCH   1   2
ATOM      2  N   UNL A   1      31.495  30.140  25.298  1.00  0.00    -0.356 N 
ATOM      3  O   UNL A   1      33.564  29.141  25.360  1.00  0.00    -0.275 OA
ATOM      4  C   UNL A   1      32.502  29.355  24.789  1.00  0.00     0.219 C 
ATOM      5  H   UNL A   1      30.714  30.329  24.730  1.00  0.00     0.163 HD
BRANCH   4   6
ATOM      6  C   UNL A   1      32.152  28.742  23.452  1.00  0.00     0.100 C 
BRANCH   6   7
ATOM      7  C   UNL A   1      30.768  28.092  23.475  1.00  0.00     0.010 C 
BRANCH   7   8
ATOM      8  C   UNL A   1      29.798  28.492  22.355  1.00  0.00     0.002 C 
BRANCH   8   9
ATOM      9  C   UNL A   1      28.340  28.793  22.739  1.00  0.00     0.015 C 
BRANCH   9  10
ATOM     10  C   UNL A   1      27.758  30.176  22.390  1.00  0.00     0.059 C 
ATOM     11  C   UNL A   1      28.178  30.751  21.028  1.00  0.00     0.027 C 
ATOM     12  S   UNL A   1      28.132  31.406  23.688  1.00  0.00    -0.091 SA
ATOM     13  C   UNL A   1      27.935  32.255  20.961  1.00  0.00     0.083 C 
ATOM     14  S   UNL A   1      28.672  32.944  22.457  1.00  0.00    -0.094 SA
ENDBRANCH   9  10
ENDBRANCH   8   9
ENDBRANCH   7   8
ENDBRANCH   6   7
ENDBRANCH   4   6
ENDBRANCH   1   2
BRANCH   1  15
ATOM     15  C   UNL A   1      31.427  32.215  26.611  1.00  0.00     0.042 C 
BRANCH  15  16
ATOM     16  C   UNL A   1      32.680  32.942  27.087  1.00  0.00     0.118 C 
BRANCH  16  17
ATOM     17  N   UNL A   1      32.410  34.255  27.651  1.00  0.00    -0.352 N 
ATOM     18  C   UNL A   1      33.056  34.917  28.669  1.00  0.00     0.251 C 
ATOM     19  H   UNL A   1      31.656  34.740  27.245  1.00  0.00     0.163 HD
ATOM     20  O   UNL A   1      32.602  35.970  29.101  1.00  0.00    -0.269 OA
BRANCH  18  21
ATOM     21  C   UNL A   1      34.285  34.346  29.265  1.00  0.00     0.039 A 
ATOM     22  C   UNL A   1      34.177  33.598  30.440  1.00  0.00     0.014 A 
ATOM     23  C   UNL A   1      35.535  34.541  28.672  1.00  0.00     0.014 A 
ATOM     24  C   UNL A   1      35.312  32.990  30.982  1.00  0.00     0.010 A 
ATOM     25  C   UNL A   1      36.650  33.868  29.166  1.00  0.00     0.010 A 
ATOM     26  C   UNL A   1      36.552  33.089  30.329  1.00  0.00    -0.014 A 
BRANCH  26  27
ATOM     27  C   UNL A   1      37.757  32.392  30.854  1.00  0.00     0.031 A 
ATOM     28  C   UNL A   1      38.479  32.934  32.058  1.00  0.00     0.074 A 
ATOM     29  C   UNL A   1      38.237  31.307  30.216  1.00  0.00     0.049 A 
ATOM     30  N   UNL A   1      39.579  32.506  32.625  1.00  0.00    -0.248 NA
ATOM     31  C   UNL A   1      37.906  34.131  32.692  1.00  0.00     0.031 C 
ATOM     32  C   UNL A   1      37.658  30.706  29.013  1.00  0.00     0.029 A 
ATOM     33  N   UNL A   1      39.329  30.520  30.487  1.00  0.00    -0.354 N 
ATOM     34  C   UNL A   1      39.833  33.386  33.670  1.00  0.00     0.074 A 
ATOM     35  C   UNL A   1      38.809  34.405  33.623  1.00  0.00     0.031 C 
ATOM     36  C   UNL A   1      38.383  29.632  28.665  1.00  0.00     0.029 A 
ATOM     37  C   UNL A   1      39.502  29.490  29.592  1.00  0.00     0.049 A 
ATOM     38  H   UNL A   1      39.930  30.678  31.249  1.00  0.00     0.167 HD
ATOM     39  C   UNL A   1      40.817  33.336  34.601  1.00  0.00     0.037 A 
ATOM     40  C   UNL A   1      40.458  28.545  29.522  1.00  0.00     0.037 A 
ATOM     41  C   UNL A   1      41.824  32.310  34.661  1.00  0.00     0.049 A 
ATOM     42  C   UNL A   1      41.549  28.521  30.558  1.00  0.00     0.074 A 
ATOM     43  C   UNL A   1      42.828  32.142  35.599  1.00  0.00     0.029 A 
ATOM     44  N   UNL A   1      41.959  31.280  33.744  1.00  0.00    -0.354 N 
ATOM     45  N   UNL A   1      41.737  29.319  31.580  1.00  0.00    -0.248 NA
ATOM     46  C   UNL A   1      42.559  27.460  30.432  1.00  0.00     0.031 C 
ATOM     47  C   UNL A   1      43.601  31.040  35.221  1.00  0.00     0.029 A 
ATOM     48  C   UNL A   1      43.045  30.486  34.080  1.00  0.00     0.049 A 
ATOM     49  H   UNL A   1      41.371  31.132  32.968  1.00  0.00     0.167 HD
ATOM     50  C   UNL A   1      42.863  28.840  32.237  1.00  0.00     0.074 A 
ATOM     51  C   UNL A   1      43.308  27.673  31.504  1.00  0.00     0.031 C 
ATOM     52  C   UNL A   1      43.472  29.322  33.348  1.00  0.00     0.037 A 
BRANCH  39  53
ATOM     53  C   UNL A   1      40.847  34.427  35.634  1.00  0.00     0.057 A 
ATOM     54  C   UNL A   1      40.146  34.322  36.842  1.00  0.00     0.134 A 
ATOM     55  C   UNL A   1      41.614  35.582  35.432  1.00  0.00     0.134 A 
ATOM     56  F   UNL A   1      39.383  33.247  37.095  1.00  0.00    -0.206 F 
ATOM     57  C   UNL A   1      40.183  35.338  37.799  1.00  0.00     0.040 A 
ATOM     58  C   UNL A   1      41.681  36.591  36.395  1.00  0.00     0.040 A 
ATOM     59  F   UNL A   1      42.316  35.746  34.301  1.00  0.00    -0.206 F 
ATOM     60  C   UNL A   1      40.958  36.473  37.579  1.00  0.00     0.006 A 
ENDBRANCH  39  53
BRANCH  40  61
ATOM     61  C   UNL A   1      40.421  27.526  28.442  1.00  0.00     0.057 A 
ATOM     62  C   UNL A   1      41.108  27.723  27.238  1.00  0.00     0.134 A 
ATOM     63  C   UNL A   1      39.685  26.342  28.576  1.00  0.00     0.134 A 
ATOM     64  F   UNL A   1      41.814  28.846  27.041  1.00  0.00    -0.206 F 
ATOM     65  C   UNL A   1      41.049  26.792  26.200  1.00  0.00     0.040 A 
ATOM     66  C   UNL A   1      39.640  25.389  27.557  1.00  0.00     0.040 A 
ATOM     67  F   UNL A   1      39.009  26.089  29.706  1.00  0.00    -0.206 F 
ATOM     68  C   UNL A   1      40.316  25.618  26.360  1.00  0.00     0.006 A 
ENDBRANCH  40  61
BRANCH  52  69
ATOM     69  C   UNL A   1      44.663  28.565  33.865  1.00  0.00     0.057 A 
ATOM     70  C   UNL A   1      45.972  28.894  33.492  1.00  0.00     0.134 A 
ATOM     71  C   UNL A   1      44.496  27.519  34.782  1.00  0.00     0.134 A 
ATOM     72  F   UNL A   1      46.200  29.878  32.609  1.00  0.00    -0.206 F 
ATOM     73  C   UNL A   1      47.070  28.194  33.993  1.00  0.00     0.040 A 
ATOM     74  C   UNL A   1      45.587  26.830  35.311  1.00  0.00     0.040 A 
ATOM     75  F   UNL A   1      43.269  27.158  35.189  1.00  0.00    -0.206 F 
ATOM     76  C   UNL A   1      46.880  27.163  34.912  1.00  0.00     0.006 A 
ENDBRANCH  52  69
ENDBRANCH  26  27
ENDBRANCH  18  21
ENDBRANCH  16  17
ENDBRANCH  15  16
ENDBRANCH   1  15
TORSDOF 14
ENDMDL
