MODEL 1
REMARK VINA RESULT:     -13.1      0.000      0.000
REMARK SMILES O=C(NCCCNC(=O)[C@@H]1[C@@H](C(=O)Nc2cccc([N+](=O)[O-])c2)[C@@H]2C=C[C@H]1O2)c1ccc(-c2c3nc(c(-c4c(F)cccc4F)c4ccc([nH]4)c(-c4c(F)cccc4F)c4nc(c(-c5c(F)cccc5F)c5ccc2[nH]5)C=C4)C=C3)cc1
REMARK SMILES IDX 5 1 4 2 3 3 1 4 2 5 29 7 30 8 82 9 31 10 81 11 32 12 33 13
REMARK SMILES IDX 34 14 75 15 35 16 80 17 74 18 76 19 36 20 79 21 73 22 72 23
REMARK SMILES IDX 37 25 63 26 46 27 62 28 47 29 50 30 61 31 77 32 48 33 49 34
REMARK SMILES IDX 60 36 78 37 51 38 38 39 39 40 44 41 40 42 41 43 43 44 45 45
REMARK SMILES IDX 42 46 64 47 65 48 70 49 66 50 67 51 69 52 71 53 68 54 52 55
REMARK SMILES IDX 53 56 58 57 54 58 55 59 57 60 59 61 56 62 6 63 7 64 8 65
REMARK SMILES IDX 9 67 10 68 11 69 27 70 24 71 26 72 28 73 25 74 12 75 13 76
REMARK SMILES IDX 14 77 15 79 16 80 23 81 17 82 19 83 18 84 20 85 21 86 22 87
REMARK H PARENT 3 6 76 24 50 35 7 66 14 78
REMARK Flexibility Score: inf
ROOT
ATOM      1  C   UNL A   1      40.485  21.821  27.160  1.00  0.00     0.042 C 
ENDROOT
BRANCH   1   2
ATOM      2  C   UNL A   1      41.355  23.040  27.405  1.00  0.00     0.118 C 
BRANCH   2   3
ATOM      3  N   UNL A   1      41.434  23.924  26.246  1.00  0.00    -0.352 N 
ATOM      4  O   UNL A   1      41.178  25.758  24.974  1.00  0.00    -0.269 OA
ATOM      5  C   UNL A   1      41.234  25.278  26.106  1.00  0.00     0.251 C 
ATOM      6  H   UNL A   1      41.674  23.465  25.408  1.00  0.00     0.163 HD
BRANCH   5   7
ATOM      7  C   UNL A   1      41.056  26.161  27.280  1.00  0.00     0.039 A 
ATOM      8  C   UNL A   1      41.895  27.249  27.489  1.00  0.00     0.014 A 
ATOM      9  C   UNL A   1      39.986  25.949  28.160  1.00  0.00     0.014 A 
ATOM     10  C   UNL A   1      41.807  27.992  28.655  1.00  0.00     0.010 A 
ATOM     11  C   UNL A   1      39.794  26.803  29.255  1.00  0.00     0.010 A 
ATOM     12  C   UNL A   1      40.718  27.823  29.519  1.00  0.00    -0.014 A 
BRANCH  12  13
ATOM     13  C   UNL A   1      40.520  28.837  30.585  1.00  0.00     0.031 A 
ATOM     14  C   UNL A   1      39.434  29.868  30.503  1.00  0.00     0.074 A 
ATOM     15  C   UNL A   1      41.316  28.764  31.674  1.00  0.00     0.049 A 
ATOM     16  N   UNL A   1      39.119  30.791  31.375  1.00  0.00    -0.248 NA
ATOM     17  C   UNL A   1      38.601  29.878  29.291  1.00  0.00     0.031 C 
ATOM     18  C   UNL A   1      42.418  27.809  31.848  1.00  0.00     0.029 A 
ATOM     19  N   UNL A   1      41.306  29.466  32.851  1.00  0.00    -0.354 N 
ATOM     20  C   UNL A   1      38.075  31.510  30.809  1.00  0.00     0.074 A 
ATOM     21  C   UNL A   1      37.812  30.922  29.513  1.00  0.00     0.031 C 
ATOM     22  C   UNL A   1      42.923  27.934  33.081  1.00  0.00     0.029 A 
ATOM     23  C   UNL A   1      42.253  29.038  33.750  1.00  0.00     0.049 A 
ATOM     24  H   UNL A   1      40.681  30.204  33.034  1.00  0.00     0.167 HD
ATOM     25  C   UNL A   1      37.406  32.566  31.329  1.00  0.00     0.037 A 
ATOM     26  C   UNL A   1      42.576  29.504  34.970  1.00  0.00     0.037 A 
ATOM     27  C   UNL A   1      37.658  33.119  32.636  1.00  0.00     0.049 A 
ATOM     28  C   UNL A   1      41.821  30.678  35.509  1.00  0.00     0.074 A 
ATOM     29  C   UNL A   1      36.992  34.150  33.278  1.00  0.00     0.029 A 
ATOM     30  N   UNL A   1      38.658  32.692  33.498  1.00  0.00    -0.354 N 
ATOM     31  N   UNL A   1      40.813  31.324  34.974  1.00  0.00    -0.248 NA
ATOM     32  C   UNL A   1      42.256  31.205  36.809  1.00  0.00     0.031 C 
ATOM     33  C   UNL A   1      37.618  34.376  34.507  1.00  0.00     0.029 A 
ATOM     34  C   UNL A   1      38.647  33.460  34.651  1.00  0.00     0.049 A 
ATOM     35  H   UNL A   1      39.281  31.952  33.317  1.00  0.00     0.167 HD
ATOM     36  C   UNL A   1      40.497  32.336  35.865  1.00  0.00     0.074 A 
ATOM     37  C   UNL A   1      41.396  32.194  36.995  1.00  0.00     0.031 C 
ATOM     38  C   UNL A   1      39.559  33.307  35.755  1.00  0.00     0.037 A 
BRANCH  25  39
ATOM     39  C   UNL A   1      36.347  33.217  30.490  1.00  0.00     0.057 A 
ATOM     40  C   UNL A   1      36.661  34.085  29.439  1.00  0.00     0.134 A 
ATOM     41  C   UNL A   1      34.997  32.894  30.681  1.00  0.00     0.134 A 
ATOM     42  F   UNL A   1      37.933  34.442  29.208  1.00  0.00    -0.206 F 
ATOM     43  C   UNL A   1      35.670  34.613  28.608  1.00  0.00     0.040 A 
ATOM     44  C   UNL A   1      33.998  33.400  29.846  1.00  0.00     0.040 A 
ATOM     45  F   UNL A   1      34.629  32.063  31.668  1.00  0.00    -0.206 F 
ATOM     46  C   UNL A   1      34.335  34.262  28.805  1.00  0.00     0.006 A 
ENDBRANCH  25  39
BRANCH  26  47
ATOM     47  C   UNL A   1      43.699  28.894  35.726  1.00  0.00     0.057 A 
ATOM     48  C   UNL A   1      43.490  27.842  36.623  1.00  0.00     0.134 A 
ATOM     49  C   UNL A   1      45.013  29.352  35.564  1.00  0.00     0.134 A 
ATOM     50  F   UNL A   1      42.253  27.370  36.835  1.00  0.00    -0.206 F 
ATOM     51  C   UNL A   1      44.545  27.277  37.344  1.00  0.00     0.040 A 
ATOM     52  C   UNL A   1      46.080  28.776  36.253  1.00  0.00     0.040 A 
ATOM     53  F   UNL A   1      45.282  30.352  34.713  1.00  0.00    -0.206 F 
ATOM     54  C   UNL A   1      45.845  27.740  37.153  1.00  0.00     0.006 A 
ENDBRANCH  26  47
BRANCH  38  55
ATOM     55  C   UNL A   1      39.467  34.281  36.888  1.00  0.00     0.057 A 
ATOM     56  C   UNL A   1      40.073  35.542  36.818  1.00  0.00     0.134 A 
ATOM     57  C   UNL A   1      38.759  33.962  38.051  1.00  0.00     0.134 A 
ATOM     58  F   UNL A   1      40.782  35.897  35.734  1.00  0.00    -0.206 F 
ATOM     59  C   UNL A   1      39.997  36.444  37.878  1.00  0.00     0.040 A 
ATOM     60  C   UNL A   1      38.655  34.866  39.108  1.00  0.00     0.040 A 
ATOM     61  F   UNL A   1      38.154  32.772  38.176  1.00  0.00    -0.206 F 
ATOM     62  C   UNL A   1      39.282  36.108  39.026  1.00  0.00     0.006 A 
ENDBRANCH  38  55
ENDBRANCH  12  13
ENDBRANCH   5   7
ENDBRANCH   2   3
ENDBRANCH   1   2
BRANCH   1  63
ATOM     63  C   UNL A   1      39.260  22.146  26.333  1.00  0.00     0.117 C 
BRANCH  63  64
ATOM     64  N   UNL A   1      38.499  20.992  25.896  1.00  0.00    -0.356 N 
ATOM     65  C   UNL A   1      37.247  20.913  25.368  1.00  0.00     0.227 C 
ATOM     66  H   UNL A   1      38.961  20.129  25.997  1.00  0.00     0.163 HD
ATOM     67  O   UNL A   1      36.998  19.887  24.728  1.00  0.00    -0.275 OA
BRANCH  65  68
ATOM     68  C   UNL A   1      36.152  21.927  25.659  1.00  0.00     0.127 C 
ATOM     69  C   UNL A   1      34.736  21.419  25.137  1.00  0.00     0.127 C 
ATOM     70  C   UNL A   1      36.226  23.331  25.039  1.00  0.00     0.155 C 
ATOM     71  C   UNL A   1      34.342  22.630  24.287  1.00  0.00     0.155 C 
ATOM     72  C   UNL A   1      36.368  23.287  23.546  1.00  0.00     0.004 C 
ATOM     73  O   UNL A   1      34.837  23.712  25.109  1.00  0.00    -0.365 OA
ATOM     74  C   UNL A   1      35.226  22.774  23.087  1.00  0.00     0.004 C 
BRANCH  69  75
ATOM     75  C   UNL A   1      33.837  21.094  26.341  1.00  0.00     0.231 C 
ATOM     76  O   UNL A   1      33.763  21.877  27.297  1.00  0.00    -0.274 OA
ATOM     77  N   UNL A   1      33.087  19.953  26.448  1.00  0.00    -0.325 N 
ATOM     78  H   UNL A   1      32.569  19.861  27.279  1.00  0.00     0.169 HD
BRANCH  77  79
ATOM     79  C   UNL A   1      32.958  18.902  25.540  1.00  0.00     0.048 A 
ATOM     80  C   UNL A   1      32.638  19.234  24.218  1.00  0.00     0.026 A 
ATOM     81  C   UNL A   1      33.307  17.594  25.884  1.00  0.00     0.111 A 
ATOM     82  C   UNL A   1      32.800  18.286  23.205  1.00  0.00     0.009 A 
ATOM     83  C   UNL A   1      33.471  16.650  24.857  1.00  0.00     0.271 A 
ATOM     84  C   UNL A   1      33.236  16.996  23.518  1.00  0.00     0.086 A 
BRANCH  83  85
ATOM     85  N   UNL A   1      34.043  15.337  25.175  1.00  0.00     0.062 N 
ATOM     86  O   UNL A   1      33.259  14.414  25.431  1.00  0.00    -0.258 OA
ATOM     87  O   UNL A   1      35.275  15.224  25.131  1.00  0.00    -0.258 OA
ENDBRANCH  83  85
ENDBRANCH  77  79
ENDBRANCH  69  75
ENDBRANCH  65  68
ENDBRANCH  63  64
ENDBRANCH   1  63
TORSDOF 13
ENDMDL
MODEL 2
REMARK VINA RESULT:     -12.8      4.887      8.689
REMARK SMILES O=C(NCCCNC(=O)[C@@H]1[C@@H](C(=O)Nc2cccc([N+](=O)[O-])c2)[C@@H]2C=C[C@H]1O2)c1ccc(-c2c3nc(c(-c4c(F)cccc4F)c4ccc([nH]4)c(-c4c(F)cccc4F)c4nc(c(-c5c(F)cccc5F)c5ccc2[nH]5)C=C4)C=C3)cc1
REMARK SMILES IDX 5 1 4 2 3 3 1 4 2 5 29 7 30 8 82 9 31 10 81 11 32 12 33 13
REMARK SMILES IDX 34 14 75 15 35 16 80 17 74 18 76 19 36 20 79 21 73 22 72 23
REMARK SMILES IDX 37 25 63 26 46 27 62 28 47 29 50 30 61 31 77 32 48 33 49 34
REMARK SMILES IDX 60 36 78 37 51 38 38 39 39 40 44 41 40 42 41 43 43 44 45 45
REMARK SMILES IDX 42 46 64 47 65 48 70 49 66 50 67 51 69 52 71 53 68 54 52 55
REMARK SMILES IDX 53 56 58 57 54 58 55 59 57 60 59 61 56 62 6 63 7 64 8 65
REMARK SMILES IDX 9 67 10 68 11 69 27 70 24 71 26 72 28 73 25 74 12 75 13 76
REMARK SMILES IDX 14 77 15 79 16 80 23 81 17 82 19 83 18 84 20 85 21 86 22 87
REMARK H PARENT 3 6 76 24 50 35 7 66 14 78
REMARK Flexibility Score: inf
ROOT
ATOM      1  C   UNL A   1      37.795  19.659  24.868  1.00  0.00     0.042 C 
ENDROOT
BRANCH   1   2
ATOM      2  C   UNL A   1      38.920  20.114  25.778  1.00  0.00     0.118 C 
BRANCH   2   3
ATOM      3  N   UNL A   1      40.034  19.172  25.820  1.00  0.00    -0.352 N 
ATOM      4  O   UNL A   1      42.146  18.406  25.832  1.00  0.00    -0.269 OA
ATOM      5  C   UNL A   1      41.381  19.349  26.035  1.00  0.00     0.251 C 
ATOM      6  H   UNL A   1      39.772  18.235  25.666  1.00  0.00     0.163 HD
BRANCH   5   7
ATOM      7  C   UNL A   1      41.933  20.652  26.472  1.00  0.00     0.039 A 
ATOM      8  C   UNL A   1      42.247  21.640  25.546  1.00  0.00     0.014 A 
ATOM      9  C   UNL A   1      42.078  20.928  27.838  1.00  0.00     0.014 A 
ATOM     10  C   UNL A   1      42.884  22.802  25.948  1.00  0.00     0.010 A 
ATOM     11  C   UNL A   1      42.570  22.172  28.257  1.00  0.00     0.010 A 
ATOM     12  C   UNL A   1      42.994  23.113  27.309  1.00  0.00    -0.014 A 
BRANCH  12  13
ATOM     13  C   UNL A   1      43.414  24.491  27.670  1.00  0.00     0.031 A 
ATOM     14  C   UNL A   1      44.841  24.937  27.555  1.00  0.00     0.074 A 
ATOM     15  C   UNL A   1      42.452  25.360  28.050  1.00  0.00     0.049 A 
ATOM     16  N   UNL A   1      45.347  26.119  27.798  1.00  0.00    -0.248 NA
ATOM     17  C   UNL A   1      45.830  23.937  27.125  1.00  0.00     0.031 C 
ATOM     18  C   UNL A   1      41.032  25.023  28.213  1.00  0.00     0.029 A 
ATOM     19  N   UNL A   1      42.501  26.700  28.328  1.00  0.00    -0.354 N 
ATOM     20  C   UNL A   1      46.714  26.000  27.581  1.00  0.00     0.074 A 
ATOM     21  C   UNL A   1      46.962  24.628  27.193  1.00  0.00     0.031 C 
ATOM     22  C   UNL A   1      40.340  26.136  28.486  1.00  0.00     0.029 A 
ATOM     23  C   UNL A   1      41.273  27.245  28.616  1.00  0.00     0.049 A 
ATOM     24  H   UNL A   1      43.336  27.221  28.323  1.00  0.00     0.167 HD
ATOM     25  C   UNL A   1      47.667  26.954  27.701  1.00  0.00     0.037 A 
ATOM     26  C   UNL A   1      40.932  28.493  28.979  1.00  0.00     0.037 A 
ATOM     27  C   UNL A   1      47.399  28.325  28.057  1.00  0.00     0.049 A 
ATOM     28  C   UNL A   1      42.014  29.520  29.110  1.00  0.00     0.074 A 
ATOM     29  C   UNL A   1      48.290  29.382  28.144  1.00  0.00     0.029 A 
ATOM     30  N   UNL A   1      46.149  28.828  28.388  1.00  0.00    -0.354 N 
ATOM     31  N   UNL A   1      43.296  29.398  28.867  1.00  0.00    -0.248 NA
ATOM     32  C   UNL A   1      41.611  30.849  29.584  1.00  0.00     0.031 C 
ATOM     33  C   UNL A   1      47.588  30.511  28.574  1.00  0.00     0.029 A 
ATOM     34  C   UNL A   1      46.252  30.171  28.713  1.00  0.00     0.049 A 
ATOM     35  H   UNL A   1      45.313  28.308  28.391  1.00  0.00     0.167 HD
ATOM     36  C   UNL A   1      43.855  30.630  29.165  1.00  0.00     0.074 A 
ATOM     37  C   UNL A   1      42.766  31.497  29.569  1.00  0.00     0.031 C 
ATOM     38  C   UNL A   1      45.155  31.009  29.123  1.00  0.00     0.037 A 
BRANCH  25  39
ATOM     39  C   UNL A   1      49.095  26.561  27.469  1.00  0.00     0.057 A 
ATOM     40  C   UNL A   1      49.917  26.102  28.503  1.00  0.00     0.134 A 
ATOM     41  C   UNL A   1      49.625  26.556  26.171  1.00  0.00     0.134 A 
ATOM     42  F   UNL A   1      49.476  26.090  29.769  1.00  0.00    -0.206 F 
ATOM     43  C   UNL A   1      51.217  25.653  28.257  1.00  0.00     0.040 A 
ATOM     44  C   UNL A   1      50.916  26.093  25.909  1.00  0.00     0.040 A 
ATOM     45  F   UNL A   1      48.887  26.979  25.134  1.00  0.00    -0.206 F 
ATOM     46  C   UNL A   1      51.715  25.639  26.955  1.00  0.00     0.006 A 
ENDBRANCH  25  39
BRANCH  26  47
ATOM     47  C   UNL A   1      39.518  28.817  29.298  1.00  0.00     0.057 A 
ATOM     48  C   UNL A   1      38.642  29.305  28.323  1.00  0.00     0.134 A 
ATOM     49  C   UNL A   1      39.010  28.639  30.591  1.00  0.00     0.134 A 
ATOM     50  F   UNL A   1      39.072  29.512  27.070  1.00  0.00    -0.206 F 
ATOM     51  C   UNL A   1      37.316  29.620  28.626  1.00  0.00     0.040 A 
ATOM     52  C   UNL A   1      37.679  28.919  30.900  1.00  0.00     0.040 A 
ATOM     53  F   UNL A   1      39.795  28.166  31.569  1.00  0.00    -0.206 F 
ATOM     54  C   UNL A   1      36.830  29.420  29.917  1.00  0.00     0.006 A 
ENDBRANCH  26  47
BRANCH  38  55
ATOM     55  C   UNL A   1      45.455  32.419  29.527  1.00  0.00     0.057 A 
ATOM     56  C   UNL A   1      45.814  32.742  30.841  1.00  0.00     0.134 A 
ATOM     57  C   UNL A   1      45.397  33.459  28.592  1.00  0.00     0.134 A 
ATOM     58  F   UNL A   1      45.868  31.789  31.786  1.00  0.00    -0.206 F 
ATOM     59  C   UNL A   1      46.081  34.057  31.218  1.00  0.00     0.040 A 
ATOM     60  C   UNL A   1      45.686  34.775  28.952  1.00  0.00     0.040 A 
ATOM     61  F   UNL A   1      45.063  33.211  27.317  1.00  0.00    -0.206 F 
ATOM     62  C   UNL A   1      46.022  35.077  30.270  1.00  0.00     0.006 A 
ENDBRANCH  38  55
ENDBRANCH  12  13
ENDBRANCH   5   7
ENDBRANCH   2   3
ENDBRANCH   1   2
BRANCH   1  63
ATOM     63  C   UNL A   1      36.544  20.494  25.037  1.00  0.00     0.117 C 
BRANCH  63  64
ATOM     64  N   UNL A   1      36.384  21.553  24.059  1.00  0.00    -0.356 N 
ATOM     65  C   UNL A   1      36.021  22.854  24.225  1.00  0.00     0.227 C 
ATOM     66  H   UNL A   1      36.567  21.288  23.129  1.00  0.00     0.163 HD
ATOM     67  O   UNL A   1      36.342  23.621  23.310  1.00  0.00    -0.275 OA
BRANCH  65  68
ATOM     68  C   UNL A   1      35.144  23.338  25.367  1.00  0.00     0.127 C 
ATOM     69  C   UNL A   1      33.734  22.598  25.372  1.00  0.00     0.127 C 
ATOM     70  C   UNL A   1      34.719  24.814  25.431  1.00  0.00     0.155 C 
ATOM     71  C   UNL A   1      32.815  23.823  25.382  1.00  0.00     0.155 C 
ATOM     72  C   UNL A   1      34.048  25.269  24.169  1.00  0.00     0.004 C 
ATOM     73  O   UNL A   1      33.546  24.704  26.265  1.00  0.00    -0.365 OA
ATOM     74  C   UNL A   1      32.903  24.590  24.099  1.00  0.00     0.004 C 
BRANCH  69  75
ATOM     75  C   UNL A   1      33.656  21.661  26.588  1.00  0.00     0.231 C 
ATOM     76  O   UNL A   1      33.961  22.072  27.716  1.00  0.00    -0.274 OA
ATOM     77  N   UNL A   1      33.268  20.349  26.519  1.00  0.00    -0.325 N 
ATOM     78  H   UNL A   1      33.278  19.857  27.371  1.00  0.00     0.169 HD
BRANCH  77  79
ATOM     79  C   UNL A   1      32.861  19.615  25.405  1.00  0.00     0.048 A 
ATOM     80  C   UNL A   1      32.258  20.321  24.357  1.00  0.00     0.026 A 
ATOM     81  C   UNL A   1      33.199  18.268  25.257  1.00  0.00     0.111 A 
ATOM     82  C   UNL A   1      32.115  19.720  23.105  1.00  0.00     0.009 A 
ATOM     83  C   UNL A   1      33.055  17.674  23.993  1.00  0.00     0.271 A 
ATOM     84  C   UNL A   1      32.531  18.400  22.912  1.00  0.00     0.086 A 
BRANCH  83  85
ATOM     85  N   UNL A   1      33.602  16.332  23.764  1.00  0.00     0.062 N 
ATOM     86  O   UNL A   1      34.283  16.153  22.746  1.00  0.00    -0.258 OA
ATOM     87  O   UNL A   1      33.379  15.469  24.623  1.00  0.00    -0.258 OA
ENDBRANCH  83  85
ENDBRANCH  77  79
ENDBRANCH  69  75
ENDBRANCH  65  68
ENDBRANCH  63  64
ENDBRANCH   1  63
TORSDOF 13
ENDMDL
MODEL 3
REMARK VINA RESULT:     -12.8      4.434      6.115
REMARK SMILES O=C(NCCCNC(=O)[C@@H]1[C@@H](C(=O)Nc2cccc([N+](=O)[O-])c2)[C@@H]2C=C[C@H]1O2)c1ccc(-c2c3nc(c(-c4c(F)cccc4F)c4ccc([nH]4)c(-c4c(F)cccc4F)c4nc(c(-c5c(F)cccc5F)c5ccc2[nH]5)C=C4)C=C3)cc1
REMARK SMILES IDX 5 1 4 2 3 3 1 4 2 5 29 7 30 8 82 9 31 10 81 11 32 12 33 13
REMARK SMILES IDX 34 14 75 15 35 16 80 17 74 18 76 19 36 20 79 21 73 22 72 23
REMARK SMILES IDX 37 25 63 26 46 27 62 28 47 29 50 30 61 31 77 32 48 33 49 34
REMARK SMILES IDX 60 36 78 37 51 38 38 39 39 40 44 41 40 42 41 43 43 44 45 45
REMARK SMILES IDX 42 46 64 47 65 48 70 49 66 50 67 51 69 52 71 53 68 54 52 55
REMARK SMILES IDX 53 56 58 57 54 58 55 59 57 60 59 61 56 62 6 63 7 64 8 65
REMARK SMILES IDX 9 67 10 68 11 69 27 70 24 71 26 72 28 73 25 74 12 75 13 76
REMARK SMILES IDX 14 77 15 79 16 80 23 81 17 82 19 83 18 84 20 85 21 86 22 87
REMARK H PARENT 3 6 76 24 50 35 7 66 14 78
REMARK Flexibility Score: inf
ROOT
ATOM      1  C   UNL A   1      37.721  19.514  24.989  1.00  0.00     0.042 C 
ENDROOT
BRANCH   1   2
ATOM      2  C   UNL A   1      38.877  20.138  25.748  1.00  0.00     0.118 C 
BRANCH   2   3
ATOM      3  N   UNL A   1      40.051  19.272  25.809  1.00  0.00    -0.352 N 
ATOM      4  O   UNL A   1      42.208  18.651  25.894  1.00  0.00    -0.269 OA
ATOM      5  C   UNL A   1      41.371  19.531  26.096  1.00  0.00     0.251 C 
ATOM      6  H   UNL A   1      39.862  18.327  25.605  1.00  0.00     0.163 HD
BRANCH   5   7
ATOM      7  C   UNL A   1      41.810  20.848  26.610  1.00  0.00     0.039 A 
ATOM      8  C   UNL A   1      42.115  21.888  25.740  1.00  0.00     0.014 A 
ATOM      9  C   UNL A   1      41.853  21.082  27.991  1.00  0.00     0.014 A 
ATOM     10  C   UNL A   1      42.651  23.072  26.220  1.00  0.00     0.010 A 
ATOM     11  C   UNL A   1      42.237  22.338  28.481  1.00  0.00     0.010 A 
ATOM     12  C   UNL A   1      42.657  23.338  27.595  1.00  0.00    -0.014 A 
BRANCH  12  13
ATOM     13  C   UNL A   1      42.964  24.725  28.027  1.00  0.00     0.031 A 
ATOM     14  C   UNL A   1      41.880  25.724  28.303  1.00  0.00     0.074 A 
ATOM     15  C   UNL A   1      44.260  25.046  28.226  1.00  0.00     0.049 A 
ATOM     16  N   UNL A   1      41.997  26.958  28.723  1.00  0.00    -0.248 NA
ATOM     17  C   UNL A   1      40.492  25.298  28.073  1.00  0.00     0.031 C 
ATOM     18  C   UNL A   1      45.397  24.153  27.969  1.00  0.00     0.029 A 
ATOM     19  N   UNL A   1      44.845  26.181  28.723  1.00  0.00    -0.354 N 
ATOM     20  C   UNL A   1      40.705  27.466  28.779  1.00  0.00     0.074 A 
ATOM     21  C   UNL A   1      39.817  26.409  28.343  1.00  0.00     0.031 C 
ATOM     22  C   UNL A   1      46.527  24.742  28.379  1.00  0.00     0.029 A 
ATOM     23  C   UNL A   1      46.212  26.088  28.835  1.00  0.00     0.049 A 
ATOM     24  H   UNL A   1      44.336  26.984  28.975  1.00  0.00     0.167 HD
ATOM     25  C   UNL A   1      40.308  28.703  29.157  1.00  0.00     0.037 A 
ATOM     26  C   UNL A   1      47.123  26.995  29.228  1.00  0.00     0.037 A 
ATOM     27  C   UNL A   1      41.203  29.734  29.620  1.00  0.00     0.049 A 
ATOM     28  C   UNL A   1      46.647  28.357  29.631  1.00  0.00     0.074 A 
ATOM     29  C   UNL A   1      40.889  31.001  30.084  1.00  0.00     0.029 A 
ATOM     30  N   UNL A   1      42.584  29.620  29.673  1.00  0.00    -0.354 N 
ATOM     31  N   UNL A   1      45.419  28.808  29.710  1.00  0.00    -0.248 NA
ATOM     32  C   UNL A   1      47.678  29.342  29.978  1.00  0.00     0.031 C 
ATOM     33  C   UNL A   1      42.083  31.668  30.372  1.00  0.00     0.029 A 
ATOM     34  C   UNL A   1      43.139  30.804  30.130  1.00  0.00     0.049 A 
ATOM     35  H   UNL A   1      43.094  28.815  29.423  1.00  0.00     0.167 HD
ATOM     36  C   UNL A   1      45.527  30.130  30.109  1.00  0.00     0.074 A 
ATOM     37  C   UNL A   1      46.941  30.396  30.293  1.00  0.00     0.031 C 
ATOM     38  C   UNL A   1      44.548  31.048  30.293  1.00  0.00     0.037 A 
BRANCH  25  39
ATOM     39  C   UNL A   1      38.847  29.034  29.073  1.00  0.00     0.057 A 
ATOM     40  C   UNL A   1      38.000  28.943  30.182  1.00  0.00     0.134 A 
ATOM     41  C   UNL A   1      38.305  29.538  27.883  1.00  0.00     0.134 A 
ATOM     42  F   UNL A   1      38.453  28.460  31.347  1.00  0.00    -0.206 F 
ATOM     43  C   UNL A   1      36.662  29.342  30.111  1.00  0.00     0.040 A 
ATOM     44  C   UNL A   1      36.975  29.956  27.805  1.00  0.00     0.040 A 
ATOM     45  F   UNL A   1      39.066  29.655  26.784  1.00  0.00    -0.206 F 
ATOM     46  C   UNL A   1      36.150  29.859  28.922  1.00  0.00     0.006 A 
ENDBRANCH  25  39
BRANCH  26  47
ATOM     47  C   UNL A   1      48.569  26.660  29.201  1.00  0.00     0.057 A 
ATOM     48  C   UNL A   1      49.205  26.076  30.301  1.00  0.00     0.134 A 
ATOM     49  C   UNL A   1      49.349  26.914  28.065  1.00  0.00     0.134 A 
ATOM     50  F   UNL A   1      48.516  25.822  31.423  1.00  0.00    -0.206 F 
ATOM     51  C   UNL A   1      50.568  25.772  30.279  1.00  0.00     0.040 A 
ATOM     52  C   UNL A   1      50.703  26.586  28.018  1.00  0.00     0.040 A 
ATOM     53  F   UNL A   1      48.798  27.464  26.973  1.00  0.00    -0.206 F 
ATOM     54  C   UNL A   1      51.318  26.020  29.132  1.00  0.00     0.006 A 
ENDBRANCH  26  47
BRANCH  38  55
ATOM     55  C   UNL A   1      44.985  32.417  30.712  1.00  0.00     0.057 A 
ATOM     56  C   UNL A   1      45.240  33.423  29.772  1.00  0.00     0.134 A 
ATOM     57  C   UNL A   1      45.140  32.736  32.066  1.00  0.00     0.134 A 
ATOM     58  F   UNL A   1      45.127  33.170  28.458  1.00  0.00    -0.206 F 
ATOM     59  C   UNL A   1      45.658  34.694  30.163  1.00  0.00     0.040 A 
ATOM     60  C   UNL A   1      45.533  34.012  32.470  1.00  0.00     0.040 A 
ATOM     61  F   UNL A   1      44.906  31.817  33.014  1.00  0.00    -0.206 F 
ATOM     62  C   UNL A   1      45.801  34.992  31.517  1.00  0.00     0.006 A 
ENDBRANCH  38  55
ENDBRANCH  12  13
ENDBRANCH   5   7
ENDBRANCH   2   3
ENDBRANCH   1   2
BRANCH   1  63
ATOM     63  C   UNL A   1      36.468  20.360  25.053  1.00  0.00     0.117 C 
BRANCH  63  64
ATOM     64  N   UNL A   1      36.452  21.490  24.145  1.00  0.00    -0.356 N 
ATOM     65  C   UNL A   1      36.162  22.799  24.377  1.00  0.00     0.227 C 
ATOM     66  H   UNL A   1      36.688  21.277  23.214  1.00  0.00     0.163 HD
ATOM     67  O   UNL A   1      36.600  23.602  23.546  1.00  0.00    -0.275 OA
BRANCH  65  68
ATOM     68  C   UNL A   1      35.232  23.266  25.485  1.00  0.00     0.127 C 
ATOM     69  C   UNL A   1      33.833  22.508  25.428  1.00  0.00     0.127 C 
ATOM     70  C   UNL A   1      34.785  24.736  25.540  1.00  0.00     0.155 C 
ATOM     71  C   UNL A   1      32.898  23.721  25.407  1.00  0.00     0.155 C 
ATOM     72  C   UNL A   1      34.161  25.190  24.253  1.00  0.00     0.004 C 
ATOM     73  O   UNL A   1      33.582  24.606  26.325  1.00  0.00    -0.365 OA
ATOM     74  C   UNL A   1      33.029  24.497  24.133  1.00  0.00     0.004 C 
BRANCH  69  75
ATOM     75  C   UNL A   1      33.717  21.563  26.636  1.00  0.00     0.231 C 
ATOM     76  O   UNL A   1      34.018  21.957  27.770  1.00  0.00    -0.274 OA
ATOM     77  N   UNL A   1      33.299  20.261  26.550  1.00  0.00    -0.325 N 
ATOM     78  H   UNL A   1      33.287  19.762  27.398  1.00  0.00     0.169 HD
BRANCH  77  79
ATOM     79  C   UNL A   1      32.889  19.547  25.425  1.00  0.00     0.048 A 
ATOM     80  C   UNL A   1      32.285  20.271  24.390  1.00  0.00     0.026 A 
ATOM     81  C   UNL A   1      33.225  18.201  25.254  1.00  0.00     0.111 A 
ATOM     82  C   UNL A   1      32.139  19.690  23.129  1.00  0.00     0.009 A 
ATOM     83  C   UNL A   1      33.077  17.628  23.981  1.00  0.00     0.271 A 
ATOM     84  C   UNL A   1      32.553  18.373  22.913  1.00  0.00     0.086 A 
BRANCH  83  85
ATOM     85  N   UNL A   1      33.622  16.290  23.729  1.00  0.00     0.062 N 
ATOM     86  O   UNL A   1      34.298  16.125  22.705  1.00  0.00    -0.258 OA
ATOM     87  O   UNL A   1      33.402  15.413  24.576  1.00  0.00    -0.258 OA
ENDBRANCH  83  85
ENDBRANCH  77  79
ENDBRANCH  69  75
ENDBRANCH  65  68
ENDBRANCH  63  64
ENDBRANCH   1  63
TORSDOF 13
ENDMDL
