MODEL 1
REMARK VINA RESULT:     -12.5      0.000      0.000
REMARK SMILES C[C@H]1CN(C(=O)N2CC[NH+]([C@@H](C)C(=O)NCCCNC(=O)c3ccc(-c4c5nc(c(-c6c(F)cccc6F)c6ccc([nH]6)c(-c6c(F)cccc6F)c6nc(c(-c7c(F)cccc7F)c7ccc4[nH]7)C=C6)C=C5)cc3)CC2)C[C@@H]1C
REMARK SMILES IDX 17 1 16 2 15 3 13 4 14 5 11 7 12 8 10 9 1 10 2 11 3 12 79 13
REMARK SMILES IDX 4 14 78 15 80 16 5 17 6 18 7 19 8 20 77 21 9 22 76 23 18 25
REMARK SMILES IDX 19 26 20 27 21 29 22 30 23 31 75 32 24 33 74 34 25 35 26 36
REMARK SMILES IDX 27 37 68 38 28 39 73 40 67 41 69 42 29 43 72 44 66 45 65 46
REMARK SMILES IDX 30 48 56 49 39 50 55 51 40 52 43 53 54 54 70 55 41 56 42 57
REMARK SMILES IDX 53 59 71 60 44 61 31 62 32 63 37 64 33 65 34 66 36 67 38 68
REMARK SMILES IDX 35 69 57 70 58 71 63 72 59 73 60 74 62 75 64 76 61 77 45 78
REMARK SMILES IDX 46 79 51 80 47 81 48 82 50 83 52 84 49 85
REMARK H PARENT 15 6 10 24 19 28 69 47 43 58
REMARK Flexibility Score: inf
ROOT
ATOM      1  C   UNL A   1      37.419  19.882  24.983  1.00  0.00     0.042 C 
ENDROOT
BRANCH   1   2
ATOM      2  C   UNL A   1      36.282  20.897  24.868  1.00  0.00     0.118 C 
BRANCH   2   3
ATOM      3  N   UNL A   1      35.615  21.110  26.142  1.00  0.00    -0.351 N 
ATOM      4  C   UNL A   1      34.318  21.340  26.494  1.00  0.00     0.278 C 
ATOM      5  O   UNL A   1      34.134  21.580  27.696  1.00  0.00    -0.268 OA
ATOM      6  H   UNL A   1      36.229  21.083  26.912  1.00  0.00     0.163 HD
BRANCH   4   7
ATOM      7  C   UNL A   1      33.104  21.285  25.518  1.00  0.00     0.271 C 
ATOM      8  C   UNL A   1      32.772  19.875  25.036  1.00  0.00     0.086 C 
BRANCH   7   9
ATOM      9  N   UNL A   1      33.045  22.429  24.574  1.00  0.00    -0.322 N 
ATOM     10  C   UNL A   1      33.622  29.080  23.062  1.00  0.00     0.010 C 
ATOM     11  C   UNL A   1      32.357  28.266  22.782  1.00  0.00     0.010 C 
ATOM     12  C   UNL A   1      32.418  26.930  23.519  1.00  0.00     0.125 C 
ATOM     13  C   UNL A   1      31.093  28.920  23.375  1.00  0.00     0.010 C 
ATOM     14  N   UNL A   1      31.792  27.193  24.809  1.00  0.00    -0.324 N 
ATOM     15  C   UNL A   1      31.140  28.488  24.842  1.00  0.00     0.125 C 
ATOM     16  C   UNL A   1      29.821  28.401  22.692  1.00  0.00     0.010 C 
ATOM     17  C   UNL A   1      31.563  26.252  25.783  1.00  0.00     0.320 C 
ATOM     18  O   UNL A   1      30.830  26.437  26.751  1.00  0.00    -0.248 OA
ATOM     19  N   UNL A   1      32.078  25.020  25.480  1.00  0.00    -0.313 N 
ATOM     20  C   UNL A   1      31.155  23.926  25.306  1.00  0.00     0.183 C 
ATOM     21  C   UNL A   1      33.457  24.658  25.788  1.00  0.00     0.183 C 
ATOM     22  C   UNL A   1      31.730  22.978  24.251  1.00  0.00     0.284 C 
ATOM     23  C   UNL A   1      33.983  23.537  24.857  1.00  0.00     0.284 C 
ATOM     24  H   UNL A   1      33.356  21.939  23.735  1.00  0.00     0.348 HD
ENDBRANCH   7   9
ENDBRANCH   4   7
ENDBRANCH   2   3
ENDBRANCH   1   2
BRANCH   1  25
ATOM     25  C   UNL A   1      38.691  20.456  25.574  1.00  0.00     0.118 C 
BRANCH  25  26
ATOM     26  N   UNL A   1      39.742  19.458  25.681  1.00  0.00    -0.352 N 
ATOM     27  C   UNL A   1      41.065  19.617  26.024  1.00  0.00     0.251 C 
ATOM     28  H   UNL A   1      39.468  18.535  25.478  1.00  0.00     0.163 HD
ATOM     29  O   UNL A   1      41.854  18.696  25.851  1.00  0.00    -0.269 OA
BRANCH  27  30
ATOM     30  C   UNL A   1      41.542  20.904  26.584  1.00  0.00     0.039 A 
ATOM     31  C   UNL A   1      42.000  21.901  25.718  1.00  0.00     0.014 A 
ATOM     32  C   UNL A   1      41.549  21.125  27.963  1.00  0.00     0.014 A 
ATOM     33  C   UNL A   1      42.407  23.137  26.232  1.00  0.00     0.010 A 
ATOM     34  C   UNL A   1      41.841  22.388  28.461  1.00  0.00     0.010 A 
ATOM     35  C   UNL A   1      42.300  23.401  27.605  1.00  0.00    -0.014 A 
BRANCH  35  36
ATOM     36  C   UNL A   1      42.717  24.694  28.206  1.00  0.00     0.031 A 
ATOM     37  C   UNL A   1      41.679  25.759  28.446  1.00  0.00     0.074 A 
ATOM     38  C   UNL A   1      44.018  24.950  28.445  1.00  0.00     0.049 A 
ATOM     39  N   UNL A   1      41.838  27.013  28.782  1.00  0.00    -0.248 NA
ATOM     40  C   UNL A   1      40.275  25.368  28.236  1.00  0.00     0.031 C 
ATOM     41  C   UNL A   1      45.122  24.012  28.234  1.00  0.00     0.029 A 
ATOM     42  N   UNL A   1      44.634  26.091  28.897  1.00  0.00    -0.354 N 
ATOM     43  C   UNL A   1      40.561  27.564  28.789  1.00  0.00     0.074 A 
ATOM     44  C   UNL A   1      39.648  26.526  28.366  1.00  0.00     0.031 C 
ATOM     45  C   UNL A   1      46.277  24.611  28.568  1.00  0.00     0.029 A 
ATOM     46  C   UNL A   1      46.002  25.989  28.966  1.00  0.00     0.049 A 
ATOM     47  H   UNL A   1      44.141  26.905  29.147  1.00  0.00     0.167 HD
ATOM     48  C   UNL A   1      40.180  28.813  29.139  1.00  0.00     0.037 A 
ATOM     49  C   UNL A   1      46.931  26.909  29.292  1.00  0.00     0.037 A 
ATOM     50  C   UNL A   1      41.090  29.830  29.594  1.00  0.00     0.049 A 
ATOM     51  C   UNL A   1      46.487  28.300  29.660  1.00  0.00     0.074 A 
ATOM     52  C   UNL A   1      40.804  31.112  30.026  1.00  0.00     0.029 A 
ATOM     53  N   UNL A   1      42.466  29.674  29.680  1.00  0.00    -0.354 N 
ATOM     54  N   UNL A   1      45.273  28.796  29.706  1.00  0.00    -0.248 NA
ATOM     55  C   UNL A   1      47.539  29.260  30.024  1.00  0.00     0.031 C 
ATOM     56  C   UNL A   1      42.011  31.750  30.323  1.00  0.00     0.029 A 
ATOM     57  C   UNL A   1      43.043  30.844  30.139  1.00  0.00     0.049 A 
ATOM     58  H   UNL A   1      42.957  28.853  29.448  1.00  0.00     0.167 HD
ATOM     59  C   UNL A   1      45.412  30.107  30.146  1.00  0.00     0.074 A 
ATOM     60  C   UNL A   1      46.828  30.331  30.349  1.00  0.00     0.031 C 
ATOM     61  C   UNL A   1      44.453  31.038  30.366  1.00  0.00     0.037 A 
BRANCH  48  62
ATOM     62  C   UNL A   1      38.720  29.149  29.041  1.00  0.00     0.057 A 
ATOM     63  C   UNL A   1      37.862  29.067  30.147  1.00  0.00     0.134 A 
ATOM     64  C   UNL A   1      38.166  29.583  27.830  1.00  0.00     0.134 A 
ATOM     65  F   UNL A   1      38.324  28.647  31.336  1.00  0.00    -0.206 F 
ATOM     66  C   UNL A   1      36.504  29.371  30.044  1.00  0.00     0.040 A 
ATOM     67  C   UNL A   1      36.816  29.922  27.722  1.00  0.00     0.040 A 
ATOM     68  F   UNL A   1      38.929  29.692  26.732  1.00  0.00    -0.206 F 
ATOM     69  C   UNL A   1      35.979  29.807  28.830  1.00  0.00     0.006 A 
ENDBRANCH  48  62
BRANCH  49  70
ATOM     70  C   UNL A   1      48.371  26.546  29.300  1.00  0.00     0.057 A 
ATOM     71  C   UNL A   1      49.182  26.787  28.184  1.00  0.00     0.134 A 
ATOM     72  C   UNL A   1      48.972  25.944  30.412  1.00  0.00     0.134 A 
ATOM     73  F   UNL A   1      48.661  27.345  27.081  1.00  0.00    -0.206 F 
ATOM     74  C   UNL A   1      50.529  26.423  28.163  1.00  0.00     0.040 A 
ATOM     75  C   UNL A   1      50.326  25.599  30.416  1.00  0.00     0.040 A 
ATOM     76  F   UNL A   1      48.255  25.692  31.517  1.00  0.00    -0.206 F 
ATOM     77  C   UNL A   1      51.106  25.831  29.285  1.00  0.00     0.006 A 
ENDBRANCH  49  70
BRANCH  61  78
ATOM     78  C   UNL A   1      44.881  32.364  30.923  1.00  0.00     0.057 A 
ATOM     79  C   UNL A   1      45.172  33.459  30.102  1.00  0.00     0.134 A 
ATOM     80  C   UNL A   1      44.918  32.565  32.310  1.00  0.00     0.134 A 
ATOM     81  F   UNL A   1      45.165  33.330  28.767  1.00  0.00    -0.206 F 
ATOM     82  C   UNL A   1      45.494  34.706  30.640  1.00  0.00     0.040 A 
ATOM     83  C   UNL A   1      45.210  33.813  32.859  1.00  0.00     0.040 A 
ATOM     84  F   UNL A   1      44.640  31.558  33.152  1.00  0.00    -0.206 F 
ATOM     85  C   UNL A   1      45.502  34.888  32.022  1.00  0.00     0.006 A 
ENDBRANCH  61  78
ENDBRANCH  35  36
ENDBRANCH  27  30
ENDBRANCH  25  26
ENDBRANCH   1  25
TORSDOF 11
ENDMDL
MODEL 2
REMARK VINA RESULT:     -12.4      1.189      1.638
REMARK SMILES C[C@H]1CN(C(=O)N2CC[NH+]([C@@H](C)C(=O)NCCCNC(=O)c3ccc(-c4c5nc(c(-c6c(F)cccc6F)c6ccc([nH]6)c(-c6c(F)cccc6F)c6nc(c(-c7c(F)cccc7F)c7ccc4[nH]7)C=C6)C=C5)cc3)CC2)C[C@@H]1C
REMARK SMILES IDX 17 1 16 2 15 3 13 4 14 5 11 7 12 8 10 9 1 10 2 11 3 12 79 13
REMARK SMILES IDX 4 14 78 15 80 16 5 17 6 18 7 19 8 20 77 21 9 22 76 23 18 25
REMARK SMILES IDX 19 26 20 27 21 29 22 30 23 31 75 32 24 33 74 34 25 35 26 36
REMARK SMILES IDX 27 37 68 38 28 39 73 40 67 41 69 42 29 43 72 44 66 45 65 46
REMARK SMILES IDX 30 48 56 49 39 50 55 51 40 52 43 53 54 54 70 55 41 56 42 57
REMARK SMILES IDX 53 59 71 60 44 61 31 62 32 63 37 64 33 65 34 66 36 67 38 68
REMARK SMILES IDX 35 69 57 70 58 71 63 72 59 73 60 74 62 75 64 76 61 77 45 78
REMARK SMILES IDX 46 79 51 80 47 81 48 82 50 83 52 84 49 85
REMARK H PARENT 15 6 10 24 19 28 69 47 43 58
REMARK Flexibility Score: inf
ROOT
ATOM      1  C   UNL A   1      37.582  19.732  25.001  1.00  0.00     0.042 C 
ENDROOT
BRANCH   1   2
ATOM      2  C   UNL A   1      36.504  20.806  24.850  1.00  0.00     0.118 C 
BRANCH   2   3
ATOM      3  N   UNL A   1      35.830  21.078  26.108  1.00  0.00    -0.351 N 
ATOM      4  C   UNL A   1      34.526  21.297  26.445  1.00  0.00     0.278 C 
ATOM      5  O   UNL A   1      34.334  21.603  27.630  1.00  0.00    -0.268 OA
ATOM      6  H   UNL A   1      36.442  21.110  26.879  1.00  0.00     0.163 HD
BRANCH   4   7
ATOM      7  C   UNL A   1      33.317  21.157  25.472  1.00  0.00     0.271 C 
ATOM      8  C   UNL A   1      33.092  19.729  24.981  1.00  0.00     0.086 C 
BRANCH   7   9
ATOM      9  N   UNL A   1      33.168  22.299  24.537  1.00  0.00    -0.322 N 
ATOM     10  C   UNL A   1      33.503  28.961  22.998  1.00  0.00     0.010 C 
ATOM     11  C   UNL A   1      32.238  28.123  22.808  1.00  0.00     0.010 C 
ATOM     12  C   UNL A   1      32.378  26.788  23.536  1.00  0.00     0.125 C 
ATOM     13  C   UNL A   1      31.007  28.751  23.491  1.00  0.00     0.010 C 
ATOM     14  N   UNL A   1      31.841  27.038  24.869  1.00  0.00    -0.324 N 
ATOM     15  C   UNL A   1      31.168  28.320  24.951  1.00  0.00     0.125 C 
ATOM     16  C   UNL A   1      29.700  28.207  22.901  1.00  0.00     0.010 C 
ATOM     17  C   UNL A   1      31.701  26.093  25.856  1.00  0.00     0.320 C 
ATOM     18  O   UNL A   1      31.036  26.263  26.873  1.00  0.00    -0.248 OA
ATOM     19  N   UNL A   1      32.218  24.871  25.515  1.00  0.00    -0.313 N 
ATOM     20  C   UNL A   1      31.307  23.759  25.406  1.00  0.00     0.183 C 
ATOM     21  C   UNL A   1      33.622  24.536  25.721  1.00  0.00     0.183 C 
ATOM     22  C   UNL A   1      31.822  22.823  24.310  1.00  0.00     0.284 C 
ATOM     23  C   UNL A   1      34.102  23.426  24.753  1.00  0.00     0.284 C 
ATOM     24  H   UNL A   1      33.427  21.816  23.677  1.00  0.00     0.348 HD
ENDBRANCH   7   9
ENDBRANCH   4   7
ENDBRANCH   2   3
ENDBRANCH   1   2
BRANCH   1  25
ATOM     25  C   UNL A   1      38.837  20.221  25.696  1.00  0.00     0.118 C 
BRANCH  25  26
ATOM     26  N   UNL A   1      39.849  19.183  25.789  1.00  0.00    -0.352 N 
ATOM     27  C   UNL A   1      41.206  19.301  25.981  1.00  0.00     0.251 C 
ATOM     28  H   UNL A   1      39.516  18.261  25.699  1.00  0.00     0.163 HD
ATOM     29  O   UNL A   1      41.933  18.328  25.816  1.00  0.00    -0.269 OA
BRANCH  27  30
ATOM     30  C   UNL A   1      41.794  20.605  26.371  1.00  0.00     0.039 A 
ATOM     31  C   UNL A   1      42.171  21.511  25.375  1.00  0.00     0.014 A 
ATOM     32  C   UNL A   1      41.985  20.931  27.715  1.00  0.00     0.014 A 
ATOM     33  C   UNL A   1      42.682  22.764  25.732  1.00  0.00     0.010 A 
ATOM     34  C   UNL A   1      42.381  22.214  28.067  1.00  0.00     0.010 A 
ATOM     35  C   UNL A   1      42.760  23.138  27.082  1.00  0.00    -0.014 A 
BRANCH  35  36
ATOM     36  C   UNL A   1      43.295  24.453  27.518  1.00  0.00     0.031 A 
ATOM     37  C   UNL A   1      42.333  25.523  27.963  1.00  0.00     0.074 A 
ATOM     38  C   UNL A   1      44.612  24.722  27.426  1.00  0.00     0.049 A 
ATOM     39  N   UNL A   1      42.553  26.789  28.207  1.00  0.00    -0.248 NA
ATOM     40  C   UNL A   1      40.924  25.120  28.113  1.00  0.00     0.031 C 
ATOM     41  C   UNL A   1      45.643  23.781  26.988  1.00  0.00     0.029 A 
ATOM     42  N   UNL A   1      45.305  25.881  27.675  1.00  0.00    -0.354 N 
ATOM     43  C   UNL A   1      41.309  27.335  28.503  1.00  0.00     0.074 A 
ATOM     44  C   UNL A   1      40.333  26.280  28.350  1.00  0.00     0.031 C 
ATOM     45  C   UNL A   1      46.838  24.395  27.012  1.00  0.00     0.029 A 
ATOM     46  C   UNL A   1      46.651  25.786  27.415  1.00  0.00     0.049 A 
ATOM     47  H   UNL A   1      44.877  26.702  28.009  1.00  0.00     0.167 HD
ATOM     48  C   UNL A   1      41.008  28.596  28.890  1.00  0.00     0.037 A 
ATOM     49  C   UNL A   1      47.619  26.720  27.475  1.00  0.00     0.037 A 
ATOM     50  C   UNL A   1      41.989  29.631  29.076  1.00  0.00     0.049 A 
ATOM     51  C   UNL A   1      47.260  28.122  27.890  1.00  0.00     0.074 A 
ATOM     52  C   UNL A   1      41.800  30.928  29.519  1.00  0.00     0.029 A 
ATOM     53  N   UNL A   1      43.347  29.483  28.832  1.00  0.00    -0.354 N 
ATOM     54  N   UNL A   1      46.088  28.616  28.210  1.00  0.00    -0.248 NA
ATOM     55  C   UNL A   1      48.357  29.098  27.955  1.00  0.00     0.031 C 
ATOM     56  C   UNL A   1      43.035  31.581  29.493  1.00  0.00     0.029 A 
ATOM     57  C   UNL A   1      44.004  30.672  29.098  1.00  0.00     0.049 A 
ATOM     58  H   UNL A   1      43.777  28.656  28.518  1.00  0.00     0.167 HD
ATOM     59  C   UNL A   1      46.313  29.942  28.557  1.00  0.00     0.074 A 
ATOM     60  C   UNL A   1      47.733  30.178  28.405  1.00  0.00     0.031 C 
ATOM     61  C   UNL A   1      45.424  30.878  28.970  1.00  0.00     0.037 A 
BRANCH  48  62
ATOM     62  C   UNL A   1      39.564  28.924  29.136  1.00  0.00     0.057 A 
ATOM     63  C   UNL A   1      38.722  29.384  28.115  1.00  0.00     0.134 A 
ATOM     64  C   UNL A   1      38.999  28.755  30.407  1.00  0.00     0.134 A 
ATOM     65  F   UNL A   1      39.199  29.580  26.876  1.00  0.00    -0.206 F 
ATOM     66  C   UNL A   1      37.382  29.697  28.355  1.00  0.00     0.040 A 
ATOM     67  C   UNL A   1      37.654  29.033  30.653  1.00  0.00     0.040 A 
ATOM     68  F   UNL A   1      39.745  28.311  31.431  1.00  0.00    -0.206 F 
ATOM     69  C   UNL A   1      36.843  29.514  29.627  1.00  0.00     0.006 A 
ENDBRANCH  48  62
BRANCH  49  70
ATOM     70  C   UNL A   1      49.023  26.362  27.147  1.00  0.00     0.057 A 
ATOM     71  C   UNL A   1      49.497  26.434  25.832  1.00  0.00     0.134 A 
ATOM     72  C   UNL A   1      49.921  25.934  28.132  1.00  0.00     0.134 A 
ATOM     73  F   UNL A   1      48.680  26.820  24.841  1.00  0.00    -0.206 F 
ATOM     74  C   UNL A   1      50.804  26.070  25.502  1.00  0.00     0.040 A 
ATOM     75  C   UNL A   1      51.240  25.594  27.821  1.00  0.00     0.040 A 
ATOM     76  F   UNL A   1      49.535  25.851  29.413  1.00  0.00    -0.206 F 
ATOM     77  C   UNL A   1      51.681  25.653  26.501  1.00  0.00     0.006 A 
ENDBRANCH  49  70
BRANCH  61  78
ATOM     78  C   UNL A   1      45.958  32.226  29.360  1.00  0.00     0.057 A 
ATOM     79  C   UNL A   1      46.020  33.293  28.458  1.00  0.00     0.134 A 
ATOM     80  C   UNL A   1      46.335  32.475  30.687  1.00  0.00     0.134 A 
ATOM     81  F   UNL A   1      45.683  33.117  27.171  1.00  0.00    -0.206 F 
ATOM     82  C   UNL A   1      46.447  34.560  28.859  1.00  0.00     0.040 A 
ATOM     83  C   UNL A   1      46.736  33.743  31.106  1.00  0.00     0.040 A 
ATOM     84  F   UNL A   1      46.290  31.495  31.603  1.00  0.00    -0.206 F 
ATOM     85  C   UNL A   1      46.795  34.790  30.188  1.00  0.00     0.006 A 
ENDBRANCH  61  78
ENDBRANCH  35  36
ENDBRANCH  27  30
ENDBRANCH  25  26
ENDBRANCH   1  25
TORSDOF 11
ENDMDL
MODEL 3
REMARK VINA RESULT:     -12.4      4.140      9.387
REMARK SMILES C[C@H]1CN(C(=O)N2CC[NH+]([C@@H](C)C(=O)NCCCNC(=O)c3ccc(-c4c5nc(c(-c6c(F)cccc6F)c6ccc([nH]6)c(-c6c(F)cccc6F)c6nc(c(-c7c(F)cccc7F)c7ccc4[nH]7)C=C6)C=C5)cc3)CC2)C[C@@H]1C
REMARK SMILES IDX 17 1 16 2 15 3 13 4 14 5 11 7 12 8 10 9 1 10 2 11 3 12 79 13
REMARK SMILES IDX 4 14 78 15 80 16 5 17 6 18 7 19 8 20 77 21 9 22 76 23 18 25
REMARK SMILES IDX 19 26 20 27 21 29 22 30 23 31 75 32 24 33 74 34 25 35 26 36
REMARK SMILES IDX 27 37 68 38 28 39 73 40 67 41 69 42 29 43 72 44 66 45 65 46
REMARK SMILES IDX 30 48 56 49 39 50 55 51 40 52 43 53 54 54 70 55 41 56 42 57
REMARK SMILES IDX 53 59 71 60 44 61 31 62 32 63 37 64 33 65 34 66 36 67 38 68
REMARK SMILES IDX 35 69 57 70 58 71 63 72 59 73 60 74 62 75 64 76 61 77 45 78
REMARK SMILES IDX 46 79 51 80 47 81 48 82 50 83 52 84 49 85
REMARK H PARENT 15 6 10 24 19 28 69 47 43 58
REMARK Flexibility Score: inf
ROOT
ATOM      1  C   UNL A   1      31.089  31.403  26.128  1.00  0.00     0.042 C 
ENDROOT
BRANCH   1   2
ATOM      2  C   UNL A   1      31.328  30.092  25.380  1.00  0.00     0.118 C 
BRANCH   2   3
ATOM      3  N   UNL A   1      30.849  30.155  24.010  1.00  0.00    -0.351 N 
ATOM      4  C   UNL A   1      30.482  29.206  23.100  1.00  0.00     0.278 C 
ATOM      5  O   UNL A   1      30.218  29.637  21.969  1.00  0.00    -0.268 OA
ATOM      6  H   UNL A   1      30.772  31.074  23.666  1.00  0.00     0.163 HD
BRANCH   4   7
ATOM      7  C   UNL A   1      30.353  27.682  23.401  1.00  0.00     0.271 C 
ATOM      8  C   UNL A   1      28.910  27.220  23.592  1.00  0.00     0.086 C 
BRANCH   7   9
ATOM      9  N   UNL A   1      31.427  27.153  24.277  1.00  0.00    -0.322 N 
ATOM     10  C   UNL A   1      37.252  23.714  25.325  1.00  0.00     0.010 C 
ATOM     11  C   UNL A   1      35.947  23.388  26.054  1.00  0.00     0.010 C 
ATOM     12  C   UNL A   1      34.776  24.095  25.377  1.00  0.00     0.125 C 
ATOM     13  C   UNL A   1      35.559  21.901  25.932  1.00  0.00     0.010 C 
ATOM     14  N   UNL A   1      34.294  23.141  24.386  1.00  0.00    -0.324 N 
ATOM     15  C   UNL A   1      34.896  21.833  24.554  1.00  0.00     0.125 C 
ATOM     16  C   UNL A   1      34.574  21.487  27.033  1.00  0.00     0.010 C 
ATOM     17  C   UNL A   1      33.197  23.324  23.578  1.00  0.00     0.320 C 
ATOM     18  O   UNL A   1      32.671  22.425  22.929  1.00  0.00    -0.248 OA
ATOM     19  N   UNL A   1      32.628  24.564  23.709  1.00  0.00    -0.313 N 
ATOM     20  C   UNL A   1      31.284  24.638  24.225  1.00  0.00     0.183 C 
ATOM     21  C   UNL A   1      33.089  25.715  22.942  1.00  0.00     0.183 C 
ATOM     22  C   UNL A   1      31.151  25.932  25.031  1.00  0.00     0.284 C 
ATOM     23  C   UNL A   1      32.765  27.052  23.653  1.00  0.00     0.284 C 
ATOM     24  H   UNL A   1      31.439  27.908  24.963  1.00  0.00     0.348 HD
ENDBRANCH   7   9
ENDBRANCH   4   7
ENDBRANCH   2   3
ENDBRANCH   1   2
BRANCH   1  25
ATOM     25  C   UNL A   1      32.318  31.936  26.835  1.00  0.00     0.118 C 
BRANCH  25  26
ATOM     26  N   UNL A   1      32.190  33.344  27.167  1.00  0.00    -0.352 N 
ATOM     27  C   UNL A   1      32.914  34.101  28.061  1.00  0.00     0.251 C 
ATOM     28  H   UNL A   1      31.483  33.828  26.684  1.00  0.00     0.163 HD
ATOM     29  O   UNL A   1      32.524  35.220  28.368  1.00  0.00    -0.269 OA
BRANCH  27  30
ATOM     30  C   UNL A   1      34.154  33.557  28.665  1.00  0.00     0.039 A 
ATOM     31  C   UNL A   1      35.372  34.200  28.425  1.00  0.00     0.014 A 
ATOM     32  C   UNL A   1      34.119  32.409  29.457  1.00  0.00     0.014 A 
ATOM     33  C   UNL A   1      36.541  33.724  29.029  1.00  0.00     0.010 A 
ATOM     34  C   UNL A   1      35.255  32.008  30.148  1.00  0.00     0.010 A 
ATOM     35  C   UNL A   1      36.486  32.643  29.922  1.00  0.00    -0.014 A 
BRANCH  35  36
ATOM     36  C   UNL A   1      37.694  32.095  30.590  1.00  0.00     0.031 A 
ATOM     37  C   UNL A   1      38.466  30.991  29.916  1.00  0.00     0.074 A 
ATOM     38  C   UNL A   1      38.041  32.509  31.824  1.00  0.00     0.049 A 
ATOM     39  N   UNL A   1      39.430  30.243  30.388  1.00  0.00    -0.248 NA
ATOM     40  C   UNL A   1      38.069  30.658  28.537  1.00  0.00     0.031 C 
ATOM     41  C   UNL A   1      37.362  33.552  32.594  1.00  0.00     0.029 A 
ATOM     42  N   UNL A   1      39.043  32.080  32.660  1.00  0.00    -0.354 N 
ATOM     43  C   UNL A   1      39.726  29.333  29.380  1.00  0.00     0.074 A 
ATOM     44  C   UNL A   1      38.802  29.583  28.296  1.00  0.00     0.031 C 
ATOM     45  C   UNL A   1      37.975  33.691  33.781  1.00  0.00     0.029 A 
ATOM     46  C   UNL A   1      39.054  32.713  33.879  1.00  0.00     0.049 A 
ATOM     47  H   UNL A   1      39.692  31.383  32.408  1.00  0.00     0.167 HD
ATOM     48  C   UNL A   1      40.695  28.390  29.348  1.00  0.00     0.037 A 
ATOM     49  C   UNL A   1      39.832  32.512  34.959  1.00  0.00     0.037 A 
ATOM     50  C   UNL A   1      41.634  28.172  30.415  1.00  0.00     0.049 A 
ATOM     51  C   UNL A   1      40.893  31.444  34.910  1.00  0.00     0.074 A 
ATOM     52  C   UNL A   1      42.690  27.279  30.464  1.00  0.00     0.029 A 
ATOM     53  N   UNL A   1      41.630  28.858  31.621  1.00  0.00    -0.354 N 
ATOM     54  N   UNL A   1      41.193  30.620  33.935  1.00  0.00    -0.248 NA
ATOM     55  C   UNL A   1      41.726  31.278  36.110  1.00  0.00     0.031 C 
ATOM     56  C   UNL A   1      43.294  27.390  31.720  1.00  0.00     0.029 A 
ATOM     57  C   UNL A   1      42.654  28.395  32.428  1.00  0.00     0.049 A 
ATOM     58  H   UNL A   1      40.993  29.567  31.865  1.00  0.00     0.167 HD
ATOM     59  C   UNL A   1      42.274  29.872  34.385  1.00  0.00     0.074 A 
ATOM     60  C   UNL A   1      42.576  30.337  35.722  1.00  0.00     0.031 C 
ATOM     61  C   UNL A   1      42.959  28.893  33.746  1.00  0.00     0.037 A 
BRANCH  48  62
ATOM     62  C   UNL A   1      40.786  27.525  28.124  1.00  0.00     0.057 A 
ATOM     63  C   UNL A   1      41.560  27.889  27.013  1.00  0.00     0.134 A 
ATOM     64  C   UNL A   1      40.109  26.301  28.062  1.00  0.00     0.134 A 
ATOM     65  F   UNL A   1      42.225  29.055  26.999  1.00  0.00    -0.206 F 
ATOM     66  C   UNL A   1      41.630  27.084  25.874  1.00  0.00     0.040 A 
ATOM     67  C   UNL A   1      40.197  25.471  26.943  1.00  0.00     0.040 A 
ATOM     68  F   UNL A   1      39.355  25.886  29.092  1.00  0.00    -0.206 F 
ATOM     69  C   UNL A   1      40.953  25.867  25.841  1.00  0.00     0.006 A 
ENDBRANCH  48  62
BRANCH  49  70
ATOM     70  C   UNL A   1      39.651  33.345  36.176  1.00  0.00     0.057 A 
ATOM     71  C   UNL A   1      38.766  32.958  37.190  1.00  0.00     0.134 A 
ATOM     72  C   UNL A   1      40.346  34.548  36.353  1.00  0.00     0.134 A 
ATOM     73  F   UNL A   1      38.059  31.826  37.070  1.00  0.00    -0.206 F 
ATOM     74  C   UNL A   1      38.560  33.746  38.323  1.00  0.00     0.040 A 
ATOM     75  C   UNL A   1      40.171  35.332  37.496  1.00  0.00     0.040 A 
ATOM     76  F   UNL A   1      41.215  34.973  35.425  1.00  0.00    -0.206 F 
ATOM     77  C   UNL A   1      39.269  34.936  38.481  1.00  0.00     0.006 A 
ENDBRANCH  49  70
BRANCH  61  78
ATOM     78  C   UNL A   1      44.148  28.301  34.443  1.00  0.00     0.057 A 
ATOM     79  C   UNL A   1      44.059  27.134  35.209  1.00  0.00     0.134 A 
ATOM     80  C   UNL A   1      45.418  28.868  34.270  1.00  0.00     0.134 A 
ATOM     81  F   UNL A   1      42.870  26.548  35.423  1.00  0.00    -0.206 F 
ATOM     82  C   UNL A   1      45.190  26.556  35.787  1.00  0.00     0.040 A 
ATOM     83  C   UNL A   1      46.560  28.283  34.818  1.00  0.00     0.040 A 
ATOM     84  F   UNL A   1      45.573  29.982  33.538  1.00  0.00    -0.206 F 
ATOM     85  C   UNL A   1      46.446  27.124  35.582  1.00  0.00     0.006 A 
ENDBRANCH  61  78
ENDBRANCH  35  36
ENDBRANCH  27  30
ENDBRANCH  25  26
ENDBRANCH   1  25
TORSDOF 11
ENDMDL
