MODEL 1
REMARK VINA RESULT:     -12.1      0.000      0.000
REMARK SMILES C=Cc1cc(Cl)cc2c1O[C@H](C(F)(F)F)C(C(=O)NCCCNC(=O)c1ccc(-c3c4nc(c(-c5c(F)cccc5F)c5ccc([nH]5)c(-c5c(F)cccc5F)c5nc(c(-c6c(F)cccc6F)c6ccc3[nH]6)C=C5)C=C4)cc1)=C2
REMARK SMILES IDX 21 1 20 2 19 3 17 4 18 5 16 7 3 8 4 9 9 10 5 11 8 12 10 13
REMARK SMILES IDX 6 14 7 15 80 16 11 17 2 18 1 19 12 20 13 21 14 22 15 23
REMARK SMILES IDX 22 24 23 25 24 26 25 28 26 29 27 30 79 31 28 32 78 33 29 34
REMARK SMILES IDX 30 35 31 36 72 37 32 38 77 39 71 40 73 41 33 42 76 43 70 44
REMARK SMILES IDX 69 45 34 47 60 48 43 49 59 50 44 51 47 52 58 53 74 54 45 55
REMARK SMILES IDX 46 56 57 58 75 59 48 60 35 61 36 62 41 63 37 64 38 65 40 66
REMARK SMILES IDX 42 67 39 68 61 69 62 70 67 71 63 72 64 73 66 74 68 75 65 76
REMARK SMILES IDX 49 77 50 78 55 79 51 80 52 81 54 82 56 83 53 84
REMARK H PARENT 19 6 23 27 73 46 47 57
REMARK Flexibility Score: inf
ROOT
ATOM      1  C   UNL A   1      37.722  19.798  24.996  1.00  0.00     0.042 C 
ENDROOT
BRANCH   1   2
ATOM      2  C   UNL A   1      36.681  20.868  24.716  1.00  0.00     0.118 C 
BRANCH   2   3
ATOM      3  N   UNL A   1      35.679  20.943  25.768  1.00  0.00    -0.352 N 
ATOM      4  C   UNL A   1      34.649  21.755  26.100  1.00  0.00     0.251 C 
ATOM      5  O   UNL A   1      34.028  21.429  27.118  1.00  0.00    -0.270 OA
ATOM      6  H   UNL A   1      35.778  20.205  26.412  1.00  0.00     0.163 HD
BRANCH   4   7
ATOM      7  C   UNL A   1      34.243  22.973  25.343  1.00  0.00     0.067 C 
ATOM      8  C   UNL A   1      33.408  26.499  23.204  1.00  0.00     0.018 A 
ATOM      9  C   UNL A   1      33.340  27.714  23.895  1.00  0.00     0.032 A 
ATOM     10  C   UNL A   1      33.733  25.334  23.917  1.00  0.00     0.135 A 
ATOM     11  C   UNL A   1      33.616  27.756  25.263  1.00  0.00     0.042 A 
ATOM     12  C   UNL A   1      34.014  25.376  25.288  1.00  0.00     0.019 A 
ATOM     13  O   UNL A   1      33.827  24.168  23.206  1.00  0.00    -0.475 OA
ATOM     14  Cl  UNL A   1      33.536  29.259  26.099  1.00  0.00    -0.084 Cl
ATOM     15  C   UNL A   1      33.956  26.597  25.962  1.00  0.00     0.032 A 
ATOM     16  C   UNL A   1      34.400  24.149  25.978  1.00  0.00     0.025 C 
ATOM     17  C   UNL A   1      33.668  22.941  23.959  1.00  0.00     0.314 C 
BRANCH   8  18
ATOM     18  C   UNL A   1      33.085  26.419  21.772  1.00  0.00     0.004 C 
ATOM     19  C   UNL A   1      31.930  25.941  21.292  1.00  0.00     0.009 C 
ENDBRANCH   8  18
BRANCH  17  20
ATOM     20  C   UNL A   1      32.188  22.512  23.935  1.00  0.00     0.429 C 
ATOM     21  F   UNL A   1      32.090  21.159  23.976  1.00  0.00    -0.167 F 
ATOM     22  F   UNL A   1      31.492  22.979  24.998  1.00  0.00    -0.167 F 
ATOM     23  F   UNL A   1      31.539  22.933  22.827  1.00  0.00    -0.167 F 
ENDBRANCH  17  20
ENDBRANCH   4   7
ENDBRANCH   2   3
ENDBRANCH   1   2
BRANCH   1  24
ATOM     24  C   UNL A   1      38.931  20.353  25.733  1.00  0.00     0.118 C 
BRANCH  24  25
ATOM     25  N   UNL A   1      40.034  19.393  25.785  1.00  0.00    -0.352 N 
ATOM     26  C   UNL A   1      41.370  19.573  26.042  1.00  0.00     0.251 C 
ATOM     27  H   UNL A   1      39.774  18.461  25.603  1.00  0.00     0.163 HD
ATOM     28  O   UNL A   1      42.165  18.667  25.802  1.00  0.00    -0.269 OA
BRANCH  26  29
ATOM     29  C   UNL A   1      41.854  20.854  26.592  1.00  0.00     0.039 A 
ATOM     30  C   UNL A   1      41.905  21.051  27.970  1.00  0.00     0.014 A 
ATOM     31  C   UNL A   1      42.268  21.870  25.726  1.00  0.00     0.014 A 
ATOM     32  C   UNL A   1      42.145  22.318  28.473  1.00  0.00     0.010 A 
ATOM     33  C   UNL A   1      42.647  23.112  26.246  1.00  0.00     0.010 A 
ATOM     34  C   UNL A   1      42.534  23.363  27.621  1.00  0.00    -0.014 A 
BRANCH  34  35
ATOM     35  C   UNL A   1      42.822  24.694  28.216  1.00  0.00     0.031 A 
ATOM     36  C   UNL A   1      44.233  25.119  28.518  1.00  0.00     0.074 A 
ATOM     37  C   UNL A   1      41.800  25.556  28.397  1.00  0.00     0.049 A 
ATOM     38  N   UNL A   1      44.666  26.268  28.978  1.00  0.00    -0.248 NA
ATOM     39  C   UNL A   1      45.296  24.131  28.283  1.00  0.00     0.031 C 
ATOM     40  C   UNL A   1      40.388  25.258  28.132  1.00  0.00     0.029 A 
ATOM     41  N   UNL A   1      41.792  26.865  28.801  1.00  0.00    -0.354 N 
ATOM     42  C   UNL A   1      46.044  26.133  29.102  1.00  0.00     0.074 A 
ATOM     43  C   UNL A   1      46.370  24.780  28.709  1.00  0.00     0.031 C 
ATOM     44  C   UNL A   1      39.664  26.373  28.303  1.00  0.00     0.029 A 
ATOM     45  C   UNL A   1      40.542  27.437  28.769  1.00  0.00     0.049 A 
ATOM     46  H   UNL A   1      42.600  27.348  29.086  1.00  0.00     0.167 HD
ATOM     47  C   UNL A   1      46.954  27.057  29.495  1.00  0.00     0.037 A 
ATOM     48  C   UNL A   1      40.144  28.679  29.095  1.00  0.00     0.037 A 
ATOM     49  C   UNL A   1      46.624  28.405  29.880  1.00  0.00     0.049 A 
ATOM     50  C   UNL A   1      41.169  29.662  29.580  1.00  0.00     0.074 A 
ATOM     51  C   UNL A   1      47.471  29.420  30.289  1.00  0.00     0.029 A 
ATOM     52  N   UNL A   1      45.338  28.927  29.904  1.00  0.00    -0.354 N 
ATOM     53  N   UNL A   1      42.468  29.522  29.685  1.00  0.00    -0.248 NA
ATOM     54  C   UNL A   1      40.667  30.975  30.003  1.00  0.00     0.031 C 
ATOM     55  C   UNL A   1      46.694  30.540  30.607  1.00  0.00     0.029 A 
ATOM     56  C   UNL A   1      45.368  30.242  30.343  1.00  0.00     0.049 A 
ATOM     57  H   UNL A   1      44.525  28.435  29.649  1.00  0.00     0.167 HD
ATOM     58  C   UNL A   1      42.942  30.732  30.169  1.00  0.00     0.074 A 
ATOM     59  C   UNL A   1      41.792  31.605  30.306  1.00  0.00     0.031 C 
ATOM     60  C   UNL A   1      44.211  31.092  30.479  1.00  0.00     0.037 A 
BRANCH  47  61
ATOM     61  C   UNL A   1      48.393  26.625  29.551  1.00  0.00     0.057 A 
ATOM     62  C   UNL A   1      49.249  26.847  28.463  1.00  0.00     0.134 A 
ATOM     63  C   UNL A   1      48.934  25.980  30.672  1.00  0.00     0.134 A 
ATOM     64  F   UNL A   1      48.798  27.453  27.354  1.00  0.00    -0.206 F 
ATOM     65  C   UNL A   1      50.587  26.447  28.490  1.00  0.00     0.040 A 
ATOM     66  C   UNL A   1      50.278  25.601  30.722  1.00  0.00     0.040 A 
ATOM     67  F   UNL A   1      48.176  25.749  31.755  1.00  0.00    -0.206 F 
ATOM     68  C   UNL A   1      51.107  25.831  29.626  1.00  0.00     0.006 A 
ENDBRANCH  47  61
BRANCH  48  69
ATOM     69  C   UNL A   1      38.713  29.059  28.992  1.00  0.00     0.057 A 
ATOM     70  C   UNL A   1      37.862  28.999  30.102  1.00  0.00     0.134 A 
ATOM     71  C   UNL A   1      38.169  29.515  27.787  1.00  0.00     0.134 A 
ATOM     72  F   UNL A   1      38.318  28.563  31.285  1.00  0.00    -0.206 F 
ATOM     73  C   UNL A   1      36.520  29.373  30.016  1.00  0.00     0.040 A 
ATOM     74  C   UNL A   1      36.837  29.924  27.695  1.00  0.00     0.040 A 
ATOM     75  F   UNL A   1      38.938  29.612  26.692  1.00  0.00    -0.206 F 
ATOM     76  C   UNL A   1      36.008  29.850  28.811  1.00  0.00     0.006 A 
ENDBRANCH  48  69
BRANCH  60  77
ATOM     77  C   UNL A   1      44.411  32.499  30.963  1.00  0.00     0.057 A 
ATOM     78  C   UNL A   1      44.626  33.542  30.053  1.00  0.00     0.134 A 
ATOM     79  C   UNL A   1      44.374  32.827  32.325  1.00  0.00     0.134 A 
ATOM     80  F   UNL A   1      44.682  33.295  28.734  1.00  0.00    -0.206 F 
ATOM     81  C   UNL A   1      44.785  34.860  30.478  1.00  0.00     0.040 A 
ATOM     82  C   UNL A   1      44.499  34.147  32.760  1.00  0.00     0.040 A 
ATOM     83  F   UNL A   1      44.154  31.877  33.247  1.00  0.00    -0.206 F 
ATOM     84  C   UNL A   1      44.709  35.168  31.835  1.00  0.00     0.006 A 
ENDBRANCH  60  77
ENDBRANCH  34  35
ENDBRANCH  26  29
ENDBRANCH  24  25
ENDBRANCH   1  24
TORSDOF 12
ENDMDL
MODEL 2
REMARK VINA RESULT:     -12.0      4.835      9.473
REMARK SMILES C=Cc1cc(Cl)cc2c1O[C@H](C(F)(F)F)C(C(=O)NCCCNC(=O)c1ccc(-c3c4nc(c(-c5c(F)cccc5F)c5ccc([nH]5)c(-c5c(F)cccc5F)c5nc(c(-c6c(F)cccc6F)c6ccc3[nH]6)C=C5)C=C4)cc1)=C2
REMARK SMILES IDX 21 1 20 2 19 3 17 4 18 5 16 7 3 8 4 9 9 10 5 11 8 12 10 13
REMARK SMILES IDX 6 14 7 15 80 16 11 17 2 18 1 19 12 20 13 21 14 22 15 23
REMARK SMILES IDX 22 24 23 25 24 26 25 28 26 29 27 30 79 31 28 32 78 33 29 34
REMARK SMILES IDX 30 35 31 36 72 37 32 38 77 39 71 40 73 41 33 42 76 43 70 44
REMARK SMILES IDX 69 45 34 47 60 48 43 49 59 50 44 51 47 52 58 53 74 54 45 55
REMARK SMILES IDX 46 56 57 58 75 59 48 60 35 61 36 62 41 63 37 64 38 65 40 66
REMARK SMILES IDX 42 67 39 68 61 69 62 70 67 71 63 72 64 73 66 74 68 75 65 76
REMARK SMILES IDX 49 77 50 78 55 79 51 80 52 81 54 82 56 83 53 84
REMARK H PARENT 19 6 23 27 73 46 47 57
REMARK Flexibility Score: inf
ROOT
ATOM      1  C   UNL A   1      31.396  32.185  26.657  1.00  0.00     0.042 C 
ENDROOT
BRANCH   1   2
ATOM      2  C   UNL A   1      31.572  30.704  26.370  1.00  0.00     0.118 C 
BRANCH   2   3
ATOM      3  N   UNL A   1      31.214  30.368  25.001  1.00  0.00    -0.352 N 
ATOM      4  C   UNL A   1      31.117  29.248  24.247  1.00  0.00     0.251 C 
ATOM      5  O   UNL A   1      30.754  29.428  23.080  1.00  0.00    -0.270 OA
ATOM      6  H   UNL A   1      30.979  31.172  24.483  1.00  0.00     0.163 HD
BRANCH   4   7
ATOM      7  C   UNL A   1      31.419  27.869  24.724  1.00  0.00     0.067 C 
ATOM      8  C   UNL A   1      32.397  24.108  26.340  1.00  0.00     0.018 A 
ATOM      9  C   UNL A   1      33.720  23.659  26.265  1.00  0.00     0.032 A 
ATOM     10  C   UNL A   1      32.087  25.383  25.841  1.00  0.00     0.135 A 
ATOM     11  C   UNL A   1      34.708  24.483  25.724  1.00  0.00     0.042 A 
ATOM     12  C   UNL A   1      33.079  26.212  25.301  1.00  0.00     0.019 A 
ATOM     13  O   UNL A   1      30.792  25.809  25.961  1.00  0.00    -0.475 OA
ATOM     14  Cl  UNL A   1      36.333  23.919  25.645  1.00  0.00    -0.084 Cl
ATOM     15  C   UNL A   1      34.397  25.756  25.245  1.00  0.00     0.032 A 
ATOM     16  C   UNL A   1      32.722  27.551  24.843  1.00  0.00     0.025 C 
ATOM     17  C   UNL A   1      30.369  26.849  25.048  1.00  0.00     0.314 C 
BRANCH   8  18
ATOM     18  C   UNL A   1      31.329  23.247  26.870  1.00  0.00     0.004 C 
ATOM     19  C   UNL A   1      30.650  22.359  26.133  1.00  0.00     0.009 C 
ENDBRANCH   8  18
BRANCH  17  20
ATOM     20  C   UNL A   1      29.750  26.208  23.790  1.00  0.00     0.429 C 
ATOM     21  F   UNL A   1      30.539  26.436  22.709  1.00  0.00    -0.167 F 
ATOM     22  F   UNL A   1      29.626  24.864  23.897  1.00  0.00    -0.167 F 
ATOM     23  F   UNL A   1      28.521  26.693  23.506  1.00  0.00    -0.167 F 
ENDBRANCH  17  20
ENDBRANCH   4   7
ENDBRANCH   2   3
ENDBRANCH   1   2
BRANCH   1  24
ATOM     24  C   UNL A   1      32.651  32.806  27.251  1.00  0.00     0.118 C 
BRANCH  24  25
ATOM     25  N   UNL A   1      32.448  34.205  27.630  1.00  0.00    -0.352 N 
ATOM     26  C   UNL A   1      33.014  34.956  28.630  1.00  0.00     0.251 C 
ATOM     27  H   UNL A   1      31.794  34.688  27.075  1.00  0.00     0.163 HD
ATOM     28  O   UNL A   1      32.527  36.045  28.924  1.00  0.00    -0.269 OA
BRANCH  26  29
ATOM     29  C   UNL A   1      34.194  34.453  29.359  1.00  0.00     0.039 A 
ATOM     30  C   UNL A   1      35.471  34.634  28.835  1.00  0.00     0.014 A 
ATOM     31  C   UNL A   1      34.028  33.797  30.582  1.00  0.00     0.014 A 
ATOM     32  C   UNL A   1      36.547  33.971  29.403  1.00  0.00     0.010 A 
ATOM     33  C   UNL A   1      35.139  33.247  31.231  1.00  0.00     0.010 A 
ATOM     34  C   UNL A   1      36.400  33.282  30.617  1.00  0.00    -0.014 A 
BRANCH  34  35
ATOM     35  C   UNL A   1      37.593  32.624  31.208  1.00  0.00     0.031 A 
ATOM     36  C   UNL A   1      38.099  33.015  32.570  1.00  0.00     0.074 A 
ATOM     37  C   UNL A   1      38.165  31.601  30.541  1.00  0.00     0.049 A 
ATOM     38  N   UNL A   1      39.088  32.501  33.260  1.00  0.00    -0.248 NA
ATOM     39  C   UNL A   1      37.419  34.131  33.243  1.00  0.00     0.031 C 
ATOM     40  C   UNL A   1      37.756  31.126  29.214  1.00  0.00     0.029 A 
ATOM     41  N   UNL A   1      39.177  30.750  30.899  1.00  0.00    -0.354 N 
ATOM     42  C   UNL A   1      39.156  33.239  34.436  1.00  0.00     0.074 A 
ATOM     43  C   UNL A   1      38.137  34.262  34.349  1.00  0.00     0.031 C 
ATOM     44  C   UNL A   1      38.454  30.023  28.908  1.00  0.00     0.029 A 
ATOM     45  C   UNL A   1      39.414  29.763  29.971  1.00  0.00     0.049 A 
ATOM     46  H   UNL A   1      39.685  30.836  31.737  1.00  0.00     0.167 HD
ATOM     47  C   UNL A   1      39.982  33.070  35.496  1.00  0.00     0.037 A 
ATOM     48  C   UNL A   1      40.316  28.767  29.970  1.00  0.00     0.037 A 
ATOM     49  C   UNL A   1      40.991  32.045  35.581  1.00  0.00     0.049 A 
ATOM     50  C   UNL A   1      41.255  28.641  31.134  1.00  0.00     0.074 A 
ATOM     51  C   UNL A   1      41.877  31.785  36.612  1.00  0.00     0.029 A 
ATOM     52  N   UNL A   1      41.250  31.108  34.590  1.00  0.00    -0.354 N 
ATOM     53  N   UNL A   1      41.302  29.342  32.241  1.00  0.00    -0.248 NA
ATOM     54  C   UNL A   1      42.275  27.589  31.041  1.00  0.00     0.031 C 
ATOM     55  C   UNL A   1      42.702  30.723  36.225  1.00  0.00     0.029 A 
ATOM     56  C   UNL A   1      42.295  30.284  34.977  1.00  0.00     0.049 A 
ATOM     57  H   UNL A   1      40.763  31.040  33.737  1.00  0.00     0.167 HD
ATOM     58  C   UNL A   1      42.343  28.806  32.984  1.00  0.00     0.074 A 
ATOM     59  C   UNL A   1      42.879  27.701  32.214  1.00  0.00     0.031 C 
ATOM     60  C   UNL A   1      42.820  29.194  34.192  1.00  0.00     0.037 A 
BRANCH  47  61
ATOM     61  C   UNL A   1      39.842  34.036  36.640  1.00  0.00     0.057 A 
ATOM     62  C   UNL A   1      40.525  35.259  36.631  1.00  0.00     0.134 A 
ATOM     63  C   UNL A   1      39.042  33.755  37.758  1.00  0.00     0.134 A 
ATOM     64  F   UNL A   1      41.312  35.592  35.597  1.00  0.00    -0.206 F 
ATOM     65  C   UNL A   1      40.416  36.168  37.686  1.00  0.00     0.040 A 
ATOM     66  C   UNL A   1      38.903  34.668  38.806  1.00  0.00     0.040 A 
ATOM     67  F   UNL A   1      38.349  32.608  37.826  1.00  0.00    -0.206 F 
ATOM     68  C   UNL A   1      39.595  35.876  38.773  1.00  0.00     0.006 A 
ENDBRANCH  47  61
BRANCH  48  69
ATOM     69  C   UNL A   1      40.390  27.824  28.826  1.00  0.00     0.057 A 
ATOM     70  C   UNL A   1      39.664  26.627  28.819  1.00  0.00     0.134 A 
ATOM     71  C   UNL A   1      41.171  28.110  27.700  1.00  0.00     0.134 A 
ATOM     72  F   UNL A   1      38.903  26.290  29.871  1.00  0.00    -0.206 F 
ATOM     73  C   UNL A   1      39.714  25.746  27.739  1.00  0.00     0.040 A 
ATOM     74  C   UNL A   1      41.204  27.254  26.598  1.00  0.00     0.040 A 
ATOM     75  F   UNL A   1      41.876  29.249  27.640  1.00  0.00    -0.206 F 
ATOM     76  C   UNL A   1      40.478  26.066  26.617  1.00  0.00     0.006 A 
ENDBRANCH  48  69
BRANCH  60  77
ATOM     77  C   UNL A   1      43.955  28.389  34.756  1.00  0.00     0.057 A 
ATOM     78  C   UNL A   1      45.282  28.770  34.525  1.00  0.00     0.134 A 
ATOM     79  C   UNL A   1      43.736  27.248  35.541  1.00  0.00     0.134 A 
ATOM     80  F   UNL A   1      45.561  29.848  33.775  1.00  0.00    -0.206 F 
ATOM     81  C   UNL A   1      46.352  28.054  35.062  1.00  0.00     0.040 A 
ATOM     82  C   UNL A   1      44.797  26.543  36.111  1.00  0.00     0.040 A 
ATOM     83  F   UNL A   1      42.488  26.840  35.815  1.00  0.00    -0.206 F 
ATOM     84  C   UNL A   1      46.109  26.943  35.869  1.00  0.00     0.006 A 
ENDBRANCH  60  77
ENDBRANCH  34  35
ENDBRANCH  26  29
ENDBRANCH  24  25
ENDBRANCH   1  24
TORSDOF 12
ENDMDL
MODEL 3
REMARK VINA RESULT:     -12.0      4.677      9.478
REMARK SMILES C=Cc1cc(Cl)cc2c1O[C@H](C(F)(F)F)C(C(=O)NCCCNC(=O)c1ccc(-c3c4nc(c(-c5c(F)cccc5F)c5ccc([nH]5)c(-c5c(F)cccc5F)c5nc(c(-c6c(F)cccc6F)c6ccc3[nH]6)C=C5)C=C4)cc1)=C2
REMARK SMILES IDX 21 1 20 2 19 3 17 4 18 5 16 7 3 8 4 9 9 10 5 11 8 12 10 13
REMARK SMILES IDX 6 14 7 15 80 16 11 17 2 18 1 19 12 20 13 21 14 22 15 23
REMARK SMILES IDX 22 24 23 25 24 26 25 28 26 29 27 30 79 31 28 32 78 33 29 34
REMARK SMILES IDX 30 35 31 36 72 37 32 38 77 39 71 40 73 41 33 42 76 43 70 44
REMARK SMILES IDX 69 45 34 47 60 48 43 49 59 50 44 51 47 52 58 53 74 54 45 55
REMARK SMILES IDX 46 56 57 58 75 59 48 60 35 61 36 62 41 63 37 64 38 65 40 66
REMARK SMILES IDX 42 67 39 68 61 69 62 70 67 71 63 72 64 73 66 74 68 75 65 76
REMARK SMILES IDX 49 77 50 78 55 79 51 80 52 81 54 82 56 83 53 84
REMARK H PARENT 19 6 23 27 73 46 47 57
REMARK Flexibility Score: inf
ROOT
ATOM      1  C   UNL A   1      31.334  32.265  26.504  1.00  0.00     0.042 C 
ENDROOT
BRANCH   1   2
ATOM      2  C   UNL A   1      31.413  30.755  26.354  1.00  0.00     0.118 C 
BRANCH   2   3
ATOM      3  N   UNL A   1      31.307  30.339  24.965  1.00  0.00    -0.352 N 
ATOM      4  C   UNL A   1      31.466  29.198  24.256  1.00  0.00     0.251 C 
ATOM      5  O   UNL A   1      31.259  29.297  23.042  1.00  0.00    -0.270 OA
ATOM      6  H   UNL A   1      31.051  31.091  24.382  1.00  0.00     0.163 HD
BRANCH   4   7
ATOM      7  C   UNL A   1      31.867  27.883  24.834  1.00  0.00     0.067 C 
ATOM      8  C   UNL A   1      32.889  24.033  26.191  1.00  0.00     0.018 A 
ATOM      9  C   UNL A   1      31.887  23.208  26.714  1.00  0.00     0.032 A 
ATOM     10  C   UNL A   1      32.532  25.298  25.697  1.00  0.00     0.135 A 
ATOM     11  C   UNL A   1      30.558  23.638  26.717  1.00  0.00     0.042 A 
ATOM     12  C   UNL A   1      31.200  25.728  25.696  1.00  0.00     0.019 A 
ATOM     13  O   UNL A   1      33.529  26.067  25.158  1.00  0.00    -0.475 OA
ATOM     14  Cl  UNL A   1      29.335  22.610  27.357  1.00  0.00    -0.084 Cl
ATOM     15  C   UNL A   1      30.208  24.890  26.208  1.00  0.00     0.032 A 
ATOM     16  C   UNL A   1      30.868  27.029  25.123  1.00  0.00     0.025 C 
ATOM     17  C   UNL A   1      33.288  27.493  25.112  1.00  0.00     0.314 C 
BRANCH   8  18
ATOM     18  C   UNL A   1      34.300  23.622  26.210  1.00  0.00     0.004 C 
ATOM     19  C   UNL A   1      34.708  22.347  26.178  1.00  0.00     0.009 C 
ENDBRANCH   8  18
BRANCH  17  20
ATOM     20  C   UNL A   1      33.850  28.150  26.388  1.00  0.00     0.429 C 
ATOM     21  F   UNL A   1      32.922  28.122  27.379  1.00  0.00    -0.167 F 
ATOM     22  F   UNL A   1      34.942  27.510  26.867  1.00  0.00    -0.167 F 
ATOM     23  F   UNL A   1      34.204  29.441  26.201  1.00  0.00    -0.167 F 
ENDBRANCH  17  20
ENDBRANCH   4   7
ENDBRANCH   2   3
ENDBRANCH   1   2
BRANCH   1  24
ATOM     24  C   UNL A   1      32.526  32.829  27.263  1.00  0.00     0.118 C 
BRANCH  24  25
ATOM     25  N   UNL A   1      32.333  34.232  27.630  1.00  0.00    -0.352 N 
ATOM     26  C   UNL A   1      32.948  35.004  28.584  1.00  0.00     0.251 C 
ATOM     27  H   UNL A   1      31.644  34.701  27.105  1.00  0.00     0.163 HD
ATOM     28  O   UNL A   1      32.470  36.094  28.887  1.00  0.00    -0.269 OA
BRANCH  26  29
ATOM     29  C   UNL A   1      34.171  34.522  29.253  1.00  0.00     0.039 A 
ATOM     30  C   UNL A   1      35.411  34.667  28.636  1.00  0.00     0.014 A 
ATOM     31  C   UNL A   1      34.084  33.921  30.513  1.00  0.00     0.014 A 
ATOM     32  C   UNL A   1      36.518  34.020  29.160  1.00  0.00     0.010 A 
ATOM     33  C   UNL A   1      35.233  33.390  31.108  1.00  0.00     0.010 A 
ATOM     34  C   UNL A   1      36.450  33.385  30.410  1.00  0.00    -0.014 A 
BRANCH  34  35
ATOM     35  C   UNL A   1      37.677  32.743  30.948  1.00  0.00     0.031 A 
ATOM     36  C   UNL A   1      38.277  33.189  32.253  1.00  0.00     0.074 A 
ATOM     37  C   UNL A   1      38.194  31.686  30.290  1.00  0.00     0.049 A 
ATOM     38  N   UNL A   1      39.307  32.696  32.897  1.00  0.00    -0.248 NA
ATOM     39  C   UNL A   1      37.652  34.340  32.920  1.00  0.00     0.031 C 
ATOM     40  C   UNL A   1      37.693  31.156  29.017  1.00  0.00     0.029 A 
ATOM     41  N   UNL A   1      39.222  30.841  30.616  1.00  0.00    -0.354 N 
ATOM     42  C   UNL A   1      39.460  33.485  34.031  1.00  0.00     0.074 A 
ATOM     43  C   UNL A   1      38.445  34.514  33.967  1.00  0.00     0.031 C 
ATOM     44  C   UNL A   1      38.360  30.034  28.714  1.00  0.00     0.029 A 
ATOM     45  C   UNL A   1      39.388  29.812  29.720  1.00  0.00     0.049 A 
ATOM     46  H   UNL A   1      39.787  30.960  31.413  1.00  0.00     0.167 HD
ATOM     47  C   UNL A   1      40.356  33.355  35.039  1.00  0.00     0.037 A 
ATOM     48  C   UNL A   1      40.282  28.808  29.703  1.00  0.00     0.037 A 
ATOM     49  C   UNL A   1      41.361  32.325  35.101  1.00  0.00     0.049 A 
ATOM     50  C   UNL A   1      41.297  28.725  30.805  1.00  0.00     0.074 A 
ATOM     51  C   UNL A   1      42.313  32.103  36.080  1.00  0.00     0.029 A 
ATOM     52  N   UNL A   1      41.545  31.343  34.138  1.00  0.00    -0.354 N 
ATOM     53  N   UNL A   1      41.424  29.473  31.873  1.00  0.00    -0.248 NA
ATOM     54  C   UNL A   1      42.301  27.660  30.689  1.00  0.00     0.031 C 
ATOM     55  C   UNL A   1      43.103  31.017  35.687  1.00  0.00     0.029 A 
ATOM     56  C   UNL A   1      42.609  30.527  34.490  1.00  0.00     0.049 A 
ATOM     57  H   UNL A   1      41.000  31.241  33.324  1.00  0.00     0.167 HD
ATOM     58  C   UNL A   1      42.510  28.961  32.567  1.00  0.00     0.074 A 
ATOM     59  C   UNL A   1      42.985  27.817  31.813  1.00  0.00     0.031 C 
ATOM     60  C   UNL A   1      43.071  29.397  33.722  1.00  0.00     0.037 A 
BRANCH  47  61
ATOM     61  C   UNL A   1      40.300  34.372  36.145  1.00  0.00     0.057 A 
ATOM     62  C   UNL A   1      41.049  35.555  36.068  1.00  0.00     0.134 A 
ATOM     63  C   UNL A   1      39.518  34.181  37.294  1.00  0.00     0.134 A 
ATOM     64  F   UNL A   1      41.825  35.801  35.001  1.00  0.00    -0.206 F 
ATOM     65  C   UNL A   1      41.019  36.509  37.087  1.00  0.00     0.040 A 
ATOM     66  C   UNL A   1      39.459  35.142  38.306  1.00  0.00     0.040 A 
ATOM     67  F   UNL A   1      38.765  33.079  37.427  1.00  0.00    -0.206 F 
ATOM     68  C   UNL A   1      40.214  36.307  38.206  1.00  0.00     0.006 A 
ENDBRANCH  47  61
BRANCH  48  69
ATOM     69  C   UNL A   1      40.271  27.814  28.600  1.00  0.00     0.057 A 
ATOM     70  C   UNL A   1      40.963  28.044  27.405  1.00  0.00     0.134 A 
ATOM     71  C   UNL A   1      39.589  26.599  28.727  1.00  0.00     0.134 A 
ATOM     72  F   UNL A   1      41.630  29.192  27.217  1.00  0.00    -0.206 F 
ATOM     73  C   UNL A   1      40.972  27.105  26.373  1.00  0.00     0.040 A 
ATOM     74  C   UNL A   1      39.617  25.636  27.715  1.00  0.00     0.040 A 
ATOM     75  F   UNL A   1      38.922  26.313  29.854  1.00  0.00    -0.206 F 
ATOM     76  C   UNL A   1      40.307  25.891  26.533  1.00  0.00     0.006 A 
ENDBRANCH  48  69
BRANCH  60  77
ATOM     77  C   UNL A   1      44.236  28.607  34.242  1.00  0.00     0.057 A 
ATOM     78  C   UNL A   1      45.547  28.962  33.902  1.00  0.00     0.134 A 
ATOM     79  C   UNL A   1      44.064  27.506  35.093  1.00  0.00     0.134 A 
ATOM     80  F   UNL A   1      45.782  30.001  33.085  1.00  0.00    -0.206 F 
ATOM     81  C   UNL A   1      46.646  28.260  34.398  1.00  0.00     0.040 A 
ATOM     82  C   UNL A   1      45.156  26.816  35.621  1.00  0.00     0.040 A 
ATOM     83  F   UNL A   1      42.835  27.124  35.471  1.00  0.00    -0.206 F 
ATOM     84  C   UNL A   1      46.452  27.191  35.270  1.00  0.00     0.006 A 
ENDBRANCH  60  77
ENDBRANCH  34  35
ENDBRANCH  26  29
ENDBRANCH  24  25
ENDBRANCH   1  24
TORSDOF 12
ENDMDL
