MODEL 1
REMARK VINA RESULT:      -9.1      0.000      0.000
REMARK SMILES CCCCCCNC(=O)Oc1cccc(-c2ccc(CC(=O)NCCCNC(=O)c3ccc(-c4c5nc(c(-c6c(F)cccc6F)c6ccc([nH]6)c(-c6c(F)cccc6F)c6nc(c(-c7c(F)cccc7F)c7ccc4[nH]7)C=C6)C=C5)cc3)cc2F)c1
REMARK SMILES IDX 16 1 17 2 18 3 19 4 84 5 85 6 86 7 15 8 11 9 12 10 87 11
REMARK SMILES IDX 13 12 14 13 10 14 8 15 7 16 9 18 6 19 5 20 4 21 3 22 2 23
REMARK SMILES IDX 1 24 20 25 21 26 22 27 23 28 24 30 25 31 26 32 27 33 28 34
REMARK SMILES IDX 29 36 30 37 31 38 83 39 32 40 82 41 33 42 34 43 35 44 76 45
REMARK SMILES IDX 36 46 81 47 75 48 77 49 37 50 80 51 74 52 73 53 38 55 64 56
REMARK SMILES IDX 47 57 63 58 48 59 51 60 62 61 78 62 49 63 50 64 61 66 79 67
REMARK SMILES IDX 52 68 39 69 40 70 45 71 41 72 42 73 44 74 46 75 43 76 65 77
REMARK SMILES IDX 66 78 71 79 67 80 68 81 70 82 72 83 69 84 53 85 54 86 59 87
REMARK SMILES IDX 55 88 56 89 58 90 60 91 57 92
REMARK H PARENT 7 17 23 29 27 35 77 54 51 65
REMARK Flexibility Score: inf
ROOT
ATOM      1  C   UNL A   1      45.319  27.878  26.612  1.00  0.00     0.018 A 
ATOM      2  C   UNL A   1      46.506  27.319  27.113  1.00  0.00     0.012 A 
ATOM      3  C   UNL A   1      46.849  25.989  26.841  1.00  0.00     0.005 A 
ATOM      4  C   UNL A   1      46.015  25.183  26.055  1.00  0.00    -0.036 A 
ATOM      5  C   UNL A   1      44.815  25.722  25.581  1.00  0.00     0.044 A 
ATOM      6  C   UNL A   1      44.485  27.049  25.848  1.00  0.00     0.131 A 
ATOM      7  F   UNL A   1      43.342  27.526  25.332  1.00  0.00    -0.206 F 
ENDROOT
BRANCH   1   8
ATOM      8  C   UNL A   1      44.955  29.274  26.898  1.00  0.00    -0.012 A 
ATOM      9  C   UNL A   1      45.216  31.649  26.466  1.00  0.00     0.133 A 
ATOM     10  C   UNL A   1      44.288  31.960  27.455  1.00  0.00     0.047 A 
ATOM     11  C   UNL A   1      45.566  30.326  26.199  1.00  0.00     0.056 A 
ATOM     12  C   UNL A   1      43.673  30.928  28.159  1.00  0.00     0.004 A 
ATOM     13  C   UNL A   1      44.000  29.596  27.879  1.00  0.00     0.009 A 
BRANCH   9  14
ATOM     14  O   UNL A   1      45.864  32.719  25.827  1.00  0.00    -0.410 OA
BRANCH  14  15
ATOM     15  C   UNL A   1      45.103  33.522  24.992  1.00  0.00     0.412 C 
ATOM     16  N   UNL A   1      45.484  34.834  25.005  1.00  0.00    -0.321 N 
ATOM     17  H   UNL A   1      44.972  35.444  24.427  1.00  0.00     0.167 HD
ATOM     18  O   UNL A   1      44.161  33.153  24.292  1.00  0.00    -0.224 OA
BRANCH  16  19
ATOM     19  C   UNL A   1      46.559  35.422  25.778  1.00  0.00     0.119 C 
BRANCH  19  20
ATOM     20  C   UNL A   1      46.035  36.252  26.949  1.00  0.00     0.021 C 
BRANCH  20  21
ATOM     21  C   UNL A   1      45.442  35.438  28.106  1.00  0.00     0.002 C 
BRANCH  21  22
ATOM     22  C   UNL A   1      44.031  35.843  28.548  1.00  0.00    -0.000 C 
BRANCH  22  23
ATOM     23  C   UNL A   1      42.914  35.522  27.553  1.00  0.00    -0.003 C 
ATOM     24  C   UNL A   1      41.520  35.689  28.137  1.00  0.00     0.004 C 
ENDBRANCH  22  23
ENDBRANCH  21  22
ENDBRANCH  20  21
ENDBRANCH  19  20
ENDBRANCH  16  19
ENDBRANCH  14  15
ENDBRANCH   9  14
ENDBRANCH   1   8
BRANCH   4  25
ATOM     25  C   UNL A   1      46.393  23.760  25.725  1.00  0.00     0.135 C 
BRANCH  25  26
ATOM     26  C   UNL A   1      46.560  23.498  24.238  1.00  0.00     0.224 C 
ATOM     27  O   UNL A   1      47.399  24.106  23.569  1.00  0.00    -0.275 OA
ATOM     28  N   UNL A   1      45.793  22.556  23.617  1.00  0.00    -0.356 N 
ATOM     29  H   UNL A   1      46.010  22.391  22.671  1.00  0.00     0.163 HD
BRANCH  28  30
ATOM     30  C   UNL A   1      44.700  21.764  24.152  1.00  0.00     0.117 C 
BRANCH  30  31
ATOM     31  C   UNL A   1      45.019  20.269  24.161  1.00  0.00     0.042 C 
BRANCH  31  32
ATOM     32  C   UNL A   1      44.490  19.521  25.382  1.00  0.00     0.118 C 
BRANCH  32  33
ATOM     33  N   UNL A   1      43.073  19.205  25.277  1.00  0.00    -0.352 N 
ATOM     34  C   UNL A   1      41.975  19.833  25.807  1.00  0.00     0.251 C 
ATOM     35  H   UNL A   1      42.869  18.408  24.736  1.00  0.00     0.163 HD
ATOM     36  O   UNL A   1      40.877  19.286  25.728  1.00  0.00    -0.269 OA
BRANCH  34  37
ATOM     37  C   UNL A   1      42.088  21.145  26.484  1.00  0.00     0.039 A 
ATOM     38  C   UNL A   1      42.052  21.177  27.882  1.00  0.00     0.014 A 
ATOM     39  C   UNL A   1      42.166  22.340  25.765  1.00  0.00     0.014 A 
ATOM     40  C   UNL A   1      42.146  22.396  28.557  1.00  0.00     0.010 A 
ATOM     41  C   UNL A   1      42.325  23.552  26.440  1.00  0.00     0.010 A 
ATOM     42  C   UNL A   1      42.313  23.593  27.843  1.00  0.00    -0.014 A 
BRANCH  42  43
ATOM     43  C   UNL A   1      42.476  24.888  28.550  1.00  0.00     0.031 A 
ATOM     44  C   UNL A   1      43.764  25.217  29.254  1.00  0.00     0.074 A 
ATOM     45  C   UNL A   1      41.447  25.758  28.591  1.00  0.00     0.049 A 
ATOM     46  N   UNL A   1      44.072  26.273  29.965  1.00  0.00    -0.248 NA
ATOM     47  C   UNL A   1      44.843  24.220  29.163  1.00  0.00     0.031 C 
ATOM     48  C   UNL A   1      40.135  25.547  27.976  1.00  0.00     0.029 A 
ATOM     49  N   UNL A   1      41.342  26.992  29.181  1.00  0.00    -0.354 N 
ATOM     50  C   UNL A   1      45.373  26.066  30.408  1.00  0.00     0.074 A 
ATOM     51  C   UNL A   1      45.778  24.762  29.930  1.00  0.00     0.031 C 
ATOM     52  C   UNL A   1      39.366  26.624  28.199  1.00  0.00     0.029 A 
ATOM     53  C   UNL A   1      40.116  27.586  29.001  1.00  0.00     0.049 A 
ATOM     54  H   UNL A   1      42.075  27.413  29.685  1.00  0.00     0.167 HD
ATOM     55  C   UNL A   1      46.165  26.896  31.128  1.00  0.00     0.037 A 
ATOM     56  C   UNL A   1      39.648  28.771  29.436  1.00  0.00     0.037 A 
ATOM     57  C   UNL A   1      45.770  28.200  31.591  1.00  0.00     0.049 A 
ATOM     58  C   UNL A   1      40.542  29.662  30.252  1.00  0.00     0.074 A 
ATOM     59  C   UNL A   1      46.513  29.125  32.305  1.00  0.00     0.029 A 
ATOM     60  N   UNL A   1      44.523  28.768  31.381  1.00  0.00    -0.354 N 
ATOM     61  N   UNL A   1      41.784  29.470  30.626  1.00  0.00    -0.248 NA
ATOM     62  C   UNL A   1      39.970  30.940  30.702  1.00  0.00     0.031 C 
ATOM     63  C   UNL A   1      45.706  30.240  32.553  1.00  0.00     0.029 A 
ATOM     64  C   UNL A   1      44.473  30.026  31.961  1.00  0.00     0.049 A 
ATOM     65  H   UNL A   1      43.783  28.341  30.894  1.00  0.00     0.167 HD
ATOM     66  C   UNL A   1      42.151  30.612  31.325  1.00  0.00     0.074 A 
ATOM     67  C   UNL A   1      41.005  31.498  31.313  1.00  0.00     0.031 C 
ATOM     68  C   UNL A   1      43.330  30.902  31.925  1.00  0.00     0.037 A 
BRANCH  55  69
ATOM     69  C   UNL A   1      47.553  26.421  31.449  1.00  0.00     0.057 A 
ATOM     70  C   UNL A   1      48.648  26.763  30.645  1.00  0.00     0.134 A 
ATOM     71  C   UNL A   1      47.805  25.653  32.592  1.00  0.00     0.134 A 
ATOM     72  F   UNL A   1      48.473  27.488  29.529  1.00  0.00    -0.206 F 
ATOM     73  C   UNL A   1      49.942  26.342  30.956  1.00  0.00     0.040 A 
ATOM     74  C   UNL A   1      49.098  25.247  32.927  1.00  0.00     0.040 A 
ATOM     75  F   UNL A   1      46.802  25.296  33.409  1.00  0.00    -0.206 F 
ATOM     76  C   UNL A   1      50.170  25.586  32.105  1.00  0.00     0.006 A 
ENDBRANCH  55  69
BRANCH  56  77
ATOM     77  C   UNL A   1      38.268  29.202  29.094  1.00  0.00     0.057 A 
ATOM     78  C   UNL A   1      37.957  29.657  27.808  1.00  0.00     0.134 A 
ATOM     79  C   UNL A   1      37.241  29.199  30.045  1.00  0.00     0.134 A 
ATOM     80  F   UNL A   1      38.905  29.702  26.860  1.00  0.00    -0.206 F 
ATOM     81  C   UNL A   1      36.680  30.117  27.484  1.00  0.00     0.040 A 
ATOM     82  C   UNL A   1      35.954  29.633  29.728  1.00  0.00     0.040 A 
ATOM     83  F   UNL A   1      37.475  28.770  31.294  1.00  0.00    -0.206 F 
ATOM     84  C   UNL A   1      35.673  30.103  28.447  1.00  0.00     0.006 A 
ENDBRANCH  56  77
BRANCH  68  85
ATOM     85  C   UNL A   1      43.454  32.247  32.576  1.00  0.00     0.057 A 
ATOM     86  C   UNL A   1      43.138  32.448  33.925  1.00  0.00     0.134 A 
ATOM     87  C   UNL A   1      43.921  33.350  31.849  1.00  0.00     0.134 A 
ATOM     88  F   UNL A   1      42.672  31.435  34.672  1.00  0.00    -0.206 F 
ATOM     89  C   UNL A   1      43.257  33.704  34.522  1.00  0.00     0.040 A 
ATOM     90  C   UNL A   1      44.067  34.604  32.440  1.00  0.00     0.040 A 
ATOM     91  F   UNL A   1      44.248  33.223  30.554  1.00  0.00    -0.206 F 
ATOM     92  C   UNL A   1      43.729  34.785  33.779  1.00  0.00     0.006 A 
ENDBRANCH  68  85
ENDBRANCH  42  43
ENDBRANCH  34  37
ENDBRANCH  32  33
ENDBRANCH  31  32
ENDBRANCH  30  31
ENDBRANCH  28  30
ENDBRANCH  25  26
ENDBRANCH   4  25
TORSDOF 19
ENDMDL
MODEL 2
REMARK VINA RESULT:      -9.0      2.846      5.055
REMARK SMILES CCCCCCNC(=O)Oc1cccc(-c2ccc(CC(=O)NCCCNC(=O)c3ccc(-c4c5nc(c(-c6c(F)cccc6F)c6ccc([nH]6)c(-c6c(F)cccc6F)c6nc(c(-c7c(F)cccc7F)c7ccc4[nH]7)C=C6)C=C5)cc3)cc2F)c1
REMARK SMILES IDX 16 1 17 2 18 3 19 4 84 5 85 6 86 7 15 8 11 9 12 10 87 11
REMARK SMILES IDX 13 12 14 13 10 14 8 15 7 16 9 18 6 19 5 20 4 21 3 22 2 23
REMARK SMILES IDX 1 24 20 25 21 26 22 27 23 28 24 30 25 31 26 32 27 33 28 34
REMARK SMILES IDX 29 36 30 37 31 38 83 39 32 40 82 41 33 42 34 43 35 44 76 45
REMARK SMILES IDX 36 46 81 47 75 48 77 49 37 50 80 51 74 52 73 53 38 55 64 56
REMARK SMILES IDX 47 57 63 58 48 59 51 60 62 61 78 62 49 63 50 64 61 66 79 67
REMARK SMILES IDX 52 68 39 69 40 70 45 71 41 72 42 73 44 74 46 75 43 76 65 77
REMARK SMILES IDX 66 78 71 79 67 80 68 81 70 82 72 83 69 84 53 85 54 86 59 87
REMARK SMILES IDX 55 88 56 89 58 90 60 91 57 92
REMARK H PARENT 7 17 23 29 27 35 77 54 51 65
REMARK Flexibility Score: inf
ROOT
ATOM      1  C   UNL A   1      44.490  24.714  29.985  1.00  0.00     0.018 A 
ATOM      2  C   UNL A   1      43.469  23.971  29.368  1.00  0.00     0.012 A 
ATOM      3  C   UNL A   1      43.687  23.316  28.150  1.00  0.00     0.005 A 
ATOM      4  C   UNL A   1      44.936  23.381  27.518  1.00  0.00    -0.036 A 
ATOM      5  C   UNL A   1      45.947  24.146  28.109  1.00  0.00     0.044 A 
ATOM      6  C   UNL A   1      45.724  24.787  29.325  1.00  0.00     0.131 A 
ATOM      7  F   UNL A   1      46.744  25.471  29.868  1.00  0.00    -0.206 F 
ENDROOT
BRANCH   1   8
ATOM      8  C   UNL A   1      44.262  25.405  31.263  1.00  0.00    -0.012 A 
ATOM      9  C   UNL A   1      43.609  27.392  32.495  1.00  0.00     0.133 A 
ATOM     10  C   UNL A   1      43.849  26.754  33.708  1.00  0.00     0.047 A 
ATOM     11  C   UNL A   1      43.830  26.740  31.283  1.00  0.00     0.056 A 
ATOM     12  C   UNL A   1      44.281  25.430  33.706  1.00  0.00     0.004 A 
ATOM     13  C   UNL A   1      44.481  24.760  32.494  1.00  0.00     0.009 A 
BRANCH   9  14
ATOM     14  O   UNL A   1      43.241  28.747  32.539  1.00  0.00    -0.410 OA
BRANCH  14  15
ATOM     15  C   UNL A   1      41.931  29.066  32.217  1.00  0.00     0.412 C 
ATOM     16  N   UNL A   1      41.583  30.342  32.559  1.00  0.00    -0.321 N 
ATOM     17  H   UNL A   1      40.662  30.616  32.350  1.00  0.00     0.167 HD
ATOM     18  O   UNL A   1      41.113  28.319  31.684  1.00  0.00    -0.224 OA
BRANCH  16  19
ATOM     19  C   UNL A   1      42.426  31.334  33.198  1.00  0.00     0.119 C 
BRANCH  19  20
ATOM     20  C   UNL A   1      41.637  32.220  34.160  1.00  0.00     0.021 C 
BRANCH  20  21
ATOM     21  C   UNL A   1      40.129  31.944  34.209  1.00  0.00     0.002 C 
BRANCH  21  22
ATOM     22  C   UNL A   1      39.306  32.903  35.075  1.00  0.00    -0.000 C 
BRANCH  22  23
ATOM     23  C   UNL A   1      38.762  34.138  34.353  1.00  0.00    -0.003 C 
ATOM     24  C   UNL A   1      37.243  34.203  34.332  1.00  0.00     0.004 C 
ENDBRANCH  22  23
ENDBRANCH  21  22
ENDBRANCH  20  21
ENDBRANCH  19  20
ENDBRANCH  16  19
ENDBRANCH  14  15
ENDBRANCH   9  14
ENDBRANCH   1   8
BRANCH   4  25
ATOM     25  C   UNL A   1      45.193  22.649  26.225  1.00  0.00     0.135 C 
BRANCH  25  26
ATOM     26  C   UNL A   1      44.030  22.702  25.248  1.00  0.00     0.224 C 
ATOM     27  O   UNL A   1      43.790  23.716  24.590  1.00  0.00    -0.275 OA
ATOM     28  N   UNL A   1      43.239  21.605  25.063  1.00  0.00    -0.356 N 
ATOM     29  H   UNL A   1      42.555  21.692  24.361  1.00  0.00     0.163 HD
BRANCH  28  30
ATOM     30  C   UNL A   1      43.263  20.330  25.755  1.00  0.00     0.117 C 
BRANCH  30  31
ATOM     31  C   UNL A   1      41.935  20.021  26.447  1.00  0.00     0.042 C 
BRANCH  31  32
ATOM     32  C   UNL A   1      41.176  21.254  26.932  1.00  0.00     0.118 C 
BRANCH  32  33
ATOM     33  N   UNL A   1      39.896  21.424  26.262  1.00  0.00    -0.352 N 
ATOM     34  C   UNL A   1      39.081  22.522  26.155  1.00  0.00     0.251 C 
ATOM     35  H   UNL A   1      39.559  20.617  25.810  1.00  0.00     0.163 HD
ATOM     36  O   UNL A   1      37.955  22.387  25.682  1.00  0.00    -0.269 OA
BRANCH  34  37
ATOM     37  C   UNL A   1      39.524  23.859  26.611  1.00  0.00     0.039 A 
ATOM     38  C   UNL A   1      39.254  24.234  27.932  1.00  0.00     0.014 A 
ATOM     39  C   UNL A   1      40.142  24.765  25.746  1.00  0.00     0.014 A 
ATOM     40  C   UNL A   1      39.648  25.491  28.397  1.00  0.00     0.010 A 
ATOM     41  C   UNL A   1      40.592  25.995  26.229  1.00  0.00     0.010 A 
ATOM     42  C   UNL A   1      40.347  26.372  27.558  1.00  0.00    -0.014 A 
BRANCH  42  43
ATOM     43  C   UNL A   1      40.826  27.686  28.058  1.00  0.00     0.031 A 
ATOM     44  C   UNL A   1      42.291  28.021  28.043  1.00  0.00     0.074 A 
ATOM     45  C   UNL A   1      39.940  28.567  28.563  1.00  0.00     0.049 A 
ATOM     46  N   UNL A   1      42.899  29.094  28.485  1.00  0.00    -0.248 NA
ATOM     47  C   UNL A   1      43.197  27.010  27.474  1.00  0.00     0.031 C 
ATOM     48  C   UNL A   1      38.495  28.353  28.664  1.00  0.00     0.029 A 
ATOM     49  N   UNL A   1      40.126  29.820  29.092  1.00  0.00    -0.354 N 
ATOM     50  C   UNL A   1      44.254  28.886  28.252  1.00  0.00     0.074 A 
ATOM     51  C   UNL A   1      44.384  27.564  27.678  1.00  0.00     0.031 C 
ATOM     52  C   UNL A   1      37.924  29.445  29.196  1.00  0.00     0.029 A 
ATOM     53  C   UNL A   1      38.963  30.422  29.508  1.00  0.00     0.049 A 
ATOM     54  H   UNL A   1      41.010  30.247  29.167  1.00  0.00     0.167 HD
ATOM     55  C   UNL A   1      45.291  29.727  28.475  1.00  0.00     0.037 A 
ATOM     56  C   UNL A   1      38.757  31.624  30.078  1.00  0.00     0.037 A 
ATOM     57  C   UNL A   1      45.162  31.049  29.030  1.00  0.00     0.049 A 
ATOM     58  C   UNL A   1      39.930  32.529  30.333  1.00  0.00     0.074 A 
ATOM     59  C   UNL A   1      46.154  31.987  29.268  1.00  0.00     0.029 A 
ATOM     60  N   UNL A   1      43.966  31.624  29.430  1.00  0.00    -0.354 N 
ATOM     61  N   UNL A   1      41.199  32.334  30.068  1.00  0.00    -0.248 NA
ATOM     62  C   UNL A   1      39.640  33.825  30.963  1.00  0.00     0.031 C 
ATOM     63  C   UNL A   1      45.561  33.117  29.840  1.00  0.00     0.029 A 
ATOM     64  C   UNL A   1      44.196  32.899  29.922  1.00  0.00     0.049 A 
ATOM     65  H   UNL A   1      43.085  31.191  29.373  1.00  0.00     0.167 HD
ATOM     66  C   UNL A   1      41.853  33.492  30.467  1.00  0.00     0.074 A 
ATOM     67  C   UNL A   1      40.839  34.389  30.982  1.00  0.00     0.031 C 
ATOM     68  C   UNL A   1      43.174  33.786  30.415  1.00  0.00     0.037 A 
BRANCH  55  69
ATOM     69  C   UNL A   1      46.663  29.247  28.101  1.00  0.00     0.057 A 
ATOM     70  C   UNL A   1      47.487  28.592  29.027  1.00  0.00     0.134 A 
ATOM     71  C   UNL A   1      47.149  29.398  26.797  1.00  0.00     0.134 A 
ATOM     72  F   UNL A   1      47.085  28.424  30.296  1.00  0.00    -0.206 F 
ATOM     73  C   UNL A   1      48.754  28.123  28.673  1.00  0.00     0.040 A 
ATOM     74  C   UNL A   1      48.404  28.912  26.425  1.00  0.00     0.040 A 
ATOM     75  F   UNL A   1      46.409  30.010  25.860  1.00  0.00    -0.206 F 
ATOM     76  C   UNL A   1      49.213  28.278  27.366  1.00  0.00     0.006 A 
ENDBRANCH  55  69
BRANCH  56  77
ATOM     77  C   UNL A   1      37.382  32.060  30.430  1.00  0.00     0.057 A 
ATOM     78  C   UNL A   1      36.799  31.685  31.645  1.00  0.00     0.134 A 
ATOM     79  C   UNL A   1      36.610  32.832  29.554  1.00  0.00     0.134 A 
ATOM     80  F   UNL A   1      37.483  30.927  32.516  1.00  0.00    -0.206 F 
ATOM     81  C   UNL A   1      35.489  32.040  31.968  1.00  0.00     0.040 A 
ATOM     82  C   UNL A   1      35.308  33.215  29.874  1.00  0.00     0.040 A 
ATOM     83  F   UNL A   1      37.114  33.228  28.375  1.00  0.00    -0.206 F 
ATOM     84  C   UNL A   1      34.740  32.811  31.081  1.00  0.00     0.006 A 
ENDBRANCH  56  77
BRANCH  68  85
ATOM     85  C   UNL A   1      43.590  35.148  30.883  1.00  0.00     0.057 A 
ATOM     86  C   UNL A   1      44.011  35.382  32.198  1.00  0.00     0.134 A 
ATOM     87  C   UNL A   1      43.595  36.235  29.999  1.00  0.00     0.134 A 
ATOM     88  F   UNL A   1      44.016  34.386  33.098  1.00  0.00    -0.206 F 
ATOM     89  C   UNL A   1      44.397  36.654  32.625  1.00  0.00     0.040 A 
ATOM     90  C   UNL A   1      44.002  37.505  30.406  1.00  0.00     0.040 A 
ATOM     91  F   UNL A   1      43.211  36.077  28.723  1.00  0.00    -0.206 F 
ATOM     92  C   UNL A   1      44.398  37.719  31.725  1.00  0.00     0.006 A 
ENDBRANCH  68  85
ENDBRANCH  42  43
ENDBRANCH  34  37
ENDBRANCH  32  33
ENDBRANCH  31  32
ENDBRANCH  30  31
ENDBRANCH  28  30
ENDBRANCH  25  26
ENDBRANCH   4  25
TORSDOF 19
ENDMDL
MODEL 3
REMARK VINA RESULT:      -9.0      0.460      6.039
REMARK SMILES CCCCCCNC(=O)Oc1cccc(-c2ccc(CC(=O)NCCCNC(=O)c3ccc(-c4c5nc(c(-c6c(F)cccc6F)c6ccc([nH]6)c(-c6c(F)cccc6F)c6nc(c(-c7c(F)cccc7F)c7ccc4[nH]7)C=C6)C=C5)cc3)cc2F)c1
REMARK SMILES IDX 16 1 17 2 18 3 19 4 84 5 85 6 86 7 15 8 11 9 12 10 87 11
REMARK SMILES IDX 13 12 14 13 10 14 8 15 7 16 9 18 6 19 5 20 4 21 3 22 2 23
REMARK SMILES IDX 1 24 20 25 21 26 22 27 23 28 24 30 25 31 26 32 27 33 28 34
REMARK SMILES IDX 29 36 30 37 31 38 83 39 32 40 82 41 33 42 34 43 35 44 76 45
REMARK SMILES IDX 36 46 81 47 75 48 77 49 37 50 80 51 74 52 73 53 38 55 64 56
REMARK SMILES IDX 47 57 63 58 48 59 51 60 62 61 78 62 49 63 50 64 61 66 79 67
REMARK SMILES IDX 52 68 39 69 40 70 45 71 41 72 42 73 44 74 46 75 43 76 65 77
REMARK SMILES IDX 66 78 71 79 67 80 68 81 70 82 72 83 69 84 53 85 54 86 59 87
REMARK SMILES IDX 55 88 56 89 58 90 60 91 57 92
REMARK H PARENT 7 17 23 29 27 35 77 54 51 65
REMARK Flexibility Score: inf
ROOT
ATOM      1  C   UNL A   1      45.130  28.082  26.739  1.00  0.00     0.018 A 
ATOM      2  C   UNL A   1      46.338  27.501  27.162  1.00  0.00     0.012 A 
ATOM      3  C   UNL A   1      46.633  26.162  26.878  1.00  0.00     0.005 A 
ATOM      4  C   UNL A   1      45.730  25.369  26.158  1.00  0.00    -0.036 A 
ATOM      5  C   UNL A   1      44.512  25.931  25.763  1.00  0.00     0.044 A 
ATOM      6  C   UNL A   1      44.229  27.266  26.042  1.00  0.00     0.131 A 
ATOM      7  F   UNL A   1      43.064  27.764  25.601  1.00  0.00    -0.206 F 
ENDROOT
BRANCH   1   8
ATOM      8  C   UNL A   1      44.816  29.488  27.038  1.00  0.00    -0.012 A 
ATOM      9  C   UNL A   1      45.089  31.853  26.563  1.00  0.00     0.133 A 
ATOM     10  C   UNL A   1      44.246  32.191  27.617  1.00  0.00     0.047 A 
ATOM     11  C   UNL A   1      45.392  30.521  26.283  1.00  0.00     0.056 A 
ATOM     12  C   UNL A   1      43.668  31.178  28.377  1.00  0.00     0.004 A 
ATOM     13  C   UNL A   1      43.947  29.837  28.087  1.00  0.00     0.009 A 
BRANCH   9  14
ATOM     14  O   UNL A   1      45.706  32.904  25.866  1.00  0.00    -0.410 OA
BRANCH  14  15
ATOM     15  C   UNL A   1      44.912  33.666  25.022  1.00  0.00     0.412 C 
ATOM     16  N   UNL A   1      44.884  34.992  25.353  1.00  0.00    -0.321 N 
ATOM     17  H   UNL A   1      44.333  35.574  24.782  1.00  0.00     0.167 HD
ATOM     18  O   UNL A   1      44.267  33.250  24.062  1.00  0.00    -0.224 OA
BRANCH  16  19
ATOM     19  C   UNL A   1      45.577  35.630  26.453  1.00  0.00     0.119 C 
BRANCH  19  20
ATOM     20  C   UNL A   1      44.652  35.888  27.641  1.00  0.00     0.021 C 
BRANCH  20  21
ATOM     21  C   UNL A   1      43.343  36.610  27.298  1.00  0.00     0.002 C 
BRANCH  21  22
ATOM     22  C   UNL A   1      42.090  35.729  27.255  1.00  0.00    -0.000 C 
BRANCH  22  23
ATOM     23  C   UNL A   1      41.312  35.628  28.570  1.00  0.00    -0.003 C 
ATOM     24  C   UNL A   1      41.941  34.672  29.571  1.00  0.00     0.004 C 
ENDBRANCH  22  23
ENDBRANCH  21  22
ENDBRANCH  20  21
ENDBRANCH  19  20
ENDBRANCH  16  19
ENDBRANCH  14  15
ENDBRANCH   9  14
ENDBRANCH   1   8
BRANCH   4  25
ATOM     25  C   UNL A   1      46.055  23.937  25.816  1.00  0.00     0.135 C 
BRANCH  25  26
ATOM     26  C   UNL A   1      46.443  23.726  24.362  1.00  0.00     0.224 C 
ATOM     27  O   UNL A   1      47.356  24.370  23.841  1.00  0.00    -0.275 OA
ATOM     28  N   UNL A   1      45.796  22.791  23.607  1.00  0.00    -0.356 N 
ATOM     29  H   UNL A   1      46.153  22.660  22.699  1.00  0.00     0.163 HD
BRANCH  28  30
ATOM     30  C   UNL A   1      44.655  21.962  23.953  1.00  0.00     0.117 C 
BRANCH  30  31
ATOM     31  C   UNL A   1      45.028  20.486  24.077  1.00  0.00     0.042 C 
BRANCH  31  32
ATOM     32  C   UNL A   1      44.508  19.809  25.343  1.00  0.00     0.118 C 
BRANCH  32  33
ATOM     33  N   UNL A   1      43.092  19.485  25.265  1.00  0.00    -0.352 N 
ATOM     34  C   UNL A   1      42.004  20.083  25.848  1.00  0.00     0.251 C 
ATOM     35  H   UNL A   1      42.879  18.708  24.699  1.00  0.00     0.163 HD
ATOM     36  O   UNL A   1      40.909  19.530  25.778  1.00  0.00    -0.269 OA
BRANCH  34  37
ATOM     37  C   UNL A   1      42.125  21.370  26.570  1.00  0.00     0.039 A 
ATOM     38  C   UNL A   1      42.171  21.345  27.969  1.00  0.00     0.014 A 
ATOM     39  C   UNL A   1      42.133  22.594  25.898  1.00  0.00     0.014 A 
ATOM     40  C   UNL A   1      42.276  22.539  28.687  1.00  0.00     0.010 A 
ATOM     41  C   UNL A   1      42.302  23.781  26.612  1.00  0.00     0.010 A 
ATOM     42  C   UNL A   1      42.372  23.766  28.014  1.00  0.00    -0.014 A 
BRANCH  42  43
ATOM     43  C   UNL A   1      42.546  25.037  28.763  1.00  0.00     0.031 A 
ATOM     44  C   UNL A   1      41.440  26.054  28.809  1.00  0.00     0.074 A 
ATOM     45  C   UNL A   1      43.719  25.292  29.375  1.00  0.00     0.049 A 
ATOM     46  N   UNL A   1      41.428  27.238  29.368  1.00  0.00    -0.248 NA
ATOM     47  C   UNL A   1      40.188  25.703  28.119  1.00  0.00     0.031 C 
ATOM     48  C   UNL A   1      44.883  24.403  29.381  1.00  0.00     0.029 A 
ATOM     49  N   UNL A   1      44.129  26.379  30.106  1.00  0.00    -0.354 N 
ATOM     50  C   UNL A   1      40.174  27.774  29.095  1.00  0.00     0.074 A 
ATOM     51  C   UNL A   1      39.473  26.808  28.277  1.00  0.00     0.031 C 
ATOM     52  C   UNL A   1      45.865  24.968  30.102  1.00  0.00     0.029 A 
ATOM     53  C   UNL A   1      45.415  26.272  30.579  1.00  0.00     0.049 A 
ATOM     54  H   UNL A   1      43.556  27.161  30.277  1.00  0.00     0.167 HD
ATOM     55  C   UNL A   1      39.648  28.952  29.506  1.00  0.00     0.037 A 
ATOM     56  C   UNL A   1      46.150  27.130  31.311  1.00  0.00     0.037 A 
ATOM     57  C   UNL A   1      40.338  29.907  30.333  1.00  0.00     0.049 A 
ATOM     58  C   UNL A   1      45.548  28.440  31.736  1.00  0.00     0.074 A 
ATOM     59  C   UNL A   1      39.877  31.117  30.824  1.00  0.00     0.029 A 
ATOM     60  N   UNL A   1      41.636  29.758  30.797  1.00  0.00    -0.354 N 
ATOM     61  N   UNL A   1      44.346  28.913  31.505  1.00  0.00    -0.248 NA
ATOM     62  C   UNL A   1      46.403  29.336  32.529  1.00  0.00     0.031 C 
ATOM     63  C   UNL A   1      40.905  31.714  31.559  1.00  0.00     0.029 A 
ATOM     64  C   UNL A   1      41.994  30.858  31.559  1.00  0.00     0.049 A 
ATOM     65  H   UNL A   1      42.216  28.985  30.612  1.00  0.00     0.167 HD
ATOM     66  C   UNL A   1      44.291  30.141  32.150  1.00  0.00     0.074 A 
ATOM     67  C   UNL A   1      45.575  30.337  32.791  1.00  0.00     0.031 C 
ATOM     68  C   UNL A   1      43.270  31.030  32.205  1.00  0.00     0.037 A 
BRANCH  55  69
ATOM     69  C   UNL A   1      38.244  29.269  29.078  1.00  0.00     0.057 A 
ATOM     70  C   UNL A   1      37.172  29.205  29.978  1.00  0.00     0.134 A 
ATOM     71  C   UNL A   1      37.967  29.684  27.770  1.00  0.00     0.134 A 
ATOM     72  F   UNL A   1      37.369  28.804  31.243  1.00  0.00    -0.206 F 
ATOM     73  C   UNL A   1      35.870  29.523  29.587  1.00  0.00     0.040 A 
ATOM     74  C   UNL A   1      36.673  30.028  27.373  1.00  0.00     0.040 A 
ATOM     75  F   UNL A   1      38.948  29.774  26.860  1.00  0.00    -0.206 F 
ATOM     76  C   UNL A   1      35.619  29.943  28.281  1.00  0.00     0.006 A 
ENDBRANCH  55  69
BRANCH  56  77
ATOM     77  C   UNL A   1      47.534  26.775  31.714  1.00  0.00     0.057 A 
ATOM     78  C   UNL A   1      48.623  27.075  30.887  1.00  0.00     0.134 A 
ATOM     79  C   UNL A   1      47.801  26.105  32.914  1.00  0.00     0.134 A 
ATOM     80  F   UNL A   1      48.427  27.698  29.715  1.00  0.00    -0.206 F 
ATOM     81  C   UNL A   1      49.923  26.700  31.225  1.00  0.00     0.040 A 
ATOM     82  C   UNL A   1      49.099  25.746  33.276  1.00  0.00     0.040 A 
ATOM     83  F   UNL A   1      46.801  25.793  33.753  1.00  0.00    -0.206 F 
ATOM     84  C   UNL A   1      50.164  26.035  32.425  1.00  0.00     0.006 A 
ENDBRANCH  56  77
BRANCH  68  85
ATOM     85  C   UNL A   1      43.485  32.268  33.021  1.00  0.00     0.057 A 
ATOM     86  C   UNL A   1      44.077  33.417  32.482  1.00  0.00     0.134 A 
ATOM     87  C   UNL A   1      43.069  32.321  34.358  1.00  0.00     0.134 A 
ATOM     88  F   UNL A   1      44.510  33.426  31.212  1.00  0.00    -0.206 F 
ATOM     89  C   UNL A   1      44.273  34.565  33.251  1.00  0.00     0.040 A 
ATOM     90  C   UNL A   1      43.236  33.471  35.130  1.00  0.00     0.040 A 
ATOM     91  F   UNL A   1      42.487  31.257  34.933  1.00  0.00    -0.206 F 
ATOM     92  C   UNL A   1      43.846  34.596  34.578  1.00  0.00     0.006 A 
ENDBRANCH  68  85
ENDBRANCH  42  43
ENDBRANCH  34  37
ENDBRANCH  32  33
ENDBRANCH  31  32
ENDBRANCH  30  31
ENDBRANCH  28  30
ENDBRANCH  25  26
ENDBRANCH   4  25
TORSDOF 19
ENDMDL
