MODEL 1
REMARK VINA RESULT:      -9.1      0.000      0.000
REMARK SMILES COc1ccc([C@@H](C#N)CC(=O)NCCCNC(=O)c2ccc(-c3c4nc(c(-c5c(F)cccc5F)c5ccc([nH]5)c(-c5c(F)cccc5F)c5nc(c(-c6c(F)cccc6F)c6ccc3[nH]6)C=C5)C=C4)cc2)cc1
REMARK SMILES IDX 14 1 13 2 11 3 12 4 10 6 7 7 6 8 3 9 4 10 75 11 5 12 74 13
REMARK SMILES IDX 2 14 1 15 8 16 9 17 15 18 16 19 17 20 18 21 19 23 20 24
REMARK SMILES IDX 21 25 73 26 22 27 72 28 23 29 24 30 25 31 66 32 26 33 71 34
REMARK SMILES IDX 65 35 67 36 27 37 70 38 64 39 63 40 28 42 54 43 37 44 53 45
REMARK SMILES IDX 38 46 41 47 52 48 68 49 39 50 40 51 51 53 69 54 42 55 29 56
REMARK SMILES IDX 30 57 35 58 31 59 32 60 34 61 36 62 33 63 55 64 56 65 61 66
REMARK SMILES IDX 57 67 58 68 60 69 62 70 59 71 43 72 44 73 49 74 45 75 46 76
REMARK SMILES IDX 48 77 50 78 47 79
REMARK H PARENT 13 5 17 22 67 41 41 52
REMARK Flexibility Score: inf
ROOT
ATOM      1  C   UNL A   1      33.669  35.556  29.617  1.00  0.00     0.117 C 
ENDROOT
BRANCH   1   2
ATOM      2  N   UNL A   1      33.056  35.161  30.878  1.00  0.00    -0.356 N 
ATOM      3  C   UNL A   1      33.622  34.776  32.056  1.00  0.00     0.221 C 
ATOM      4  O   UNL A   1      32.886  34.294  32.920  1.00  0.00    -0.275 OA
ATOM      5  H   UNL A   1      32.071  35.174  30.879  1.00  0.00     0.163 HD
BRANCH   3   6
ATOM      6  C   UNL A   1      35.104  34.932  32.323  1.00  0.00     0.123 C 
BRANCH   6   7
ATOM      7  C   UNL A   1      35.870  33.645  32.018  1.00  0.00     0.132 C 
BRANCH   7   8
ATOM      8  C   UNL A   1      37.237  33.892  31.355  1.00  0.00    -0.030 A 
ATOM      9  C   UNL A   1      39.793  34.182  30.235  1.00  0.00     0.118 A 
ATOM     10  C   UNL A   1      39.582  34.566  31.552  1.00  0.00     0.047 A 
ATOM     11  C   UNL A   1      38.774  33.584  29.495  1.00  0.00     0.047 A 
ATOM     12  C   UNL A   1      38.311  34.428  32.106  1.00  0.00     0.009 A 
ATOM     13  C   UNL A   1      37.499  33.430  30.055  1.00  0.00     0.009 A 
BRANCH   9  14
ATOM     14  O   UNL A   1      41.037  34.379  29.701  1.00  0.00    -0.497 OA
ATOM     15  C   UNL A   1      41.845  33.223  29.921  1.00  0.00     0.278 C 
ENDBRANCH   9  14
ENDBRANCH   7   8
BRANCH   7  16
ATOM     16  C   UNL A   1      36.302  32.927  33.288  1.00  0.00     0.071 C 
ATOM     17  N   UNL A   1      36.661  32.331  34.339  1.00  0.00    -0.198 NA
ENDBRANCH   7  16
ENDBRANCH   6   7
ENDBRANCH   3   6
ENDBRANCH   1   2
BRANCH   1  18
ATOM     18  C   UNL A   1      33.383  34.527  28.528  1.00  0.00     0.042 C 
BRANCH  18  19
ATOM     19  C   UNL A   1      34.355  33.363  28.432  1.00  0.00     0.118 C 
BRANCH  19  20
ATOM     20  N   UNL A   1      33.754  32.189  27.820  1.00  0.00    -0.352 N 
ATOM     21  C   UNL A   1      34.211  30.905  27.629  1.00  0.00     0.251 C 
ATOM     22  H   UNL A   1      32.846  32.342  27.475  1.00  0.00     0.163 HD
ATOM     23  O   UNL A   1      33.548  30.163  26.908  1.00  0.00    -0.269 OA
BRANCH  21  24
ATOM     24  C   UNL A   1      35.474  30.388  28.225  1.00  0.00     0.039 A 
ATOM     25  C   UNL A   1      36.659  30.524  27.482  1.00  0.00     0.014 A 
ATOM     26  C   UNL A   1      35.529  29.721  29.448  1.00  0.00     0.014 A 
ATOM     27  C   UNL A   1      37.879  30.051  27.982  1.00  0.00     0.010 A 
ATOM     28  C   UNL A   1      36.757  29.326  29.988  1.00  0.00     0.010 A 
ATOM     29  C   UNL A   1      37.943  29.465  29.252  1.00  0.00    -0.014 A 
BRANCH  29  30
ATOM     30  C   UNL A   1      39.213  28.911  29.793  1.00  0.00     0.031 A 
ATOM     31  C   UNL A   1      39.845  29.540  31.007  1.00  0.00     0.074 A 
ATOM     32  C   UNL A   1      39.832  27.884  29.179  1.00  0.00     0.049 A 
ATOM     33  N   UNL A   1      40.981  29.261  31.594  1.00  0.00    -0.248 NA
ATOM     34  C   UNL A   1      39.108  30.653  31.629  1.00  0.00     0.031 C 
ATOM     35  C   UNL A   1      39.348  27.194  27.985  1.00  0.00     0.029 A 
ATOM     36  N   UNL A   1      41.017  27.252  29.472  1.00  0.00    -0.354 N 
ATOM     37  C   UNL A   1      41.100  30.166  32.640  1.00  0.00     0.074 A 
ATOM     38  C   UNL A   1      39.952  31.045  32.570  1.00  0.00     0.031 C 
ATOM     39  C   UNL A   1      40.223  26.230  27.649  1.00  0.00     0.029 A 
ATOM     40  C   UNL A   1      41.345  26.255  28.585  1.00  0.00     0.049 A 
ATOM     41  H   UNL A   1      41.578  27.491  30.245  1.00  0.00     0.167 HD
ATOM     42  C   UNL A   1      42.060  30.249  33.592  1.00  0.00     0.037 A 
ATOM     43  C   UNL A   1      42.430  25.458  28.526  1.00  0.00     0.037 A 
ATOM     44  C   UNL A   1      43.197  29.370  33.674  1.00  0.00     0.049 A 
ATOM     45  C   UNL A   1      43.505  25.588  29.571  1.00  0.00     0.074 A 
ATOM     46  C   UNL A   1      44.198  29.342  34.629  1.00  0.00     0.029 A 
ATOM     47  N   UNL A   1      43.489  28.370  32.758  1.00  0.00    -0.354 N 
ATOM     48  N   UNL A   1      43.571  26.406  30.595  1.00  0.00    -0.248 NA
ATOM     49  C   UNL A   1      44.654  24.677  29.459  1.00  0.00     0.031 C 
ATOM     50  C   UNL A   1      45.126  28.362  34.261  1.00  0.00     0.029 A 
ATOM     51  C   UNL A   1      44.671  27.737  33.111  1.00  0.00     0.049 A 
ATOM     52  H   UNL A   1      42.938  28.143  31.975  1.00  0.00     0.167 HD
ATOM     53  C   UNL A   1      44.747  26.087  31.264  1.00  0.00     0.074 A 
ATOM     54  C   UNL A   1      45.358  24.994  30.537  1.00  0.00     0.031 C 
ATOM     55  C   UNL A   1      45.270  26.647  32.383  1.00  0.00     0.037 A 
BRANCH  42  56
ATOM     56  C   UNL A   1      41.920  31.339  34.617  1.00  0.00     0.057 A 
ATOM     57  C   UNL A   1      41.411  31.091  35.900  1.00  0.00     0.134 A 
ATOM     58  C   UNL A   1      42.303  32.653  34.320  1.00  0.00     0.134 A 
ATOM     59  F   UNL A   1      41.013  29.858  36.246  1.00  0.00    -0.206 F 
ATOM     60  C   UNL A   1      41.249  32.116  36.833  1.00  0.00     0.040 A 
ATOM     61  C   UNL A   1      42.177  33.681  35.257  1.00  0.00     0.040 A 
ATOM     62  F   UNL A   1      42.806  32.962  33.115  1.00  0.00    -0.206 F 
ATOM     63  C   UNL A   1      41.637  33.415  36.514  1.00  0.00     0.006 A 
ENDBRANCH  42  56
BRANCH  43  64
ATOM     64  C   UNL A   1      42.548  24.448  27.443  1.00  0.00     0.057 A 
ATOM     65  C   UNL A   1      43.099  24.781  26.200  1.00  0.00     0.134 A 
ATOM     66  C   UNL A   1      42.107  23.131  27.620  1.00  0.00     0.134 A 
ATOM     67  F   UNL A   1      43.519  26.033  25.961  1.00  0.00    -0.206 F 
ATOM     68  C   UNL A   1      43.191  23.847  25.166  1.00  0.00     0.040 A 
ATOM     69  C   UNL A   1      42.218  22.179  26.604  1.00  0.00     0.040 A 
ATOM     70  F   UNL A   1      41.573  22.747  28.789  1.00  0.00    -0.206 F 
ATOM     71  C   UNL A   1      42.755  22.540  25.370  1.00  0.00     0.006 A 
ENDBRANCH  43  64
BRANCH  55  72
ATOM     72  C   UNL A   1      46.548  26.066  32.918  1.00  0.00     0.057 A 
ATOM     73  C   UNL A   1      46.557  25.018  33.847  1.00  0.00     0.134 A 
ATOM     74  C   UNL A   1      47.787  26.529  32.457  1.00  0.00     0.134 A 
ATOM     75  F   UNL A   1      45.406  24.533  34.338  1.00  0.00    -0.206 F 
ATOM     76  C   UNL A   1      47.753  24.466  34.314  1.00  0.00     0.040 A 
ATOM     77  C   UNL A   1      48.988  25.967  32.894  1.00  0.00     0.040 A 
ATOM     78  F   UNL A   1      47.852  27.524  31.559  1.00  0.00    -0.206 F 
ATOM     79  C   UNL A   1      48.973  24.936  33.831  1.00  0.00     0.006 A 
ENDBRANCH  55  72
ENDBRANCH  29  30
ENDBRANCH  21  24
ENDBRANCH  19  20
ENDBRANCH  18  19
ENDBRANCH   1  18
TORSDOF 14
ENDMDL
MODEL 2
REMARK VINA RESULT:      -9.1      1.958      2.811
REMARK SMILES COc1ccc([C@@H](C#N)CC(=O)NCCCNC(=O)c2ccc(-c3c4nc(c(-c5c(F)cccc5F)c5ccc([nH]5)c(-c5c(F)cccc5F)c5nc(c(-c6c(F)cccc6F)c6ccc3[nH]6)C=C5)C=C4)cc2)cc1
REMARK SMILES IDX 14 1 13 2 11 3 12 4 10 6 7 7 6 8 3 9 4 10 75 11 5 12 74 13
REMARK SMILES IDX 2 14 1 15 8 16 9 17 15 18 16 19 17 20 18 21 19 23 20 24
REMARK SMILES IDX 21 25 73 26 22 27 72 28 23 29 24 30 25 31 66 32 26 33 71 34
REMARK SMILES IDX 65 35 67 36 27 37 70 38 64 39 63 40 28 42 54 43 37 44 53 45
REMARK SMILES IDX 38 46 41 47 52 48 68 49 39 50 40 51 51 53 69 54 42 55 29 56
REMARK SMILES IDX 30 57 35 58 31 59 32 60 34 61 36 62 33 63 55 64 56 65 61 66
REMARK SMILES IDX 57 67 58 68 60 69 62 70 59 71 43 72 44 73 49 74 45 75 46 76
REMARK SMILES IDX 48 77 50 78 47 79
REMARK H PARENT 13 5 17 22 67 41 41 52
REMARK Flexibility Score: inf
ROOT
ATOM      1  C   UNL A   1      34.320  34.853  30.137  1.00  0.00     0.117 C 
ENDROOT
BRANCH   1   2
ATOM      2  N   UNL A   1      33.843  34.356  31.420  1.00  0.00    -0.356 N 
ATOM      3  C   UNL A   1      34.224  33.268  32.147  1.00  0.00     0.221 C 
ATOM      4  O   UNL A   1      33.527  32.945  33.111  1.00  0.00    -0.275 OA
ATOM      5  H   UNL A   1      33.128  34.895  31.830  1.00  0.00     0.163 HD
BRANCH   3   6
ATOM      6  C   UNL A   1      35.465  32.470  31.805  1.00  0.00     0.123 C 
BRANCH   6   7
ATOM      7  C   UNL A   1      36.719  33.088  32.423  1.00  0.00     0.132 C 
BRANCH   7   8
ATOM      8  C   UNL A   1      37.708  32.041  32.968  1.00  0.00    -0.030 A 
ATOM      9  C   UNL A   1      39.436  30.166  34.137  1.00  0.00     0.118 A 
ATOM     10  C   UNL A   1      39.723  31.518  34.257  1.00  0.00     0.047 A 
ATOM     11  C   UNL A   1      38.265  29.738  33.514  1.00  0.00     0.047 A 
ATOM     12  C   UNL A   1      38.868  32.449  33.671  1.00  0.00     0.009 A 
ATOM     13  C   UNL A   1      37.396  30.673  32.938  1.00  0.00     0.009 A 
BRANCH   9  14
ATOM     14  O   UNL A   1      40.321  29.272  34.676  1.00  0.00    -0.497 OA
ATOM     15  C   UNL A   1      41.284  28.893  33.693  1.00  0.00     0.278 C 
ENDBRANCH   9  14
ENDBRANCH   7   8
BRANCH   7  16
ATOM     16  C   UNL A   1      37.586  33.775  31.381  1.00  0.00     0.071 C 
ATOM     17  N   UNL A   1      38.306  34.345  30.517  1.00  0.00    -0.198 NA
ENDBRANCH   7  16
ENDBRANCH   6   7
ENDBRANCH   3   6
ENDBRANCH   1   2
BRANCH   1  18
ATOM     18  C   UNL A   1      33.695  34.071  28.985  1.00  0.00     0.042 C 
BRANCH  18  19
ATOM     19  C   UNL A   1      34.592  33.057  28.296  1.00  0.00     0.118 C 
BRANCH  19  20
ATOM     20  N   UNL A   1      33.901  31.810  28.012  1.00  0.00    -0.352 N 
ATOM     21  C   UNL A   1      34.347  30.518  27.852  1.00  0.00     0.251 C 
ATOM     22  H   UNL A   1      32.927  31.909  27.914  1.00  0.00     0.163 HD
ATOM     23  O   UNL A   1      33.547  29.684  27.431  1.00  0.00    -0.269 OA
BRANCH  21  24
ATOM     24  C   UNL A   1      35.745  30.092  28.133  1.00  0.00     0.039 A 
ATOM     25  C   UNL A   1      36.036  29.581  29.409  1.00  0.00     0.014 A 
ATOM     26  C   UNL A   1      36.790  30.234  27.219  1.00  0.00     0.014 A 
ATOM     27  C   UNL A   1      37.334  29.170  29.740  1.00  0.00     0.010 A 
ATOM     28  C   UNL A   1      38.066  29.746  27.517  1.00  0.00     0.010 A 
ATOM     29  C   UNL A   1      38.359  29.230  28.788  1.00  0.00    -0.014 A 
BRANCH  29  30
ATOM     30  C   UNL A   1      39.757  28.846  29.120  1.00  0.00     0.031 A 
ATOM     31  C   UNL A   1      40.643  29.816  29.857  1.00  0.00     0.074 A 
ATOM     32  C   UNL A   1      40.257  27.659  28.725  1.00  0.00     0.049 A 
ATOM     33  N   UNL A   1      41.908  29.710  30.178  1.00  0.00    -0.248 NA
ATOM     34  C   UNL A   1      40.026  31.089  30.264  1.00  0.00     0.031 C 
ATOM     35  C   UNL A   1      39.522  26.634  27.986  1.00  0.00     0.029 A 
ATOM     36  N   UNL A   1      41.513  27.123  28.878  1.00  0.00    -0.354 N 
ATOM     37  C   UNL A   1      42.238  30.902  30.811  1.00  0.00     0.074 A 
ATOM     38  C   UNL A   1      41.060  31.741  30.772  1.00  0.00     0.031 C 
ATOM     39  C   UNL A   1      40.337  25.590  27.755  1.00  0.00     0.029 A 
ATOM     40  C   UNL A   1      41.659  25.885  28.301  1.00  0.00     0.049 A 
ATOM     41  H   UNL A   1      42.240  27.584  29.356  1.00  0.00     0.167 HD
ATOM     42  C   UNL A   1      43.407  31.261  31.396  1.00  0.00     0.037 A 
ATOM     43  C   UNL A   1      42.739  25.082  28.213  1.00  0.00     0.037 A 
ATOM     44  C   UNL A   1      44.577  30.425  31.449  1.00  0.00     0.049 A 
ATOM     45  C   UNL A   1      44.038  25.513  28.838  1.00  0.00     0.074 A 
ATOM     46  C   UNL A   1      45.792  30.679  32.061  1.00  0.00     0.029 A 
ATOM     47  N   UNL A   1      44.681  29.175  30.857  1.00  0.00    -0.354 N 
ATOM     48  N   UNL A   1      44.318  26.616  29.491  1.00  0.00    -0.248 NA
ATOM     49  C   UNL A   1      45.172  24.584  28.721  1.00  0.00     0.031 C 
ATOM     50  C   UNL A   1      46.650  29.608  31.793  1.00  0.00     0.029 A 
ATOM     51  C   UNL A   1      45.950  28.658  31.065  1.00  0.00     0.049 A 
ATOM     52  H   UNL A   1      43.961  28.722  30.362  1.00  0.00     0.167 HD
ATOM     53  C   UNL A   1      45.644  26.498  29.890  1.00  0.00     0.074 A 
ATOM     54  C   UNL A   1      46.110  25.212  29.414  1.00  0.00     0.031 C 
ATOM     55  C   UNL A   1      46.405  27.375  30.592  1.00  0.00     0.037 A 
BRANCH  42  56
ATOM     56  C   UNL A   1      43.471  32.627  32.018  1.00  0.00     0.057 A 
ATOM     57  C   UNL A   1      43.239  32.832  33.386  1.00  0.00     0.134 A 
ATOM     58  C   UNL A   1      43.774  33.753  31.243  1.00  0.00     0.134 A 
ATOM     59  F   UNL A   1      42.931  31.799  34.185  1.00  0.00    -0.206 F 
ATOM     60  C   UNL A   1      43.264  34.108  33.950  1.00  0.00     0.040 A 
ATOM     61  C   UNL A   1      43.835  35.031  31.801  1.00  0.00     0.040 A 
ATOM     62  F   UNL A   1      44.016  33.632  29.928  1.00  0.00    -0.206 F 
ATOM     63  C   UNL A   1      43.567  35.213  33.157  1.00  0.00     0.006 A 
ENDBRANCH  42  56
BRANCH  43  64
ATOM     64  C   UNL A   1      42.633  23.773  27.519  1.00  0.00     0.057 A 
ATOM     65  C   UNL A   1      42.804  23.674  26.133  1.00  0.00     0.134 A 
ATOM     66  C   UNL A   1      42.349  22.594  28.219  1.00  0.00     0.134 A 
ATOM     67  F   UNL A   1      43.056  24.772  25.404  1.00  0.00    -0.206 F 
ATOM     68  C   UNL A   1      42.681  22.454  25.465  1.00  0.00     0.040 A 
ATOM     69  C   UNL A   1      42.250  21.363  27.568  1.00  0.00     0.040 A 
ATOM     70  F   UNL A   1      42.177  22.621  29.548  1.00  0.00    -0.206 F 
ATOM     71  C   UNL A   1      42.409  21.293  26.185  1.00  0.00     0.006 A 
ENDBRANCH  43  64
BRANCH  55  72
ATOM     72  C   UNL A   1      47.811  26.963  30.925  1.00  0.00     0.057 A 
ATOM     73  C   UNL A   1      48.902  27.326  30.125  1.00  0.00     0.134 A 
ATOM     74  C   UNL A   1      48.082  26.236  32.091  1.00  0.00     0.134 A 
ATOM     75  F   UNL A   1      48.713  28.013  28.988  1.00  0.00    -0.206 F 
ATOM     76  C   UNL A   1      50.208  26.961  30.461  1.00  0.00     0.040 A 
ATOM     77  C   UNL A   1      49.385  25.890  32.454  1.00  0.00     0.040 A 
ATOM     78  F   UNL A   1      47.084  25.864  32.909  1.00  0.00    -0.206 F 
ATOM     79  C   UNL A   1      50.452  26.248  31.634  1.00  0.00     0.006 A 
ENDBRANCH  55  72
ENDBRANCH  29  30
ENDBRANCH  21  24
ENDBRANCH  19  20
ENDBRANCH  18  19
ENDBRANCH   1  18
TORSDOF 14
ENDMDL
MODEL 3
REMARK VINA RESULT:      -9.1      2.463      3.444
REMARK SMILES COc1ccc([C@@H](C#N)CC(=O)NCCCNC(=O)c2ccc(-c3c4nc(c(-c5c(F)cccc5F)c5ccc([nH]5)c(-c5c(F)cccc5F)c5nc(c(-c6c(F)cccc6F)c6ccc3[nH]6)C=C5)C=C4)cc2)cc1
REMARK SMILES IDX 14 1 13 2 11 3 12 4 10 6 7 7 6 8 3 9 4 10 75 11 5 12 74 13
REMARK SMILES IDX 2 14 1 15 8 16 9 17 15 18 16 19 17 20 18 21 19 23 20 24
REMARK SMILES IDX 21 25 73 26 22 27 72 28 23 29 24 30 25 31 66 32 26 33 71 34
REMARK SMILES IDX 65 35 67 36 27 37 70 38 64 39 63 40 28 42 54 43 37 44 53 45
REMARK SMILES IDX 38 46 41 47 52 48 68 49 39 50 40 51 51 53 69 54 42 55 29 56
REMARK SMILES IDX 30 57 35 58 31 59 32 60 34 61 36 62 33 63 55 64 56 65 61 66
REMARK SMILES IDX 57 67 58 68 60 69 62 70 59 71 43 72 44 73 49 74 45 75 46 76
REMARK SMILES IDX 48 77 50 78 47 79
REMARK H PARENT 13 5 17 22 67 41 41 52
REMARK Flexibility Score: inf
ROOT
ATOM      1  C   UNL A   1      35.401  34.871  28.571  1.00  0.00     0.117 C 
ENDROOT
BRANCH   1   2
ATOM      2  N   UNL A   1      34.132  35.530  28.292  1.00  0.00    -0.356 N 
ATOM      3  C   UNL A   1      33.231  36.112  29.133  1.00  0.00     0.221 C 
ATOM      4  O   UNL A   1      32.131  36.425  28.674  1.00  0.00    -0.275 OA
ATOM      5  H   UNL A   1      33.884  35.560  27.339  1.00  0.00     0.163 HD
BRANCH   3   6
ATOM      6  C   UNL A   1      33.552  36.383  30.588  1.00  0.00     0.123 C 
BRANCH   6   7
ATOM      7  C   UNL A   1      32.855  35.386  31.513  1.00  0.00     0.132 C 
BRANCH   7   8
ATOM      8  C   UNL A   1      33.806  34.736  32.535  1.00  0.00    -0.030 A 
ATOM      9  C   UNL A   1      35.684  33.577  34.267  1.00  0.00     0.118 A 
ATOM     10  C   UNL A   1      35.177  32.825  33.216  1.00  0.00     0.047 A 
ATOM     11  C   UNL A   1      35.331  34.917  34.420  1.00  0.00     0.047 A 
ATOM     12  C   UNL A   1      34.239  33.399  32.360  1.00  0.00     0.009 A 
ATOM     13  C   UNL A   1      34.401  35.501  33.551  1.00  0.00     0.009 A 
BRANCH   9  14
ATOM     14  O   UNL A   1      36.562  32.972  35.124  1.00  0.00    -0.497 OA
ATOM     15  C   UNL A   1      37.497  32.188  34.382  1.00  0.00     0.278 C 
ENDBRANCH   9  14
ENDBRANCH   7   8
BRANCH   7  16
ATOM     16  C   UNL A   1      31.869  36.071  32.447  1.00  0.00     0.071 C 
ATOM     17  N   UNL A   1      31.052  36.640  33.220  1.00  0.00    -0.198 NA
ENDBRANCH   7  16
ENDBRANCH   6   7
ENDBRANCH   3   6
ENDBRANCH   1   2
BRANCH   1  18
ATOM     18  C   UNL A   1      35.335  33.390  28.208  1.00  0.00     0.042 C 
BRANCH  18  19
ATOM     19  C   UNL A   1      34.445  32.523  29.082  1.00  0.00     0.118 C 
BRANCH  19  20
ATOM     20  N   UNL A   1      33.937  31.361  28.373  1.00  0.00    -0.352 N 
ATOM     21  C   UNL A   1      34.544  30.213  27.917  1.00  0.00     0.251 C 
ATOM     22  H   UNL A   1      32.972  31.402  28.183  1.00  0.00     0.163 HD
ATOM     23  O   UNL A   1      33.893  29.475  27.180  1.00  0.00    -0.269 OA
BRANCH  21  24
ATOM     24  C   UNL A   1      35.948  29.843  28.245  1.00  0.00     0.039 A 
ATOM     25  C   UNL A   1      36.921  29.987  27.241  1.00  0.00     0.014 A 
ATOM     26  C   UNL A   1      36.333  29.303  29.472  1.00  0.00     0.014 A 
ATOM     27  C   UNL A   1      38.258  29.649  27.483  1.00  0.00     0.010 A 
ATOM     28  C   UNL A   1      37.680  29.046  29.744  1.00  0.00     0.010 A 
ATOM     29  C   UNL A   1      38.655  29.194  28.746  1.00  0.00    -0.014 A 
BRANCH  29  30
ATOM     30  C   UNL A   1      40.058  28.782  29.023  1.00  0.00     0.031 A 
ATOM     31  C   UNL A   1      40.998  29.743  29.703  1.00  0.00     0.074 A 
ATOM     32  C   UNL A   1      40.512  27.578  28.625  1.00  0.00     0.049 A 
ATOM     33  N   UNL A   1      42.272  29.612  29.970  1.00  0.00    -0.248 NA
ATOM     34  C   UNL A   1      40.429  31.037  30.116  1.00  0.00     0.031 C 
ATOM     35  C   UNL A   1      39.722  26.559  27.937  1.00  0.00     0.029 A 
ATOM     36  N   UNL A   1      41.762  27.015  28.732  1.00  0.00    -0.354 N 
ATOM     37  C   UNL A   1      42.658  30.805  30.568  1.00  0.00     0.074 A 
ATOM     38  C   UNL A   1      41.499  31.672  30.566  1.00  0.00     0.031 C 
ATOM     39  C   UNL A   1      40.502  25.492  27.688  1.00  0.00     0.029 A 
ATOM     40  C   UNL A   1      41.854  25.765  28.170  1.00  0.00     0.049 A 
ATOM     41  H   UNL A   1      42.519  27.466  29.170  1.00  0.00     0.167 HD
ATOM     42  C   UNL A   1      43.859  31.146  31.095  1.00  0.00     0.037 A 
ATOM     43  C   UNL A   1      42.910  24.936  28.048  1.00  0.00     0.037 A 
ATOM     44  C   UNL A   1      45.011  30.284  31.110  1.00  0.00     0.049 A 
ATOM     45  C   UNL A   1      44.245  25.346  28.608  1.00  0.00     0.074 A 
ATOM     46  C   UNL A   1      46.257  30.519  31.664  1.00  0.00     0.029 A 
ATOM     47  N   UNL A   1      45.061  29.022  30.535  1.00  0.00    -0.354 N 
ATOM     48  N   UNL A   1      44.579  26.452  29.230  1.00  0.00    -0.248 NA
ATOM     49  C   UNL A   1      45.351  24.388  28.457  1.00  0.00     0.031 C 
ATOM     50  C   UNL A   1      47.078  29.424  31.376  1.00  0.00     0.029 A 
ATOM     51  C   UNL A   1      46.325  28.479  30.696  1.00  0.00     0.049 A 
ATOM     52  H   UNL A   1      44.309  28.579  30.080  1.00  0.00     0.167 HD
ATOM     53  C   UNL A   1      45.918  26.309  29.572  1.00  0.00     0.074 A 
ATOM     54  C   UNL A   1      46.333  25.005  29.097  1.00  0.00     0.031 C 
ATOM     55  C   UNL A   1      46.729  27.179  30.224  1.00  0.00     0.037 A 
BRANCH  42  56
ATOM     56  C   UNL A   1      43.982  32.520  31.690  1.00  0.00     0.057 A 
ATOM     57  C   UNL A   1      44.397  33.624  30.930  1.00  0.00     0.134 A 
ATOM     58  C   UNL A   1      43.679  32.746  33.038  1.00  0.00     0.134 A 
ATOM     59  F   UNL A   1      44.716  33.476  29.636  1.00  0.00    -0.206 F 
ATOM     60  C   UNL A   1      44.546  34.890  31.499  1.00  0.00     0.040 A 
ATOM     61  C   UNL A   1      43.792  34.014  33.611  1.00  0.00     0.040 A 
ATOM     62  F   UNL A   1      43.268  31.738  33.824  1.00  0.00    -0.206 F 
ATOM     63  C   UNL A   1      44.238  35.088  32.843  1.00  0.00     0.006 A 
ENDBRANCH  42  56
BRANCH  43  64
ATOM     64  C   UNL A   1      42.743  23.619  27.381  1.00  0.00     0.057 A 
ATOM     65  C   UNL A   1      42.386  22.479  28.110  1.00  0.00     0.134 A 
ATOM     66  C   UNL A   1      42.945  23.465  26.004  1.00  0.00     0.134 A 
ATOM     67  F   UNL A   1      42.201  22.557  29.437  1.00  0.00    -0.206 F 
ATOM     68  C   UNL A   1      42.252  21.230  27.499  1.00  0.00     0.040 A 
ATOM     69  C   UNL A   1      42.788  22.229  25.375  1.00  0.00     0.040 A 
ATOM     70  F   UNL A   1      43.285  24.520  25.248  1.00  0.00    -0.206 F 
ATOM     71  C   UNL A   1      42.447  21.105  26.126  1.00  0.00     0.006 A 
ENDBRANCH  43  64
BRANCH  55  72
ATOM     72  C   UNL A   1      48.139  26.739  30.502  1.00  0.00     0.057 A 
ATOM     73  C   UNL A   1      48.467  25.949  31.610  1.00  0.00     0.134 A 
ATOM     74  C   UNL A   1      49.174  27.070  29.617  1.00  0.00     0.134 A 
ATOM     75  F   UNL A   1      47.526  25.605  32.503  1.00  0.00    -0.206 F 
ATOM     76  C   UNL A   1      49.777  25.522  31.841  1.00  0.00     0.040 A 
ATOM     77  C   UNL A   1      50.482  26.625  29.820  1.00  0.00     0.040 A 
ATOM     78  F   UNL A   1      48.928  27.816  28.529  1.00  0.00    -0.206 F 
ATOM     79  C   UNL A   1      50.787  25.854  30.939  1.00  0.00     0.006 A 
ENDBRANCH  55  72
ENDBRANCH  29  30
ENDBRANCH  21  24
ENDBRANCH  19  20
ENDBRANCH  18  19
ENDBRANCH   1  18
TORSDOF 14
ENDMDL
