MODEL 1
REMARK VINA RESULT:     -11.7      0.000      0.000
REMARK SMILES CCc1cc(C(=O)N[C@@H]2C=C[C@H](C(=O)NCCCNC(=O)c3ccc(-c4c5nc(c(-c6c(F)cccc6F)c6ccc([nH]6)c(-c6c(F)cccc6F)c6nc(c(-c7c(F)cccc7F)c7ccc4[nH]7)C=C6)C=C5)cc3)C2)n(C)n1
REMARK SMILES IDX 16 1 15 2 13 3 14 4 12 6 9 7 10 8 76 9 11 10 8 11 6 12 7 13
REMARK SMILES IDX 5 15 3 16 4 17 79 18 77 19 78 20 2 21 1 22 17 23 18 24 19 25
REMARK SMILES IDX 20 26 21 28 22 29 23 30 75 31 24 32 74 33 25 34 26 35 27 36
REMARK SMILES IDX 68 37 28 38 73 39 67 40 69 41 29 42 72 43 66 44 65 45 30 47
REMARK SMILES IDX 56 48 39 49 55 50 40 51 43 52 54 53 70 54 41 55 42 56 53 58
REMARK SMILES IDX 71 59 44 60 31 61 32 62 37 63 33 64 34 65 36 66 38 67 35 68
REMARK SMILES IDX 57 69 58 70 63 71 59 72 60 73 62 74 64 75 61 76 45 77 46 78
REMARK SMILES IDX 51 79 47 80 48 81 50 82 52 83 49 84
REMARK H PARENT 15 5 8 14 19 27 69 46 43 57
REMARK Flexibility Score: inf
ROOT
ATOM      1  C   UNL A   1      36.169  20.711  25.249  1.00  0.00     0.117 C 
ENDROOT
BRANCH   1   2
ATOM      2  N   UNL A   1      34.937  19.988  25.014  1.00  0.00    -0.356 N 
ATOM      3  C   UNL A   1      33.701  20.510  24.787  1.00  0.00     0.227 C 
ATOM      4  O   UNL A   1      32.723  19.825  25.085  1.00  0.00    -0.274 OA
ATOM      5  H   UNL A   1      35.000  19.006  25.019  1.00  0.00     0.163 HD
BRANCH   3   6
ATOM      6  C   UNL A   1      33.599  21.874  24.123  1.00  0.00     0.103 C 
ATOM      7  C   UNL A   1      31.825  23.558  24.352  1.00  0.00     0.106 C 
ATOM      8  C   UNL A   1      31.551  22.592  23.252  1.00  0.00    -0.006 C 
ATOM      9  C   UNL A   1      33.040  22.944  25.068  1.00  0.00     0.047 C 
ATOM     10  C   UNL A   1      32.550  21.731  23.073  1.00  0.00    -0.016 C 
BRANCH   7  11
ATOM     11  N   UNL A   1      30.706  23.767  25.240  1.00  0.00    -0.344 N 
ATOM     12  C   UNL A   1      30.346  24.828  26.030  1.00  0.00     0.270 C 
ATOM     13  O   UNL A   1      29.435  24.637  26.836  1.00  0.00    -0.268 OA
ATOM     14  H   UNL A   1      30.086  23.003  25.288  1.00  0.00     0.164 HD
BRANCH  12  15
ATOM     15  C   UNL A   1      30.912  26.130  25.809  1.00  0.00     0.126 A 
ATOM     16  C   UNL A   1      32.067  28.019  26.097  1.00  0.00     0.063 A 
ATOM     17  C   UNL A   1      31.959  26.682  26.528  1.00  0.00     0.059 A 
ATOM     18  N   UNL A   1      31.223  28.266  25.088  1.00  0.00    -0.178 NA
ATOM     19  N   UNL A   1      30.594  27.089  24.882  1.00  0.00    -0.263 N 
ATOM     20  C   UNL A   1      29.660  27.022  23.784  1.00  0.00     0.174 C 
BRANCH  16  21
ATOM     21  C   UNL A   1      32.959  29.101  26.608  1.00  0.00     0.055 C 
ATOM     22  C   UNL A   1      32.240  30.411  26.893  1.00  0.00     0.011 C 
ENDBRANCH  16  21
ENDBRANCH  12  15
ENDBRANCH   7  11
ENDBRANCH   3   6
ENDBRANCH   1   2
BRANCH   1  23
ATOM     23  C   UNL A   1      37.366  19.808  24.974  1.00  0.00     0.042 C 
BRANCH  23  24
ATOM     24  C   UNL A   1      38.692  20.435  25.396  1.00  0.00     0.118 C 
BRANCH  24  25
ATOM     25  N   UNL A   1      39.713  19.429  25.663  1.00  0.00    -0.352 N 
ATOM     26  C   UNL A   1      41.016  19.585  26.061  1.00  0.00     0.251 C 
ATOM     27  H   UNL A   1      39.424  18.497  25.537  1.00  0.00     0.163 HD
ATOM     28  O   UNL A   1      41.803  18.654  25.977  1.00  0.00    -0.269 OA
BRANCH  26  29
ATOM     29  C   UNL A   1      41.455  20.892  26.582  1.00  0.00     0.039 A 
ATOM     30  C   UNL A   1      41.966  21.839  25.694  1.00  0.00     0.014 A 
ATOM     31  C   UNL A   1      41.358  21.174  27.947  1.00  0.00     0.014 A 
ATOM     32  C   UNL A   1      42.325  23.098  26.173  1.00  0.00     0.010 A 
ATOM     33  C   UNL A   1      41.626  22.455  28.405  1.00  0.00     0.010 A 
ATOM     34  C   UNL A   1      42.125  23.426  27.524  1.00  0.00    -0.014 A 
BRANCH  34  35
ATOM     35  C   UNL A   1      42.444  24.775  28.044  1.00  0.00     0.031 A 
ATOM     36  C   UNL A   1      43.851  25.105  28.456  1.00  0.00     0.074 A 
ATOM     37  C   UNL A   1      41.456  25.673  28.209  1.00  0.00     0.049 A 
ATOM     38  N   UNL A   1      44.318  26.201  28.995  1.00  0.00    -0.248 NA
ATOM     39  C   UNL A   1      44.863  24.053  28.264  1.00  0.00     0.031 C 
ATOM     40  C   UNL A   1      40.043  25.447  27.894  1.00  0.00     0.029 A 
ATOM     41  N   UNL A   1      41.487  26.956  28.690  1.00  0.00    -0.354 N 
ATOM     42  C   UNL A   1      45.668  25.964  29.221  1.00  0.00     0.074 A 
ATOM     43  C   UNL A   1      45.933  24.600  28.819  1.00  0.00     0.031 C 
ATOM     44  C   UNL A   1      39.348  26.563  28.163  1.00  0.00     0.029 A 
ATOM     45  C   UNL A   1      40.256  27.567  28.706  1.00  0.00     0.049 A 
ATOM     46  H   UNL A   1      42.313  27.399  28.994  1.00  0.00     0.167 HD
ATOM     47  C   UNL A   1      46.608  26.815  29.694  1.00  0.00     0.037 A 
ATOM     48  C   UNL A   1      39.903  28.799  29.121  1.00  0.00     0.037 A 
ATOM     49  C   UNL A   1      46.341  28.178  30.070  1.00  0.00     0.049 A 
ATOM     50  C   UNL A   1      40.963  29.722  29.651  1.00  0.00     0.074 A 
ATOM     51  C   UNL A   1      47.231  29.143  30.504  1.00  0.00     0.029 A 
ATOM     52  N   UNL A   1      45.084  28.766  30.062  1.00  0.00    -0.354 N 
ATOM     53  N   UNL A   1      42.250  29.510  29.791  1.00  0.00    -0.248 NA
ATOM     54  C   UNL A   1      40.523  31.057  30.077  1.00  0.00     0.031 C 
ATOM     55  C   UNL A   1      46.506  30.301  30.806  1.00  0.00     0.029 A 
ATOM     56  C   UNL A   1      45.172  30.074  30.506  1.00  0.00     0.049 A 
ATOM     57  H   UNL A   1      44.252  28.319  29.780  1.00  0.00     0.167 HD
ATOM     58  C   UNL A   1      42.778  30.693  30.293  1.00  0.00     0.074 A 
ATOM     59  C   UNL A   1      41.673  31.621  30.419  1.00  0.00     0.031 C 
ATOM     60  C   UNL A   1      44.060  30.984  30.621  1.00  0.00     0.037 A 
BRANCH  47  61
ATOM     61  C   UNL A   1      48.010  26.293  29.828  1.00  0.00     0.057 A 
ATOM     62  C   UNL A   1      48.478  25.727  31.022  1.00  0.00     0.134 A 
ATOM     63  C   UNL A   1      48.897  26.337  28.745  1.00  0.00     0.134 A 
ATOM     64  F   UNL A   1      47.685  25.666  32.103  1.00  0.00    -0.206 F 
ATOM     65  C   UNL A   1      49.785  25.253  31.143  1.00  0.00     0.040 A 
ATOM     66  C   UNL A   1      50.197  25.839  28.845  1.00  0.00     0.040 A 
ATOM     67  F   UNL A   1      48.514  26.863  27.572  1.00  0.00    -0.206 F 
ATOM     68  C   UNL A   1      50.646  25.302  30.050  1.00  0.00     0.006 A 
ENDBRANCH  47  61
BRANCH  48  69
ATOM     69  C   UNL A   1      38.487  29.235  29.026  1.00  0.00     0.057 A 
ATOM     70  C   UNL A   1      37.954  29.692  27.815  1.00  0.00     0.134 A 
ATOM     71  C   UNL A   1      37.634  29.208  30.136  1.00  0.00     0.134 A 
ATOM     72  F   UNL A   1      38.726  29.756  26.720  1.00  0.00    -0.206 F 
ATOM     73  C   UNL A   1      36.632  30.128  27.716  1.00  0.00     0.040 A 
ATOM     74  C   UNL A   1      36.302  29.615  30.045  1.00  0.00     0.040 A 
ATOM     75  F   UNL A   1      38.081  28.769  31.322  1.00  0.00    -0.206 F 
ATOM     76  C   UNL A   1      35.801  30.085  28.833  1.00  0.00     0.006 A 
ENDBRANCH  48  69
BRANCH  60  77
ATOM     77  C   UNL A   1      44.344  32.374  31.113  1.00  0.00     0.057 A 
ATOM     78  C   UNL A   1      44.632  33.425  30.233  1.00  0.00     0.134 A 
ATOM     79  C   UNL A   1      44.286  32.671  32.481  1.00  0.00     0.134 A 
ATOM     80  F   UNL A   1      44.715  33.205  28.912  1.00  0.00    -0.206 F 
ATOM     81  C   UNL A   1      44.878  34.718  30.699  1.00  0.00     0.040 A 
ATOM     82  C   UNL A   1      44.500  33.965  32.955  1.00  0.00     0.040 A 
ATOM     83  F   UNL A   1      44.005  31.712  33.375  1.00  0.00    -0.206 F 
ATOM     84  C   UNL A   1      44.804  34.991  32.065  1.00  0.00     0.006 A 
ENDBRANCH  60  77
ENDBRANCH  34  35
ENDBRANCH  26  29
ENDBRANCH  24  25
ENDBRANCH  23  24
ENDBRANCH   1  23
TORSDOF 13
ENDMDL
MODEL 2
REMARK VINA RESULT:     -11.7      1.529      6.444
REMARK SMILES CCc1cc(C(=O)N[C@@H]2C=C[C@H](C(=O)NCCCNC(=O)c3ccc(-c4c5nc(c(-c6c(F)cccc6F)c6ccc([nH]6)c(-c6c(F)cccc6F)c6nc(c(-c7c(F)cccc7F)c7ccc4[nH]7)C=C6)C=C5)cc3)C2)n(C)n1
REMARK SMILES IDX 16 1 15 2 13 3 14 4 12 6 9 7 10 8 76 9 11 10 8 11 6 12 7 13
REMARK SMILES IDX 5 15 3 16 4 17 79 18 77 19 78 20 2 21 1 22 17 23 18 24 19 25
REMARK SMILES IDX 20 26 21 28 22 29 23 30 75 31 24 32 74 33 25 34 26 35 27 36
REMARK SMILES IDX 68 37 28 38 73 39 67 40 69 41 29 42 72 43 66 44 65 45 30 47
REMARK SMILES IDX 56 48 39 49 55 50 40 51 43 52 54 53 70 54 41 55 42 56 53 58
REMARK SMILES IDX 71 59 44 60 31 61 32 62 37 63 33 64 34 65 36 66 38 67 35 68
REMARK SMILES IDX 57 69 58 70 63 71 59 72 60 73 62 74 64 75 61 76 45 77 46 78
REMARK SMILES IDX 51 79 47 80 48 81 50 82 52 83 49 84
REMARK H PARENT 15 5 8 14 19 27 69 46 43 57
REMARK Flexibility Score: inf
ROOT
ATOM      1  C   UNL A   1      36.636  20.724  25.019  1.00  0.00     0.117 C 
ENDROOT
BRANCH   1   2
ATOM      2  N   UNL A   1      35.370  20.022  25.014  1.00  0.00    -0.356 N 
ATOM      3  C   UNL A   1      34.123  20.564  25.004  1.00  0.00     0.227 C 
ATOM      4  O   UNL A   1      33.202  19.900  25.478  1.00  0.00    -0.274 OA
ATOM      5  H   UNL A   1      35.416  19.039  25.019  1.00  0.00     0.163 HD
BRANCH   3   6
ATOM      6  C   UNL A   1      33.928  21.924  24.352  1.00  0.00     0.103 C 
ATOM      7  C   UNL A   1      32.060  23.498  24.625  1.00  0.00     0.106 C 
ATOM      8  C   UNL A   1      31.825  22.525  23.523  1.00  0.00    -0.006 C 
ATOM      9  C   UNL A   1      33.323  22.953  25.315  1.00  0.00     0.047 C 
ATOM     10  C   UNL A   1      32.870  21.726  23.320  1.00  0.00    -0.016 C 
BRANCH   7  11
ATOM     11  N   UNL A   1      30.948  23.634  25.535  1.00  0.00    -0.344 N 
ATOM     12  C   UNL A   1      30.271  24.731  26.002  1.00  0.00     0.270 C 
ATOM     13  O   UNL A   1      29.484  24.545  26.930  1.00  0.00    -0.268 OA
ATOM     14  H   UNL A   1      30.612  22.777  25.885  1.00  0.00     0.164 HD
BRANCH  12  15
ATOM     15  C   UNL A   1      30.378  25.997  25.330  1.00  0.00     0.126 A 
ATOM     16  C   UNL A   1      30.090  27.646  23.852  1.00  0.00     0.063 A 
ATOM     17  C   UNL A   1      29.517  26.456  24.346  1.00  0.00     0.059 A 
ATOM     18  N   UNL A   1      31.179  27.980  24.555  1.00  0.00    -0.178 NA
ATOM     19  N   UNL A   1      31.285  27.012  25.490  1.00  0.00    -0.263 N 
ATOM     20  C   UNL A   1      32.342  27.145  26.463  1.00  0.00     0.174 C 
BRANCH  16  21
ATOM     21  C   UNL A   1      29.639  28.503  22.717  1.00  0.00     0.055 C 
ATOM     22  C   UNL A   1      28.192  28.960  22.826  1.00  0.00     0.011 C 
ENDBRANCH  16  21
ENDBRANCH  12  15
ENDBRANCH   7  11
ENDBRANCH   3   6
ENDBRANCH   1   2
BRANCH   1  23
ATOM     23  C   UNL A   1      37.788  19.725  24.998  1.00  0.00     0.042 C 
BRANCH  23  24
ATOM     24  C   UNL A   1      39.027  20.232  25.730  1.00  0.00     0.118 C 
BRANCH  24  25
ATOM     25  N   UNL A   1      40.024  19.182  25.911  1.00  0.00    -0.352 N 
ATOM     26  C   UNL A   1      41.379  19.282  26.093  1.00  0.00     0.251 C 
ATOM     27  H   UNL A   1      39.671  18.264  25.899  1.00  0.00     0.163 HD
ATOM     28  O   UNL A   1      42.094  18.300  25.958  1.00  0.00    -0.269 OA
BRANCH  26  29
ATOM     29  C   UNL A   1      41.961  20.590  26.445  1.00  0.00     0.039 A 
ATOM     30  C   UNL A   1      42.297  21.479  25.423  1.00  0.00     0.014 A 
ATOM     31  C   UNL A   1      42.171  20.929  27.783  1.00  0.00     0.014 A 
ATOM     32  C   UNL A   1      42.792  22.740  25.753  1.00  0.00     0.010 A 
ATOM     33  C   UNL A   1      42.572  22.215  28.111  1.00  0.00     0.010 A 
ATOM     34  C   UNL A   1      42.899  23.129  27.099  1.00  0.00    -0.014 A 
BRANCH  34  35
ATOM     35  C   UNL A   1      43.366  24.484  27.472  1.00  0.00     0.031 A 
ATOM     36  C   UNL A   1      42.373  25.524  27.910  1.00  0.00     0.074 A 
ATOM     37  C   UNL A   1      44.670  24.793  27.348  1.00  0.00     0.049 A 
ATOM     38  N   UNL A   1      42.573  26.781  28.210  1.00  0.00    -0.248 NA
ATOM     39  C   UNL A   1      40.964  25.104  27.991  1.00  0.00     0.031 C 
ATOM     40  C   UNL A   1      45.717  23.881  26.882  1.00  0.00     0.029 A 
ATOM     41  N   UNL A   1      45.336  25.965  27.597  1.00  0.00    -0.354 N 
ATOM     42  C   UNL A   1      41.318  27.302  28.499  1.00  0.00     0.074 A 
ATOM     43  C   UNL A   1      40.357  26.244  28.277  1.00  0.00     0.031 C 
ATOM     44  C   UNL A   1      46.898  24.520  26.906  1.00  0.00     0.029 A 
ATOM     45  C   UNL A   1      46.686  25.893  27.349  1.00  0.00     0.049 A 
ATOM     46  H   UNL A   1      44.891  26.781  27.923  1.00  0.00     0.167 HD
ATOM     47  C   UNL A   1      40.998  28.543  28.937  1.00  0.00     0.037 A 
ATOM     48  C   UNL A   1      47.641  26.835  27.461  1.00  0.00     0.037 A 
ATOM     49  C   UNL A   1      41.963  29.582  29.177  1.00  0.00     0.049 A 
ATOM     50  C   UNL A   1      47.260  28.207  27.939  1.00  0.00     0.074 A 
ATOM     51  C   UNL A   1      41.754  30.854  29.678  1.00  0.00     0.029 A 
ATOM     52  N   UNL A   1      43.324  29.469  28.926  1.00  0.00    -0.354 N 
ATOM     53  N   UNL A   1      46.080  28.667  28.280  1.00  0.00    -0.248 NA
ATOM     54  C   UNL A   1      48.344  29.192  28.055  1.00  0.00     0.031 C 
ATOM     55  C   UNL A   1      42.979  31.528  29.684  1.00  0.00     0.029 A 
ATOM     56  C   UNL A   1      43.962  30.657  29.239  1.00  0.00     0.049 A 
ATOM     57  H   UNL A   1      43.769  28.662  28.578  1.00  0.00     0.167 HD
ATOM     58  C   UNL A   1      46.283  29.982  28.677  1.00  0.00     0.074 A 
ATOM     59  C   UNL A   1      47.703  30.241  28.548  1.00  0.00     0.031 C 
ATOM     60  C   UNL A   1      45.377  30.894  29.108  1.00  0.00     0.037 A 
BRANCH  47  61
ATOM     61  C   UNL A   1      39.547  28.837  29.184  1.00  0.00     0.057 A 
ATOM     62  C   UNL A   1      38.703  29.304  28.167  1.00  0.00     0.134 A 
ATOM     63  C   UNL A   1      38.979  28.631  30.448  1.00  0.00     0.134 A 
ATOM     64  F   UNL A   1      39.184  29.536  26.936  1.00  0.00    -0.206 F 
ATOM     65  C   UNL A   1      37.357  29.585  28.405  1.00  0.00     0.040 A 
ATOM     66  C   UNL A   1      37.627  28.880  30.691  1.00  0.00     0.040 A 
ATOM     67  F   UNL A   1      39.728  28.183  31.466  1.00  0.00    -0.206 F 
ATOM     68  C   UNL A   1      36.814  29.366  29.669  1.00  0.00     0.006 A 
ENDBRANCH  47  61
BRANCH  48  69
ATOM     69  C   UNL A   1      49.051  26.503  27.137  1.00  0.00     0.057 A 
ATOM     70  C   UNL A   1      49.567  26.721  25.854  1.00  0.00     0.134 A 
ATOM     71  C   UNL A   1      49.917  25.962  28.096  1.00  0.00     0.134 A 
ATOM     72  F   UNL A   1      48.783  27.222  24.889  1.00  0.00    -0.206 F 
ATOM     73  C   UNL A   1      50.884  26.391  25.529  1.00  0.00     0.040 A 
ATOM     74  C   UNL A   1      51.243  25.653  27.792  1.00  0.00     0.040 A 
ATOM     75  F   UNL A   1      49.487  25.740  29.347  1.00  0.00    -0.206 F 
ATOM     76  C   UNL A   1      51.728  25.860  26.502  1.00  0.00     0.006 A 
ENDBRANCH  48  69
BRANCH  60  77
ATOM     77  C   UNL A   1      45.899  32.244  29.506  1.00  0.00     0.057 A 
ATOM     78  C   UNL A   1      45.966  33.308  28.598  1.00  0.00     0.134 A 
ATOM     79  C   UNL A   1      46.302  32.490  30.825  1.00  0.00     0.134 A 
ATOM     80  F   UNL A   1      45.607  33.134  27.317  1.00  0.00    -0.206 F 
ATOM     81  C   UNL A   1      46.437  34.565  28.983  1.00  0.00     0.040 A 
ATOM     82  C   UNL A   1      46.747  33.750  31.228  1.00  0.00     0.040 A 
ATOM     83  F   UNL A   1      46.254  31.517  31.745  1.00  0.00    -0.206 F 
ATOM     84  C   UNL A   1      46.822  34.790  30.304  1.00  0.00     0.006 A 
ENDBRANCH  60  77
ENDBRANCH  34  35
ENDBRANCH  26  29
ENDBRANCH  24  25
ENDBRANCH  23  24
ENDBRANCH   1  23
TORSDOF 13
ENDMDL
MODEL 3
REMARK VINA RESULT:     -11.7      1.364      6.483
REMARK SMILES CCc1cc(C(=O)N[C@@H]2C=C[C@H](C(=O)NCCCNC(=O)c3ccc(-c4c5nc(c(-c6c(F)cccc6F)c6ccc([nH]6)c(-c6c(F)cccc6F)c6nc(c(-c7c(F)cccc7F)c7ccc4[nH]7)C=C6)C=C5)cc3)C2)n(C)n1
REMARK SMILES IDX 16 1 15 2 13 3 14 4 12 6 9 7 10 8 76 9 11 10 8 11 6 12 7 13
REMARK SMILES IDX 5 15 3 16 4 17 79 18 77 19 78 20 2 21 1 22 17 23 18 24 19 25
REMARK SMILES IDX 20 26 21 28 22 29 23 30 75 31 24 32 74 33 25 34 26 35 27 36
REMARK SMILES IDX 68 37 28 38 73 39 67 40 69 41 29 42 72 43 66 44 65 45 30 47
REMARK SMILES IDX 56 48 39 49 55 50 40 51 43 52 54 53 70 54 41 55 42 56 53 58
REMARK SMILES IDX 71 59 44 60 31 61 32 62 37 63 33 64 34 65 36 66 38 67 35 68
REMARK SMILES IDX 57 69 58 70 63 71 59 72 60 73 62 74 64 75 61 76 45 77 46 78
REMARK SMILES IDX 51 79 47 80 48 81 50 82 52 83 49 84
REMARK H PARENT 15 5 8 14 19 27 69 46 43 57
REMARK Flexibility Score: inf
ROOT
ATOM      1  C   UNL A   1      36.637  20.748  24.998  1.00  0.00     0.117 C 
ENDROOT
BRANCH   1   2
ATOM      2  N   UNL A   1      35.376  20.038  25.037  1.00  0.00    -0.356 N 
ATOM      3  C   UNL A   1      34.125  20.571  25.023  1.00  0.00     0.227 C 
ATOM      4  O   UNL A   1      33.215  19.919  25.535  1.00  0.00    -0.274 OA
ATOM      5  H   UNL A   1      35.430  19.056  25.079  1.00  0.00     0.163 HD
BRANCH   3   6
ATOM      6  C   UNL A   1      33.912  21.904  24.323  1.00  0.00     0.103 C 
ATOM      7  C   UNL A   1      31.999  23.437  24.501  1.00  0.00     0.106 C 
ATOM      8  C   UNL A   1      31.814  22.423  23.426  1.00  0.00    -0.006 C 
ATOM      9  C   UNL A   1      33.258  22.947  25.238  1.00  0.00     0.047 C 
ATOM     10  C   UNL A   1      32.885  21.646  23.273  1.00  0.00    -0.016 C 
BRANCH   7  11
ATOM     11  N   UNL A   1      30.861  23.572  25.380  1.00  0.00    -0.344 N 
ATOM     12  C   UNL A   1      30.396  24.625  26.125  1.00  0.00     0.270 C 
ATOM     13  O   UNL A   1      29.505  24.380  26.938  1.00  0.00    -0.268 OA
ATOM     14  H   UNL A   1      30.318  22.755  25.459  1.00  0.00     0.164 HD
BRANCH  12  15
ATOM     15  C   UNL A   1      30.835  25.966  25.850  1.00  0.00     0.126 A 
ATOM     16  C   UNL A   1      31.797  27.970  26.062  1.00  0.00     0.063 A 
ATOM     17  C   UNL A   1      31.816  26.648  26.551  1.00  0.00     0.059 A 
ATOM     18  N   UNL A   1      30.943  28.089  25.040  1.00  0.00    -0.178 NA
ATOM     19  N   UNL A   1      30.434  26.849  24.881  1.00  0.00    -0.263 N 
ATOM     20  C   UNL A   1      29.522  26.643  23.782  1.00  0.00     0.174 C 
BRANCH  16  21
ATOM     21  C   UNL A   1      32.575  29.154  26.531  1.00  0.00     0.055 C 
ATOM     22  C   UNL A   1      33.888  28.800  27.214  1.00  0.00     0.011 C 
ENDBRANCH  16  21
ENDBRANCH  12  15
ENDBRANCH   7  11
ENDBRANCH   3   6
ENDBRANCH   1   2
BRANCH   1  23
ATOM     23  C   UNL A   1      37.795  19.757  24.959  1.00  0.00     0.042 C 
BRANCH  23  24
ATOM     24  C   UNL A   1      39.025  20.249  25.717  1.00  0.00     0.118 C 
BRANCH  24  25
ATOM     25  N   UNL A   1      40.025  19.200  25.879  1.00  0.00    -0.352 N 
ATOM     26  C   UNL A   1      41.379  19.301  26.065  1.00  0.00     0.251 C 
ATOM     27  H   UNL A   1      39.675  18.281  25.847  1.00  0.00     0.163 HD
ATOM     28  O   UNL A   1      42.098  18.324  25.911  1.00  0.00    -0.269 OA
BRANCH  26  29
ATOM     29  C   UNL A   1      41.956  20.603  26.443  1.00  0.00     0.039 A 
ATOM     30  C   UNL A   1      42.346  21.490  25.439  1.00  0.00     0.014 A 
ATOM     31  C   UNL A   1      42.108  20.940  27.790  1.00  0.00     0.014 A 
ATOM     32  C   UNL A   1      42.836  22.747  25.791  1.00  0.00     0.010 A 
ATOM     33  C   UNL A   1      42.505  22.223  28.137  1.00  0.00     0.010 A 
ATOM     34  C   UNL A   1      42.885  23.134  27.141  1.00  0.00    -0.014 A 
BRANCH  34  35
ATOM     35  C   UNL A   1      43.346  24.485  27.536  1.00  0.00     0.031 A 
ATOM     36  C   UNL A   1      42.344  25.532  27.932  1.00  0.00     0.074 A 
ATOM     37  C   UNL A   1      44.657  24.784  27.469  1.00  0.00     0.049 A 
ATOM     38  N   UNL A   1      42.541  26.787  28.243  1.00  0.00    -0.248 NA
ATOM     39  C   UNL A   1      40.930  25.123  27.952  1.00  0.00     0.031 C 
ATOM     40  C   UNL A   1      45.716  23.864  27.047  1.00  0.00     0.029 A 
ATOM     41  N   UNL A   1      45.321  25.950  27.748  1.00  0.00    -0.354 N 
ATOM     42  C   UNL A   1      41.279  27.318  28.478  1.00  0.00     0.074 A 
ATOM     43  C   UNL A   1      40.320  26.269  28.213  1.00  0.00     0.031 C 
ATOM     44  C   UNL A   1      46.900  24.493  27.123  1.00  0.00     0.029 A 
ATOM     45  C   UNL A   1      46.679  25.867  27.558  1.00  0.00     0.049 A 
ATOM     46  H   UNL A   1      44.869  26.768  28.056  1.00  0.00     0.167 HD
ATOM     47  C   UNL A   1      40.950  28.561  28.904  1.00  0.00     0.037 A 
ATOM     48  C   UNL A   1      47.637  26.801  27.712  1.00  0.00     0.037 A 
ATOM     49  C   UNL A   1      41.912  29.592  29.186  1.00  0.00     0.049 A 
ATOM     50  C   UNL A   1      47.247  28.176  28.176  1.00  0.00     0.074 A 
ATOM     51  C   UNL A   1      41.692  30.865  29.679  1.00  0.00     0.029 A 
ATOM     52  N   UNL A   1      43.281  29.468  28.994  1.00  0.00    -0.354 N 
ATOM     53  N   UNL A   1      46.057  28.645  28.466  1.00  0.00    -0.248 NA
ATOM     54  C   UNL A   1      48.333  29.151  28.340  1.00  0.00     0.031 C 
ATOM     55  C   UNL A   1      42.921  31.529  29.739  1.00  0.00     0.029 A 
ATOM     56  C   UNL A   1      43.915  30.651  29.336  1.00  0.00     0.049 A 
ATOM     57  H   UNL A   1      43.735  28.658  28.664  1.00  0.00     0.167 HD
ATOM     58  C   UNL A   1      46.252  29.957  28.873  1.00  0.00     0.074 A 
ATOM     59  C   UNL A   1      47.679  30.206  28.806  1.00  0.00     0.031 C 
ATOM     60  C   UNL A   1      45.337  30.876  29.266  1.00  0.00     0.037 A 
BRANCH  47  61
ATOM     61  C   UNL A   1      39.492  28.866  29.088  1.00  0.00     0.057 A 
ATOM     62  C   UNL A   1      38.698  29.347  28.038  1.00  0.00     0.134 A 
ATOM     63  C   UNL A   1      38.867  28.658  30.324  1.00  0.00     0.134 A 
ATOM     64  F   UNL A   1      39.235  29.583  26.831  1.00  0.00    -0.206 F 
ATOM     65  C   UNL A   1      37.345  29.639  28.218  1.00  0.00     0.040 A 
ATOM     66  C   UNL A   1      37.508  28.917  30.509  1.00  0.00     0.040 A 
ATOM     67  F   UNL A   1      39.567  28.196  31.372  1.00  0.00    -0.206 F 
ATOM     68  C   UNL A   1      36.745  29.417  29.456  1.00  0.00     0.006 A 
ENDBRANCH  47  61
BRANCH  48  69
ATOM     69  C   UNL A   1      49.057  26.458  27.450  1.00  0.00     0.057 A 
ATOM     70  C   UNL A   1      49.859  25.897  28.450  1.00  0.00     0.134 A 
ATOM     71  C   UNL A   1      49.647  26.681  26.200  1.00  0.00     0.134 A 
ATOM     72  F   UNL A   1      49.355  25.674  29.673  1.00  0.00    -0.206 F 
ATOM     73  C   UNL A   1      51.203  25.590  28.225  1.00  0.00     0.040 A 
ATOM     74  C   UNL A   1      50.981  26.354  25.952  1.00  0.00     0.040 A 
ATOM     75  F   UNL A   1      48.929  27.205  25.195  1.00  0.00    -0.206 F 
ATOM     76  C   UNL A   1      51.765  25.815  26.971  1.00  0.00     0.006 A 
ENDBRANCH  48  69
BRANCH  60  77
ATOM     77  C   UNL A   1      45.852  32.222  29.688  1.00  0.00     0.057 A 
ATOM     78  C   UNL A   1      46.244  32.483  31.007  1.00  0.00     0.134 A 
ATOM     79  C   UNL A   1      45.995  33.255  28.753  1.00  0.00     0.134 A 
ATOM     80  F   UNL A   1      46.120  31.539  31.954  1.00  0.00    -0.206 F 
ATOM     81  C   UNL A   1      46.737  33.732  31.387  1.00  0.00     0.040 A 
ATOM     82  C   UNL A   1      46.515  34.498  29.114  1.00  0.00     0.040 A 
ATOM     83  F   UNL A   1      45.647  33.067  27.472  1.00  0.00    -0.206 F 
ATOM     84  C   UNL A   1      46.881  34.742  30.436  1.00  0.00     0.006 A 
ENDBRANCH  60  77
ENDBRANCH  34  35
ENDBRANCH  26  29
ENDBRANCH  24  25
ENDBRANCH  23  24
ENDBRANCH   1  23
TORSDOF 13
ENDMDL
