MODEL 1
REMARK VINA RESULT:     -12.0      0.000      0.000
REMARK SMILES CCc1ccc(C(=O)NCCCNC(=O)c2ccc(-c3c4nc(c(-c5c(F)cccc5F)c5ccc([nH]5)c(-c5c(F)cccc5F)c5nc(c(-c6c(F)cccc6F)c6ccc3[nH]6)C=C5)C=C4)cc2)cc1S(=O)(=O)Nc1ccc(F)c(F)c1F
REMARK SMILES IDX 10 1 9 2 7 3 8 4 6 6 3 7 4 8 71 9 5 10 70 11 2 12 1 13 72 14
REMARK SMILES IDX 73 15 74 16 75 17 76 19 77 20 83 21 78 22 81 23 84 24 79 25
REMARK SMILES IDX 82 26 80 27 11 28 12 29 13 30 14 31 15 33 16 34 17 35 69 36
REMARK SMILES IDX 18 37 68 38 19 39 20 40 21 41 62 42 22 43 67 44 61 45 63 46
REMARK SMILES IDX 23 47 66 48 60 49 59 50 24 52 50 53 33 54 49 55 34 56 37 57
REMARK SMILES IDX 48 58 64 59 35 60 36 61 47 63 65 64 38 65 25 66 26 67 31 68
REMARK SMILES IDX 27 69 28 70 30 71 32 72 29 73 51 74 52 75 57 76 53 77 54 78
REMARK SMILES IDX 56 79 58 80 55 81 39 82 40 83 45 84 41 85 42 86 44 87 46 88
REMARK SMILES IDX 43 89
REMARK H PARENT 9 5 75 18 13 32 63 51 37 62
REMARK Flexibility Score: inf
ROOT
ATOM      1  C   UNL A   1      36.959  20.271  24.951  1.00  0.00     0.118 C 
ENDROOT
BRANCH   1   2
ATOM      2  N   UNL A   1      37.286  21.582  25.486  1.00  0.00    -0.352 N 
ATOM      3  C   UNL A   1      36.666  22.799  25.373  1.00  0.00     0.251 C 
ATOM      4  O   UNL A   1      37.217  23.788  25.849  1.00  0.00    -0.269 OA
ATOM      5  H   UNL A   1      38.105  21.600  26.032  1.00  0.00     0.163 HD
BRANCH   3   6
ATOM      6  C   UNL A   1      35.289  22.913  24.843  1.00  0.00     0.041 A 
ATOM      7  C   UNL A   1      32.830  23.701  23.681  1.00  0.00    -0.028 A 
ATOM      8  C   UNL A   1      33.970  23.410  22.897  1.00  0.00     0.006 A 
ATOM      9  C   UNL A   1      32.904  23.421  25.064  1.00  0.00     0.091 A 
ATOM     10  C   UNL A   1      35.179  23.024  23.464  1.00  0.00     0.014 A 
ATOM     11  C   UNL A   1      34.139  23.007  25.624  1.00  0.00     0.036 A 
BRANCH   7  12
ATOM     12  C   UNL A   1      31.742  24.467  22.962  1.00  0.00     0.033 C 
ATOM     13  C   UNL A   1      32.227  25.446  21.892  1.00  0.00     0.009 C 
ENDBRANCH   7  12
BRANCH   9  14
ATOM     14  S   UNL A   1      31.642  23.623  26.327  1.00  0.00     0.262 S 
ATOM     15  O   UNL A   1      30.389  23.171  25.783  1.00  0.00    -0.201 OA
ATOM     16  O   UNL A   1      32.196  22.961  27.503  1.00  0.00    -0.201 OA
BRANCH  14  17
ATOM     17  N   UNL A   1      31.473  25.204  26.802  1.00  0.00    -0.277 N 
ATOM     18  H   UNL A   1      31.077  25.350  27.692  1.00  0.00     0.180 HD
BRANCH  17  19
ATOM     19  C   UNL A   1      31.834  26.373  26.075  1.00  0.00     0.088 A 
ATOM     20  C   UNL A   1      33.192  26.731  26.171  1.00  0.00     0.033 A 
ATOM     21  C   UNL A   1      31.018  27.053  25.165  1.00  0.00     0.185 A 
ATOM     22  C   UNL A   1      33.742  27.670  25.297  1.00  0.00     0.045 A 
ATOM     23  C   UNL A   1      31.564  28.009  24.315  1.00  0.00     0.196 A 
ATOM     24  F   UNL A   1      29.722  26.749  25.029  1.00  0.00    -0.201 F 
ATOM     25  C   UNL A   1      32.924  28.291  24.363  1.00  0.00     0.162 A 
ATOM     26  F   UNL A   1      30.790  28.610  23.401  1.00  0.00    -0.200 F 
ATOM     27  F   UNL A   1      33.468  29.140  23.482  1.00  0.00    -0.204 F 
ENDBRANCH  17  19
ENDBRANCH  14  17
ENDBRANCH   9  14
ENDBRANCH   3   6
ENDBRANCH   1   2
BRANCH   1  28
ATOM     28  C   UNL A   1      38.204  19.388  24.952  1.00  0.00     0.042 C 
BRANCH  28  29
ATOM     29  C   UNL A   1      39.256  19.856  25.953  1.00  0.00     0.118 C 
BRANCH  29  30
ATOM     30  N   UNL A   1      40.497  19.104  25.834  1.00  0.00    -0.352 N 
ATOM     31  C   UNL A   1      41.789  19.545  25.963  1.00  0.00     0.251 C 
ATOM     32  H   UNL A   1      40.394  18.146  25.631  1.00  0.00     0.163 HD
ATOM     33  O   UNL A   1      42.721  18.821  25.626  1.00  0.00    -0.269 OA
BRANCH  31  34
ATOM     34  C   UNL A   1      42.058  20.893  26.502  1.00  0.00     0.039 A 
ATOM     35  C   UNL A   1      42.439  21.907  25.619  1.00  0.00     0.014 A 
ATOM     36  C   UNL A   1      41.971  21.149  27.874  1.00  0.00     0.014 A 
ATOM     37  C   UNL A   1      42.697  23.189  26.109  1.00  0.00     0.010 A 
ATOM     38  C   UNL A   1      42.164  22.441  28.352  1.00  0.00     0.010 A 
ATOM     39  C   UNL A   1      42.545  23.469  27.476  1.00  0.00    -0.014 A 
BRANCH  39  40
ATOM     40  C   UNL A   1      42.814  24.825  28.016  1.00  0.00     0.031 A 
ATOM     41  C   UNL A   1      44.207  25.197  28.443  1.00  0.00     0.074 A 
ATOM     42  C   UNL A   1      41.798  25.694  28.174  1.00  0.00     0.049 A 
ATOM     43  N   UNL A   1      44.632  26.298  29.010  1.00  0.00    -0.248 NA
ATOM     44  C   UNL A   1      45.258  24.188  28.228  1.00  0.00     0.031 C 
ATOM     45  C   UNL A   1      40.398  25.433  27.838  1.00  0.00     0.029 A 
ATOM     46  N   UNL A   1      41.788  26.972  28.672  1.00  0.00    -0.354 N 
ATOM     47  C   UNL A   1      45.989  26.105  29.238  1.00  0.00     0.074 A 
ATOM     48  C   UNL A   1      46.308  24.767  28.791  1.00  0.00     0.031 C 
ATOM     49  C   UNL A   1      39.668  26.523  28.123  1.00  0.00     0.029 A 
ATOM     50  C   UNL A   1      40.539  27.545  28.693  1.00  0.00     0.049 A 
ATOM     51  H   UNL A   1      42.598  27.435  28.985  1.00  0.00     0.167 HD
ATOM     52  C   UNL A   1      46.891  26.972  29.753  1.00  0.00     0.037 A 
ATOM     53  C   UNL A   1      40.144  28.755  29.131  1.00  0.00     0.037 A 
ATOM     54  C   UNL A   1      46.577  28.315  30.163  1.00  0.00     0.049 A 
ATOM     55  C   UNL A   1      41.168  29.704  29.688  1.00  0.00     0.074 A 
ATOM     56  C   UNL A   1      47.430  29.293  30.644  1.00  0.00     0.029 A 
ATOM     57  N   UNL A   1      45.306  28.869  30.137  1.00  0.00    -0.354 N 
ATOM     58  N   UNL A   1      42.459  29.530  29.842  1.00  0.00    -0.248 NA
ATOM     59  C   UNL A   1      40.683  31.021  30.123  1.00  0.00     0.031 C 
ATOM     60  C   UNL A   1      46.670  30.428  30.941  1.00  0.00     0.029 A 
ATOM     61  C   UNL A   1      45.350  30.172  30.605  1.00  0.00     0.049 A 
ATOM     62  H   UNL A   1      44.493  28.406  29.831  1.00  0.00     0.167 HD
ATOM     63  C   UNL A   1      42.944  30.723  30.360  1.00  0.00     0.074 A 
ATOM     64  C   UNL A   1      41.811  31.617  30.484  1.00  0.00     0.031 C 
ATOM     65  C   UNL A   1      44.214  31.051  30.703  1.00  0.00     0.037 A 
BRANCH  52  66
ATOM     66  C   UNL A   1      48.308  26.498  29.894  1.00  0.00     0.057 A 
ATOM     67  C   UNL A   1      49.271  26.744  28.906  1.00  0.00     0.134 A 
ATOM     68  C   UNL A   1      48.726  25.823  31.048  1.00  0.00     0.134 A 
ATOM     69  F   UNL A   1      48.935  27.375  27.771  1.00  0.00    -0.206 F 
ATOM     70  C   UNL A   1      50.591  26.315  29.050  1.00  0.00     0.040 A 
ATOM     71  C   UNL A   1      50.049  25.412  31.215  1.00  0.00     0.040 A 
ATOM     72  F   UNL A   1      47.857  25.560  32.036  1.00  0.00    -0.206 F 
ATOM     73  C   UNL A   1      50.985  25.652  30.212  1.00  0.00     0.006 A 
ENDBRANCH  52  66
BRANCH  53  74
ATOM     74  C   UNL A   1      38.716  29.149  29.040  1.00  0.00     0.057 A 
ATOM     75  C   UNL A   1      37.871  29.061  30.152  1.00  0.00     0.134 A 
ATOM     76  C   UNL A   1      38.158  29.608  27.841  1.00  0.00     0.134 A 
ATOM     77  F   UNL A   1      38.344  28.611  31.325  1.00  0.00    -0.206 F 
ATOM     78  C   UNL A   1      36.518  29.393  30.072  1.00  0.00     0.040 A 
ATOM     79  C   UNL A   1      36.812  29.968  27.753  1.00  0.00     0.040 A 
ATOM     80  F   UNL A   1      38.916  29.723  26.741  1.00  0.00    -0.206 F 
ATOM     81  C   UNL A   1      35.987  29.852  28.869  1.00  0.00     0.006 A 
ENDBRANCH  53  74
BRANCH  65  82
ATOM     82  C   UNL A   1      44.452  32.446  31.200  1.00  0.00     0.057 A 
ATOM     83  C   UNL A   1      44.419  32.761  32.564  1.00  0.00     0.134 A 
ATOM     84  C   UNL A   1      44.758  33.477  30.303  1.00  0.00     0.134 A 
ATOM     85  F   UNL A   1      44.119  31.821  33.472  1.00  0.00    -0.206 F 
ATOM     86  C   UNL A   1      44.661  34.060  33.016  1.00  0.00     0.040 A 
ATOM     87  C   UNL A   1      45.026  34.772  30.744  1.00  0.00     0.040 A 
ATOM     88  F   UNL A   1      44.814  33.237  28.984  1.00  0.00    -0.206 F 
ATOM     89  C   UNL A   1      44.973  35.067  32.105  1.00  0.00     0.006 A 
ENDBRANCH  65  82
ENDBRANCH  39  40
ENDBRANCH  31  34
ENDBRANCH  29  30
ENDBRANCH  28  29
ENDBRANCH   1  28
TORSDOF 14
ENDMDL
MODEL 2
REMARK VINA RESULT:     -11.9      1.731      6.393
REMARK SMILES CCc1ccc(C(=O)NCCCNC(=O)c2ccc(-c3c4nc(c(-c5c(F)cccc5F)c5ccc([nH]5)c(-c5c(F)cccc5F)c5nc(c(-c6c(F)cccc6F)c6ccc3[nH]6)C=C5)C=C4)cc2)cc1S(=O)(=O)Nc1ccc(F)c(F)c1F
REMARK SMILES IDX 10 1 9 2 7 3 8 4 6 6 3 7 4 8 71 9 5 10 70 11 2 12 1 13 72 14
REMARK SMILES IDX 73 15 74 16 75 17 76 19 77 20 83 21 78 22 81 23 84 24 79 25
REMARK SMILES IDX 82 26 80 27 11 28 12 29 13 30 14 31 15 33 16 34 17 35 69 36
REMARK SMILES IDX 18 37 68 38 19 39 20 40 21 41 62 42 22 43 67 44 61 45 63 46
REMARK SMILES IDX 23 47 66 48 60 49 59 50 24 52 50 53 33 54 49 55 34 56 37 57
REMARK SMILES IDX 48 58 64 59 35 60 36 61 47 63 65 64 38 65 25 66 26 67 31 68
REMARK SMILES IDX 27 69 28 70 30 71 32 72 29 73 51 74 52 75 57 76 53 77 54 78
REMARK SMILES IDX 56 79 58 80 55 81 39 82 40 83 45 84 41 85 42 86 44 87 46 88
REMARK SMILES IDX 43 89
REMARK H PARENT 9 5 75 18 13 32 63 51 37 62
REMARK Flexibility Score: inf
ROOT
ATOM      1  C   UNL A   1      37.079  20.665  24.814  1.00  0.00     0.118 C 
ENDROOT
BRANCH   1   2
ATOM      2  N   UNL A   1      37.533  21.895  25.442  1.00  0.00    -0.352 N 
ATOM      3  C   UNL A   1      36.897  23.080  25.701  1.00  0.00     0.251 C 
ATOM      4  O   UNL A   1      37.552  24.013  26.160  1.00  0.00    -0.269 OA
ATOM      5  H   UNL A   1      38.472  21.872  25.737  1.00  0.00     0.163 HD
BRANCH   3   6
ATOM      6  C   UNL A   1      35.426  23.203  25.595  1.00  0.00     0.041 A 
ATOM      7  C   UNL A   1      32.617  22.851  25.575  1.00  0.00    -0.028 A 
ATOM      8  C   UNL A   1      33.347  22.979  26.779  1.00  0.00     0.006 A 
ATOM      9  C   UNL A   1      33.312  23.076  24.366  1.00  0.00     0.091 A 
ATOM     10  C   UNL A   1      34.726  23.150  26.793  1.00  0.00     0.014 A 
ATOM     11  C   UNL A   1      34.716  23.271  24.398  1.00  0.00     0.036 A 
BRANCH   7  12
ATOM     12  C   UNL A   1      31.222  22.290  25.735  1.00  0.00     0.033 C 
ATOM     13  C   UNL A   1      30.347  22.992  26.774  1.00  0.00     0.009 C 
ENDBRANCH   7  12
BRANCH   9  14
ATOM     14  S   UNL A   1      32.690  23.042  22.681  1.00  0.00     0.262 S 
ATOM     15  O   UNL A   1      33.724  23.539  21.812  1.00  0.00    -0.201 OA
ATOM     16  O   UNL A   1      32.195  21.681  22.504  1.00  0.00    -0.201 OA
BRANCH  14  17
ATOM     17  N   UNL A   1      31.338  23.985  22.489  1.00  0.00    -0.277 N 
ATOM     18  H   UNL A   1      30.575  23.562  22.032  1.00  0.00     0.180 HD
BRANCH  17  19
ATOM     19  C   UNL A   1      31.152  25.332  22.908  1.00  0.00     0.088 A 
ATOM     20  C   UNL A   1      30.391  25.485  24.082  1.00  0.00     0.033 A 
ATOM     21  C   UNL A   1      31.797  26.451  22.369  1.00  0.00     0.185 A 
ATOM     22  C   UNL A   1      30.369  26.704  24.760  1.00  0.00     0.045 A 
ATOM     23  C   UNL A   1      31.748  27.672  23.034  1.00  0.00     0.196 A 
ATOM     24  F   UNL A   1      32.538  26.361  21.259  1.00  0.00    -0.201 F 
ATOM     25  C   UNL A   1      31.063  27.786  24.237  1.00  0.00     0.162 A 
ATOM     26  F   UNL A   1      32.421  28.724  22.547  1.00  0.00    -0.200 F 
ATOM     27  F   UNL A   1      31.095  28.934  24.926  1.00  0.00    -0.204 F 
ENDBRANCH  17  19
ENDBRANCH  14  17
ENDBRANCH   9  14
ENDBRANCH   3   6
ENDBRANCH   1   2
BRANCH   1  28
ATOM     28  C   UNL A   1      38.143  19.581  24.971  1.00  0.00     0.042 C 
BRANCH  28  29
ATOM     29  C   UNL A   1      39.219  19.957  25.987  1.00  0.00     0.118 C 
BRANCH  29  30
ATOM     30  N   UNL A   1      40.350  19.042  25.948  1.00  0.00    -0.352 N 
ATOM     31  C   UNL A   1      41.690  19.321  26.032  1.00  0.00     0.251 C 
ATOM     32  H   UNL A   1      40.121  18.090  25.846  1.00  0.00     0.163 HD
ATOM     33  O   UNL A   1      42.516  18.452  25.774  1.00  0.00    -0.269 OA
BRANCH  31  34
ATOM     34  C   UNL A   1      42.138  20.672  26.429  1.00  0.00     0.039 A 
ATOM     35  C   UNL A   1      42.216  20.982  27.789  1.00  0.00     0.014 A 
ATOM     36  C   UNL A   1      42.446  21.638  25.467  1.00  0.00     0.014 A 
ATOM     37  C   UNL A   1      42.637  22.253  28.186  1.00  0.00     0.010 A 
ATOM     38  C   UNL A   1      42.928  22.881  25.863  1.00  0.00     0.010 A 
ATOM     39  C   UNL A   1      43.013  23.206  27.226  1.00  0.00    -0.014 A 
BRANCH  39  40
ATOM     40  C   UNL A   1      43.464  24.561  27.626  1.00  0.00     0.031 A 
ATOM     41  C   UNL A   1      42.451  25.602  28.018  1.00  0.00     0.074 A 
ATOM     42  C   UNL A   1      44.773  24.870  27.582  1.00  0.00     0.049 A 
ATOM     43  N   UNL A   1      42.634  26.861  28.322  1.00  0.00    -0.248 NA
ATOM     44  C   UNL A   1      41.041  25.177  28.045  1.00  0.00     0.031 C 
ATOM     45  C   UNL A   1      45.846  23.959  27.177  1.00  0.00     0.029 A 
ATOM     46  N   UNL A   1      45.423  26.043  27.869  1.00  0.00    -0.354 N 
ATOM     47  C   UNL A   1      41.367  27.381  28.555  1.00  0.00     0.074 A 
ATOM     48  C   UNL A   1      40.420  26.316  28.312  1.00  0.00     0.031 C 
ATOM     49  C   UNL A   1      47.021  24.602  27.258  1.00  0.00     0.029 A 
ATOM     50  C   UNL A   1      46.784  25.977  27.686  1.00  0.00     0.049 A 
ATOM     51  H   UNL A   1      44.960  26.855  28.176  1.00  0.00     0.167 HD
ATOM     52  C   UNL A   1      41.026  28.629  28.955  1.00  0.00     0.037 A 
ATOM     53  C   UNL A   1      47.729  26.923  27.839  1.00  0.00     0.037 A 
ATOM     54  C   UNL A   1      41.973  29.676  29.230  1.00  0.00     0.049 A 
ATOM     55  C   UNL A   1      47.324  28.297  28.296  1.00  0.00     0.074 A 
ATOM     56  C   UNL A   1      41.734  30.957  29.696  1.00  0.00     0.029 A 
ATOM     57  N   UNL A   1      43.345  29.560  29.065  1.00  0.00    -0.354 N 
ATOM     58  N   UNL A   1      46.128  28.758  28.571  1.00  0.00    -0.248 NA
ATOM     59  C   UNL A   1      48.402  29.281  28.474  1.00  0.00     0.031 C 
ATOM     60  C   UNL A   1      42.957  31.627  29.781  1.00  0.00     0.029 A 
ATOM     61  C   UNL A   1      43.964  30.750  29.408  1.00  0.00     0.049 A 
ATOM     62  H   UNL A   1      43.810  28.751  28.750  1.00  0.00     0.167 HD
ATOM     63  C   UNL A   1      46.312  30.071  28.984  1.00  0.00     0.074 A 
ATOM     64  C   UNL A   1      47.736  30.330  28.934  1.00  0.00     0.031 C 
ATOM     65  C   UNL A   1      45.384  30.982  29.369  1.00  0.00     0.037 A 
BRANCH  52  66
ATOM     66  C   UNL A   1      39.565  28.927  29.129  1.00  0.00     0.057 A 
ATOM     67  C   UNL A   1      38.766  29.353  28.060  1.00  0.00     0.134 A 
ATOM     68  C   UNL A   1      38.940  28.748  30.370  1.00  0.00     0.134 A 
ATOM     69  F   UNL A   1      39.304  29.556  26.848  1.00  0.00    -0.206 F 
ATOM     70  C   UNL A   1      37.405  29.613  28.224  1.00  0.00     0.040 A 
ATOM     71  C   UNL A   1      37.575  28.981  30.540  1.00  0.00     0.040 A 
ATOM     72  F   UNL A   1      39.645  28.336  31.435  1.00  0.00    -0.206 F 
ATOM     73  C   UNL A   1      36.804  29.420  29.467  1.00  0.00     0.006 A 
ENDBRANCH  52  66
BRANCH  53  74
ATOM     74  C   UNL A   1      49.155  26.600  27.581  1.00  0.00     0.057 A 
ATOM     75  C   UNL A   1      49.702  26.726  26.299  1.00  0.00     0.134 A 
ATOM     76  C   UNL A   1      49.998  26.145  28.601  1.00  0.00     0.134 A 
ATOM     77  F   UNL A   1      48.938  27.141  25.277  1.00  0.00    -0.206 F 
ATOM     78  C   UNL A   1      51.030  26.391  26.034  1.00  0.00     0.040 A 
ATOM     79  C   UNL A   1      51.336  25.830  28.355  1.00  0.00     0.040 A 
ATOM     80  F   UNL A   1      49.537  26.009  29.853  1.00  0.00    -0.206 F 
ATOM     81  C   UNL A   1      51.852  25.944  27.067  1.00  0.00     0.006 A 
ENDBRANCH  53  74
BRANCH  65  82
ATOM     82  C   UNL A   1      45.885  32.324  29.811  1.00  0.00     0.057 A 
ATOM     83  C   UNL A   1      46.247  32.578  31.140  1.00  0.00     0.134 A 
ATOM     84  C   UNL A   1      46.046  33.362  28.885  1.00  0.00     0.134 A 
ATOM     85  F   UNL A   1      46.103  31.629  32.077  1.00  0.00    -0.206 F 
ATOM     86  C   UNL A   1      46.730  33.827  31.536  1.00  0.00     0.040 A 
ATOM     87  C   UNL A   1      46.552  34.606  29.264  1.00  0.00     0.040 A 
ATOM     88  F   UNL A   1      45.727  33.180  27.595  1.00  0.00    -0.206 F 
ATOM     89  C   UNL A   1      46.890  34.842  30.594  1.00  0.00     0.006 A 
ENDBRANCH  65  82
ENDBRANCH  39  40
ENDBRANCH  31  34
ENDBRANCH  29  30
ENDBRANCH  28  29
ENDBRANCH   1  28
TORSDOF 14
ENDMDL
MODEL 3
REMARK VINA RESULT:     -11.9      1.242      6.255
REMARK SMILES CCc1ccc(C(=O)NCCCNC(=O)c2ccc(-c3c4nc(c(-c5c(F)cccc5F)c5ccc([nH]5)c(-c5c(F)cccc5F)c5nc(c(-c6c(F)cccc6F)c6ccc3[nH]6)C=C5)C=C4)cc2)cc1S(=O)(=O)Nc1ccc(F)c(F)c1F
REMARK SMILES IDX 10 1 9 2 7 3 8 4 6 6 3 7 4 8 71 9 5 10 70 11 2 12 1 13 72 14
REMARK SMILES IDX 73 15 74 16 75 17 76 19 77 20 83 21 78 22 81 23 84 24 79 25
REMARK SMILES IDX 82 26 80 27 11 28 12 29 13 30 14 31 15 33 16 34 17 35 69 36
REMARK SMILES IDX 18 37 68 38 19 39 20 40 21 41 62 42 22 43 67 44 61 45 63 46
REMARK SMILES IDX 23 47 66 48 60 49 59 50 24 52 50 53 33 54 49 55 34 56 37 57
REMARK SMILES IDX 48 58 64 59 35 60 36 61 47 63 65 64 38 65 25 66 26 67 31 68
REMARK SMILES IDX 27 69 28 70 30 71 32 72 29 73 51 74 52 75 57 76 53 77 54 78
REMARK SMILES IDX 56 79 58 80 55 81 39 82 40 83 45 84 41 85 42 86 44 87 46 88
REMARK SMILES IDX 43 89
REMARK H PARENT 9 5 75 18 13 32 63 51 37 62
REMARK Flexibility Score: inf
ROOT
ATOM      1  C   UNL A   1      36.867  20.202  24.995  1.00  0.00     0.118 C 
ENDROOT
BRANCH   1   2
ATOM      2  N   UNL A   1      37.238  21.506  25.518  1.00  0.00    -0.352 N 
ATOM      3  C   UNL A   1      36.659  22.741  25.394  1.00  0.00     0.251 C 
ATOM      4  O   UNL A   1      37.243  23.716  25.861  1.00  0.00    -0.269 OA
ATOM      5  H   UNL A   1      38.057  21.501  26.064  1.00  0.00     0.163 HD
BRANCH   3   6
ATOM      6  C   UNL A   1      35.286  22.897  24.863  1.00  0.00     0.041 A 
ATOM      7  C   UNL A   1      32.854  23.757  23.698  1.00  0.00    -0.028 A 
ATOM      8  C   UNL A   1      33.985  23.428  22.915  1.00  0.00     0.006 A 
ATOM      9  C   UNL A   1      32.918  23.480  25.082  1.00  0.00     0.091 A 
ATOM     10  C   UNL A   1      35.180  23.007  23.483  1.00  0.00     0.014 A 
ATOM     11  C   UNL A   1      34.139  23.029  25.643  1.00  0.00     0.036 A 
BRANCH   7  12
ATOM     12  C   UNL A   1      31.791  24.554  22.976  1.00  0.00     0.033 C 
ATOM     13  C   UNL A   1      32.308  25.542  21.930  1.00  0.00     0.009 C 
ENDBRANCH   7  12
BRANCH   9  14
ATOM     14  S   UNL A   1      31.663  23.724  26.343  1.00  0.00     0.262 S 
ATOM     15  O   UNL A   1      30.384  23.395  25.771  1.00  0.00    -0.201 OA
ATOM     16  O   UNL A   1      32.152  22.971  27.492  1.00  0.00    -0.201 OA
BRANCH  14  17
ATOM     17  N   UNL A   1      31.613  25.291  26.886  1.00  0.00    -0.277 N 
ATOM     18  H   UNL A   1      31.378  25.415  27.835  1.00  0.00     0.180 HD
BRANCH  17  19
ATOM     19  C   UNL A   1      31.870  26.478  26.143  1.00  0.00     0.088 A 
ATOM     20  C   UNL A   1      33.200  26.934  26.202  1.00  0.00     0.033 A 
ATOM     21  C   UNL A   1      30.985  27.088  25.248  1.00  0.00     0.185 A 
ATOM     22  C   UNL A   1      33.659  27.903  25.309  1.00  0.00     0.045 A 
ATOM     23  C   UNL A   1      31.439  28.074  24.378  1.00  0.00     0.196 A 
ATOM     24  F   UNL A   1      29.711  26.689  25.146  1.00  0.00    -0.201 F 
ATOM     25  C   UNL A   1      32.776  28.454  24.391  1.00  0.00     0.162 A 
ATOM     26  F   UNL A   1      30.602  28.610  23.479  1.00  0.00    -0.200 F 
ATOM     27  F   UNL A   1      33.236  29.333  23.492  1.00  0.00    -0.204 F 
ENDBRANCH  17  19
ENDBRANCH  14  17
ENDBRANCH   9  14
ENDBRANCH   3   6
ENDBRANCH   1   2
BRANCH   1  28
ATOM     28  C   UNL A   1      38.084  19.279  24.999  1.00  0.00     0.042 C 
BRANCH  28  29
ATOM     29  C   UNL A   1      39.261  19.862  25.775  1.00  0.00     0.118 C 
BRANCH  29  30
ATOM     30  N   UNL A   1      40.353  18.909  25.910  1.00  0.00    -0.352 N 
ATOM     31  C   UNL A   1      41.684  19.146  26.140  1.00  0.00     0.251 C 
ATOM     32  H   UNL A   1      40.100  17.961  25.822  1.00  0.00     0.163 HD
ATOM     33  O   UNL A   1      42.499  18.238  26.019  1.00  0.00    -0.269 OA
BRANCH  31  34
ATOM     34  C   UNL A   1      42.135  20.498  26.529  1.00  0.00     0.039 A 
ATOM     35  C   UNL A   1      42.566  21.375  25.530  1.00  0.00     0.014 A 
ATOM     36  C   UNL A   1      42.166  20.887  27.871  1.00  0.00     0.014 A 
ATOM     37  C   UNL A   1      42.997  22.658  25.876  1.00  0.00     0.010 A 
ATOM     38  C   UNL A   1      42.532  22.186  28.208  1.00  0.00     0.010 A 
ATOM     39  C   UNL A   1      42.966  23.078  27.215  1.00  0.00    -0.014 A 
BRANCH  39  40
ATOM     40  C   UNL A   1      43.418  24.437  27.603  1.00  0.00     0.031 A 
ATOM     41  C   UNL A   1      42.406  25.478  27.999  1.00  0.00     0.074 A 
ATOM     42  C   UNL A   1      44.726  24.749  27.544  1.00  0.00     0.049 A 
ATOM     43  N   UNL A   1      42.589  26.739  28.295  1.00  0.00    -0.248 NA
ATOM     44  C   UNL A   1      40.998  25.049  28.044  1.00  0.00     0.031 C 
ATOM     45  C   UNL A   1      45.796  23.838  27.133  1.00  0.00     0.029 A 
ATOM     46  N   UNL A   1      45.376  25.925  27.817  1.00  0.00    -0.354 N 
ATOM     47  C   UNL A   1      41.324  27.257  28.538  1.00  0.00     0.074 A 
ATOM     48  C   UNL A   1      40.377  26.188  28.311  1.00  0.00     0.031 C 
ATOM     49  C   UNL A   1      46.971  24.485  27.198  1.00  0.00     0.029 A 
ATOM     50  C   UNL A   1      46.735  25.862  27.621  1.00  0.00     0.049 A 
ATOM     51  H   UNL A   1      44.914  26.738  28.125  1.00  0.00     0.167 HD
ATOM     52  C   UNL A   1      40.983  28.506  28.935  1.00  0.00     0.037 A 
ATOM     53  C   UNL A   1      47.679  26.811  27.759  1.00  0.00     0.037 A 
ATOM     54  C   UNL A   1      41.930  29.557  29.194  1.00  0.00     0.049 A 
ATOM     55  C   UNL A   1      47.275  28.186  28.212  1.00  0.00     0.074 A 
ATOM     56  C   UNL A   1      41.692  30.840  29.655  1.00  0.00     0.029 A 
ATOM     57  N   UNL A   1      43.301  29.443  29.015  1.00  0.00    -0.354 N 
ATOM     58  N   UNL A   1      46.081  28.646  28.497  1.00  0.00    -0.248 NA
ATOM     59  C   UNL A   1      48.352  29.174  28.374  1.00  0.00     0.031 C 
ATOM     60  C   UNL A   1      42.915  31.514  29.723  1.00  0.00     0.029 A 
ATOM     61  C   UNL A   1      43.921  30.637  29.345  1.00  0.00     0.049 A 
ATOM     62  H   UNL A   1      43.765  28.634  28.700  1.00  0.00     0.167 HD
ATOM     63  C   UNL A   1      46.265  29.961  28.900  1.00  0.00     0.074 A 
ATOM     64  C   UNL A   1      47.688  30.224  28.835  1.00  0.00     0.031 C 
ATOM     65  C   UNL A   1      45.339  30.872  29.290  1.00  0.00     0.037 A 
BRANCH  52  66
ATOM     66  C   UNL A   1      39.523  28.801  29.122  1.00  0.00     0.057 A 
ATOM     67  C   UNL A   1      38.894  28.655  30.365  1.00  0.00     0.134 A 
ATOM     68  C   UNL A   1      38.746  29.276  28.057  1.00  0.00     0.134 A 
ATOM     69  F   UNL A   1      39.578  28.194  31.423  1.00  0.00    -0.206 F 
ATOM     70  C   UNL A   1      37.540  28.946  30.537  1.00  0.00     0.040 A 
ATOM     71  C   UNL A   1      37.398  29.595  28.223  1.00  0.00     0.040 A 
ATOM     72  F   UNL A   1      39.287  29.445  26.841  1.00  0.00    -0.206 F 
ATOM     73  C   UNL A   1      36.790  29.425  29.464  1.00  0.00     0.006 A 
ENDBRANCH  52  66
BRANCH  53  74
ATOM     74  C   UNL A   1      49.103  26.490  27.488  1.00  0.00     0.057 A 
ATOM     75  C   UNL A   1      49.653  26.670  26.214  1.00  0.00     0.134 A 
ATOM     76  C   UNL A   1      49.942  25.984  28.487  1.00  0.00     0.134 A 
ATOM     77  F   UNL A   1      48.892  27.136  25.211  1.00  0.00    -0.206 F 
ATOM     78  C   UNL A   1      50.979  26.338  25.935  1.00  0.00     0.040 A 
ATOM     79  C   UNL A   1      51.278  25.671  28.229  1.00  0.00     0.040 A 
ATOM     80  F   UNL A   1      49.478  25.795  29.731  1.00  0.00    -0.206 F 
ATOM     81  C   UNL A   1      51.796  25.839  26.947  1.00  0.00     0.006 A 
ENDBRANCH  53  74
BRANCH  65  82
ATOM     82  C   UNL A   1      45.841  32.219  29.720  1.00  0.00     0.057 A 
ATOM     83  C   UNL A   1      45.974  33.281  28.818  1.00  0.00     0.134 A 
ATOM     84  C   UNL A   1      46.155  32.464  31.063  1.00  0.00     0.134 A 
ATOM     85  F   UNL A   1      45.702  33.106  27.516  1.00  0.00    -0.206 F 
ATOM     86  C   UNL A   1      46.424  34.536  29.233  1.00  0.00     0.040 A 
ATOM     87  C   UNL A   1      46.581  33.720  31.494  1.00  0.00     0.040 A 
ATOM     88  F   UNL A   1      46.040  31.490  31.978  1.00  0.00    -0.206 F 
ATOM     89  C   UNL A   1      46.722  34.759  30.577  1.00  0.00     0.006 A 
ENDBRANCH  65  82
ENDBRANCH  39  40
ENDBRANCH  31  34
ENDBRANCH  29  30
ENDBRANCH  28  29
ENDBRANCH   1  28
TORSDOF 14
ENDMDL
