MODEL 1
REMARK VINA RESULT:     -11.8      0.000      0.000
REMARK SMILES O=C(C[NH+]1CCN(c2nccc(N3CCCCC3)n2)CC1)NCCCNC(=O)c1ccc(-c2c3nc(c(-c4c(F)cccc4F)c4ccc([nH]4)c(-c4c(F)cccc4F)c4nc(c(-c5c(F)cccc5F)c5ccc2[nH]5)C=C4)C=C3)cc1
REMARK SMILES IDX 23 1 22 2 1 3 2 4 3 6 4 7 5 8 21 9 6 11 20 12 7 13 8 14 9 15
REMARK SMILES IDX 19 16 10 17 12 18 11 19 13 20 14 21 18 22 15 23 17 24 16 25
REMARK SMILES IDX 24 26 25 27 26 28 27 29 28 31 29 32 30 33 82 34 31 35 81 36
REMARK SMILES IDX 32 37 33 38 34 39 75 40 35 41 80 42 74 43 76 44 36 45 79 46
REMARK SMILES IDX 73 47 72 48 37 50 63 51 46 52 62 53 47 54 50 55 61 56 77 57
REMARK SMILES IDX 48 58 49 59 60 61 78 62 51 63 38 64 39 65 44 66 40 67 41 68
REMARK SMILES IDX 43 69 45 70 42 71 64 72 65 73 70 74 66 75 67 76 69 77 71 78
REMARK SMILES IDX 68 79 52 80 53 81 58 82 54 83 55 84 57 85 59 86 56 87
REMARK H PARENT 22 5 4 10 26 30 76 49 50 60
REMARK Flexibility Score: inf
ROOT
ATOM      1  C   UNL A   1      32.605  30.040  25.742  1.00  0.00     0.118 C 
ENDROOT
BRANCH   1   2
ATOM      2  N   UNL A   1      32.246  29.562  24.422  1.00  0.00    -0.351 N 
ATOM      3  O   UNL A   1      31.277  27.631  25.198  1.00  0.00    -0.269 OA
ATOM      4  C   UNL A   1      31.557  28.373  24.261  1.00  0.00     0.275 C 
ATOM      5  H   UNL A   1      32.496  30.090  23.630  1.00  0.00     0.163 HD
BRANCH   4   6
ATOM      6  C   UNL A   1      31.157  28.075  22.815  1.00  0.00     0.363 C 
BRANCH   6   7
ATOM      7  N   UNL A   1      32.176  27.400  21.988  1.00  0.00    -0.324 N 
ATOM      8  C   UNL A   1      33.498  27.137  22.588  1.00  0.00     0.284 C 
ATOM      9  C   UNL A   1      31.676  26.173  21.341  1.00  0.00     0.284 C 
ATOM     10  H   UNL A   1      32.351  28.127  21.295  1.00  0.00     0.348 HD
ATOM     11  C   UNL A   1      33.627  25.884  23.491  1.00  0.00     0.181 C 
ATOM     12  C   UNL A   1      31.607  24.950  22.273  1.00  0.00     0.181 C 
ATOM     13  N   UNL A   1      32.867  24.761  22.970  1.00  0.00    -0.329 N 
BRANCH  13  14
ATOM     14  C   UNL A   1      33.160  23.504  23.432  1.00  0.00     0.227 A 
ATOM     15  N   UNL A   1      32.263  22.523  23.270  1.00  0.00    -0.221 NA
ATOM     16  N   UNL A   1      34.314  23.350  24.091  1.00  0.00    -0.196 NA
ATOM     17  C   UNL A   1      32.579  21.326  23.797  1.00  0.00     0.119 A 
ATOM     18  C   UNL A   1      34.573  22.160  24.652  1.00  0.00     0.134 A 
ATOM     19  C   UNL A   1      33.739  21.082  24.482  1.00  0.00     0.067 A 
BRANCH  18  20
ATOM     20  N   UNL A   1      35.623  22.067  25.540  1.00  0.00    -0.356 N 
ATOM     21  C   UNL A   1      36.032  23.292  26.214  1.00  0.00     0.118 C 
ATOM     22  C   UNL A   1      36.513  20.923  25.516  1.00  0.00     0.118 C 
ATOM     23  C   UNL A   1      37.425  23.717  25.772  1.00  0.00     0.022 C 
ATOM     24  C   UNL A   1      37.917  21.354  25.087  1.00  0.00     0.022 C 
ATOM     25  C   UNL A   1      38.409  22.556  25.893  1.00  0.00     0.004 C 
ENDBRANCH  18  20
ENDBRANCH  13  14
ENDBRANCH   6   7
ENDBRANCH   4   6
ENDBRANCH   1   2
BRANCH   1  26
ATOM     26  C   UNL A   1      34.004  29.621  26.175  1.00  0.00     0.042 C 
BRANCH  26  27
ATOM     27  C   UNL A   1      34.165  29.319  27.664  1.00  0.00     0.118 C 
BRANCH  27  28
ATOM     28  N   UNL A   1      34.454  30.490  28.470  1.00  0.00    -0.352 N 
ATOM     29  C   UNL A   1      35.615  30.887  29.087  1.00  0.00     0.251 C 
ATOM     30  H   UNL A   1      33.692  31.100  28.597  1.00  0.00     0.163 HD
ATOM     31  O   UNL A   1      35.612  31.911  29.765  1.00  0.00    -0.269 OA
BRANCH  29  32
ATOM     32  C   UNL A   1      36.875  30.108  28.976  1.00  0.00     0.039 A 
ATOM     33  C   UNL A   1      37.501  30.066  27.724  1.00  0.00     0.014 A 
ATOM     34  C   UNL A   1      37.432  29.391  30.040  1.00  0.00     0.014 A 
ATOM     35  C   UNL A   1      38.721  29.407  27.568  1.00  0.00     0.010 A 
ATOM     36  C   UNL A   1      38.688  28.794  29.905  1.00  0.00     0.010 A 
ATOM     37  C   UNL A   1      39.357  28.821  28.675  1.00  0.00    -0.014 A 
BRANCH  37  38
ATOM     38  C   UNL A   1      40.762  28.353  28.557  1.00  0.00     0.031 A 
ATOM     39  C   UNL A   1      41.099  26.936  28.199  1.00  0.00     0.074 A 
ATOM     40  C   UNL A   1      41.749  29.233  28.817  1.00  0.00     0.049 A 
ATOM     41  N   UNL A   1      42.275  26.399  27.992  1.00  0.00    -0.248 NA
ATOM     42  C   UNL A   1      39.978  25.993  28.077  1.00  0.00     0.031 C 
ATOM     43  C   UNL A   1      41.551  30.616  29.256  1.00  0.00     0.029 A 
ATOM     44  N   UNL A   1      43.113  29.102  28.743  1.00  0.00    -0.354 N 
ATOM     45  C   UNL A   1      42.040  25.058  27.717  1.00  0.00     0.074 A 
ATOM     46  C   UNL A   1      40.610  24.853  27.829  1.00  0.00     0.031 C 
ATOM     47  C   UNL A   1      42.744  31.219  29.370  1.00  0.00     0.029 A 
ATOM     48  C   UNL A   1      43.792  30.260  29.036  1.00  0.00     0.049 A 
ATOM     49  H   UNL A   1      43.562  28.259  28.504  1.00  0.00     0.167 HD
ATOM     50  C   UNL A   1      42.932  24.093  27.383  1.00  0.00     0.037 A 
ATOM     51  C   UNL A   1      45.110  30.528  29.020  1.00  0.00     0.037 A 
ATOM     52  C   UNL A   1      44.353  24.302  27.267  1.00  0.00     0.049 A 
ATOM     53  C   UNL A   1      46.071  29.454  28.604  1.00  0.00     0.074 A 
ATOM     54  C   UNL A   1      45.331  23.401  26.880  1.00  0.00     0.029 A 
ATOM     55  N   UNL A   1      45.003  25.496  27.543  1.00  0.00    -0.354 N 
ATOM     56  N   UNL A   1      45.824  28.216  28.255  1.00  0.00    -0.248 NA
ATOM     57  C   UNL A   1      47.492  29.823  28.560  1.00  0.00     0.031 C 
ATOM     58  C   UNL A   1      46.575  24.041  26.954  1.00  0.00     0.029 A 
ATOM     59  C   UNL A   1      46.367  25.352  27.348  1.00  0.00     0.049 A 
ATOM     60  H   UNL A   1      44.558  26.326  27.833  1.00  0.00     0.167 HD
ATOM     61  C   UNL A   1      47.054  27.661  27.932  1.00  0.00     0.074 A 
ATOM     62  C   UNL A   1      48.043  28.707  28.105  1.00  0.00     0.031 C 
ATOM     63  C   UNL A   1      47.340  26.399  27.529  1.00  0.00     0.037 A 
BRANCH  50  64
ATOM     64  C   UNL A   1      42.393  22.719  27.110  1.00  0.00     0.057 A 
ATOM     65  C   UNL A   1      42.317  22.205  25.808  1.00  0.00     0.134 A 
ATOM     66  C   UNL A   1      41.988  21.883  28.157  1.00  0.00     0.134 A 
ATOM     67  F   UNL A   1      42.680  22.958  24.758  1.00  0.00    -0.206 F 
ATOM     68  C   UNL A   1      41.837  20.919  25.557  1.00  0.00     0.040 A 
ATOM     69  C   UNL A   1      41.528  20.585  27.921  1.00  0.00     0.040 A 
ATOM     70  F   UNL A   1      42.041  22.308  29.429  1.00  0.00    -0.206 F 
ATOM     71  C   UNL A   1      41.447  20.102  26.617  1.00  0.00     0.006 A 
ENDBRANCH  50  64
BRANCH  51  72
ATOM     72  C   UNL A   1      45.588  31.891  29.356  1.00  0.00     0.057 A 
ATOM     73  C   UNL A   1      45.994  32.213  30.656  1.00  0.00     0.134 A 
ATOM     74  C   UNL A   1      45.663  32.898  28.387  1.00  0.00     0.134 A 
ATOM     75  F   UNL A   1      45.932  31.291  31.629  1.00  0.00    -0.206 F 
ATOM     76  C   UNL A   1      46.440  33.492  30.987  1.00  0.00     0.040 A 
ATOM     77  C   UNL A   1      46.129  34.176  28.698  1.00  0.00     0.040 A 
ATOM     78  F   UNL A   1      45.299  32.648  27.121  1.00  0.00    -0.206 F 
ATOM     79  C   UNL A   1      46.513  34.477  30.003  1.00  0.00     0.006 A 
ENDBRANCH  51  72
BRANCH  63  80
ATOM     80  C   UNL A   1      48.778  26.095  27.229  1.00  0.00     0.057 A 
ATOM     81  C   UNL A   1      49.331  26.316  25.962  1.00  0.00     0.134 A 
ATOM     82  C   UNL A   1      49.617  25.570  28.220  1.00  0.00     0.134 A 
ATOM     83  F   UNL A   1      48.575  26.803  24.965  1.00  0.00    -0.206 F 
ATOM     84  C   UNL A   1      50.660  25.997  25.681  1.00  0.00     0.040 A 
ATOM     85  C   UNL A   1      50.955  25.270  27.959  1.00  0.00     0.040 A 
ATOM     86  F   UNL A   1      49.151  25.341  29.457  1.00  0.00    -0.206 F 
ATOM     87  C   UNL A   1      51.477  25.475  26.682  1.00  0.00     0.006 A 
ENDBRANCH  63  80
ENDBRANCH  37  38
ENDBRANCH  29  32
ENDBRANCH  27  28
ENDBRANCH  26  27
ENDBRANCH   1  26
TORSDOF 13
ENDMDL
MODEL 2
REMARK VINA RESULT:     -11.6      1.368      2.601
REMARK SMILES O=C(C[NH+]1CCN(c2nccc(N3CCCCC3)n2)CC1)NCCCNC(=O)c1ccc(-c2c3nc(c(-c4c(F)cccc4F)c4ccc([nH]4)c(-c4c(F)cccc4F)c4nc(c(-c5c(F)cccc5F)c5ccc2[nH]5)C=C4)C=C3)cc1
REMARK SMILES IDX 23 1 22 2 1 3 2 4 3 6 4 7 5 8 21 9 6 11 20 12 7 13 8 14 9 15
REMARK SMILES IDX 19 16 10 17 12 18 11 19 13 20 14 21 18 22 15 23 17 24 16 25
REMARK SMILES IDX 24 26 25 27 26 28 27 29 28 31 29 32 30 33 82 34 31 35 81 36
REMARK SMILES IDX 32 37 33 38 34 39 75 40 35 41 80 42 74 43 76 44 36 45 79 46
REMARK SMILES IDX 73 47 72 48 37 50 63 51 46 52 62 53 47 54 50 55 61 56 77 57
REMARK SMILES IDX 48 58 49 59 60 61 78 62 51 63 38 64 39 65 44 66 40 67 41 68
REMARK SMILES IDX 43 69 45 70 42 71 64 72 65 73 70 74 66 75 67 76 69 77 71 78
REMARK SMILES IDX 68 79 52 80 53 81 58 82 54 83 55 84 57 85 59 86 56 87
REMARK H PARENT 22 5 4 10 26 30 76 49 50 60
REMARK Flexibility Score: inf
ROOT
ATOM      1  C   UNL A   1      32.030  29.291  26.666  1.00  0.00     0.118 C 
ENDROOT
BRANCH   1   2
ATOM      2  N   UNL A   1      31.493  28.006  26.265  1.00  0.00    -0.351 N 
ATOM      3  O   UNL A   1      30.768  28.755  24.219  1.00  0.00    -0.269 OA
ATOM      4  C   UNL A   1      30.920  27.833  25.017  1.00  0.00     0.275 C 
ATOM      5  H   UNL A   1      31.537  27.245  26.888  1.00  0.00     0.163 HD
BRANCH   4   6
ATOM      6  C   UNL A   1      30.510  26.392  24.712  1.00  0.00     0.363 C 
BRANCH   6   7
ATOM      7  N   UNL A   1      31.123  25.785  23.515  1.00  0.00    -0.324 N 
ATOM      8  C   UNL A   1      32.592  25.825  23.387  1.00  0.00     0.284 C 
ATOM      9  C   UNL A   1      30.644  24.415  23.253  1.00  0.00     0.284 C 
ATOM     10  H   UNL A   1      30.787  26.428  22.799  1.00  0.00     0.348 HD
ATOM     11  C   UNL A   1      33.399  24.748  24.155  1.00  0.00     0.181 C 
ATOM     12  C   UNL A   1      31.290  23.338  24.142  1.00  0.00     0.181 C 
ATOM     13  N   UNL A   1      32.736  23.454  24.126  1.00  0.00    -0.329 N 
BRANCH  13  14
ATOM     14  C   UNL A   1      33.472  22.338  24.431  1.00  0.00     0.227 A 
ATOM     15  N   UNL A   1      34.799  22.448  24.573  1.00  0.00    -0.221 NA
ATOM     16  N   UNL A   1      32.815  21.174  24.497  1.00  0.00    -0.196 NA
ATOM     17  C   UNL A   1      35.475  21.311  24.812  1.00  0.00     0.119 A 
ATOM     18  C   UNL A   1      33.525  20.052  24.680  1.00  0.00     0.134 A 
ATOM     19  C   UNL A   1      34.882  20.080  24.899  1.00  0.00     0.067 A 
BRANCH  18  20
ATOM     20  N   UNL A   1      32.897  18.839  24.495  1.00  0.00    -0.356 N 
ATOM     21  C   UNL A   1      32.636  18.039  25.684  1.00  0.00     0.118 C 
ATOM     22  C   UNL A   1      32.853  18.222  23.184  1.00  0.00     0.118 C 
ATOM     23  C   UNL A   1      33.465  16.763  25.674  1.00  0.00     0.022 C 
ATOM     24  C   UNL A   1      33.673  16.931  23.178  1.00  0.00     0.022 C 
ATOM     25  C   UNL A   1      33.300  16.021  24.350  1.00  0.00     0.004 C 
ENDBRANCH  18  20
ENDBRANCH  13  14
ENDBRANCH   6   7
ENDBRANCH   4   6
ENDBRANCH   1   2
BRANCH   1  26
ATOM     26  C   UNL A   1      33.514  29.446  26.359  1.00  0.00     0.042 C 
BRANCH  26  27
ATOM     27  C   UNL A   1      34.456  29.167  27.529  1.00  0.00     0.118 C 
BRANCH  27  28
ATOM     28  N   UNL A   1      34.715  30.327  28.361  1.00  0.00    -0.352 N 
ATOM     29  C   UNL A   1      35.860  30.732  29.000  1.00  0.00     0.251 C 
ATOM     30  H   UNL A   1      33.941  30.922  28.489  1.00  0.00     0.163 HD
ATOM     31  O   UNL A   1      35.832  31.742  29.698  1.00  0.00    -0.269 OA
BRANCH  29  32
ATOM     32  C   UNL A   1      37.136  29.976  28.891  1.00  0.00     0.039 A 
ATOM     33  C   UNL A   1      37.736  29.903  27.628  1.00  0.00     0.014 A 
ATOM     34  C   UNL A   1      37.729  29.311  29.967  1.00  0.00     0.014 A 
ATOM     35  C   UNL A   1      38.968  29.265  27.470  1.00  0.00     0.010 A 
ATOM     36  C   UNL A   1      38.995  28.736  29.828  1.00  0.00     0.010 A 
ATOM     37  C   UNL A   1      39.639  28.733  28.583  1.00  0.00    -0.014 A 
BRANCH  37  38
ATOM     38  C   UNL A   1      41.051  28.291  28.453  1.00  0.00     0.031 A 
ATOM     39  C   UNL A   1      41.411  26.878  28.105  1.00  0.00     0.074 A 
ATOM     40  C   UNL A   1      42.024  29.194  28.691  1.00  0.00     0.049 A 
ATOM     41  N   UNL A   1      42.596  26.361  27.890  1.00  0.00    -0.248 NA
ATOM     42  C   UNL A   1      40.308  25.911  28.008  1.00  0.00     0.031 C 
ATOM     43  C   UNL A   1      41.804  30.577  29.118  1.00  0.00     0.029 A 
ATOM     44  N   UNL A   1      43.389  29.089  28.602  1.00  0.00    -0.354 N 
ATOM     45  C   UNL A   1      42.384  25.013  27.632  1.00  0.00     0.074 A 
ATOM     46  C   UNL A   1      40.959  24.782  27.764  1.00  0.00     0.031 C 
ATOM     47  C   UNL A   1      42.986  31.204  29.211  1.00  0.00     0.029 A 
ATOM     48  C   UNL A   1      44.048  30.263  28.874  1.00  0.00     0.049 A 
ATOM     49  H   UNL A   1      43.851  28.252  28.367  1.00  0.00     0.167 HD
ATOM     50  C   UNL A   1      43.290  24.063  27.297  1.00  0.00     0.037 A 
ATOM     51  C   UNL A   1      45.360  30.556  28.839  1.00  0.00     0.037 A 
ATOM     52  C   UNL A   1      44.705  24.298  27.161  1.00  0.00     0.049 A 
ATOM     53  C   UNL A   1      46.337  29.497  28.422  1.00  0.00     0.074 A 
ATOM     54  C   UNL A   1      45.695  23.412  26.771  1.00  0.00     0.029 A 
ATOM     55  N   UNL A   1      45.334  25.508  27.416  1.00  0.00    -0.354 N 
ATOM     56  N   UNL A   1      46.111  28.250  28.090  1.00  0.00    -0.248 NA
ATOM     57  C   UNL A   1      47.751  29.893  28.356  1.00  0.00     0.031 C 
ATOM     58  C   UNL A   1      46.927  24.077  26.823  1.00  0.00     0.029 A 
ATOM     59  C   UNL A   1      46.699  25.388  27.206  1.00  0.00     0.049 A 
ATOM     60  H   UNL A   1      44.878  26.331  27.703  1.00  0.00     0.167 HD
ATOM     61  C   UNL A   1      47.347  27.716  27.756  1.00  0.00     0.074 A 
ATOM     62  C   UNL A   1      48.318  28.783  27.906  1.00  0.00     0.031 C 
ATOM     63  C   UNL A   1      47.653  26.456  27.363  1.00  0.00     0.037 A 
BRANCH  50  64
ATOM     64  C   UNL A   1      42.775  22.675  27.045  1.00  0.00     0.057 A 
ATOM     65  C   UNL A   1      42.386  21.833  28.095  1.00  0.00     0.134 A 
ATOM     66  C   UNL A   1      42.623  22.191  25.740  1.00  0.00     0.134 A 
ATOM     67  F   UNL A   1      42.515  22.232  29.370  1.00  0.00    -0.206 F 
ATOM     68  C   UNL A   1      41.887  20.551  27.857  1.00  0.00     0.040 A 
ATOM     69  C   UNL A   1      42.103  20.919  25.488  1.00  0.00     0.040 A 
ATOM     70  F   UNL A   1      42.969  22.947  24.686  1.00  0.00    -0.206 F 
ATOM     71  C   UNL A   1      41.738  20.094  26.549  1.00  0.00     0.006 A 
ENDBRANCH  50  64
BRANCH  51  72
ATOM     72  C   UNL A   1      45.816  31.932  29.155  1.00  0.00     0.057 A 
ATOM     73  C   UNL A   1      45.897  32.910  28.158  1.00  0.00     0.134 A 
ATOM     74  C   UNL A   1      46.169  32.304  30.457  1.00  0.00     0.134 A 
ATOM     75  F   UNL A   1      45.585  32.607  26.889  1.00  0.00    -0.206 F 
ATOM     76  C   UNL A   1      46.331  34.206  28.439  1.00  0.00     0.040 A 
ATOM     77  C   UNL A   1      46.582  33.602  30.758  1.00  0.00     0.040 A 
ATOM     78  F   UNL A   1      46.101  31.413  31.458  1.00  0.00    -0.206 F 
ATOM     79  C   UNL A   1      46.670  34.556  29.745  1.00  0.00     0.006 A 
ENDBRANCH  51  72
BRANCH  63  80
ATOM     80  C   UNL A   1      49.093  26.177  27.049  1.00  0.00     0.057 A 
ATOM     81  C   UNL A   1      50.003  25.785  28.040  1.00  0.00     0.134 A 
ATOM     82  C   UNL A   1      49.576  26.307  25.741  1.00  0.00     0.134 A 
ATOM     83  F   UNL A   1      49.605  25.659  29.316  1.00  0.00    -0.206 F 
ATOM     84  C   UNL A   1      51.349  25.564  27.747  1.00  0.00     0.040 A 
ATOM     85  C   UNL A   1      50.915  26.064  25.431  1.00  0.00     0.040 A 
ATOM     86  F   UNL A   1      48.755  26.673  24.745  1.00  0.00    -0.206 F 
ATOM     87  C   UNL A   1      51.807  25.700  26.438  1.00  0.00     0.006 A 
ENDBRANCH  63  80
ENDBRANCH  37  38
ENDBRANCH  29  32
ENDBRANCH  27  28
ENDBRANCH  26  27
ENDBRANCH   1  26
TORSDOF 13
ENDMDL
MODEL 3
REMARK VINA RESULT:     -11.4      4.869      9.689
REMARK SMILES O=C(C[NH+]1CCN(c2nccc(N3CCCCC3)n2)CC1)NCCCNC(=O)c1ccc(-c2c3nc(c(-c4c(F)cccc4F)c4ccc([nH]4)c(-c4c(F)cccc4F)c4nc(c(-c5c(F)cccc5F)c5ccc2[nH]5)C=C4)C=C3)cc1
REMARK SMILES IDX 23 1 22 2 1 3 2 4 3 6 4 7 5 8 21 9 6 11 20 12 7 13 8 14 9 15
REMARK SMILES IDX 19 16 10 17 12 18 11 19 13 20 14 21 18 22 15 23 17 24 16 25
REMARK SMILES IDX 24 26 25 27 26 28 27 29 28 31 29 32 30 33 82 34 31 35 81 36
REMARK SMILES IDX 32 37 33 38 34 39 75 40 35 41 80 42 74 43 76 44 36 45 79 46
REMARK SMILES IDX 73 47 72 48 37 50 63 51 46 52 62 53 47 54 50 55 61 56 77 57
REMARK SMILES IDX 48 58 49 59 60 61 78 62 51 63 38 64 39 65 44 66 40 67 41 68
REMARK SMILES IDX 43 69 45 70 42 71 64 72 65 73 70 74 66 75 67 76 69 77 71 78
REMARK SMILES IDX 68 79 52 80 53 81 58 82 54 83 55 84 57 85 59 86 56 87
REMARK H PARENT 22 5 4 10 26 30 76 49 50 60
REMARK Flexibility Score: inf
ROOT
ATOM      1  C   UNL A   1      41.963  21.517  26.678  1.00  0.00     0.118 C 
ENDROOT
BRANCH   1   2
ATOM      2  N   UNL A   1      40.760  22.219  26.282  1.00  0.00    -0.351 N 
ATOM      3  O   UNL A   1      39.493  20.311  26.119  1.00  0.00    -0.269 OA
ATOM      4  C   UNL A   1      39.577  21.536  26.063  1.00  0.00     0.275 C 
ATOM      5  H   UNL A   1      40.784  23.197  26.166  1.00  0.00     0.163 HD
BRANCH   4   6
ATOM      6  C   UNL A   1      38.380  22.438  25.765  1.00  0.00     0.363 C 
BRANCH   6   7
ATOM      7  N   UNL A   1      37.161  21.760  25.283  1.00  0.00    -0.324 N 
ATOM      8  C   UNL A   1      35.909  21.957  26.038  1.00  0.00     0.284 C 
ATOM      9  C   UNL A   1      36.908  21.975  23.846  1.00  0.00     0.284 C 
ATOM     10  H   UNL A   1      37.416  20.789  25.463  1.00  0.00     0.348 HD
ATOM     11  C   UNL A   1      35.110  23.254  25.754  1.00  0.00     0.181 C 
ATOM     12  C   UNL A   1      36.291  23.344  23.511  1.00  0.00     0.181 C 
ATOM     13  N   UNL A   1      35.132  23.605  24.344  1.00  0.00    -0.329 N 
BRANCH  13  14
ATOM     14  C   UNL A   1      34.195  24.491  23.878  1.00  0.00     0.227 A 
ATOM     15  N   UNL A   1      34.138  24.751  22.566  1.00  0.00    -0.221 NA
ATOM     16  N   UNL A   1      33.431  25.106  24.787  1.00  0.00    -0.196 NA
ATOM     17  C   UNL A   1      33.240  25.673  22.173  1.00  0.00     0.119 A 
ATOM     18  C   UNL A   1      32.586  26.060  24.370  1.00  0.00     0.134 A 
ATOM     19  C   UNL A   1      32.418  26.346  23.036  1.00  0.00     0.067 A 
BRANCH  18  20
ATOM     20  N   UNL A   1      31.989  26.868  25.313  1.00  0.00    -0.356 N 
ATOM     21  C   UNL A   1      31.154  27.955  24.822  1.00  0.00     0.118 C 
ATOM     22  C   UNL A   1      32.467  26.886  26.682  1.00  0.00     0.118 C 
ATOM     23  C   UNL A   1      31.772  29.307  25.146  1.00  0.00     0.022 C 
ATOM     24  C   UNL A   1      33.075  28.250  27.012  1.00  0.00     0.022 C 
ATOM     25  C   UNL A   1      32.137  29.394  26.626  1.00  0.00     0.004 C 
ENDBRANCH  18  20
ENDBRANCH  13  14
ENDBRANCH   6   7
ENDBRANCH   4   6
ENDBRANCH   1   2
BRANCH   1  26
ATOM     26  C   UNL A   1      43.168  21.844  25.804  1.00  0.00     0.042 C 
BRANCH  26  27
ATOM     27  C   UNL A   1      43.014  23.076  24.915  1.00  0.00     0.118 C 
BRANCH  27  28
ATOM     28  N   UNL A   1      44.262  23.767  24.650  1.00  0.00    -0.352 N 
ATOM     29  C   UNL A   1      44.744  24.959  25.131  1.00  0.00     0.251 C 
ATOM     30  H   UNL A   1      44.863  23.304  24.022  1.00  0.00     0.163 HD
ATOM     31  O   UNL A   1      45.827  25.374  24.726  1.00  0.00    -0.269 OA
BRANCH  29  32
ATOM     32  C   UNL A   1      43.989  25.777  26.115  1.00  0.00     0.039 A 
ATOM     33  C   UNL A   1      43.006  25.131  26.873  1.00  0.00     0.014 A 
ATOM     34  C   UNL A   1      44.186  27.151  26.284  1.00  0.00     0.014 A 
ATOM     35  C   UNL A   1      42.307  25.827  27.861  1.00  0.00     0.010 A 
ATOM     36  C   UNL A   1      43.542  27.832  27.320  1.00  0.00     0.010 A 
ATOM     37  C   UNL A   1      42.617  27.169  28.136  1.00  0.00    -0.014 A 
BRANCH  37  38
ATOM     38  C   UNL A   1      42.058  27.822  29.348  1.00  0.00     0.031 A 
ATOM     39  C   UNL A   1      42.700  27.676  30.695  1.00  0.00     0.074 A 
ATOM     40  C   UNL A   1      40.921  28.534  29.219  1.00  0.00     0.049 A 
ATOM     41  N   UNL A   1      42.367  28.241  31.829  1.00  0.00    -0.248 NA
ATOM     42  C   UNL A   1      43.848  26.764  30.793  1.00  0.00     0.031 C 
ATOM     43  C   UNL A   1      40.156  28.683  27.979  1.00  0.00     0.029 A 
ATOM     44  N   UNL A   1      40.215  29.273  30.134  1.00  0.00    -0.354 N 
ATOM     45  C   UNL A   1      43.261  27.756  32.775  1.00  0.00     0.074 A 
ATOM     46  C   UNL A   1      44.123  26.813  32.090  1.00  0.00     0.031 C 
ATOM     47  C   UNL A   1      39.112  29.498  28.199  1.00  0.00     0.029 A 
ATOM     48  C   UNL A   1      39.122  29.910  29.598  1.00  0.00     0.049 A 
ATOM     49  H   UNL A   1      40.466  29.340  31.084  1.00  0.00     0.167 HD
ATOM     50  C   UNL A   1      43.365  28.080  34.086  1.00  0.00     0.037 A 
ATOM     51  C   UNL A   1      38.234  30.748  30.163  1.00  0.00     0.037 A 
ATOM     52  C   UNL A   1      42.510  29.023  34.763  1.00  0.00     0.049 A 
ATOM     53  C   UNL A   1      38.400  31.126  31.606  1.00  0.00     0.074 A 
ATOM     54  C   UNL A   1      42.573  29.461  36.075  1.00  0.00     0.029 A 
ATOM     55  N   UNL A   1      41.431  29.672  34.181  1.00  0.00    -0.354 N 
ATOM     56  N   UNL A   1      39.307  30.730  32.464  1.00  0.00    -0.248 NA
ATOM     57  C   UNL A   1      37.428  32.083  32.153  1.00  0.00     0.031 C 
ATOM     58  C   UNL A   1      41.511  30.348  36.295  1.00  0.00     0.029 A 
ATOM     59  C   UNL A   1      40.812  30.494  35.109  1.00  0.00     0.049 A 
ATOM     60  H   UNL A   1      41.147  29.564  33.244  1.00  0.00     0.167 HD
ATOM     61  C   UNL A   1      39.030  31.403  33.646  1.00  0.00     0.074 A 
ATOM     62  C   UNL A   1      37.881  32.249  33.386  1.00  0.00     0.031 C 
ATOM     63  C   UNL A   1      39.668  31.326  34.839  1.00  0.00     0.037 A 
BRANCH  50  64
ATOM     64  C   UNL A   1      44.453  27.416  34.879  1.00  0.00     0.057 A 
ATOM     65  C   UNL A   1      44.254  26.178  35.507  1.00  0.00     0.134 A 
ATOM     66  C   UNL A   1      45.724  27.993  34.981  1.00  0.00     0.134 A 
ATOM     67  F   UNL A   1      43.056  25.576  35.456  1.00  0.00    -0.206 F 
ATOM     68  C   UNL A   1      45.273  25.551  36.225  1.00  0.00     0.040 A 
ATOM     69  C   UNL A   1      46.759  27.364  35.677  1.00  0.00     0.040 A 
ATOM     70  F   UNL A   1      45.986  29.173  34.398  1.00  0.00    -0.206 F 
ATOM     71  C   UNL A   1      46.533  26.141  36.306  1.00  0.00     0.006 A 
ENDBRANCH  50  64
BRANCH  51  72
ATOM     72  C   UNL A   1      37.145  31.331  29.343  1.00  0.00     0.057 A 
ATOM     73  C   UNL A   1      37.236  32.635  28.846  1.00  0.00     0.134 A 
ATOM     74  C   UNL A   1      35.996  30.597  29.028  1.00  0.00     0.134 A 
ATOM     75  F   UNL A   1      38.308  33.390  29.127  1.00  0.00    -0.206 F 
ATOM     76  C   UNL A   1      36.216  33.198  28.079  1.00  0.00     0.040 A 
ATOM     77  C   UNL A   1      34.978  31.138  28.242  1.00  0.00     0.040 A 
ATOM     78  F   UNL A   1      35.856  29.337  29.466  1.00  0.00    -0.206 F 
ATOM     79  C   UNL A   1      35.084  32.445  27.770  1.00  0.00     0.006 A 
ENDBRANCH  51  72
BRANCH  63  80
ATOM     80  C   UNL A   1      39.144  32.198  35.941  1.00  0.00     0.057 A 
ATOM     81  C   UNL A   1      39.547  33.532  36.083  1.00  0.00     0.134 A 
ATOM     82  C   UNL A   1      38.230  31.694  36.876  1.00  0.00     0.134 A 
ATOM     83  F   UNL A   1      40.433  34.068  35.229  1.00  0.00    -0.206 F 
ATOM     84  C   UNL A   1      39.084  34.325  37.133  1.00  0.00     0.040 A 
ATOM     85  C   UNL A   1      37.740  32.486  37.916  1.00  0.00     0.040 A 
ATOM     86  F   UNL A   1      37.799  30.427  36.793  1.00  0.00    -0.206 F 
ATOM     87  C   UNL A   1      38.175  33.803  38.051  1.00  0.00     0.006 A 
ENDBRANCH  63  80
ENDBRANCH  37  38
ENDBRANCH  29  32
ENDBRANCH  27  28
ENDBRANCH  26  27
ENDBRANCH   1  26
TORSDOF 13
ENDMDL
