MODEL 1
REMARK VINA RESULT:     -11.4      0.000      0.000
REMARK SMILES C[NH2+][C@]1(C(=O)NCCCNC(=O)c2ccc(-c3c4nc(c(-c5c(F)cccc5F)c5ccc([nH]5)c(-c5c(F)cccc5F)c5nc(c(-c6c(F)cccc6F)c6ccc3[nH]6)C=C5)C=C4)cc2)CCC[C@@H]1CC[N@H+]1CCC[C@H]([NH+](C)C)C1
REMARK SMILES IDX 7 1 6 2 4 3 5 4 3 6 67 7 70 8 68 9 69 10 2 11 1 12 71 15
REMARK SMILES IDX 72 16 73 17 74 18 81 19 75 21 77 22 76 23 78 24 79 25 80 26
REMARK SMILES IDX 8 28 9 29 10 30 11 31 12 33 13 34 14 35 66 36 15 37 65 38
REMARK SMILES IDX 16 39 17 40 18 41 59 42 19 43 64 44 58 45 60 46 20 47 63 48
REMARK SMILES IDX 57 49 56 50 21 52 47 53 30 54 46 55 31 56 34 57 45 58 61 59
REMARK SMILES IDX 32 60 33 61 44 63 62 64 35 65 22 66 23 67 28 68 24 69 25 70
REMARK SMILES IDX 27 71 29 72 26 73 48 74 49 75 54 76 50 77 51 78 53 79 55 80
REMARK SMILES IDX 52 81 36 82 37 83 42 84 38 85 39 86 41 87 43 88 40 89
REMARK H PARENT 6 5 2 13 2 14 73 20 78 27 10 32 60 51 34 62
REMARK Flexibility Score: inf
ROOT
ATOM      1  C   UNL A   1      36.952  20.557  24.982  1.00  0.00     0.118 C 
ENDROOT
BRANCH   1   2
ATOM      2  N   UNL A   1      36.751  21.566  23.954  1.00  0.00    -0.351 N 
ATOM      3  C   UNL A   1      36.064  22.741  23.911  1.00  0.00     0.281 C 
ATOM      4  O   UNL A   1      36.139  23.329  22.823  1.00  0.00    -0.268 OA
ATOM      5  H   UNL A   1      37.209  21.353  23.109  1.00  0.00     0.163 HD
BRANCH   3   6
ATOM      6  C   UNL A   1      35.270  23.341  25.132  1.00  0.00     0.178 C 
ATOM      7  C   UNL A   1      35.057  24.860  24.957  1.00  0.00     0.079 C 
ATOM      8  C   UNL A   1      33.811  22.785  25.169  1.00  0.00     0.066 C 
ATOM      9  C   UNL A   1      33.795  25.187  25.740  1.00  0.00     0.008 C 
ATOM     10  C   UNL A   1      32.955  23.910  25.778  1.00  0.00     0.011 C 
BRANCH   6  11
ATOM     11  N   UNL A   1      36.135  23.176  26.322  1.00  0.00    -0.336 N 
ATOM     12  C   UNL A   1      37.402  23.834  26.479  1.00  0.00     0.331 C 
ATOM     13  H   UNL A   1      35.569  23.466  27.120  1.00  0.00     0.346 HD
ATOM     14  H   UNL A   1      36.427  22.204  26.222  1.00  0.00     0.346 HD
ENDBRANCH   6  11
BRANCH   8  15
ATOM     15  C   UNL A   1      33.621  21.410  25.836  1.00  0.00     0.072 C 
BRANCH  15  16
ATOM     16  C   UNL A   1      32.424  20.578  25.351  1.00  0.00     0.262 C 
BRANCH  16  17
ATOM     17  N   UNL A   1      32.702  19.290  24.696  1.00  0.00    -0.330 N 
ATOM     18  C   UNL A   1      32.214  19.163  23.321  1.00  0.00     0.262 C 
ATOM     19  C   UNL A   1      34.161  19.045  24.693  1.00  0.00     0.327 C 
ATOM     20  H   UNL A   1      32.188  18.602  25.245  1.00  0.00     0.348 HD
ATOM     21  C   UNL A   1      32.389  17.723  22.834  1.00  0.00     0.068 C 
ATOM     22  C   UNL A   1      34.539  17.602  24.264  1.00  0.00     0.239 C 
ATOM     23  C   UNL A   1      33.832  17.236  22.939  1.00  0.00     0.077 C 
BRANCH  22  24
ATOM     24  N   UNL A   1      34.443  16.553  25.313  1.00  0.00    -0.333 N 
ATOM     25  C   UNL A   1      33.277  15.690  25.105  1.00  0.00     0.332 C 
ATOM     26  C   UNL A   1      35.637  15.728  25.474  1.00  0.00     0.332 C 
ATOM     27  H   UNL A   1      34.343  17.081  26.180  1.00  0.00     0.348 HD
ENDBRANCH  22  24
ENDBRANCH  16  17
ENDBRANCH  15  16
ENDBRANCH   8  15
ENDBRANCH   3   6
ENDBRANCH   1   2
BRANCH   1  28
ATOM     28  C   UNL A   1      38.287  19.847  24.807  1.00  0.00     0.042 C 
BRANCH  28  29
ATOM     29  C   UNL A   1      39.244  20.062  25.971  1.00  0.00     0.118 C 
BRANCH  29  30
ATOM     30  N   UNL A   1      40.426  19.215  25.888  1.00  0.00    -0.352 N 
ATOM     31  C   UNL A   1      41.753  19.535  26.044  1.00  0.00     0.251 C 
ATOM     32  H   UNL A   1      40.246  18.268  25.689  1.00  0.00     0.163 HD
ATOM     33  O   UNL A   1      42.618  18.722  25.740  1.00  0.00    -0.269 OA
BRANCH  31  34
ATOM     34  C   UNL A   1      42.143  20.867  26.556  1.00  0.00     0.039 A 
ATOM     35  C   UNL A   1      42.541  21.849  25.646  1.00  0.00     0.014 A 
ATOM     36  C   UNL A   1      42.130  21.145  27.924  1.00  0.00     0.014 A 
ATOM     37  C   UNL A   1      42.857  23.130  26.104  1.00  0.00     0.010 A 
ATOM     38  C   UNL A   1      42.352  22.443  28.370  1.00  0.00     0.010 A 
ATOM     39  C   UNL A   1      42.726  23.449  27.466  1.00  0.00    -0.014 A 
BRANCH  39  40
ATOM     40  C   UNL A   1      42.981  24.824  27.966  1.00  0.00     0.031 A 
ATOM     41  C   UNL A   1      44.375  25.243  28.347  1.00  0.00     0.074 A 
ATOM     42  C   UNL A   1      41.949  25.672  28.141  1.00  0.00     0.049 A 
ATOM     43  N   UNL A   1      44.786  26.372  28.868  1.00  0.00    -0.248 NA
ATOM     44  C   UNL A   1      45.443  24.253  28.144  1.00  0.00     0.031 C 
ATOM     45  C   UNL A   1      40.545  25.369  27.855  1.00  0.00     0.029 A 
ATOM     46  N   UNL A   1      41.921  26.960  28.612  1.00  0.00    -0.354 N 
ATOM     47  C   UNL A   1      46.152  26.219  29.068  1.00  0.00     0.074 A 
ATOM     48  C   UNL A   1      46.490  24.871  28.668  1.00  0.00     0.031 C 
ATOM     49  C   UNL A   1      39.797  26.450  28.129  1.00  0.00     0.029 A 
ATOM     50  C   UNL A   1      40.660  27.505  28.652  1.00  0.00     0.049 A 
ATOM     51  H   UNL A   1      42.727  27.449  28.896  1.00  0.00     0.167 HD
ATOM     52  C   UNL A   1      47.049  27.128  29.521  1.00  0.00     0.037 A 
ATOM     53  C   UNL A   1      40.245  28.716  29.070  1.00  0.00     0.037 A 
ATOM     54  C   UNL A   1      46.711  28.476  29.896  1.00  0.00     0.049 A 
ATOM     55  C   UNL A   1      41.257  29.702  29.583  1.00  0.00     0.074 A 
ATOM     56  C   UNL A   1      47.555  29.492  30.308  1.00  0.00     0.029 A 
ATOM     57  N   UNL A   1      45.424  28.993  29.913  1.00  0.00    -0.354 N 
ATOM     58  N   UNL A   1      42.556  29.570  29.698  1.00  0.00    -0.248 NA
ATOM     59  C   UNL A   1      40.745  31.009  30.017  1.00  0.00     0.031 C 
ATOM     60  C   UNL A   1      46.773  30.609  30.623  1.00  0.00     0.029 A 
ATOM     61  C   UNL A   1      45.448  30.306  30.353  1.00  0.00     0.049 A 
ATOM     62  H   UNL A   1      44.614  28.500  29.650  1.00  0.00     0.167 HD
ATOM     63  C   UNL A   1      43.021  30.784  30.189  1.00  0.00     0.074 A 
ATOM     64  C   UNL A   1      41.865  31.644  30.336  1.00  0.00     0.031 C 
ATOM     65  C   UNL A   1      44.290  31.153  30.490  1.00  0.00     0.037 A 
BRANCH  52  66
ATOM     66  C   UNL A   1      48.481  26.690  29.634  1.00  0.00     0.057 A 
ATOM     67  C   UNL A   1      48.956  25.990  30.753  1.00  0.00     0.134 A 
ATOM     68  C   UNL A   1      49.391  26.948  28.601  1.00  0.00     0.134 A 
ATOM     69  F   UNL A   1      48.141  25.720  31.783  1.00  0.00    -0.206 F 
ATOM     70  C   UNL A   1      50.290  25.591  30.853  1.00  0.00     0.040 A 
ATOM     71  C   UNL A   1      50.720  26.526  28.677  1.00  0.00     0.040 A 
ATOM     72  F   UNL A   1      49.003  27.606  27.499  1.00  0.00    -0.206 F 
ATOM     73  C   UNL A   1      51.175  25.854  29.809  1.00  0.00     0.006 A 
ENDBRANCH  52  66
BRANCH  53  74
ATOM     74  C   UNL A   1      38.804  29.072  29.002  1.00  0.00     0.057 A 
ATOM     75  C   UNL A   1      38.233  29.542  27.815  1.00  0.00     0.134 A 
ATOM     76  C   UNL A   1      37.967  28.959  30.119  1.00  0.00     0.134 A 
ATOM     77  F   UNL A   1      38.988  29.689  26.715  1.00  0.00    -0.206 F 
ATOM     78  C   UNL A   1      36.888  29.907  27.743  1.00  0.00     0.040 A 
ATOM     79  C   UNL A   1      36.614  29.296  30.055  1.00  0.00     0.040 A 
ATOM     80  F   UNL A   1      38.450  28.508  31.286  1.00  0.00    -0.206 F 
ATOM     81  C   UNL A   1      36.073  29.780  28.866  1.00  0.00     0.006 A 
ENDBRANCH  53  74
BRANCH  65  82
ATOM     82  C   UNL A   1      44.502  32.558  30.973  1.00  0.00     0.057 A 
ATOM     83  C   UNL A   1      44.716  33.622  30.089  1.00  0.00     0.134 A 
ATOM     84  C   UNL A   1      44.455  32.854  32.341  1.00  0.00     0.134 A 
ATOM     85  F   UNL A   1      44.786  33.406  28.767  1.00  0.00    -0.206 F 
ATOM     86  C   UNL A   1      44.897  34.928  30.550  1.00  0.00     0.040 A 
ATOM     87  C   UNL A   1      44.605  34.158  32.813  1.00  0.00     0.040 A 
ATOM     88  F   UNL A   1      44.245  31.881  33.242  1.00  0.00    -0.206 F 
ATOM     89  C   UNL A   1      44.834  35.199  31.916  1.00  0.00     0.006 A 
ENDBRANCH  65  82
ENDBRANCH  39  40
ENDBRANCH  31  34
ENDBRANCH  29  30
ENDBRANCH  28  29
ENDBRANCH   1  28
TORSDOF 15
ENDMDL
MODEL 2
REMARK VINA RESULT:     -11.4      1.490      6.367
REMARK SMILES C[NH2+][C@]1(C(=O)NCCCNC(=O)c2ccc(-c3c4nc(c(-c5c(F)cccc5F)c5ccc([nH]5)c(-c5c(F)cccc5F)c5nc(c(-c6c(F)cccc6F)c6ccc3[nH]6)C=C5)C=C4)cc2)CCC[C@@H]1CC[N@H+]1CCC[C@H]([NH+](C)C)C1
REMARK SMILES IDX 7 1 6 2 4 3 5 4 3 6 67 7 70 8 68 9 69 10 2 11 1 12 71 15
REMARK SMILES IDX 72 16 73 17 74 18 81 19 75 21 77 22 76 23 78 24 79 25 80 26
REMARK SMILES IDX 8 28 9 29 10 30 11 31 12 33 13 34 14 35 66 36 15 37 65 38
REMARK SMILES IDX 16 39 17 40 18 41 59 42 19 43 64 44 58 45 60 46 20 47 63 48
REMARK SMILES IDX 57 49 56 50 21 52 47 53 30 54 46 55 31 56 34 57 45 58 61 59
REMARK SMILES IDX 32 60 33 61 44 63 62 64 35 65 22 66 23 67 28 68 24 69 25 70
REMARK SMILES IDX 27 71 29 72 26 73 48 74 49 75 54 76 50 77 51 78 53 79 55 80
REMARK SMILES IDX 52 81 36 82 37 83 42 84 38 85 39 86 41 87 43 88 40 89
REMARK H PARENT 6 5 2 13 2 14 73 20 78 27 10 32 60 51 34 62
REMARK Flexibility Score: inf
ROOT
ATOM      1  C   UNL A   1      37.038  20.563  25.088  1.00  0.00     0.118 C 
ENDROOT
BRANCH   1   2
ATOM      2  N   UNL A   1      36.835  21.518  24.010  1.00  0.00    -0.351 N 
ATOM      3  C   UNL A   1      36.134  22.681  23.903  1.00  0.00     0.281 C 
ATOM      4  O   UNL A   1      36.212  23.217  22.789  1.00  0.00    -0.268 OA
ATOM      5  H   UNL A   1      37.304  21.271  23.181  1.00  0.00     0.163 HD
BRANCH   3   6
ATOM      6  C   UNL A   1      35.319  23.329  25.086  1.00  0.00     0.178 C 
ATOM      7  C   UNL A   1      35.127  24.844  24.857  1.00  0.00     0.079 C 
ATOM      8  C   UNL A   1      33.854  22.789  25.109  1.00  0.00     0.066 C 
ATOM      9  C   UNL A   1      33.852  25.209  25.600  1.00  0.00     0.008 C 
ATOM     10  C   UNL A   1      32.997  23.943  25.661  1.00  0.00     0.011 C 
BRANCH   6  11
ATOM     11  N   UNL A   1      36.156  23.194  26.300  1.00  0.00    -0.336 N 
ATOM     12  C   UNL A   1      37.382  23.914  26.502  1.00  0.00     0.331 C 
ATOM     13  H   UNL A   1      35.553  23.446  27.084  1.00  0.00     0.346 HD
ATOM     14  H   UNL A   1      36.500  22.240  26.200  1.00  0.00     0.346 HD
ENDBRANCH   6  11
BRANCH   8  15
ATOM     15  C   UNL A   1      33.634  21.440  25.816  1.00  0.00     0.072 C 
BRANCH  15  16
ATOM     16  C   UNL A   1      32.431  20.610  25.341  1.00  0.00     0.262 C 
BRANCH  16  17
ATOM     17  N   UNL A   1      32.702  19.324  24.680  1.00  0.00    -0.330 N 
ATOM     18  C   UNL A   1      32.232  19.213  23.296  1.00  0.00     0.262 C 
ATOM     19  C   UNL A   1      34.157  19.059  24.695  1.00  0.00     0.327 C 
ATOM     20  H   UNL A   1      32.170  18.638  25.216  1.00  0.00     0.348 HD
ATOM     21  C   UNL A   1      32.394  17.774  22.801  1.00  0.00     0.068 C 
ATOM     22  C   UNL A   1      34.521  17.614  24.261  1.00  0.00     0.239 C 
ATOM     23  C   UNL A   1      33.829  17.267  22.923  1.00  0.00     0.077 C 
BRANCH  22  24
ATOM     24  N   UNL A   1      34.397  16.559  25.300  1.00  0.00    -0.333 N 
ATOM     25  C   UNL A   1      33.238  15.696  25.054  1.00  0.00     0.332 C 
ATOM     26  C   UNL A   1      35.587  15.733  25.490  1.00  0.00     0.332 C 
ATOM     27  H   UNL A   1      34.271  17.081  26.167  1.00  0.00     0.348 HD
ENDBRANCH  22  24
ENDBRANCH  16  17
ENDBRANCH  15  16
ENDBRANCH   8  15
ENDBRANCH   3   6
ENDBRANCH   1   2
BRANCH   1  28
ATOM     28  C   UNL A   1      38.311  19.756  24.879  1.00  0.00     0.042 C 
BRANCH  28  29
ATOM     29  C   UNL A   1      39.364  20.000  25.951  1.00  0.00     0.118 C 
BRANCH  29  30
ATOM     30  N   UNL A   1      40.419  18.995  25.939  1.00  0.00    -0.352 N 
ATOM     31  C   UNL A   1      41.781  19.145  26.030  1.00  0.00     0.251 C 
ATOM     32  H   UNL A   1      40.107  18.065  25.851  1.00  0.00     0.163 HD
ATOM     33  O   UNL A   1      42.518  18.193  25.801  1.00  0.00    -0.269 OA
BRANCH  31  34
ATOM     34  C   UNL A   1      42.364  20.459  26.382  1.00  0.00     0.039 A 
ATOM     35  C   UNL A   1      42.852  21.276  25.359  1.00  0.00     0.014 A 
ATOM     36  C   UNL A   1      42.442  20.880  27.711  1.00  0.00     0.014 A 
ATOM     37  C   UNL A   1      43.352  22.543  25.665  1.00  0.00     0.010 A 
ATOM     38  C   UNL A   1      42.852  22.176  28.005  1.00  0.00     0.010 A 
ATOM     39  C   UNL A   1      43.318  23.020  26.986  1.00  0.00    -0.014 A 
BRANCH  39  40
ATOM     40  C   UNL A   1      43.773  24.392  27.324  1.00  0.00     0.031 A 
ATOM     41  C   UNL A   1      42.775  25.436  27.747  1.00  0.00     0.074 A 
ATOM     42  C   UNL A   1      45.073  24.718  27.185  1.00  0.00     0.049 A 
ATOM     43  N   UNL A   1      42.967  26.704  28.014  1.00  0.00    -0.248 NA
ATOM     44  C   UNL A   1      41.373  25.006  27.857  1.00  0.00     0.031 C 
ATOM     45  C   UNL A   1      46.130  23.810  26.737  1.00  0.00     0.029 A 
ATOM     46  N   UNL A   1      45.724  25.906  27.398  1.00  0.00    -0.354 N 
ATOM     47  C   UNL A   1      41.711  27.222  28.305  1.00  0.00     0.074 A 
ATOM     48  C   UNL A   1      40.759  26.148  28.125  1.00  0.00     0.031 C 
ATOM     49  C   UNL A   1      47.302  24.466  26.735  1.00  0.00     0.029 A 
ATOM     50  C   UNL A   1      47.072  25.850  27.138  1.00  0.00     0.049 A 
ATOM     51  H   UNL A   1      45.270  26.723  27.707  1.00  0.00     0.167 HD
ATOM     52  C   UNL A   1      41.383  28.472  28.708  1.00  0.00     0.037 A 
ATOM     53  C   UNL A   1      48.016  26.808  27.209  1.00  0.00     0.037 A 
ATOM     54  C   UNL A   1      42.337  29.532  28.907  1.00  0.00     0.049 A 
ATOM     55  C   UNL A   1      47.626  28.193  27.645  1.00  0.00     0.074 A 
ATOM     56  C   UNL A   1      42.115  30.816  29.374  1.00  0.00     0.029 A 
ATOM     57  N   UNL A   1      43.696  29.432  28.643  1.00  0.00    -0.354 N 
ATOM     58  N   UNL A   1      46.446  28.650  27.988  1.00  0.00    -0.248 NA
ATOM     59  C   UNL A   1      48.700  29.193  27.711  1.00  0.00     0.031 C 
ATOM     60  C   UNL A   1      43.330  31.509  29.343  1.00  0.00     0.029 A 
ATOM     61  C   UNL A   1      44.319  30.639  28.912  1.00  0.00     0.049 A 
ATOM     62  H   UNL A   1      44.149  28.623  28.314  1.00  0.00     0.167 HD
ATOM     63  C   UNL A   1      46.639  29.980  28.338  1.00  0.00     0.074 A 
ATOM     64  C   UNL A   1      48.053  30.251  28.180  1.00  0.00     0.031 C 
ATOM     65  C   UNL A   1      45.729  30.894  28.755  1.00  0.00     0.037 A 
BRANCH  52  66
ATOM     66  C   UNL A   1      39.931  28.760  28.961  1.00  0.00     0.057 A 
ATOM     67  C   UNL A   1      39.356  28.613  30.231  1.00  0.00     0.134 A 
ATOM     68  C   UNL A   1      39.102  29.216  27.928  1.00  0.00     0.134 A 
ATOM     69  F   UNL A   1      40.089  28.170  31.263  1.00  0.00    -0.206 F 
ATOM     70  C   UNL A   1      38.004  28.877  30.457  1.00  0.00     0.040 A 
ATOM     71  C   UNL A   1      37.756  29.513  28.148  1.00  0.00     0.040 A 
ATOM     72  F   UNL A   1      39.587  29.386  26.689  1.00  0.00    -0.206 F 
ATOM     73  C   UNL A   1      37.201  29.336  29.414  1.00  0.00     0.006 A 
ENDBRANCH  52  66
BRANCH  53  74
ATOM     74  C   UNL A   1      49.428  26.486  26.879  1.00  0.00     0.057 A 
ATOM     75  C   UNL A   1      50.312  26.027  27.862  1.00  0.00     0.134 A 
ATOM     76  C   UNL A   1      49.930  26.635  25.581  1.00  0.00     0.134 A 
ATOM     77  F   UNL A   1      49.895  25.882  29.129  1.00  0.00    -0.206 F 
ATOM     78  C   UNL A   1      51.649  25.748  27.573  1.00  0.00     0.040 A 
ATOM     79  C   UNL A   1      51.258  26.333  25.271  1.00  0.00     0.040 A 
ATOM     80  F   UNL A   1      49.134  27.062  24.590  1.00  0.00    -0.206 F 
ATOM     81  C   UNL A   1      52.123  25.896  26.272  1.00  0.00     0.006 A 
ENDBRANCH  53  74
BRANCH  65  82
ATOM     82  C   UNL A   1      46.237  32.262  29.103  1.00  0.00     0.057 A 
ATOM     83  C   UNL A   1      46.661  32.589  30.397  1.00  0.00     0.134 A 
ATOM     84  C   UNL A   1      46.337  33.256  28.121  1.00  0.00     0.134 A 
ATOM     85  F   UNL A   1      46.580  31.688  31.388  1.00  0.00    -0.206 F 
ATOM     86  C   UNL A   1      47.146  33.861  30.706  1.00  0.00     0.040 A 
ATOM     87  C   UNL A   1      46.848  34.521  28.410  1.00  0.00     0.040 A 
ATOM     88  F   UNL A   1      45.956  33.006  26.858  1.00  0.00    -0.206 F 
ATOM     89  C   UNL A   1      47.247  34.829  29.708  1.00  0.00     0.006 A 
ENDBRANCH  65  82
ENDBRANCH  39  40
ENDBRANCH  31  34
ENDBRANCH  29  30
ENDBRANCH  28  29
ENDBRANCH   1  28
TORSDOF 15
ENDMDL
MODEL 3
REMARK VINA RESULT:     -11.1      1.788      4.173
REMARK SMILES C[NH2+][C@]1(C(=O)NCCCNC(=O)c2ccc(-c3c4nc(c(-c5c(F)cccc5F)c5ccc([nH]5)c(-c5c(F)cccc5F)c5nc(c(-c6c(F)cccc6F)c6ccc3[nH]6)C=C5)C=C4)cc2)CCC[C@@H]1CC[N@H+]1CCC[C@H]([NH+](C)C)C1
REMARK SMILES IDX 7 1 6 2 4 3 5 4 3 6 67 7 70 8 68 9 69 10 2 11 1 12 71 15
REMARK SMILES IDX 72 16 73 17 74 18 81 19 75 21 77 22 76 23 78 24 79 25 80 26
REMARK SMILES IDX 8 28 9 29 10 30 11 31 12 33 13 34 14 35 66 36 15 37 65 38
REMARK SMILES IDX 16 39 17 40 18 41 59 42 19 43 64 44 58 45 60 46 20 47 63 48
REMARK SMILES IDX 57 49 56 50 21 52 47 53 30 54 46 55 31 56 34 57 45 58 61 59
REMARK SMILES IDX 32 60 33 61 44 63 62 64 35 65 22 66 23 67 28 68 24 69 25 70
REMARK SMILES IDX 27 71 29 72 26 73 48 74 49 75 54 76 50 77 51 78 53 79 55 80
REMARK SMILES IDX 52 81 36 82 37 83 42 84 38 85 39 86 41 87 43 88 40 89
REMARK H PARENT 6 5 2 13 2 14 73 20 78 27 10 32 60 51 34 62
REMARK Flexibility Score: inf
ROOT
ATOM      1  C   UNL A   1      36.449  20.527  25.046  1.00  0.00     0.118 C 
ENDROOT
BRANCH   1   2
ATOM      2  N   UNL A   1      36.497  21.672  24.150  1.00  0.00    -0.351 N 
ATOM      3  C   UNL A   1      35.575  22.586  23.740  1.00  0.00     0.281 C 
ATOM      4  O   UNL A   1      36.018  23.431  22.950  1.00  0.00    -0.268 OA
ATOM      5  H   UNL A   1      37.388  21.817  23.756  1.00  0.00     0.163 HD
BRANCH   3   6
ATOM      6  C   UNL A   1      34.081  22.612  24.240  1.00  0.00     0.178 C 
ATOM      7  C   UNL A   1      33.480  21.189  24.248  1.00  0.00     0.079 C 
ATOM      8  C   UNL A   1      34.008  23.030  25.743  1.00  0.00     0.066 C 
ATOM      9  C   UNL A   1      32.394  21.212  25.313  1.00  0.00     0.008 C 
ATOM     10  C   UNL A   1      32.784  22.296  26.318  1.00  0.00     0.011 C 
BRANCH   6  11
ATOM     11  N   UNL A   1      33.311  23.383  23.238  1.00  0.00    -0.336 N 
ATOM     12  C   UNL A   1      32.893  22.846  21.974  1.00  0.00     0.331 C 
ATOM     13  H   UNL A   1      32.457  23.680  23.711  1.00  0.00     0.346 HD
ATOM     14  H   UNL A   1      34.003  24.071  22.943  1.00  0.00     0.346 HD
ENDBRANCH   6  11
BRANCH   8  15
ATOM     15  C   UNL A   1      34.035  24.543  26.032  1.00  0.00     0.072 C 
BRANCH  15  16
ATOM     16  C   UNL A   1      32.675  25.213  26.277  1.00  0.00     0.262 C 
BRANCH  16  17
ATOM     17  N   UNL A   1      32.514  26.615  25.860  1.00  0.00    -0.330 N 
ATOM     18  C   UNL A   1      33.608  27.515  26.233  1.00  0.00     0.262 C 
ATOM     19  C   UNL A   1      32.348  26.675  24.392  1.00  0.00     0.327 C 
ATOM     20  H   UNL A   1      31.691  26.945  26.364  1.00  0.00     0.348 HD
ATOM     21  C   UNL A   1      33.226  28.963  25.921  1.00  0.00     0.068 C 
ATOM     22  C   UNL A   1      31.910  28.075  23.882  1.00  0.00     0.239 C 
ATOM     23  C   UNL A   1      32.837  29.168  24.459  1.00  0.00     0.077 C 
BRANCH  22  24
ATOM     24  N   UNL A   1      30.462  28.393  23.980  1.00  0.00    -0.333 N 
ATOM     25  C   UNL A   1      30.122  29.596  23.216  1.00  0.00     0.332 C 
ATOM     26  C   UNL A   1      29.562  27.306  23.603  1.00  0.00     0.332 C 
ATOM     27  H   UNL A   1      30.313  28.553  24.976  1.00  0.00     0.348 HD
ENDBRANCH  22  24
ENDBRANCH  16  17
ENDBRANCH  15  16
ENDBRANCH   8  15
ENDBRANCH   3   6
ENDBRANCH   1   2
BRANCH   1  28
ATOM     28  C   UNL A   1      37.710  19.683  24.934  1.00  0.00     0.042 C 
BRANCH  28  29
ATOM     29  C   UNL A   1      38.880  20.235  25.736  1.00  0.00     0.118 C 
BRANCH  29  30
ATOM     30  N   UNL A   1      40.007  19.312  25.789  1.00  0.00    -0.352 N 
ATOM     31  C   UNL A   1      41.329  19.551  26.077  1.00  0.00     0.251 C 
ATOM     32  H   UNL A   1      39.787  18.375  25.586  1.00  0.00     0.163 HD
ATOM     33  O   UNL A   1      42.166  18.679  25.876  1.00  0.00    -0.269 OA
BRANCH  31  34
ATOM     34  C   UNL A   1      41.750  20.866  26.607  1.00  0.00     0.039 A 
ATOM     35  C   UNL A   1      42.242  21.826  25.719  1.00  0.00     0.014 A 
ATOM     36  C   UNL A   1      41.675  21.151  27.972  1.00  0.00     0.014 A 
ATOM     37  C   UNL A   1      42.589  23.094  26.192  1.00  0.00     0.010 A 
ATOM     38  C   UNL A   1      41.931  22.439  28.428  1.00  0.00     0.010 A 
ATOM     39  C   UNL A   1      42.398  23.423  27.544  1.00  0.00    -0.014 A 
BRANCH  39  40
ATOM     40  C   UNL A   1      42.688  24.787  28.055  1.00  0.00     0.031 A 
ATOM     41  C   UNL A   1      44.085  25.157  28.473  1.00  0.00     0.074 A 
ATOM     42  C   UNL A   1      41.681  25.671  28.206  1.00  0.00     0.049 A 
ATOM     43  N   UNL A   1      44.521  26.270  29.008  1.00  0.00    -0.248 NA
ATOM     44  C   UNL A   1      45.124  24.131  28.294  1.00  0.00     0.031 C 
ATOM     45  C   UNL A   1      40.276  25.417  27.882  1.00  0.00     0.029 A 
ATOM     46  N   UNL A   1      41.685  26.958  28.680  1.00  0.00    -0.354 N 
ATOM     47  C   UNL A   1      45.876  26.070  29.243  1.00  0.00     0.074 A 
ATOM     48  C   UNL A   1      46.177  24.711  28.848  1.00  0.00     0.031 C 
ATOM     49  C   UNL A   1      39.559  26.522  28.140  1.00  0.00     0.029 A 
ATOM     50  C   UNL A   1      40.444  27.546  28.689  1.00  0.00     0.049 A 
ATOM     51  H   UNL A   1      42.501  27.417  28.986  1.00  0.00     0.167 HD
ATOM     52  C   UNL A   1      46.791  26.946  29.722  1.00  0.00     0.037 A 
ATOM     53  C   UNL A   1      40.059  28.769  29.100  1.00  0.00     0.037 A 
ATOM     54  C   UNL A   1      46.490  28.304  30.093  1.00  0.00     0.049 A 
ATOM     55  C   UNL A   1      41.092  29.719  29.642  1.00  0.00     0.074 A 
ATOM     56  C   UNL A   1      47.358  29.290  30.530  1.00  0.00     0.029 A 
ATOM     57  N   UNL A   1      45.222  28.866  30.078  1.00  0.00    -0.354 N 
ATOM     58  N   UNL A   1      42.382  29.542  29.790  1.00  0.00    -0.248 NA
ATOM     59  C   UNL A   1      40.614  31.042  30.067  1.00  0.00     0.031 C 
ATOM     60  C   UNL A   1      46.607  30.432  30.828  1.00  0.00     0.029 A 
ATOM     61  C   UNL A   1      45.280  30.176  30.522  1.00  0.00     0.049 A 
ATOM     62  H   UNL A   1      44.402  28.401  29.792  1.00  0.00     0.167 HD
ATOM     63  C   UNL A   1      42.875  30.737  30.297  1.00  0.00     0.074 A 
ATOM     64  C   UNL A   1      41.746  31.636  30.417  1.00  0.00     0.031 C 
ATOM     65  C   UNL A   1      44.148  31.062  30.632  1.00  0.00     0.037 A 
BRANCH  52  66
ATOM     66  C   UNL A   1      48.203  26.459  29.871  1.00  0.00     0.057 A 
ATOM     67  C   UNL A   1      49.156  26.625  28.856  1.00  0.00     0.134 A 
ATOM     68  C   UNL A   1      48.625  25.839  31.054  1.00  0.00     0.134 A 
ATOM     69  F   UNL A   1      48.818  27.201  27.693  1.00  0.00    -0.206 F 
ATOM     70  C   UNL A   1      50.466  26.165  29.000  1.00  0.00     0.040 A 
ATOM     71  C   UNL A   1      49.940  25.402  31.222  1.00  0.00     0.040 A 
ATOM     72  F   UNL A   1      47.768  25.653  32.069  1.00  0.00    -0.206 F 
ATOM     73  C   UNL A   1      50.863  25.557  30.190  1.00  0.00     0.006 A 
ENDBRANCH  52  66
BRANCH  53  74
ATOM     74  C   UNL A   1      38.634  29.175  28.996  1.00  0.00     0.057 A 
ATOM     75  C   UNL A   1      37.785  29.117  30.106  1.00  0.00     0.134 A 
ATOM     76  C   UNL A   1      38.086  29.622  27.788  1.00  0.00     0.134 A 
ATOM     77  F   UNL A   1      38.247  28.680  31.287  1.00  0.00    -0.206 F 
ATOM     78  C   UNL A   1      36.437  29.469  30.016  1.00  0.00     0.040 A 
ATOM     79  C   UNL A   1      36.746  30.003  27.689  1.00  0.00     0.040 A 
ATOM     80  F   UNL A   1      38.848  29.709  26.687  1.00  0.00    -0.206 F 
ATOM     81  C   UNL A   1      35.916  29.918  28.805  1.00  0.00     0.006 A 
ENDBRANCH  53  74
BRANCH  65  82
ATOM     82  C   UNL A   1      44.395  32.457  31.125  1.00  0.00     0.057 A 
ATOM     83  C   UNL A   1      44.667  33.516  30.250  1.00  0.00     0.134 A 
ATOM     84  C   UNL A   1      44.325  32.751  32.493  1.00  0.00     0.134 A 
ATOM     85  F   UNL A   1      44.762  33.301  28.930  1.00  0.00    -0.206 F 
ATOM     86  C   UNL A   1      44.881  34.813  30.721  1.00  0.00     0.040 A 
ATOM     87  C   UNL A   1      44.507  34.048  32.972  1.00  0.00     0.040 A 
ATOM     88  F   UNL A   1      44.059  31.784  33.385  1.00  0.00    -0.206 F 
ATOM     89  C   UNL A   1      44.794  35.083  32.085  1.00  0.00     0.006 A 
ENDBRANCH  65  82
ENDBRANCH  39  40
ENDBRANCH  31  34
ENDBRANCH  29  30
ENDBRANCH  28  29
ENDBRANCH   1  28
TORSDOF 15
ENDMDL
