MODEL 1
REMARK VINA RESULT:     -10.8      0.000      0.000
REMARK SMILES Cc1csc(C[NH2+]C[C@H]2CCC[C@H]2C(=O)NCCCNC(=O)c2ccc(-c3c4nc(c(-c5c(F)cccc5F)c5ccc([nH]5)c(-c5c(F)cccc5F)c5nc(c(-c6c(F)cccc6F)c6ccc3[nH]6)C=C5)C=C4)cc2)n1
REMARK SMILES IDX 17 1 16 2 14 3 15 4 13 6 9 7 10 8 11 9 12 10 8 11 7 12 6 15
REMARK SMILES IDX 5 16 1 17 2 18 3 19 77 20 4 21 18 22 19 23 20 24 21 25 22 27
REMARK SMILES IDX 23 28 24 29 76 30 25 31 75 32 26 33 27 34 28 35 69 36 29 37
REMARK SMILES IDX 74 38 68 39 70 40 30 41 73 42 67 43 66 44 31 46 57 47 40 48
REMARK SMILES IDX 56 49 41 50 44 51 55 52 71 53 42 54 43 55 54 57 72 58 45 59
REMARK SMILES IDX 32 60 33 61 38 62 34 63 35 64 37 65 39 66 36 67 58 68 59 69
REMARK SMILES IDX 64 70 60 71 61 72 63 73 65 74 62 75 46 76 47 77 52 78 48 79
REMARK SMILES IDX 49 80 51 81 53 82 50 83
REMARK H PARENT 16 5 7 13 7 14 20 26 70 45 44 56
REMARK Flexibility Score: inf
ROOT
ATOM      1  C   UNL A   1      36.943  20.105  24.460  1.00  0.00     0.117 C 
ENDROOT
BRANCH   1   2
ATOM      2  N   UNL A   1      36.009  20.534  25.491  1.00  0.00    -0.356 N 
ATOM      3  C   UNL A   1      35.329  21.677  25.746  1.00  0.00     0.223 C 
ATOM      4  O   UNL A   1      34.671  21.684  26.794  1.00  0.00    -0.275 OA
ATOM      5  H   UNL A   1      35.830  19.830  26.158  1.00  0.00     0.163 HD
BRANCH   3   6
ATOM      6  C   UNL A   1      35.341  22.933  24.878  1.00  0.00     0.087 C 
ATOM      7  C   UNL A   1      34.338  23.018  23.698  1.00  0.00     0.057 C 
ATOM      8  C   UNL A   1      34.379  24.518  23.379  1.00  0.00     0.010 C 
ATOM      9  C   UNL A   1      34.403  25.183  24.748  1.00  0.00     0.001 C 
ATOM     10  C   UNL A   1      35.325  24.297  25.582  1.00  0.00     0.014 C 
BRANCH   7  11
ATOM     11  C   UNL A   1      32.940  22.499  24.050  1.00  0.00     0.265 C 
BRANCH  11  12
ATOM     12  N   UNL A   1      32.551  21.201  23.536  1.00  0.00    -0.340 N 
ATOM     13  H   UNL A   1      31.720  21.328  22.958  1.00  0.00     0.346 HD
ATOM     14  H   UNL A   1      33.359  20.848  23.024  1.00  0.00     0.346 HD
BRANCH  12  15
ATOM     15  C   UNL A   1      32.245  20.191  24.547  1.00  0.00     0.329 C 
BRANCH  15  16
ATOM     16  C   UNL A   1      32.968  18.913  24.198  1.00  0.00     0.147 A 
ATOM     17  C   UNL A   1      35.119  16.226  25.246  1.00  0.00     0.067 C 
ATOM     18  C   UNL A   1      34.203  17.087  24.457  1.00  0.00     0.049 A 
ATOM     19  C   UNL A   1      33.638  16.798  23.231  1.00  0.00     0.090 A 
ATOM     20  N   UNL A   1      33.836  18.310  24.987  1.00  0.00    -0.241 NA
ATOM     21  S   UNL A   1      32.606  18.075  22.739  1.00  0.00    -0.121 S 
ENDBRANCH  15  16
ENDBRANCH  12  15
ENDBRANCH  11  12
ENDBRANCH   7  11
ENDBRANCH   3   6
ENDBRANCH   1   2
BRANCH   1  22
ATOM     22  C   UNL A   1      37.986  19.121  24.994  1.00  0.00     0.042 C 
BRANCH  22  23
ATOM     23  C   UNL A   1      39.131  19.760  25.768  1.00  0.00     0.118 C 
BRANCH  23  24
ATOM     24  N   UNL A   1      40.291  18.892  25.849  1.00  0.00    -0.352 N 
ATOM     25  C   UNL A   1      41.623  19.202  25.984  1.00  0.00     0.251 C 
ATOM     26  H   UNL A   1      40.093  17.930  25.799  1.00  0.00     0.163 HD
ATOM     27  O   UNL A   1      42.458  18.318  25.805  1.00  0.00    -0.269 OA
BRANCH  25  28
ATOM     28  C   UNL A   1      42.079  20.573  26.332  1.00  0.00     0.039 A 
ATOM     29  C   UNL A   1      42.155  20.922  27.686  1.00  0.00     0.014 A 
ATOM     30  C   UNL A   1      42.345  21.541  25.360  1.00  0.00     0.014 A 
ATOM     31  C   UNL A   1      42.521  22.219  28.060  1.00  0.00     0.010 A 
ATOM     32  C   UNL A   1      42.786  22.813  25.733  1.00  0.00     0.010 A 
ATOM     33  C   UNL A   1      42.855  23.175  27.086  1.00  0.00    -0.014 A 
BRANCH  33  34
ATOM     34  C   UNL A   1      43.232  24.558  27.479  1.00  0.00     0.031 A 
ATOM     35  C   UNL A   1      44.667  25.009  27.406  1.00  0.00     0.074 A 
ATOM     36  C   UNL A   1      42.290  25.409  27.932  1.00  0.00     0.049 A 
ATOM     37  N   UNL A   1      45.185  26.176  27.702  1.00  0.00    -0.248 NA
ATOM     38  C   UNL A   1      45.655  24.010  26.970  1.00  0.00     0.031 C 
ATOM     39  C   UNL A   1      40.876  25.083  28.117  1.00  0.00     0.029 A 
ATOM     40  N   UNL A   1      42.385  26.721  28.322  1.00  0.00    -0.354 N 
ATOM     41  C   UNL A   1      46.555  26.043  27.512  1.00  0.00     0.074 A 
ATOM     42  C   UNL A   1      46.794  24.672  27.116  1.00  0.00     0.031 C 
ATOM     43  C   UNL A   1      40.230  26.173  28.563  1.00  0.00     0.029 A 
ATOM     44  C   UNL A   1      41.186  27.267  28.711  1.00  0.00     0.049 A 
ATOM     45  H   UNL A   1      43.232  27.224  28.324  1.00  0.00     0.167 HD
ATOM     46  C   UNL A   1      47.526  26.980  27.633  1.00  0.00     0.037 A 
ATOM     47  C   UNL A   1      40.889  28.511  29.131  1.00  0.00     0.037 A 
ATOM     48  C   UNL A   1      47.290  28.356  27.981  1.00  0.00     0.049 A 
ATOM     49  C   UNL A   1      41.970  29.552  29.194  1.00  0.00     0.074 A 
ATOM     50  C   UNL A   1      48.198  29.399  28.048  1.00  0.00     0.029 A 
ATOM     51  N   UNL A   1      46.053  28.882  28.321  1.00  0.00    -0.354 N 
ATOM     52  N   UNL A   1      43.248  29.432  28.932  1.00  0.00    -0.248 NA
ATOM     53  C   UNL A   1      41.564  30.905  29.600  1.00  0.00     0.031 C 
ATOM     54  C   UNL A   1      47.514  30.550  28.456  1.00  0.00     0.029 A 
ATOM     55  C   UNL A   1      46.176  30.231  28.612  1.00  0.00     0.049 A 
ATOM     56  H   UNL A   1      45.212  28.371  28.352  1.00  0.00     0.167 HD
ATOM     57  C   UNL A   1      43.796  30.693  29.122  1.00  0.00     0.074 A 
ATOM     58  C   UNL A   1      42.708  31.569  29.505  1.00  0.00     0.031 C 
ATOM     59  C   UNL A   1      45.085  31.089  28.994  1.00  0.00     0.037 A 
BRANCH  46  60
ATOM     60  C   UNL A   1      48.938  26.544  27.376  1.00  0.00     0.057 A 
ATOM     61  C   UNL A   1      49.778  26.111  28.411  1.00  0.00     0.134 A 
ATOM     62  C   UNL A   1      49.459  26.537  26.076  1.00  0.00     0.134 A 
ATOM     63  F   UNL A   1      49.343  26.105  29.680  1.00  0.00    -0.206 F 
ATOM     64  C   UNL A   1      51.094  25.715  28.166  1.00  0.00     0.040 A 
ATOM     65  C   UNL A   1      50.766  26.121  25.816  1.00  0.00     0.040 A 
ATOM     66  F   UNL A   1      48.707  26.933  25.038  1.00  0.00    -0.206 F 
ATOM     67  C   UNL A   1      51.589  25.714  26.865  1.00  0.00     0.006 A 
ENDBRANCH  46  60
BRANCH  47  68
ATOM     68  C   UNL A   1      39.489  28.851  29.484  1.00  0.00     0.057 A 
ATOM     69  C   UNL A   1      39.010  28.671  30.787  1.00  0.00     0.134 A 
ATOM     70  C   UNL A   1      38.603  29.370  28.535  1.00  0.00     0.134 A 
ATOM     71  F   UNL A   1      39.809  28.159  31.735  1.00  0.00    -0.206 F 
ATOM     72  C   UNL A   1      37.695  28.983  31.131  1.00  0.00     0.040 A 
ATOM     73  C   UNL A   1      37.290  29.705  28.869  1.00  0.00     0.040 A 
ATOM     74  F   UNL A   1      39.005  29.569  27.271  1.00  0.00    -0.206 F 
ATOM     75  C   UNL A   1      36.832  29.507  30.170  1.00  0.00     0.006 A 
ENDBRANCH  47  68
BRANCH  59  76
ATOM     76  C   UNL A   1      45.383  32.535  29.256  1.00  0.00     0.057 A 
ATOM     77  C   UNL A   1      45.741  32.992  30.531  1.00  0.00     0.134 A 
ATOM     78  C   UNL A   1      45.330  33.476  28.221  1.00  0.00     0.134 A 
ATOM     79  F   UNL A   1      45.795  32.142  31.567  1.00  0.00    -0.206 F 
ATOM     80  C   UNL A   1      46.014  34.340  30.772  1.00  0.00     0.040 A 
ATOM     81  C   UNL A   1      45.622  34.823  28.445  1.00  0.00     0.040 A 
ATOM     82  F   UNL A   1      45.000  33.101  26.976  1.00  0.00    -0.206 F 
ATOM     83  C   UNL A   1      45.959  35.258  29.725  1.00  0.00     0.006 A 
ENDBRANCH  59  76
ENDBRANCH  33  34
ENDBRANCH  25  28
ENDBRANCH  23  24
ENDBRANCH  22  23
ENDBRANCH   1  22
TORSDOF 14
ENDMDL
MODEL 2
REMARK VINA RESULT:     -10.7      1.156      6.427
REMARK SMILES Cc1csc(C[NH2+]C[C@H]2CCC[C@H]2C(=O)NCCCNC(=O)c2ccc(-c3c4nc(c(-c5c(F)cccc5F)c5ccc([nH]5)c(-c5c(F)cccc5F)c5nc(c(-c6c(F)cccc6F)c6ccc3[nH]6)C=C5)C=C4)cc2)n1
REMARK SMILES IDX 17 1 16 2 14 3 15 4 13 6 9 7 10 8 11 9 12 10 8 11 7 12 6 15
REMARK SMILES IDX 5 16 1 17 2 18 3 19 77 20 4 21 18 22 19 23 20 24 21 25 22 27
REMARK SMILES IDX 23 28 24 29 76 30 25 31 75 32 26 33 27 34 28 35 69 36 29 37
REMARK SMILES IDX 74 38 68 39 70 40 30 41 73 42 67 43 66 44 31 46 57 47 40 48
REMARK SMILES IDX 56 49 41 50 44 51 55 52 71 53 42 54 43 55 54 57 72 58 45 59
REMARK SMILES IDX 32 60 33 61 38 62 34 63 35 64 37 65 39 66 36 67 58 68 59 69
REMARK SMILES IDX 64 70 60 71 61 72 63 73 65 74 62 75 46 76 47 77 52 78 48 79
REMARK SMILES IDX 49 80 51 81 53 82 50 83
REMARK H PARENT 16 5 7 13 7 14 20 26 70 45 44 56
REMARK Flexibility Score: inf
ROOT
ATOM      1  C   UNL A   1      36.716  20.438  24.537  1.00  0.00     0.117 C 
ENDROOT
BRANCH   1   2
ATOM      2  N   UNL A   1      35.898  20.890  25.653  1.00  0.00    -0.356 N 
ATOM      3  C   UNL A   1      35.224  22.028  25.942  1.00  0.00     0.223 C 
ATOM      4  O   UNL A   1      34.692  22.065  27.059  1.00  0.00    -0.275 OA
ATOM      5  H   UNL A   1      35.816  20.211  26.363  1.00  0.00     0.163 HD
BRANCH   3   6
ATOM      6  C   UNL A   1      35.103  23.247  25.031  1.00  0.00     0.087 C 
ATOM      7  C   UNL A   1      34.128  23.169  23.827  1.00  0.00     0.057 C 
ATOM      8  C   UNL A   1      33.990  24.651  23.456  1.00  0.00     0.010 C 
ATOM      9  C   UNL A   1      33.896  25.357  24.802  1.00  0.00     0.001 C 
ATOM     10  C   UNL A   1      34.899  24.620  25.686  1.00  0.00     0.014 C 
BRANCH   7  11
ATOM     11  C   UNL A   1      32.797  22.490  24.166  1.00  0.00     0.265 C 
BRANCH  11  12
ATOM     12  N   UNL A   1      32.579  21.144  23.676  1.00  0.00    -0.340 N 
ATOM     13  H   UNL A   1      31.755  21.157  23.076  1.00  0.00     0.346 HD
ATOM     14  H   UNL A   1      33.437  20.879  23.192  1.00  0.00     0.346 HD
BRANCH  12  15
ATOM     15  C   UNL A   1      32.369  20.128  24.705  1.00  0.00     0.329 C 
BRANCH  15  16
ATOM     16  C   UNL A   1      33.056  18.852  24.282  1.00  0.00     0.147 A 
ATOM     17  C   UNL A   1      35.142  16.057  25.166  1.00  0.00     0.067 C 
ATOM     18  C   UNL A   1      34.244  16.983  24.431  1.00  0.00     0.049 A 
ATOM     19  C   UNL A   1      33.663  16.776  23.196  1.00  0.00     0.090 A 
ATOM     20  N   UNL A   1      33.913  18.184  25.030  1.00  0.00    -0.241 NA
ATOM     21  S   UNL A   1      32.662  18.104  22.783  1.00  0.00    -0.121 S 
ENDBRANCH  15  16
ENDBRANCH  12  15
ENDBRANCH  11  12
ENDBRANCH   7  11
ENDBRANCH   3   6
ENDBRANCH   1   2
BRANCH   1  22
ATOM     22  C   UNL A   1      37.811  19.464  24.976  1.00  0.00     0.042 C 
BRANCH  22  23
ATOM     23  C   UNL A   1      38.974  20.104  25.725  1.00  0.00     0.118 C 
BRANCH  23  24
ATOM     24  N   UNL A   1      40.111  19.209  25.840  1.00  0.00    -0.352 N 
ATOM     25  C   UNL A   1      41.433  19.483  26.093  1.00  0.00     0.251 C 
ATOM     26  H   UNL A   1      39.901  18.255  25.718  1.00  0.00     0.163 HD
ATOM     27  O   UNL A   1      42.265  18.595  25.924  1.00  0.00    -0.269 OA
BRANCH  25  28
ATOM     28  C   UNL A   1      41.882  20.822  26.554  1.00  0.00     0.039 A 
ATOM     29  C   UNL A   1      41.862  21.091  27.928  1.00  0.00     0.014 A 
ATOM     30  C   UNL A   1      42.236  21.841  25.664  1.00  0.00     0.014 A 
ATOM     31  C   UNL A   1      42.219  22.356  28.405  1.00  0.00     0.010 A 
ATOM     32  C   UNL A   1      42.667  23.079  26.144  1.00  0.00     0.010 A 
ATOM     33  C   UNL A   1      42.639  23.360  27.518  1.00  0.00    -0.014 A 
BRANCH  33  34
ATOM     34  C   UNL A   1      43.007  24.711  28.019  1.00  0.00     0.031 A 
ATOM     35  C   UNL A   1      41.944  25.747  28.274  1.00  0.00     0.074 A 
ATOM     36  C   UNL A   1      44.302  25.024  28.219  1.00  0.00     0.049 A 
ATOM     37  N   UNL A   1      42.073  26.975  28.714  1.00  0.00    -0.248 NA
ATOM     38  C   UNL A   1      40.557  25.365  27.968  1.00  0.00     0.031 C 
ATOM     39  C   UNL A   1      45.437  24.140  27.949  1.00  0.00     0.029 A 
ATOM     40  N   UNL A   1      44.881  26.174  28.694  1.00  0.00    -0.354 N 
ATOM     41  C   UNL A   1      40.793  27.515  28.714  1.00  0.00     0.074 A 
ATOM     42  C   UNL A   1      39.907  26.498  28.191  1.00  0.00     0.031 C 
ATOM     43  C   UNL A   1      46.573  24.772  28.285  1.00  0.00     0.029 A 
ATOM     44  C   UNL A   1      46.250  26.109  28.775  1.00  0.00     0.049 A 
ATOM     45  H   UNL A   1      44.363  26.972  28.951  1.00  0.00     0.167 HD
ATOM     46  C   UNL A   1      40.384  28.737  29.131  1.00  0.00     0.037 A 
ATOM     47  C   UNL A   1      47.143  27.019  29.205  1.00  0.00     0.037 A 
ATOM     48  C   UNL A   1      41.253  29.737  29.694  1.00  0.00     0.049 A 
ATOM     49  C   UNL A   1      46.662  28.344  29.725  1.00  0.00     0.074 A 
ATOM     50  C   UNL A   1      40.921  30.973  30.221  1.00  0.00     0.029 A 
ATOM     51  N   UNL A   1      42.630  29.613  29.805  1.00  0.00    -0.354 N 
ATOM     52  N   UNL A   1      45.439  28.809  29.796  1.00  0.00    -0.248 NA
ATOM     53  C   UNL A   1      47.686  29.265  30.239  1.00  0.00     0.031 C 
ATOM     54  C   UNL A   1      42.101  31.609  30.625  1.00  0.00     0.029 A 
ATOM     55  C   UNL A   1      43.163  30.756  30.379  1.00  0.00     0.049 A 
ATOM     56  H   UNL A   1      43.151  28.829  29.516  1.00  0.00     0.167 HD
ATOM     57  C   UNL A   1      45.543  30.066  30.375  1.00  0.00     0.074 A 
ATOM     58  C   UNL A   1      46.947  30.284  30.654  1.00  0.00     0.031 C 
ATOM     59  C   UNL A   1      44.562  30.960  30.648  1.00  0.00     0.037 A 
BRANCH  46  60
ATOM     60  C   UNL A   1      38.925  29.057  28.999  1.00  0.00     0.057 A 
ATOM     61  C   UNL A   1      38.366  29.471  27.783  1.00  0.00     0.134 A 
ATOM     62  C   UNL A   1      38.063  28.929  30.096  1.00  0.00     0.134 A 
ATOM     63  F   UNL A   1      39.139  29.625  26.698  1.00  0.00    -0.206 F 
ATOM     64  C   UNL A   1      37.008  29.776  27.669  1.00  0.00     0.040 A 
ATOM     65  C   UNL A   1      36.700  29.207  29.989  1.00  0.00     0.040 A 
ATOM     66  F   UNL A   1      38.532  28.531  31.288  1.00  0.00    -0.206 F 
ATOM     67  C   UNL A   1      36.170  29.639  28.773  1.00  0.00     0.006 A 
ENDBRANCH  46  60
BRANCH  47  68
ATOM     68  C   UNL A   1      48.588  26.687  29.201  1.00  0.00     0.057 A 
ATOM     69  C   UNL A   1      49.184  26.048  30.296  1.00  0.00     0.134 A 
ATOM     70  C   UNL A   1      49.404  26.990  28.106  1.00  0.00     0.134 A 
ATOM     71  F   UNL A   1      48.456  25.751  31.381  1.00  0.00    -0.206 F 
ATOM     72  C   UNL A   1      50.543  25.734  30.305  1.00  0.00     0.040 A 
ATOM     73  C   UNL A   1      50.761  26.663  28.094  1.00  0.00     0.040 A 
ATOM     74  F   UNL A   1      48.890  27.597  27.026  1.00  0.00    -0.206 F 
ATOM     75  C   UNL A   1      51.335  26.037  29.199  1.00  0.00     0.006 A 
ENDBRANCH  47  68
BRANCH  59  76
ATOM     76  C   UNL A   1      44.976  32.248  31.294  1.00  0.00     0.057 A 
ATOM     77  C   UNL A   1      45.309  33.378  30.535  1.00  0.00     0.134 A 
ATOM     78  C   UNL A   1      45.023  32.366  32.688  1.00  0.00     0.134 A 
ATOM     79  F   UNL A   1      45.296  33.323  29.195  1.00  0.00    -0.206 F 
ATOM     80  C   UNL A   1      45.696  34.574  31.141  1.00  0.00     0.040 A 
ATOM     81  C   UNL A   1      45.389  33.564  33.306  1.00  0.00     0.040 A 
ATOM     82  F   UNL A   1      44.710  31.324  33.472  1.00  0.00    -0.206 F 
ATOM     83  C   UNL A   1      45.733  34.670  32.531  1.00  0.00     0.006 A 
ENDBRANCH  59  76
ENDBRANCH  33  34
ENDBRANCH  25  28
ENDBRANCH  23  24
ENDBRANCH  22  23
ENDBRANCH   1  22
TORSDOF 14
ENDMDL
MODEL 3
REMARK VINA RESULT:     -10.4      4.814      9.558
REMARK SMILES Cc1csc(C[NH2+]C[C@H]2CCC[C@H]2C(=O)NCCCNC(=O)c2ccc(-c3c4nc(c(-c5c(F)cccc5F)c5ccc([nH]5)c(-c5c(F)cccc5F)c5nc(c(-c6c(F)cccc6F)c6ccc3[nH]6)C=C5)C=C4)cc2)n1
REMARK SMILES IDX 17 1 16 2 14 3 15 4 13 6 9 7 10 8 11 9 12 10 8 11 7 12 6 15
REMARK SMILES IDX 5 16 1 17 2 18 3 19 77 20 4 21 18 22 19 23 20 24 21 25 22 27
REMARK SMILES IDX 23 28 24 29 76 30 25 31 75 32 26 33 27 34 28 35 69 36 29 37
REMARK SMILES IDX 74 38 68 39 70 40 30 41 73 42 67 43 66 44 31 46 57 47 40 48
REMARK SMILES IDX 56 49 41 50 44 51 55 52 71 53 42 54 43 55 54 57 72 58 45 59
REMARK SMILES IDX 32 60 33 61 38 62 34 63 35 64 37 65 39 66 36 67 58 68 59 69
REMARK SMILES IDX 64 70 60 71 61 72 63 73 65 74 62 75 46 76 47 77 52 78 48 79
REMARK SMILES IDX 49 80 51 81 53 82 50 83
REMARK H PARENT 16 5 7 13 7 14 20 26 70 45 44 56
REMARK Flexibility Score: inf
ROOT
ATOM      1  C   UNL A   1      31.772  30.582  26.671  1.00  0.00     0.117 C 
ENDROOT
BRANCH   1   2
ATOM      2  N   UNL A   1      31.408  30.123  25.338  1.00  0.00    -0.356 N 
ATOM      3  C   UNL A   1      31.879  29.173  24.495  1.00  0.00     0.223 C 
ATOM      4  O   UNL A   1      31.338  29.131  23.383  1.00  0.00    -0.275 OA
ATOM      5  H   UNL A   1      30.642  30.616  24.962  1.00  0.00     0.163 HD
BRANCH   3   6
ATOM      6  C   UNL A   1      33.016  28.200  24.796  1.00  0.00     0.087 C 
ATOM      7  C   UNL A   1      32.853  27.231  25.996  1.00  0.00     0.057 C 
ATOM      8  C   UNL A   1      33.950  26.201  25.699  1.00  0.00     0.010 C 
ATOM      9  C   UNL A   1      33.855  25.988  24.195  1.00  0.00     0.001 C 
ATOM     10  C   UNL A   1      33.592  27.382  23.632  1.00  0.00     0.014 C 
BRANCH   7  11
ATOM     11  C   UNL A   1      31.450  26.625  26.103  1.00  0.00     0.265 C 
BRANCH  11  12
ATOM     12  N   UNL A   1      31.310  25.356  26.788  1.00  0.00    -0.340 N 
ATOM     13  H   UNL A   1      32.231  24.921  26.835  1.00  0.00     0.346 HD
ATOM     14  H   UNL A   1      30.910  25.572  27.701  1.00  0.00     0.346 HD
BRANCH  12  15
ATOM     15  C   UNL A   1      30.394  24.403  26.165  1.00  0.00     0.329 C 
BRANCH  15  16
ATOM     16  C   UNL A   1      31.150  23.600  25.133  1.00  0.00     0.147 A 
ATOM     17  C   UNL A   1      33.304  20.814  24.397  1.00  0.00     0.067 C 
ATOM     18  C   UNL A   1      32.404  21.987  24.266  1.00  0.00     0.049 A 
ATOM     19  C   UNL A   1      31.886  22.515  23.099  1.00  0.00     0.090 A 
ATOM     20  N   UNL A   1      31.998  22.632  25.420  1.00  0.00    -0.241 NA
ATOM     21  S   UNL A   1      30.852  23.835  23.455  1.00  0.00    -0.121 S 
ENDBRANCH  15  16
ENDBRANCH  12  15
ENDBRANCH  11  12
ENDBRANCH   7  11
ENDBRANCH   3   6
ENDBRANCH   1   2
BRANCH   1  22
ATOM     22  C   UNL A   1      31.504  32.077  26.863  1.00  0.00     0.042 C 
BRANCH  22  23
ATOM     23  C   UNL A   1      32.752  32.945  26.953  1.00  0.00     0.118 C 
BRANCH  23  24
ATOM     24  N   UNL A   1      32.538  34.133  27.760  1.00  0.00    -0.352 N 
ATOM     25  C   UNL A   1      33.185  34.565  28.892  1.00  0.00     0.251 C 
ATOM     26  H   UNL A   1      31.814  34.722  27.445  1.00  0.00     0.163 HD
ATOM     27  O   UNL A   1      32.693  35.484  29.541  1.00  0.00    -0.269 OA
BRANCH  25  28
ATOM     28  C   UNL A   1      34.455  33.946  29.354  1.00  0.00     0.039 A 
ATOM     29  C   UNL A   1      35.635  34.271  28.675  1.00  0.00     0.014 A 
ATOM     30  C   UNL A   1      34.494  32.994  30.376  1.00  0.00     0.014 A 
ATOM     31  C   UNL A   1      36.845  33.669  29.036  1.00  0.00     0.010 A 
ATOM     32  C   UNL A   1      35.713  32.451  30.788  1.00  0.00     0.010 A 
ATOM     33  C   UNL A   1      36.899  32.762  30.107  1.00  0.00    -0.014 A 
BRANCH  33  34
ATOM     34  C   UNL A   1      38.179  32.109  30.485  1.00  0.00     0.031 A 
ATOM     35  C   UNL A   1      39.073  32.727  31.528  1.00  0.00     0.074 A 
ATOM     36  C   UNL A   1      38.562  30.973  29.871  1.00  0.00     0.049 A 
ATOM     37  N   UNL A   1      40.224  32.302  31.991  1.00  0.00    -0.248 NA
ATOM     38  C   UNL A   1      38.632  34.005  32.108  1.00  0.00     0.031 C 
ATOM     39  C   UNL A   1      37.826  30.303  28.798  1.00  0.00     0.029 A 
ATOM     40  N   UNL A   1      39.667  30.182  30.063  1.00  0.00    -0.354 N 
ATOM     41  C   UNL A   1      40.651  33.268  32.893  1.00  0.00     0.074 A 
ATOM     42  C   UNL A   1      39.659  34.322  32.883  1.00  0.00     0.031 C 
ATOM     43  C   UNL A   1      38.489  29.191  28.441  1.00  0.00     0.029 A 
ATOM     44  C   UNL A   1      39.702  29.078  29.247  1.00  0.00     0.049 A 
ATOM     45  H   UNL A   1      40.370  30.387  30.722  1.00  0.00     0.167 HD
ATOM     46  C   UNL A   1      41.755  33.272  33.677  1.00  0.00     0.037 A 
ATOM     47  C   UNL A   1      40.603  28.082  29.163  1.00  0.00     0.037 A 
ATOM     48  C   UNL A   1      42.722  32.206  33.726  1.00  0.00     0.049 A 
ATOM     49  C   UNL A   1      41.786  28.072  30.089  1.00  0.00     0.074 A 
ATOM     50  C   UNL A   1      43.829  32.081  34.547  1.00  0.00     0.029 A 
ATOM     51  N   UNL A   1      42.695  31.080  32.917  1.00  0.00    -0.354 N 
ATOM     52  N   UNL A   1      42.133  28.952  30.996  1.00  0.00    -0.248 NA
ATOM     53  C   UNL A   1      42.697  26.922  29.988  1.00  0.00     0.031 C 
ATOM     54  C   UNL A   1      44.488  30.891  34.216  1.00  0.00     0.029 A 
ATOM     55  C   UNL A   1      43.773  30.261  33.212  1.00  0.00     0.049 A 
ATOM     56  H   UNL A   1      42.011  30.892  32.235  1.00  0.00     0.167 HD
ATOM     57  C   UNL A   1      43.289  28.456  31.584  1.00  0.00     0.074 A 
ATOM     58  C   UNL A   1      43.575  27.189  30.945  1.00  0.00     0.031 C 
ATOM     59  C   UNL A   1      44.046  29.005  32.565  1.00  0.00     0.037 A 
BRANCH  46  60
ATOM     60  C   UNL A   1      41.971  34.468  34.556  1.00  0.00     0.057 A 
ATOM     61  C   UNL A   1      41.504  34.509  35.877  1.00  0.00     0.134 A 
ATOM     62  C   UNL A   1      42.673  35.584  34.085  1.00  0.00     0.134 A 
ATOM     63  F   UNL A   1      40.813  33.477  36.385  1.00  0.00    -0.206 F 
ATOM     64  C   UNL A   1      41.701  35.628  36.687  1.00  0.00     0.040 A 
ATOM     65  C   UNL A   1      42.898  36.700  34.893  1.00  0.00     0.040 A 
ATOM     66  F   UNL A   1      43.154  35.608  32.833  1.00  0.00    -0.206 F 
ATOM     67  C   UNL A   1      42.404  36.726  36.197  1.00  0.00     0.006 A 
ENDBRANCH  46  60
BRANCH  47  68
ATOM     68  C   UNL A   1      40.395  26.983  28.189  1.00  0.00     0.057 A 
ATOM     69  C   UNL A   1      41.012  27.006  26.933  1.00  0.00     0.134 A 
ATOM     70  C   UNL A   1      39.583  25.884  28.492  1.00  0.00     0.134 A 
ATOM     71  F   UNL A   1      41.785  28.043  26.581  1.00  0.00    -0.206 F 
ATOM     72  C   UNL A   1      40.820  25.980  26.007  1.00  0.00     0.040 A 
ATOM     73  C   UNL A   1      39.398  24.842  27.583  1.00  0.00     0.040 A 
ATOM     74  F   UNL A   1      38.969  25.803  29.682  1.00  0.00    -0.206 F 
ATOM     75  C   UNL A   1      40.015  24.891  26.334  1.00  0.00     0.006 A 
ENDBRANCH  47  68
BRANCH  59  76
ATOM     76  C   UNL A   1      45.247  28.226  33.013  1.00  0.00     0.057 A 
ATOM     77  C   UNL A   1      46.509  28.427  32.440  1.00  0.00     0.134 A 
ATOM     78  C   UNL A   1      45.144  27.281  34.041  1.00  0.00     0.134 A 
ATOM     79  F   UNL A   1      46.669  29.309  31.442  1.00  0.00    -0.206 F 
ATOM     80  C   UNL A   1      47.624  27.699  32.858  1.00  0.00     0.040 A 
ATOM     81  C   UNL A   1      46.256  26.561  34.482  1.00  0.00     0.040 A 
ATOM     82  F   UNL A   1      43.964  27.047  34.635  1.00  0.00    -0.206 F 
ATOM     83  C   UNL A   1      47.498  26.765  33.886  1.00  0.00     0.006 A 
ENDBRANCH  59  76
ENDBRANCH  33  34
ENDBRANCH  25  28
ENDBRANCH  23  24
ENDBRANCH  22  23
ENDBRANCH   1  22
TORSDOF 14
ENDMDL
