MODEL 1
REMARK VINA RESULT:     -12.9      0.000      0.000
REMARK SMILES O=C(NCCCNC(=O)c1ccccc1/C=C1/SC(=S)N(C2CCCC2)C1=O)c1ccc(-c2c3nc(c(-c4c(F)cccc4F)c4ccc([nH]4)c(-c4c(F)cccc4F)c4nc(c(-c5c(F)cccc5F)c5ccc2[nH]5)C=C4)C=C3)cc1
REMARK SMILES IDX 5 1 4 2 3 3 1 4 2 5 29 7 30 8 82 9 31 10 81 11 32 12 33 13
REMARK SMILES IDX 34 14 75 15 35 16 80 17 74 18 76 19 36 20 79 21 73 22 72 23
REMARK SMILES IDX 37 25 63 26 46 27 62 28 47 29 50 30 61 31 77 32 48 33 49 34
REMARK SMILES IDX 60 36 78 37 51 38 38 39 39 40 44 41 40 42 41 43 43 44 45 45
REMARK SMILES IDX 42 46 64 47 65 48 70 49 66 50 67 51 69 52 71 53 68 54 52 55
REMARK SMILES IDX 53 56 58 57 54 58 55 59 57 60 59 61 56 62 6 63 7 64 8 65
REMARK SMILES IDX 9 67 10 68 11 69 15 70 12 71 14 72 13 73 16 74 17 75 18 76
REMARK SMILES IDX 27 77 19 78 21 79 28 80 20 81 22 82 23 83 26 84 24 85 25 86
REMARK H PARENT 3 6 76 24 50 35 7 66
REMARK Flexibility Score: inf
ROOT
ATOM      1  C   UNL A   1      38.609  22.544  26.440  1.00  0.00     0.042 C 
ENDROOT
BRANCH   1   2
ATOM      2  C   UNL A   1      39.690  23.401  27.075  1.00  0.00     0.118 C 
BRANCH   2   3
ATOM      3  N   UNL A   1      40.618  23.979  26.107  1.00  0.00    -0.352 N 
ATOM      4  O   UNL A   1      41.764  25.591  25.017  1.00  0.00    -0.269 OA
ATOM      5  C   UNL A   1      41.104  25.261  25.998  1.00  0.00     0.251 C 
ATOM      6  H   UNL A   1      40.948  23.351  25.423  1.00  0.00     0.163 HD
BRANCH   5   7
ATOM      7  C   UNL A   1      40.796  26.252  27.048  1.00  0.00     0.039 A 
ATOM      8  C   UNL A   1      41.407  27.503  27.030  1.00  0.00     0.014 A 
ATOM      9  C   UNL A   1      39.913  25.920  28.079  1.00  0.00     0.014 A 
ATOM     10  C   UNL A   1      41.330  28.319  28.147  1.00  0.00     0.010 A 
ATOM     11  C   UNL A   1      39.716  26.815  29.136  1.00  0.00     0.010 A 
ATOM     12  C   UNL A   1      40.459  28.003  29.201  1.00  0.00    -0.014 A 
BRANCH  12  13
ATOM     13  C   UNL A   1      40.300  28.979  30.307  1.00  0.00     0.031 A 
ATOM     14  C   UNL A   1      39.228  30.032  30.282  1.00  0.00     0.074 A 
ATOM     15  C   UNL A   1      41.120  28.870  31.372  1.00  0.00     0.049 A 
ATOM     16  N   UNL A   1      38.952  30.944  31.181  1.00  0.00    -0.248 NA
ATOM     17  C   UNL A   1      38.360  30.081  29.096  1.00  0.00     0.031 C 
ATOM     18  C   UNL A   1      42.202  27.888  31.504  1.00  0.00     0.029 A 
ATOM     19  N   UNL A   1      41.160  29.563  32.552  1.00  0.00    -0.354 N 
ATOM     20  C   UNL A   1      37.897  31.685  30.663  1.00  0.00     0.074 A 
ATOM     21  C   UNL A   1      37.599  31.135  29.358  1.00  0.00     0.031 C 
ATOM     22  C   UNL A   1      42.753  27.998  32.719  1.00  0.00     0.029 A 
ATOM     23  C   UNL A   1      42.130  29.115  33.416  1.00  0.00     0.049 A 
ATOM     24  H   UNL A   1      40.554  30.309  32.762  1.00  0.00     0.167 HD
ATOM     25  C   UNL A   1      37.237  32.724  31.230  1.00  0.00     0.037 A 
ATOM     26  C   UNL A   1      42.503  29.567  34.625  1.00  0.00     0.037 A 
ATOM     27  C   UNL A   1      37.537  33.257  32.536  1.00  0.00     0.049 A 
ATOM     28  C   UNL A   1      41.781  30.745  35.207  1.00  0.00     0.074 A 
ATOM     29  C   UNL A   1      36.909  34.289  33.212  1.00  0.00     0.029 A 
ATOM     30  N   UNL A   1      38.557  32.804  33.363  1.00  0.00    -0.354 N 
ATOM     31  N   UNL A   1      40.769  31.417  34.717  1.00  0.00    -0.248 NA
ATOM     32  C   UNL A   1      42.256  31.229  36.509  1.00  0.00     0.031 C 
ATOM     33  C   UNL A   1      37.585  34.498  34.419  1.00  0.00     0.029 A 
ATOM     34  C   UNL A   1      38.593  33.555  34.528  1.00  0.00     0.049 A 
ATOM     35  H   UNL A   1      39.165  32.059  33.152  1.00  0.00     0.167 HD
ATOM     36  C   UNL A   1      40.471  32.392  35.657  1.00  0.00     0.074 A 
ATOM     37  C   UNL A   1      41.395  32.206  36.758  1.00  0.00     0.031 C 
ATOM     38  C   UNL A   1      39.519  33.356  35.613  1.00  0.00     0.037 A 
BRANCH  25  39
ATOM     39  C   UNL A   1      36.140  33.375  30.434  1.00  0.00     0.057 A 
ATOM     40  C   UNL A   1      36.407  34.221  29.350  1.00  0.00     0.134 A 
ATOM     41  C   UNL A   1      34.795  33.113  30.729  1.00  0.00     0.134 A 
ATOM     42  F   UNL A   1      37.671  34.523  29.017  1.00  0.00    -0.206 F 
ATOM     43  C   UNL A   1      35.376  34.799  28.603  1.00  0.00     0.040 A 
ATOM     44  C   UNL A   1      33.758  33.662  29.973  1.00  0.00     0.040 A 
ATOM     45  F   UNL A   1      34.465  32.306  31.749  1.00  0.00    -0.206 F 
ATOM     46  C   UNL A   1      34.048  34.513  28.910  1.00  0.00     0.006 A 
ENDBRANCH  25  39
BRANCH  26  47
ATOM     47  C   UNL A   1      43.625  28.916  35.345  1.00  0.00     0.057 A 
ATOM     48  C   UNL A   1      44.952  29.294  35.115  1.00  0.00     0.134 A 
ATOM     49  C   UNL A   1      43.396  27.908  36.291  1.00  0.00     0.134 A 
ATOM     50  F   UNL A   1      45.236  30.246  34.213  1.00  0.00    -0.206 F 
ATOM     51  C   UNL A   1      46.012  28.680  35.782  1.00  0.00     0.040 A 
ATOM     52  C   UNL A   1      44.444  27.308  36.989  1.00  0.00     0.040 A 
ATOM     53  F   UNL A   1      42.146  27.509  36.568  1.00  0.00    -0.206 F 
ATOM     54  C   UNL A   1      45.758  27.688  36.729  1.00  0.00     0.006 A 
ENDBRANCH  26  47
BRANCH  38  55
ATOM     55  C   UNL A   1      39.409  34.255  36.811  1.00  0.00     0.057 A 
ATOM     56  C   UNL A   1      39.962  35.542  36.828  1.00  0.00     0.134 A 
ATOM     57  C   UNL A   1      38.727  33.829  37.959  1.00  0.00     0.134 A 
ATOM     58  F   UNL A   1      40.643  36.004  35.768  1.00  0.00    -0.206 F 
ATOM     59  C   UNL A   1      39.868  36.361  37.954  1.00  0.00     0.040 A 
ATOM     60  C   UNL A   1      38.598  34.651  39.078  1.00  0.00     0.040 A 
ATOM     61  F   UNL A   1      38.168  32.610  38.006  1.00  0.00    -0.206 F 
ATOM     62  C   UNL A   1      39.178  35.918  39.081  1.00  0.00     0.006 A 
ENDBRANCH  38  55
ENDBRANCH  12  13
ENDBRANCH   5   7
ENDBRANCH   2   3
ENDBRANCH   1   2
BRANCH   1  63
ATOM     63  C   UNL A   1      37.446  23.349  25.898  1.00  0.00     0.118 C 
BRANCH  63  64
ATOM     64  N   UNL A   1      37.458  23.436  24.446  1.00  0.00    -0.352 N 
ATOM     65  C   UNL A   1      36.593  22.901  23.528  1.00  0.00     0.251 C 
ATOM     66  H   UNL A   1      38.200  23.959  24.066  1.00  0.00     0.163 HD
ATOM     67  O   UNL A   1      36.880  22.978  22.336  1.00  0.00    -0.269 OA
BRANCH  65  68
ATOM     68  C   UNL A   1      35.347  22.222  23.957  1.00  0.00     0.047 A 
ATOM     69  C   UNL A   1      35.517  21.101  24.783  1.00  0.00     0.014 A 
ATOM     70  C   UNL A   1      34.053  22.620  23.551  1.00  0.00    -0.012 A 
ATOM     71  C   UNL A   1      34.406  20.412  25.264  1.00  0.00     0.001 A 
ATOM     72  C   UNL A   1      32.948  21.933  24.071  1.00  0.00     0.009 A 
ATOM     73  C   UNL A   1      33.125  20.838  24.920  1.00  0.00     0.001 A 
BRANCH  70  74
ATOM     74  C   UNL A   1      33.788  23.759  22.654  1.00  0.00     0.030 C 
ATOM     75  C   UNL A   1      33.510  25.010  23.042  1.00  0.00     0.081 C 
ATOM     76  S   UNL A   1      32.861  26.196  21.986  1.00  0.00    -0.054 SA
ATOM     77  C   UNL A   1      33.604  25.563  24.417  1.00  0.00     0.266 C 
ATOM     78  C   UNL A   1      32.409  27.261  23.320  1.00  0.00     0.148 C 
ATOM     79  N   UNL A   1      32.911  26.765  24.510  1.00  0.00    -0.290 N 
ATOM     80  O   UNL A   1      34.278  25.046  25.295  1.00  0.00    -0.268 OA
ATOM     81  S   UNL A   1      31.514  28.637  23.018  1.00  0.00    -0.052 S 
BRANCH  79  82
ATOM     82  C   UNL A   1      32.925  27.428  25.820  1.00  0.00     0.092 C 
ATOM     83  C   UNL A   1      33.628  28.782  25.816  1.00  0.00     0.025 C 
ATOM     84  C   UNL A   1      31.580  27.683  26.502  1.00  0.00     0.025 C 
ATOM     85  C   UNL A   1      33.235  29.385  27.154  1.00  0.00     0.002 C 
ATOM     86  C   UNL A   1      31.845  28.838  27.472  1.00  0.00     0.002 C 
ENDBRANCH  79  82
ENDBRANCH  70  74
ENDBRANCH  65  68
ENDBRANCH  63  64
ENDBRANCH   1  63
TORSDOF 12
ENDMDL
MODEL 2
REMARK VINA RESULT:     -12.6      4.472      8.334
REMARK SMILES O=C(NCCCNC(=O)c1ccccc1/C=C1/SC(=S)N(C2CCCC2)C1=O)c1ccc(-c2c3nc(c(-c4c(F)cccc4F)c4ccc([nH]4)c(-c4c(F)cccc4F)c4nc(c(-c5c(F)cccc5F)c5ccc2[nH]5)C=C4)C=C3)cc1
REMARK SMILES IDX 5 1 4 2 3 3 1 4 2 5 29 7 30 8 82 9 31 10 81 11 32 12 33 13
REMARK SMILES IDX 34 14 75 15 35 16 80 17 74 18 76 19 36 20 79 21 73 22 72 23
REMARK SMILES IDX 37 25 63 26 46 27 62 28 47 29 50 30 61 31 77 32 48 33 49 34
REMARK SMILES IDX 60 36 78 37 51 38 38 39 39 40 44 41 40 42 41 43 43 44 45 45
REMARK SMILES IDX 42 46 64 47 65 48 70 49 66 50 67 51 69 52 71 53 68 54 52 55
REMARK SMILES IDX 53 56 58 57 54 58 55 59 57 60 59 61 56 62 6 63 7 64 8 65
REMARK SMILES IDX 9 67 10 68 11 69 15 70 12 71 14 72 13 73 16 74 17 75 18 76
REMARK SMILES IDX 27 77 19 78 21 79 28 80 20 81 22 82 23 83 26 84 24 85 25 86
REMARK H PARENT 3 6 76 24 50 35 7 66
REMARK Flexibility Score: inf
ROOT
ATOM      1  C   UNL A   1      37.862  19.815  24.949  1.00  0.00     0.042 C 
ENDROOT
BRANCH   1   2
ATOM      2  C   UNL A   1      39.051  20.256  25.784  1.00  0.00     0.118 C 
BRANCH   2   3
ATOM      3  N   UNL A   1      40.121  19.265  25.843  1.00  0.00    -0.352 N 
ATOM      4  O   UNL A   1      42.234  18.476  25.969  1.00  0.00    -0.269 OA
ATOM      5  C   UNL A   1      41.461  19.417  26.117  1.00  0.00     0.251 C 
ATOM      6  H   UNL A   1      39.840  18.339  25.656  1.00  0.00     0.163 HD
BRANCH   5   7
ATOM      7  C   UNL A   1      41.973  20.731  26.555  1.00  0.00     0.039 A 
ATOM      8  C   UNL A   1      42.088  21.020  27.912  1.00  0.00     0.014 A 
ATOM      9  C   UNL A   1      42.312  21.697  25.604  1.00  0.00     0.014 A 
ATOM     10  C   UNL A   1      42.303  22.327  28.319  1.00  0.00     0.010 A 
ATOM     11  C   UNL A   1      42.682  22.979  26.022  1.00  0.00     0.010 A 
ATOM     12  C   UNL A   1      42.636  23.317  27.382  1.00  0.00    -0.014 A 
BRANCH  12  13
ATOM     13  C   UNL A   1      43.003  24.667  27.878  1.00  0.00     0.031 A 
ATOM     14  C   UNL A   1      44.438  25.086  28.037  1.00  0.00     0.074 A 
ATOM     15  C   UNL A   1      42.008  25.538  28.141  1.00  0.00     0.049 A 
ATOM     16  N   UNL A   1      44.916  26.236  28.441  1.00  0.00    -0.248 NA
ATOM     17  C   UNL A   1      45.469  24.089  27.715  1.00  0.00     0.031 C 
ATOM     18  C   UNL A   1      40.576  25.240  28.026  1.00  0.00     0.029 A 
ATOM     19  N   UNL A   1      42.040  26.851  28.528  1.00  0.00    -0.354 N 
ATOM     20  C   UNL A   1      46.299  26.096  28.442  1.00  0.00     0.074 A 
ATOM     21  C   UNL A   1      46.583  24.739  28.025  1.00  0.00     0.031 C 
ATOM     22  C   UNL A   1      39.872  26.352  28.272  1.00  0.00     0.029 A 
ATOM     23  C   UNL A   1      40.792  27.415  28.651  1.00  0.00     0.049 A 
ATOM     24  H   UNL A   1      42.874  27.344  28.702  1.00  0.00     0.167 HD
ATOM     25  C   UNL A   1      47.240  27.018  28.757  1.00  0.00     0.037 A 
ATOM     26  C   UNL A   1      40.421  28.642  29.052  1.00  0.00     0.037 A 
ATOM     27  C   UNL A   1      46.944  28.370  29.162  1.00  0.00     0.049 A 
ATOM     28  C   UNL A   1      41.485  29.627  29.435  1.00  0.00     0.074 A 
ATOM     29  C   UNL A   1      47.827  29.390  29.476  1.00  0.00     0.029 A 
ATOM     30  N   UNL A   1      45.666  28.890  29.317  1.00  0.00    -0.354 N 
ATOM     31  N   UNL A   1      42.788  29.487  29.405  1.00  0.00    -0.248 NA
ATOM     32  C   UNL A   1      41.027  30.937  29.910  1.00  0.00     0.031 C 
ATOM     33  C   UNL A   1      47.085  30.505  29.876  1.00  0.00     0.029 A 
ATOM     34  C   UNL A   1      45.738  30.206  29.750  1.00  0.00     0.049 A 
ATOM     35  H   UNL A   1      44.832  28.397  29.146  1.00  0.00     0.167 HD
ATOM     36  C   UNL A   1      43.308  30.698  29.838  1.00  0.00     0.074 A 
ATOM     37  C   UNL A   1      42.178  31.566  30.100  1.00  0.00     0.031 C 
ATOM     38  C   UNL A   1      44.604  31.057  30.006  1.00  0.00     0.037 A 
BRANCH  25  39
ATOM     39  C   UNL A   1      48.682  26.594  28.704  1.00  0.00     0.057 A 
ATOM     40  C   UNL A   1      49.332  26.022  29.805  1.00  0.00     0.134 A 
ATOM     41  C   UNL A   1      49.416  26.715  27.516  1.00  0.00     0.134 A 
ATOM     42  F   UNL A   1      48.693  25.884  30.976  1.00  0.00    -0.206 F 
ATOM     43  C   UNL A   1      50.666  25.609  29.733  1.00  0.00     0.040 A 
ATOM     44  C   UNL A   1      50.740  26.280  27.424  1.00  0.00     0.040 A 
ATOM     45  F   UNL A   1      48.855  27.246  26.419  1.00  0.00    -0.206 F 
ATOM     46  C   UNL A   1      51.370  25.731  28.537  1.00  0.00     0.006 A 
ENDBRANCH  25  39
BRANCH  26  47
ATOM     47  C   UNL A   1      38.982  28.991  29.133  1.00  0.00     0.057 A 
ATOM     48  C   UNL A   1      38.293  29.491  28.022  1.00  0.00     0.134 A 
ATOM     49  C   UNL A   1      38.257  28.823  30.320  1.00  0.00     0.134 A 
ATOM     50  F   UNL A   1      38.934  29.685  26.860  1.00  0.00    -0.206 F 
ATOM     51  C   UNL A   1      36.941  29.830  28.094  1.00  0.00     0.040 A 
ATOM     52  C   UNL A   1      36.898  29.126  30.397  1.00  0.00     0.040 A 
ATOM     53  F   UNL A   1      38.855  28.336  31.416  1.00  0.00    -0.206 F 
ATOM     54  C   UNL A   1      36.238  29.640  29.283  1.00  0.00     0.006 A 
ENDBRANCH  26  47
BRANCH  38  55
ATOM     55  C   UNL A   1      44.864  32.466  30.458  1.00  0.00     0.057 A 
ATOM     56  C   UNL A   1      45.000  32.798  31.812  1.00  0.00     0.134 A 
ATOM     57  C   UNL A   1      44.994  33.500  29.521  1.00  0.00     0.134 A 
ATOM     58  F   UNL A   1      44.870  31.858  32.760  1.00  0.00    -0.206 F 
ATOM     59  C   UNL A   1      45.224  34.114  32.219  1.00  0.00     0.040 A 
ATOM     60  C   UNL A   1      45.249  34.813  29.915  1.00  0.00     0.040 A 
ATOM     61  F   UNL A   1      44.881  33.248  28.208  1.00  0.00    -0.206 F 
ATOM     62  C   UNL A   1      45.356  35.124  31.269  1.00  0.00     0.006 A 
ENDBRANCH  38  55
ENDBRANCH  12  13
ENDBRANCH   5   7
ENDBRANCH   2   3
ENDBRANCH   1   2
BRANCH   1  63
ATOM     63  C   UNL A   1      37.181  20.957  24.222  1.00  0.00     0.118 C 
BRANCH  63  64
ATOM     64  N   UNL A   1      37.347  22.229  24.906  1.00  0.00    -0.352 N 
ATOM     65  C   UNL A   1      36.416  23.025  25.520  1.00  0.00     0.251 C 
ATOM     66  H   UNL A   1      38.270  22.571  24.932  1.00  0.00     0.163 HD
ATOM     67  O   UNL A   1      36.758  24.138  25.908  1.00  0.00    -0.269 OA
BRANCH  65  68
ATOM     68  C   UNL A   1      35.017  22.566  25.695  1.00  0.00     0.047 A 
ATOM     69  C   UNL A   1      34.808  21.621  26.710  1.00  0.00     0.014 A 
ATOM     70  C   UNL A   1      33.941  22.996  24.886  1.00  0.00    -0.012 A 
ATOM     71  C   UNL A   1      33.523  21.150  26.973  1.00  0.00     0.001 A 
ATOM     72  C   UNL A   1      32.652  22.534  25.187  1.00  0.00     0.009 A 
ATOM     73  C   UNL A   1      32.447  21.618  26.222  1.00  0.00     0.001 A 
BRANCH  70  74
ATOM     74  C   UNL A   1      34.079  23.953  23.775  1.00  0.00     0.030 C 
ATOM     75  C   UNL A   1      33.862  25.273  23.849  1.00  0.00     0.081 C 
ATOM     76  S   UNL A   1      33.686  26.272  22.465  1.00  0.00    -0.054 SA
ATOM     77  C   UNL A   1      33.637  26.075  25.078  1.00  0.00     0.266 C 
ATOM     78  C   UNL A   1      33.016  27.606  23.408  1.00  0.00     0.148 C 
ATOM     79  N   UNL A   1      33.100  27.318  24.759  1.00  0.00    -0.290 N 
ATOM     80  O   UNL A   1      33.969  25.694  26.190  1.00  0.00    -0.268 OA
ATOM     81  S   UNL A   1      32.418  28.956  22.628  1.00  0.00    -0.052 S 
BRANCH  79  82
ATOM     82  C   UNL A   1      32.829  28.222  25.884  1.00  0.00     0.092 C 
ATOM     83  C   UNL A   1      33.929  29.252  26.123  1.00  0.00     0.025 C 
ATOM     84  C   UNL A   1      31.531  29.030  25.851  1.00  0.00     0.025 C 
ATOM     85  C   UNL A   1      33.287  30.233  27.089  1.00  0.00     0.002 C 
ATOM     86  C   UNL A   1      31.795  30.232  26.762  1.00  0.00     0.002 C 
ENDBRANCH  79  82
ENDBRANCH  70  74
ENDBRANCH  65  68
ENDBRANCH  63  64
ENDBRANCH   1  63
TORSDOF 12
ENDMDL
MODEL 3
REMARK VINA RESULT:     -12.6      5.209     10.342
REMARK SMILES O=C(NCCCNC(=O)c1ccccc1/C=C1/SC(=S)N(C2CCCC2)C1=O)c1ccc(-c2c3nc(c(-c4c(F)cccc4F)c4ccc([nH]4)c(-c4c(F)cccc4F)c4nc(c(-c5c(F)cccc5F)c5ccc2[nH]5)C=C4)C=C3)cc1
REMARK SMILES IDX 5 1 4 2 3 3 1 4 2 5 29 7 30 8 82 9 31 10 81 11 32 12 33 13
REMARK SMILES IDX 34 14 75 15 35 16 80 17 74 18 76 19 36 20 79 21 73 22 72 23
REMARK SMILES IDX 37 25 63 26 46 27 62 28 47 29 50 30 61 31 77 32 48 33 49 34
REMARK SMILES IDX 60 36 78 37 51 38 38 39 39 40 44 41 40 42 41 43 43 44 45 45
REMARK SMILES IDX 42 46 64 47 65 48 70 49 66 50 67 51 69 52 71 53 68 54 52 55
REMARK SMILES IDX 53 56 58 57 54 58 55 59 57 60 59 61 56 62 6 63 7 64 8 65
REMARK SMILES IDX 9 67 10 68 11 69 15 70 12 71 14 72 13 73 16 74 17 75 18 76
REMARK SMILES IDX 27 77 19 78 21 79 28 80 20 81 22 82 23 83 26 84 24 85 25 86
REMARK H PARENT 3 6 76 24 50 35 7 66
REMARK Flexibility Score: inf
ROOT
ATOM      1  C   UNL A   1      35.484  29.315  27.526  1.00  0.00     0.042 C 
ENDROOT
BRANCH   1   2
ATOM      2  C   UNL A   1      35.617  30.733  28.053  1.00  0.00     0.118 C 
BRANCH   2   3
ATOM      3  N   UNL A   1      35.437  30.836  29.498  1.00  0.00    -0.352 N 
ATOM      4  O   UNL A   1      35.904  30.539  31.688  1.00  0.00    -0.269 OA
ATOM      5  C   UNL A   1      36.297  30.525  30.525  1.00  0.00     0.251 C 
ATOM      6  H   UNL A   1      34.560  31.183  29.783  1.00  0.00     0.163 HD
BRANCH   5   7
ATOM      7  C   UNL A   1      37.689  30.135  30.221  1.00  0.00     0.039 A 
ATOM      8  C   UNL A   1      38.326  30.642  29.092  1.00  0.00     0.014 A 
ATOM      9  C   UNL A   1      38.355  29.232  31.053  1.00  0.00     0.014 A 
ATOM     10  C   UNL A   1      39.514  30.074  28.662  1.00  0.00     0.010 A 
ATOM     11  C   UNL A   1      39.628  28.774  30.698  1.00  0.00     0.010 A 
ATOM     12  C   UNL A   1      40.198  29.157  29.475  1.00  0.00    -0.014 A 
BRANCH  12  13
ATOM     13  C   UNL A   1      41.538  28.688  29.042  1.00  0.00     0.031 A 
ATOM     14  C   UNL A   1      41.763  27.283  28.556  1.00  0.00     0.074 A 
ATOM     15  C   UNL A   1      42.553  29.575  29.048  1.00  0.00     0.049 A 
ATOM     16  N   UNL A   1      42.870  26.731  28.127  1.00  0.00    -0.248 NA
ATOM     17  C   UNL A   1      40.606  26.376  28.561  1.00  0.00     0.031 C 
ATOM     18  C   UNL A   1      42.453  30.966  29.503  1.00  0.00     0.029 A 
ATOM     19  N   UNL A   1      43.854  29.457  28.638  1.00  0.00    -0.354 N 
ATOM     20  C   UNL A   1      42.551  25.411  27.832  1.00  0.00     0.074 A 
ATOM     21  C   UNL A   1      41.151  25.236  28.157  1.00  0.00     0.031 C 
ATOM     22  C   UNL A   1      43.618  31.588  29.287  1.00  0.00     0.029 A 
ATOM     23  C   UNL A   1      44.575  30.620  28.767  1.00  0.00     0.049 A 
ATOM     24  H   UNL A   1      44.237  28.622  28.286  1.00  0.00     0.167 HD
ATOM     25  C   UNL A   1      43.353  24.440  27.331  1.00  0.00     0.037 A 
ATOM     26  C   UNL A   1      45.870  30.879  28.523  1.00  0.00     0.037 A 
ATOM     27  C   UNL A   1      44.744  24.630  27.003  1.00  0.00     0.049 A 
ATOM     28  C   UNL A   1      46.742  29.773  28.009  1.00  0.00     0.074 A 
ATOM     29  C   UNL A   1      45.635  23.718  26.464  1.00  0.00     0.029 A 
ATOM     30  N   UNL A   1      45.449  25.812  27.189  1.00  0.00    -0.354 N 
ATOM     31  N   UNL A   1      46.418  28.538  27.710  1.00  0.00    -0.248 NA
ATOM     32  C   UNL A   1      48.159  30.094  27.803  1.00  0.00     0.031 C 
ATOM     33  C   UNL A   1      46.890  24.328  26.379  1.00  0.00     0.029 A 
ATOM     34  C   UNL A   1      46.770  25.642  26.803  1.00  0.00     0.049 A 
ATOM     35  H   UNL A   1      45.067  26.647  27.544  1.00  0.00     0.167 HD
ATOM     36  C   UNL A   1      47.586  27.940  27.262  1.00  0.00     0.074 A 
ATOM     37  C   UNL A   1      48.618  28.955  27.305  1.00  0.00     0.031 C 
ATOM     38  C   UNL A   1      47.785  26.663  26.852  1.00  0.00     0.037 A 
BRANCH  25  39
ATOM     39  C   UNL A   1      42.757  23.075  27.131  1.00  0.00     0.057 A 
ATOM     40  C   UNL A   1      42.473  22.220  28.203  1.00  0.00     0.134 A 
ATOM     41  C   UNL A   1      42.417  22.628  25.846  1.00  0.00     0.134 A 
ATOM     42  F   UNL A   1      42.780  22.578  29.459  1.00  0.00    -0.206 F 
ATOM     43  C   UNL A   1      41.895  20.962  28.004  1.00  0.00     0.040 A 
ATOM     44  C   UNL A   1      41.815  21.386  25.637  1.00  0.00     0.040 A 
ATOM     45  F   UNL A   1      42.653  23.397  24.773  1.00  0.00    -0.206 F 
ATOM     46  C   UNL A   1      41.558  20.547  26.717  1.00  0.00     0.006 A 
ENDBRANCH  25  39
BRANCH  26  47
ATOM     47  C   UNL A   1      46.417  32.234  28.785  1.00  0.00     0.057 A 
ATOM     48  C   UNL A   1      46.928  32.579  30.041  1.00  0.00     0.134 A 
ATOM     49  C   UNL A   1      46.452  33.212  27.783  1.00  0.00     0.134 A 
ATOM     50  F   UNL A   1      46.913  31.690  31.045  1.00  0.00    -0.206 F 
ATOM     51  C   UNL A   1      47.435  33.854  30.297  1.00  0.00     0.040 A 
ATOM     52  C   UNL A   1      46.985  34.479  28.015  1.00  0.00     0.040 A 
ATOM     53  F   UNL A   1      45.989  32.940  26.554  1.00  0.00    -0.206 F 
ATOM     54  C   UNL A   1      47.471  34.806  29.278  1.00  0.00     0.006 A 
ENDBRANCH  26  47
BRANCH  38  55
ATOM     55  C   UNL A   1      49.167  26.311  26.381  1.00  0.00     0.057 A 
ATOM     56  C   UNL A   1      50.075  25.619  27.193  1.00  0.00     0.134 A 
ATOM     57  C   UNL A   1      49.587  26.657  25.090  1.00  0.00     0.134 A 
ATOM     58  F   UNL A   1      49.742  25.274  28.446  1.00  0.00    -0.206 F 
ATOM     59  C   UNL A   1      51.363  25.313  26.749  1.00  0.00     0.040 A 
ATOM     60  C   UNL A   1      50.860  26.328  24.624  1.00  0.00     0.040 A 
ATOM     61  F   UNL A   1      48.764  27.314  24.259  1.00  0.00    -0.206 F 
ATOM     62  C   UNL A   1      51.755  25.662  25.459  1.00  0.00     0.006 A 
ENDBRANCH  38  55
ENDBRANCH  12  13
ENDBRANCH   5   7
ENDBRANCH   2   3
ENDBRANCH   1   2
BRANCH   1  63
ATOM     63  C   UNL A   1      34.197  29.077  26.762  1.00  0.00     0.118 C 
BRANCH  63  64
ATOM     64  N   UNL A   1      33.113  28.632  27.623  1.00  0.00    -0.352 N 
ATOM     65  C   UNL A   1      31.819  28.308  27.310  1.00  0.00     0.251 C 
ATOM     66  H   UNL A   1      33.345  28.550  28.576  1.00  0.00     0.163 HD
ATOM     67  O   UNL A   1      31.028  28.098  28.225  1.00  0.00    -0.269 OA
BRANCH  65  68
ATOM     68  C   UNL A   1      31.371  28.236  25.899  1.00  0.00     0.047 A 
ATOM     69  C   UNL A   1      31.403  29.444  25.186  1.00  0.00     0.014 A 
ATOM     70  C   UNL A   1      30.894  27.056  25.283  1.00  0.00    -0.012 A 
ATOM     71  C   UNL A   1      31.030  29.474  23.844  1.00  0.00     0.001 A 
ATOM     72  C   UNL A   1      30.553  27.101  23.925  1.00  0.00     0.009 A 
ATOM     73  C   UNL A   1      30.620  28.302  23.213  1.00  0.00     0.001 A 
BRANCH  70  74
ATOM     74  C   UNL A   1      30.789  25.757  25.970  1.00  0.00     0.030 C 
ATOM     75  C   UNL A   1      31.745  24.820  26.019  1.00  0.00     0.081 C 
ATOM     76  S   UNL A   1      31.447  23.204  26.512  1.00  0.00    -0.054 SA
ATOM     77  C   UNL A   1      33.157  24.958  25.582  1.00  0.00     0.266 C 
ATOM     78  C   UNL A   1      32.989  22.632  25.866  1.00  0.00     0.148 C 
ATOM     79  N   UNL A   1      33.752  23.708  25.448  1.00  0.00    -0.290 N 
ATOM     80  O   UNL A   1      33.708  26.040  25.450  1.00  0.00    -0.268 OA
ATOM     81  S   UNL A   1      33.326  20.998  25.848  1.00  0.00    -0.052 S 
BRANCH  79  82
ATOM     82  C   UNL A   1      35.157  23.695  25.022  1.00  0.00     0.092 C 
ATOM     83  C   UNL A   1      36.130  23.289  26.126  1.00  0.00     0.025 C 
ATOM     84  C   UNL A   1      35.530  22.819  23.825  1.00  0.00     0.025 C 
ATOM     85  C   UNL A   1      37.429  23.045  25.377  1.00  0.00     0.002 C 
ATOM     86  C   UNL A   1      37.028  22.550  23.988  1.00  0.00     0.002 C 
ENDBRANCH  79  82
ENDBRANCH  70  74
ENDBRANCH  65  68
ENDBRANCH  63  64
ENDBRANCH   1  63
TORSDOF 12
ENDMDL
