MODEL 1
REMARK VINA RESULT:     -11.1      0.000      0.000
REMARK SMILES O=C(NCCCNC(=O)[C@H](F)[C@H](O)C1CCOCC1)c1ccc(-c2c3nc(c(-c4c(F)cccc4F)c4ccc([nH]4)c(-c4c(F)cccc4F)c4nc(c(-c5c(F)cccc5F)c5ccc2[nH]5)C=C4)C=C3)cc1
REMARK SMILES IDX 5 1 4 2 3 3 1 4 2 5 20 7 21 8 73 9 22 10 72 11 23 12 24 13
REMARK SMILES IDX 25 14 66 15 26 16 71 17 65 18 67 19 27 20 70 21 64 22 63 23
REMARK SMILES IDX 28 25 54 26 37 27 53 28 38 29 41 30 52 31 68 32 39 33 40 34
REMARK SMILES IDX 51 36 69 37 42 38 29 39 30 40 35 41 31 42 32 43 34 44 36 45
REMARK SMILES IDX 33 46 55 47 56 48 61 49 57 50 58 51 60 52 62 53 59 54 43 55
REMARK SMILES IDX 44 56 49 57 45 58 46 59 48 60 50 61 47 62 6 63 7 64 8 65
REMARK SMILES IDX 9 67 10 68 11 69 12 70 14 71 15 72 19 73 16 74 18 75 17 76
REMARK SMILES IDX 13 77
REMARK H PARENT 3 6 67 24 41 35 7 66 13 78
REMARK Flexibility Score: inf
ROOT
ATOM      1  C   UNL A   1      31.403  32.005  26.505  1.00  0.00     0.042 C 
ENDROOT
BRANCH   1   2
ATOM      2  C   UNL A   1      32.706  32.653  26.943  1.00  0.00     0.118 C 
BRANCH   2   3
ATOM      3  N   UNL A   1      32.515  33.959  27.572  1.00  0.00    -0.352 N 
ATOM      4  O   UNL A   1      32.707  35.573  29.135  1.00  0.00    -0.269 OA
ATOM      5  C   UNL A   1      33.163  34.556  28.634  1.00  0.00     0.251 C 
ATOM      6  H   UNL A   1      31.803  34.505  27.169  1.00  0.00     0.163 HD
BRANCH   5   7
ATOM      7  C   UNL A   1      34.395  33.946  29.178  1.00  0.00     0.039 A 
ATOM      8  C   UNL A   1      34.302  32.918  30.108  1.00  0.00     0.014 A 
ATOM      9  C   UNL A   1      35.651  34.386  28.750  1.00  0.00     0.014 A 
ATOM     10  C   UNL A   1      35.430  32.497  30.786  1.00  0.00     0.010 A 
ATOM     11  C   UNL A   1      36.808  33.836  29.316  1.00  0.00     0.010 A 
ATOM     12  C   UNL A   1      36.701  32.907  30.360  1.00  0.00    -0.014 A 
BRANCH  12  13
ATOM     13  C   UNL A   1      37.875  32.223  30.952  1.00  0.00     0.031 A 
ATOM     14  C   UNL A   1      38.363  32.546  32.332  1.00  0.00     0.074 A 
ATOM     15  C   UNL A   1      38.448  31.240  30.227  1.00  0.00     0.049 A 
ATOM     16  N   UNL A   1      39.358  32.008  32.990  1.00  0.00    -0.248 NA
ATOM     17  C   UNL A   1      37.663  33.610  33.068  1.00  0.00     0.031 C 
ATOM     18  C   UNL A   1      38.049  30.859  28.865  1.00  0.00     0.029 A 
ATOM     19  N   UNL A   1      39.447  30.356  30.532  1.00  0.00    -0.354 N 
ATOM     20  C   UNL A   1      39.428  32.689  34.199  1.00  0.00     0.074 A 
ATOM     21  C   UNL A   1      38.375  33.681  34.187  1.00  0.00     0.031 C 
ATOM     22  C   UNL A   1      38.736  29.775  28.488  1.00  0.00     0.029 A 
ATOM     23  C   UNL A   1      39.696  29.448  29.530  1.00  0.00     0.049 A 
ATOM     24  H   UNL A   1      39.939  30.369  31.384  1.00  0.00     0.167 HD
ATOM     25  C   UNL A   1      40.300  32.496  35.215  1.00  0.00     0.037 A 
ATOM     26  C   UNL A   1      40.625  28.480  29.439  1.00  0.00     0.037 A 
ATOM     27  C   UNL A   1      41.318  31.476  35.220  1.00  0.00     0.049 A 
ATOM     28  C   UNL A   1      41.575  28.302  30.580  1.00  0.00     0.074 A 
ATOM     29  C   UNL A   1      42.213  31.158  36.227  1.00  0.00     0.029 A 
ATOM     30  N   UNL A   1      41.576  30.612  34.167  1.00  0.00    -0.354 N 
ATOM     31  N   UNL A   1      41.613  28.939  31.725  1.00  0.00    -0.248 NA
ATOM     32  C   UNL A   1      42.628  27.295  30.410  1.00  0.00     0.031 C 
ATOM     33  C   UNL A   1      43.043  30.132  35.765  1.00  0.00     0.029 A 
ATOM     34  C   UNL A   1      42.640  29.783  34.486  1.00  0.00     0.049 A 
ATOM     35  H   UNL A   1      41.079  30.590  33.318  1.00  0.00     0.167 HD
ATOM     36  C   UNL A   1      42.699  28.419  32.409  1.00  0.00     0.074 A 
ATOM     37  C   UNL A   1      43.269  27.386  31.567  1.00  0.00     0.031 C 
ATOM     38  C   UNL A   1      43.193  28.776  33.619  1.00  0.00     0.037 A 
BRANCH  25  39
ATOM     39  C   UNL A   1      40.224  33.414  36.399  1.00  0.00     0.057 A 
ATOM     40  C   UNL A   1      40.955  34.607  36.465  1.00  0.00     0.134 A 
ATOM     41  C   UNL A   1      39.337  33.141  37.448  1.00  0.00     0.134 A 
ATOM     42  F   UNL A   1      41.831  34.922  35.499  1.00  0.00    -0.206 F 
ATOM     43  C   UNL A   1      40.807  35.494  37.534  1.00  0.00     0.040 A 
ATOM     44  C   UNL A   1      39.166  34.028  38.512  1.00  0.00     0.040 A 
ATOM     45  F   UNL A   1      38.605  32.017  37.444  1.00  0.00    -0.206 F 
ATOM     46  C   UNL A   1      39.902  35.210  38.556  1.00  0.00     0.006 A 
ENDBRANCH  25  39
BRANCH  26  47
ATOM     47  C   UNL A   1      40.728  27.667  28.202  1.00  0.00     0.057 A 
ATOM     48  C   UNL A   1      41.501  28.087  27.115  1.00  0.00     0.134 A 
ATOM     49  C   UNL A   1      40.067  26.437  28.087  1.00  0.00     0.134 A 
ATOM     50  F   UNL A   1      42.147  29.262  27.159  1.00  0.00    -0.206 F 
ATOM     51  C   UNL A   1      41.604  27.319  25.954  1.00  0.00     0.040 A 
ATOM     52  C   UNL A   1      40.186  25.644  26.946  1.00  0.00     0.040 A 
ATOM     53  F   UNL A   1      39.318  25.974  29.099  1.00  0.00    -0.206 F 
ATOM     54  C   UNL A   1      40.951  26.089  25.871  1.00  0.00     0.006 A 
ENDBRANCH  26  47
BRANCH  38  55
ATOM     55  C   UNL A   1      44.412  28.040  34.082  1.00  0.00     0.057 A 
ATOM     56  C   UNL A   1      45.698  28.533  33.831  1.00  0.00     0.134 A 
ATOM     57  C   UNL A   1      44.299  26.838  34.789  1.00  0.00     0.134 A 
ATOM     58  F   UNL A   1      45.867  29.671  33.140  1.00  0.00    -0.206 F 
ATOM     59  C   UNL A   1      46.834  27.842  34.250  1.00  0.00     0.040 A 
ATOM     60  C   UNL A   1      45.427  26.150  35.233  1.00  0.00     0.040 A 
ATOM     61  F   UNL A   1      43.093  26.319  35.062  1.00  0.00    -0.206 F 
ATOM     62  C   UNL A   1      46.700  26.650  34.959  1.00  0.00     0.006 A 
ENDBRANCH  38  55
ENDBRANCH  12  13
ENDBRANCH   5   7
ENDBRANCH   2   3
ENDBRANCH   1   2
BRANCH   1  63
ATOM     63  C   UNL A   1      31.471  30.494  26.507  1.00  0.00     0.117 C 
BRANCH  63  64
ATOM     64  N   UNL A   1      32.248  29.938  25.422  1.00  0.00    -0.353 N 
ATOM     65  C   UNL A   1      31.874  29.327  24.266  1.00  0.00     0.257 C 
ATOM     66  H   UNL A   1      33.223  30.017  25.541  1.00  0.00     0.163 HD
ATOM     67  O   UNL A   1      32.791  29.161  23.451  1.00  0.00    -0.272 OA
BRANCH  65  68
ATOM     68  C   UNL A   1      30.477  28.745  24.007  1.00  0.00     0.283 C 
ATOM     69  F   UNL A   1      30.508  27.380  24.180  1.00  0.00    -0.234 F 
BRANCH  68  70
ATOM     70  C   UNL A   1      29.732  29.025  22.689  1.00  0.00     0.161 C 
BRANCH  70  71
ATOM     71  C   UNL A   1      29.415  30.484  22.290  1.00  0.00     0.026 C 
ATOM     72  C   UNL A   1      29.075  31.412  23.459  1.00  0.00     0.035 C 
ATOM     73  C   UNL A   1      28.316  30.594  21.228  1.00  0.00     0.035 C 
ATOM     74  C   UNL A   1      28.797  32.823  22.943  1.00  0.00     0.160 C 
ATOM     75  C   UNL A   1      28.070  32.042  20.829  1.00  0.00     0.160 C 
ATOM     76  O   UNL A   1      27.746  32.817  21.976  1.00  0.00    -0.381 OA
ENDBRANCH  70  71
BRANCH  70  77
ATOM     77  O   UNL A   1      30.512  28.432  21.626  1.00  0.00    -0.389 OA
ATOM     78  H   UNL A   1      29.930  28.209  20.883  1.00  0.00     0.211 HD
ENDBRANCH  70  77
ENDBRANCH  68  70
ENDBRANCH  65  68
ENDBRANCH  63  64
ENDBRANCH   1  63
TORSDOF 13
ENDMDL
MODEL 2
REMARK VINA RESULT:     -11.1      6.015     10.584
REMARK SMILES O=C(NCCCNC(=O)[C@H](F)[C@H](O)C1CCOCC1)c1ccc(-c2c3nc(c(-c4c(F)cccc4F)c4ccc([nH]4)c(-c4c(F)cccc4F)c4nc(c(-c5c(F)cccc5F)c5ccc2[nH]5)C=C4)C=C3)cc1
REMARK SMILES IDX 5 1 4 2 3 3 1 4 2 5 20 7 21 8 73 9 22 10 72 11 23 12 24 13
REMARK SMILES IDX 25 14 66 15 26 16 71 17 65 18 67 19 27 20 70 21 64 22 63 23
REMARK SMILES IDX 28 25 54 26 37 27 53 28 38 29 41 30 52 31 68 32 39 33 40 34
REMARK SMILES IDX 51 36 69 37 42 38 29 39 30 40 35 41 31 42 32 43 34 44 36 45
REMARK SMILES IDX 33 46 55 47 56 48 61 49 57 50 58 51 60 52 62 53 59 54 43 55
REMARK SMILES IDX 44 56 49 57 45 58 46 59 48 60 50 61 47 62 6 63 7 64 8 65
REMARK SMILES IDX 9 67 10 68 11 69 12 70 14 71 15 72 19 73 16 74 18 75 17 76
REMARK SMILES IDX 13 77
REMARK H PARENT 3 6 67 24 41 35 7 66 13 78
REMARK Flexibility Score: inf
ROOT
ATOM      1  C   UNL A   1      38.035  19.696  24.931  1.00  0.00     0.042 C 
ENDROOT
BRANCH   1   2
ATOM      2  C   UNL A   1      39.064  20.011  26.005  1.00  0.00     0.118 C 
BRANCH   2   3
ATOM      3  N   UNL A   1      40.289  19.224  25.874  1.00  0.00    -0.352 N 
ATOM      4  O   UNL A   1      42.493  18.816  25.632  1.00  0.00    -0.269 OA
ATOM      5  C   UNL A   1      41.615  19.589  25.983  1.00  0.00     0.251 C 
ATOM      6  H   UNL A   1      40.143  18.272  25.674  1.00  0.00     0.163 HD
BRANCH   5   7
ATOM      7  C   UNL A   1      41.967  20.928  26.504  1.00  0.00     0.039 A 
ATOM      8  C   UNL A   1      41.990  21.148  27.876  1.00  0.00     0.014 A 
ATOM      9  C   UNL A   1      42.292  21.966  25.626  1.00  0.00     0.014 A 
ATOM     10  C   UNL A   1      42.095  22.436  28.365  1.00  0.00     0.010 A 
ATOM     11  C   UNL A   1      42.570  23.241  26.133  1.00  0.00     0.010 A 
ATOM     12  C   UNL A   1      42.444  23.489  27.508  1.00  0.00    -0.014 A 
BRANCH  12  13
ATOM     13  C   UNL A   1      42.798  24.788  28.127  1.00  0.00     0.031 A 
ATOM     14  C   UNL A   1      44.214  25.139  28.470  1.00  0.00     0.074 A 
ATOM     15  C   UNL A   1      41.800  25.679  28.306  1.00  0.00     0.049 A 
ATOM     16  N   UNL A   1      44.675  26.249  28.987  1.00  0.00    -0.248 NA
ATOM     17  C   UNL A   1      45.246  24.123  28.214  1.00  0.00     0.031 C 
ATOM     18  C   UNL A   1      40.384  25.423  28.013  1.00  0.00     0.029 A 
ATOM     19  N   UNL A   1      41.815  26.979  28.730  1.00  0.00    -0.354 N 
ATOM     20  C   UNL A   1      46.040  26.054  29.154  1.00  0.00     0.074 A 
ATOM     21  C   UNL A   1      46.337  24.719  28.682  1.00  0.00     0.031 C 
ATOM     22  C   UNL A   1      39.684  26.550  28.188  1.00  0.00     0.029 A 
ATOM     23  C   UNL A   1      40.576  27.575  28.706  1.00  0.00     0.049 A 
ATOM     24  H   UNL A   1      42.631  27.443  29.024  1.00  0.00     0.167 HD
ATOM     25  C   UNL A   1      46.950  26.918  29.660  1.00  0.00     0.037 A 
ATOM     26  C   UNL A   1      40.188  28.801  29.096  1.00  0.00     0.037 A 
ATOM     27  C   UNL A   1      46.637  28.258  30.090  1.00  0.00     0.049 A 
ATOM     28  C   UNL A   1      41.221  29.725  29.657  1.00  0.00     0.074 A 
ATOM     29  C   UNL A   1      47.498  29.234  30.561  1.00  0.00     0.029 A 
ATOM     30  N   UNL A   1      45.364  28.807  30.101  1.00  0.00    -0.354 N 
ATOM     31  N   UNL A   1      42.512  29.533  29.786  1.00  0.00    -0.248 NA
ATOM     32  C   UNL A   1      40.748  31.022  30.152  1.00  0.00     0.031 C 
ATOM     33  C   UNL A   1      46.739  30.357  30.901  1.00  0.00     0.029 A 
ATOM     34  C   UNL A   1      45.410  30.097  30.604  1.00  0.00     0.049 A 
ATOM     35  H   UNL A   1      44.547  28.348  29.798  1.00  0.00     0.167 HD
ATOM     36  C   UNL A   1      43.004  30.679  30.387  1.00  0.00     0.074 A 
ATOM     37  C   UNL A   1      41.879  31.578  30.560  1.00  0.00     0.031 C 
ATOM     38  C   UNL A   1      44.271  30.959  30.778  1.00  0.00     0.037 A 
BRANCH  25  39
ATOM     39  C   UNL A   1      48.367  26.448  29.811  1.00  0.00     0.057 A 
ATOM     40  C   UNL A   1      49.338  26.687  28.831  1.00  0.00     0.134 A 
ATOM     41  C   UNL A   1      48.782  25.826  30.995  1.00  0.00     0.134 A 
ATOM     42  F   UNL A   1      49.004  27.269  27.669  1.00  0.00    -0.206 F 
ATOM     43  C   UNL A   1      50.673  26.321  29.024  1.00  0.00     0.040 A 
ATOM     44  C   UNL A   1      50.116  25.472  31.207  1.00  0.00     0.040 A 
ATOM     45  F   UNL A   1      47.901  25.571  31.974  1.00  0.00    -0.206 F 
ATOM     46  C   UNL A   1      51.066  25.721  30.220  1.00  0.00     0.006 A 
ENDBRANCH  25  39
BRANCH  26  47
ATOM     47  C   UNL A   1      38.755  29.182  29.027  1.00  0.00     0.057 A 
ATOM     48  C   UNL A   1      38.170  29.608  27.831  1.00  0.00     0.134 A 
ATOM     49  C   UNL A   1      37.932  29.109  30.158  1.00  0.00     0.134 A 
ATOM     50  F   UNL A   1      38.909  29.713  26.717  1.00  0.00    -0.206 F 
ATOM     51  C   UNL A   1      36.820  29.960  27.765  1.00  0.00     0.040 A 
ATOM     52  C   UNL A   1      36.575  29.426  30.100  1.00  0.00     0.040 A 
ATOM     53  F   UNL A   1      38.431  28.697  31.334  1.00  0.00    -0.206 F 
ATOM     54  C   UNL A   1      36.017  29.861  28.900  1.00  0.00     0.006 A 
ENDBRANCH  26  47
BRANCH  38  55
ATOM     55  C   UNL A   1      44.485  32.286  31.436  1.00  0.00     0.057 A 
ATOM     56  C   UNL A   1      44.405  32.432  32.826  1.00  0.00     0.134 A 
ATOM     57  C   UNL A   1      44.783  33.423  30.676  1.00  0.00     0.134 A 
ATOM     58  F   UNL A   1      44.103  31.380  33.603  1.00  0.00    -0.206 F 
ATOM     59  C   UNL A   1      44.592  33.670  33.438  1.00  0.00     0.040 A 
ATOM     60  C   UNL A   1      44.995  34.662  31.278  1.00  0.00     0.040 A 
ATOM     61  F   UNL A   1      44.876  33.345  29.340  1.00  0.00    -0.206 F 
ATOM     62  C   UNL A   1      44.894  34.789  32.663  1.00  0.00     0.006 A 
ENDBRANCH  38  55
ENDBRANCH  12  13
ENDBRANCH   5   7
ENDBRANCH   2   3
ENDBRANCH   1   2
BRANCH   1  63
ATOM     63  C   UNL A   1      37.192  20.895  24.557  1.00  0.00     0.117 C 
BRANCH  63  64
ATOM     64  N   UNL A   1      36.247  21.291  25.576  1.00  0.00    -0.353 N 
ATOM     65  C   UNL A   1      34.901  21.117  25.675  1.00  0.00     0.257 C 
ATOM     66  H   UNL A   1      36.649  21.774  26.335  1.00  0.00     0.163 HD
ATOM     67  O   UNL A   1      34.426  21.392  26.784  1.00  0.00    -0.272 OA
BRANCH  65  68
ATOM     68  C   UNL A   1      33.988  20.750  24.497  1.00  0.00     0.283 C 
ATOM     69  F   UNL A   1      33.316  21.873  24.068  1.00  0.00    -0.234 F 
BRANCH  68  70
ATOM     70  C   UNL A   1      32.955  19.615  24.616  1.00  0.00     0.161 C 
BRANCH  70  71
ATOM     71  C   UNL A   1      33.412  18.218  25.095  1.00  0.00     0.026 C 
ATOM     72  C   UNL A   1      34.609  17.637  24.337  1.00  0.00     0.035 C 
ATOM     73  C   UNL A   1      32.281  17.185  25.110  1.00  0.00     0.035 C 
ATOM     74  C   UNL A   1      34.976  16.269  24.908  1.00  0.00     0.160 C 
ATOM     75  C   UNL A   1      32.762  15.840  25.633  1.00  0.00     0.160 C 
ATOM     76  O   UNL A   1      33.861  15.377  24.857  1.00  0.00    -0.381 OA
ENDBRANCH  70  71
BRANCH  70  77
ATOM     77  O   UNL A   1      31.919  20.076  25.512  1.00  0.00    -0.389 OA
ATOM     78  H   UNL A   1      31.054  19.986  25.082  1.00  0.00     0.211 HD
ENDBRANCH  70  77
ENDBRANCH  68  70
ENDBRANCH  65  68
ENDBRANCH  63  64
ENDBRANCH   1  63
TORSDOF 13
ENDMDL
MODEL 3
REMARK VINA RESULT:     -11.0      6.614     11.226
REMARK SMILES O=C(NCCCNC(=O)[C@H](F)[C@H](O)C1CCOCC1)c1ccc(-c2c3nc(c(-c4c(F)cccc4F)c4ccc([nH]4)c(-c4c(F)cccc4F)c4nc(c(-c5c(F)cccc5F)c5ccc2[nH]5)C=C4)C=C3)cc1
REMARK SMILES IDX 5 1 4 2 3 3 1 4 2 5 20 7 21 8 73 9 22 10 72 11 23 12 24 13
REMARK SMILES IDX 25 14 66 15 26 16 71 17 65 18 67 19 27 20 70 21 64 22 63 23
REMARK SMILES IDX 28 25 54 26 37 27 53 28 38 29 41 30 52 31 68 32 39 33 40 34
REMARK SMILES IDX 51 36 69 37 42 38 29 39 30 40 35 41 31 42 32 43 34 44 36 45
REMARK SMILES IDX 33 46 55 47 56 48 61 49 57 50 58 51 60 52 62 53 59 54 43 55
REMARK SMILES IDX 44 56 49 57 45 58 46 59 48 60 50 61 47 62 6 63 7 64 8 65
REMARK SMILES IDX 9 67 10 68 11 69 12 70 14 71 15 72 19 73 16 74 18 75 17 76
REMARK SMILES IDX 13 77
REMARK H PARENT 3 6 67 24 41 35 7 66 13 78
REMARK Flexibility Score: inf
ROOT
ATOM      1  C   UNL A   1      37.873  19.686  24.981  1.00  0.00     0.042 C 
ENDROOT
BRANCH   1   2
ATOM      2  C   UNL A   1      38.969  20.040  25.972  1.00  0.00     0.118 C 
BRANCH   2   3
ATOM      3  N   UNL A   1      40.134  19.162  25.879  1.00  0.00    -0.352 N 
ATOM      4  O   UNL A   1      42.303  18.585  25.663  1.00  0.00    -0.269 OA
ATOM      5  C   UNL A   1      41.483  19.434  25.980  1.00  0.00     0.251 C 
ATOM      6  H   UNL A   1      39.919  18.216  25.715  1.00  0.00     0.163 HD
BRANCH   5   7
ATOM      7  C   UNL A   1      41.930  20.762  26.451  1.00  0.00     0.039 A 
ATOM      8  C   UNL A   1      42.078  21.801  25.539  1.00  0.00     0.014 A 
ATOM      9  C   UNL A   1      42.189  20.983  27.807  1.00  0.00     0.014 A 
ATOM     10  C   UNL A   1      42.705  22.971  25.924  1.00  0.00     0.010 A 
ATOM     11  C   UNL A   1      42.664  22.231  28.227  1.00  0.00     0.010 A 
ATOM     12  C   UNL A   1      42.952  23.224  27.280  1.00  0.00    -0.014 A 
BRANCH  12  13
ATOM     13  C   UNL A   1      43.381  24.593  27.654  1.00  0.00     0.031 A 
ATOM     14  C   UNL A   1      44.804  25.041  27.510  1.00  0.00     0.074 A 
ATOM     15  C   UNL A   1      42.423  25.450  28.063  1.00  0.00     0.049 A 
ATOM     16  N   UNL A   1      45.318  26.216  27.769  1.00  0.00    -0.248 NA
ATOM     17  C   UNL A   1      45.781  24.053  27.028  1.00  0.00     0.031 C 
ATOM     18  C   UNL A   1      41.007  25.102  28.246  1.00  0.00     0.029 A 
ATOM     19  N   UNL A   1      42.470  26.785  28.357  1.00  0.00    -0.354 N 
ATOM     20  C   UNL A   1      46.679  26.101  27.517  1.00  0.00     0.074 A 
ATOM     21  C   UNL A   1      46.916  24.741  27.085  1.00  0.00     0.031 C 
ATOM     22  C   UNL A   1      40.313  26.207  28.541  1.00  0.00     0.029 A 
ATOM     23  C   UNL A   1      41.242  27.318  28.672  1.00  0.00     0.049 A 
ATOM     24  H   UNL A   1      43.300  27.313  28.345  1.00  0.00     0.167 HD
ATOM     25  C   UNL A   1      47.633  27.052  27.646  1.00  0.00     0.037 A 
ATOM     26  C   UNL A   1      40.902  28.558  29.065  1.00  0.00     0.037 A 
ATOM     27  C   UNL A   1      47.368  28.411  28.043  1.00  0.00     0.049 A 
ATOM     28  C   UNL A   1      41.986  29.579  29.202  1.00  0.00     0.074 A 
ATOM     29  C   UNL A   1      48.257  29.468  28.145  1.00  0.00     0.029 A 
ATOM     30  N   UNL A   1      46.122  28.900  28.407  1.00  0.00    -0.354 N 
ATOM     31  N   UNL A   1      43.265  29.460  28.938  1.00  0.00    -0.248 NA
ATOM     32  C   UNL A   1      41.592  30.895  29.715  1.00  0.00     0.031 C 
ATOM     33  C   UNL A   1      47.557  30.583  28.614  1.00  0.00     0.029 A 
ATOM     34  C   UNL A   1      46.224  30.234  28.767  1.00  0.00     0.049 A 
ATOM     35  H   UNL A   1      45.288  28.377  28.410  1.00  0.00     0.167 HD
ATOM     36  C   UNL A   1      43.831  30.681  29.264  1.00  0.00     0.074 A 
ATOM     37  C   UNL A   1      42.750  31.539  29.706  1.00  0.00     0.031 C 
ATOM     38  C   UNL A   1      45.132  31.055  29.218  1.00  0.00     0.037 A 
BRANCH  25  39
ATOM     39  C   UNL A   1      49.059  26.665  27.385  1.00  0.00     0.057 A 
ATOM     40  C   UNL A   1      49.889  26.155  28.391  1.00  0.00     0.134 A 
ATOM     41  C   UNL A   1      49.579  26.722  26.085  1.00  0.00     0.134 A 
ATOM     42  F   UNL A   1      49.456  26.084  29.658  1.00  0.00    -0.206 F 
ATOM     43  C   UNL A   1      51.186  25.717  28.112  1.00  0.00     0.040 A 
ATOM     44  C   UNL A   1      50.867  26.271  25.791  1.00  0.00     0.040 A 
ATOM     45  F   UNL A   1      48.835  27.198  25.075  1.00  0.00    -0.206 F 
ATOM     46  C   UNL A   1      51.674  25.764  26.807  1.00  0.00     0.006 A 
ENDBRANCH  25  39
BRANCH  26  47
ATOM     47  C   UNL A   1      39.492  28.863  29.415  1.00  0.00     0.057 A 
ATOM     48  C   UNL A   1      38.997  28.649  30.705  1.00  0.00     0.134 A 
ATOM     49  C   UNL A   1      38.611  29.396  28.465  1.00  0.00     0.134 A 
ATOM     50  F   UNL A   1      39.789  28.129  31.654  1.00  0.00    -0.206 F 
ATOM     51  C   UNL A   1      37.673  28.943  31.035  1.00  0.00     0.040 A 
ATOM     52  C   UNL A   1      37.294  29.724  28.789  1.00  0.00     0.040 A 
ATOM     53  F   UNL A   1      39.027  29.633  27.212  1.00  0.00    -0.206 F 
ATOM     54  C   UNL A   1      36.820  29.490  30.078  1.00  0.00     0.006 A 
ENDBRANCH  26  47
BRANCH  38  55
ATOM     55  C   UNL A   1      45.438  32.449  29.669  1.00  0.00     0.057 A 
ATOM     56  C   UNL A   1      45.799  32.724  30.993  1.00  0.00     0.134 A 
ATOM     57  C   UNL A   1      45.381  33.522  28.771  1.00  0.00     0.134 A 
ATOM     58  F   UNL A   1      45.852  31.737  31.901  1.00  0.00    -0.206 F 
ATOM     59  C   UNL A   1      46.072  34.023  31.417  1.00  0.00     0.040 A 
ATOM     60  C   UNL A   1      45.674  34.823  29.178  1.00  0.00     0.040 A 
ATOM     61  F   UNL A   1      45.044  33.320  27.489  1.00  0.00    -0.206 F 
ATOM     62  C   UNL A   1      46.015  35.077  30.506  1.00  0.00     0.006 A 
ENDBRANCH  38  55
ENDBRANCH  12  13
ENDBRANCH   5   7
ENDBRANCH   2   3
ENDBRANCH   1   2
BRANCH   1  63
ATOM     63  C   UNL A   1      36.982  20.862  24.648  1.00  0.00     0.117 C 
BRANCH  63  64
ATOM     64  N   UNL A   1      35.965  21.130  25.639  1.00  0.00    -0.353 N 
ATOM     65  C   UNL A   1      34.621  20.916  25.634  1.00  0.00     0.257 C 
ATOM     66  H   UNL A   1      36.306  21.541  26.467  1.00  0.00     0.163 HD
ATOM     67  O   UNL A   1      34.072  21.065  26.734  1.00  0.00    -0.272 OA
BRANCH  65  68
ATOM     68  C   UNL A   1      33.792  20.651  24.370  1.00  0.00     0.283 C 
ATOM     69  F   UNL A   1      33.425  21.850  23.802  1.00  0.00    -0.234 F 
BRANCH  68  70
ATOM     70  C   UNL A   1      32.538  19.760  24.415  1.00  0.00     0.161 C 
BRANCH  70  71
ATOM     71  C   UNL A   1      32.697  18.222  24.398  1.00  0.00     0.026 C 
ATOM     72  C   UNL A   1      32.634  17.553  25.773  1.00  0.00     0.035 C 
ATOM     73  C   UNL A   1      33.963  17.755  23.672  1.00  0.00     0.035 C 
ATOM     74  C   UNL A   1      32.787  16.041  25.627  1.00  0.00     0.160 C 
ATOM     75  C   UNL A   1      34.056  16.237  23.636  1.00  0.00     0.160 C 
ATOM     76  O   UNL A   1      34.005  15.712  24.957  1.00  0.00    -0.381 OA
ENDBRANCH  70  71
BRANCH  70  77
ATOM     77  O   UNL A   1      31.805  20.118  25.608  1.00  0.00    -0.389 OA
ATOM     78  H   UNL A   1      30.928  20.453  25.361  1.00  0.00     0.211 HD
ENDBRANCH  70  77
ENDBRANCH  68  70
ENDBRANCH  65  68
ENDBRANCH  63  64
ENDBRANCH   1  63
TORSDOF 13
ENDMDL
