MODEL 1
REMARK VINA RESULT:     -11.8      0.000      0.000
REMARK SMILES CC(C)n1ccc(C[C@@H](C(=O)NCCCNC(=O)c2ccc(-c3c4nc(c(-c5c(F)cccc5F)c5ccc([nH]5)c(-c5c(F)cccc5F)c5nc(c(-c6c(F)cccc6F)c6ccc3[nH]6)C=C5)C=C4)cc2)c2cccc(Cl)c2)n1
REMARK SMILES IDX 13 1 12 2 10 3 11 4 9 6 8 7 7 8 4 9 5 10 80 11 6 12 2 13
REMARK SMILES IDX 1 14 3 15 73 16 74 17 79 18 75 19 77 20 76 21 78 22 14 23
REMARK SMILES IDX 15 24 16 25 17 26 18 28 19 29 20 30 72 31 21 32 71 33 22 34
REMARK SMILES IDX 23 35 24 36 65 37 25 38 70 39 64 40 66 41 26 42 69 43 63 44
REMARK SMILES IDX 62 45 27 47 53 48 36 49 52 50 37 51 40 52 51 53 67 54 38 55
REMARK SMILES IDX 39 56 50 58 68 59 41 60 28 61 29 62 34 63 30 64 31 65 33 66
REMARK SMILES IDX 35 67 32 68 54 69 55 70 60 71 56 72 57 73 59 74 61 75 58 76
REMARK SMILES IDX 42 77 43 78 48 79 44 80 45 81 47 82 49 83 46 84
REMARK H PARENT 12 5 16 27 66 46 40 57
REMARK Flexibility Score: inf
ROOT
ATOM      1  C   UNL A   1      37.666  22.463  25.709  1.00  0.00     0.117 C 
ENDROOT
BRANCH   1   2
ATOM      2  N   UNL A   1      37.416  23.052  24.397  1.00  0.00    -0.355 N 
ATOM      3  C   UNL A   1      36.243  23.068  23.688  1.00  0.00     0.227 C 
ATOM      4  O   UNL A   1      36.343  23.006  22.458  1.00  0.00    -0.274 OA
ATOM      5  H   UNL A   1      38.184  23.493  23.968  1.00  0.00     0.163 HD
BRANCH   3   6
ATOM      6  C   UNL A   1      34.890  23.213  24.404  1.00  0.00     0.114 C 
BRANCH   6   7
ATOM      7  C   UNL A   1      33.802  22.353  23.723  1.00  0.00     0.076 C 
BRANCH   7   8
ATOM      8  C   UNL A   1      33.439  21.055  24.360  1.00  0.00     0.064 A 
ATOM      9  N   UNL A   1      33.094  18.962  24.596  1.00  0.00    -0.270 N 
ATOM     10  C   UNL A   1      32.929  19.500  25.847  1.00  0.00     0.109 A 
ATOM     11  N   UNL A   1      33.388  19.909  23.664  1.00  0.00    -0.178 NA
ATOM     12  C   UNL A   1      33.170  20.845  25.731  1.00  0.00     0.045 A 
BRANCH   9  13
ATOM     13  C   UNL A   1      32.800  17.580  24.205  1.00  0.00     0.101 C 
ATOM     14  C   UNL A   1      33.827  16.985  23.237  1.00  0.00     0.033 C 
ATOM     15  C   UNL A   1      32.643  16.652  25.417  1.00  0.00     0.033 C 
ENDBRANCH   9  13
ENDBRANCH   7   8
ENDBRANCH   6   7
BRANCH   6  16
ATOM     16  C   UNL A   1      34.351  24.670  24.430  1.00  0.00    -0.034 A 
ATOM     17  C   UNL A   1      34.386  25.377  25.649  1.00  0.00     0.004 A 
ATOM     18  C   UNL A   1      33.707  25.289  23.342  1.00  0.00     0.025 A 
ATOM     19  C   UNL A   1      33.733  26.606  25.798  1.00  0.00     0.002 A 
ATOM     20  C   UNL A   1      33.064  26.522  23.493  1.00  0.00     0.041 A 
ATOM     21  C   UNL A   1      33.057  27.172  24.723  1.00  0.00     0.020 A 
ATOM     22  Cl  UNL A   1      32.235  27.226  22.157  1.00  0.00    -0.084 Cl
ENDBRANCH   6  16
ENDBRANCH   3   6
ENDBRANCH   1   2
BRANCH   1  23
ATOM     23  C   UNL A   1      38.801  21.447  25.639  1.00  0.00     0.042 C 
BRANCH  23  24
ATOM     24  C   UNL A   1      39.946  21.702  26.588  1.00  0.00     0.118 C 
BRANCH  24  25
ATOM     25  N   UNL A   1      41.238  21.992  25.975  1.00  0.00    -0.352 N 
ATOM     26  C   UNL A   1      41.930  23.192  25.950  1.00  0.00     0.251 C 
ATOM     27  H   UNL A   1      41.676  21.237  25.522  1.00  0.00     0.163 HD
ATOM     28  O   UNL A   1      42.971  23.288  25.281  1.00  0.00    -0.269 OA
BRANCH  26  29
ATOM     29  C   UNL A   1      41.442  24.368  26.703  1.00  0.00     0.039 A 
ATOM     30  C   UNL A   1      40.256  25.055  26.419  1.00  0.00     0.014 A 
ATOM     31  C   UNL A   1      42.258  24.898  27.680  1.00  0.00     0.014 A 
ATOM     32  C   UNL A   1      40.030  26.280  27.064  1.00  0.00     0.010 A 
ATOM     33  C   UNL A   1      41.741  25.708  28.629  1.00  0.00     0.010 A 
ATOM     34  C   UNL A   1      40.877  26.635  28.112  1.00  0.00    -0.014 A 
BRANCH  34  35
ATOM     35  C   UNL A   1      40.944  27.905  28.799  1.00  0.00     0.031 A 
ATOM     36  C   UNL A   1      42.028  28.788  28.328  1.00  0.00     0.074 A 
ATOM     37  C   UNL A   1      39.889  28.387  29.496  1.00  0.00     0.049 A 
ATOM     38  N   UNL A   1      43.120  29.086  28.943  1.00  0.00    -0.248 NA
ATOM     39  C   UNL A   1      41.978  29.251  26.930  1.00  0.00     0.031 C 
ATOM     40  C   UNL A   1      38.547  27.817  29.685  1.00  0.00     0.029 A 
ATOM     41  N   UNL A   1      39.788  29.584  30.131  1.00  0.00    -0.354 N 
ATOM     42  C   UNL A   1      43.806  29.937  28.085  1.00  0.00     0.074 A 
ATOM     43  C   UNL A   1      43.190  29.791  26.796  1.00  0.00     0.031 C 
ATOM     44  C   UNL A   1      37.724  28.750  30.223  1.00  0.00     0.029 A 
ATOM     45  C   UNL A   1      38.511  29.922  30.556  1.00  0.00     0.049 A 
ATOM     46  H   UNL A   1      40.566  30.170  30.277  1.00  0.00     0.167 HD
ATOM     47  C   UNL A   1      44.658  30.886  28.559  1.00  0.00     0.037 A 
ATOM     48  C   UNL A   1      38.149  31.105  31.112  1.00  0.00     0.037 A 
ATOM     49  C   UNL A   1      44.928  30.678  29.962  1.00  0.00     0.049 A 
ATOM     50  C   UNL A   1      39.398  31.775  31.564  1.00  0.00     0.074 A 
ATOM     51  C   UNL A   1      45.499  29.656  30.696  1.00  0.00     0.029 A 
ATOM     52  N   UNL A   1      44.205  31.426  30.862  1.00  0.00    -0.354 N 
ATOM     53  N   UNL A   1      40.151  31.329  32.533  1.00  0.00    -0.248 NA
ATOM     54  C   UNL A   1      40.061  32.665  30.622  1.00  0.00     0.031 C 
ATOM     55  C   UNL A   1      44.709  29.566  31.881  1.00  0.00     0.029 A 
ATOM     56  C   UNL A   1      43.744  30.576  31.838  1.00  0.00     0.049 A 
ATOM     57  H   UNL A   1      44.046  32.397  30.817  1.00  0.00     0.167 HD
ATOM     58  C   UNL A   1      41.456  31.537  32.101  1.00  0.00     0.074 A 
ATOM     59  C   UNL A   1      41.335  32.439  30.956  1.00  0.00     0.031 C 
ATOM     60  C   UNL A   1      42.477  30.732  32.521  1.00  0.00     0.037 A 
BRANCH  47  61
ATOM     61  C   UNL A   1      44.977  32.183  27.862  1.00  0.00     0.057 A 
ATOM     62  C   UNL A   1      46.228  32.328  27.236  1.00  0.00     0.134 A 
ATOM     63  C   UNL A   1      44.228  33.373  27.975  1.00  0.00     0.134 A 
ATOM     64  F   UNL A   1      47.043  31.275  27.076  1.00  0.00    -0.206 F 
ATOM     65  C   UNL A   1      46.719  33.570  26.815  1.00  0.00     0.040 A 
ATOM     66  C   UNL A   1      44.684  34.608  27.505  1.00  0.00     0.040 A 
ATOM     67  F   UNL A   1      43.063  33.435  28.630  1.00  0.00    -0.206 F 
ATOM     68  C   UNL A   1      45.947  34.716  26.951  1.00  0.00     0.006 A 
ENDBRANCH  47  61
BRANCH  48  69
ATOM     69  C   UNL A   1      36.858  31.822  31.006  1.00  0.00     0.057 A 
ATOM     70  C   UNL A   1      36.036  32.019  32.124  1.00  0.00     0.134 A 
ATOM     71  C   UNL A   1      36.533  32.570  29.861  1.00  0.00     0.134 A 
ATOM     72  F   UNL A   1      36.290  31.382  33.276  1.00  0.00    -0.206 F 
ATOM     73  C   UNL A   1      34.964  32.924  32.111  1.00  0.00     0.040 A 
ATOM     74  C   UNL A   1      35.464  33.473  29.832  1.00  0.00     0.040 A 
ATOM     75  F   UNL A   1      37.297  32.512  28.761  1.00  0.00    -0.206 F 
ATOM     76  C   UNL A   1      34.683  33.663  30.966  1.00  0.00     0.006 A 
ENDBRANCH  48  69
BRANCH  60  77
ATOM     77  C   UNL A   1      42.184  29.754  33.634  1.00  0.00     0.057 A 
ATOM     78  C   UNL A   1      41.799  28.419  33.426  1.00  0.00     0.134 A 
ATOM     79  C   UNL A   1      42.452  30.126  34.954  1.00  0.00     0.134 A 
ATOM     80  F   UNL A   1      41.618  27.934  32.195  1.00  0.00    -0.206 F 
ATOM     81  C   UNL A   1      41.646  27.514  34.481  1.00  0.00     0.040 A 
ATOM     82  C   UNL A   1      42.335  29.223  36.015  1.00  0.00     0.040 A 
ATOM     83  F   UNL A   1      42.882  31.366  35.232  1.00  0.00    -0.206 F 
ATOM     84  C   UNL A   1      41.922  27.914  35.782  1.00  0.00     0.006 A 
ENDBRANCH  60  77
ENDBRANCH  34  35
ENDBRANCH  26  29
ENDBRANCH  24  25
ENDBRANCH  23  24
ENDBRANCH   1  23
TORSDOF 14
ENDMDL
MODEL 2
REMARK VINA RESULT:     -11.6      3.255      7.932
REMARK SMILES CC(C)n1ccc(C[C@@H](C(=O)NCCCNC(=O)c2ccc(-c3c4nc(c(-c5c(F)cccc5F)c5ccc([nH]5)c(-c5c(F)cccc5F)c5nc(c(-c6c(F)cccc6F)c6ccc3[nH]6)C=C5)C=C4)cc2)c2cccc(Cl)c2)n1
REMARK SMILES IDX 13 1 12 2 10 3 11 4 9 6 8 7 7 8 4 9 5 10 80 11 6 12 2 13
REMARK SMILES IDX 1 14 3 15 73 16 74 17 79 18 75 19 77 20 76 21 78 22 14 23
REMARK SMILES IDX 15 24 16 25 17 26 18 28 19 29 20 30 72 31 21 32 71 33 22 34
REMARK SMILES IDX 23 35 24 36 65 37 25 38 70 39 64 40 66 41 26 42 69 43 63 44
REMARK SMILES IDX 62 45 27 47 53 48 36 49 52 50 37 51 40 52 51 53 67 54 38 55
REMARK SMILES IDX 39 56 50 58 68 59 41 60 28 61 29 62 34 63 30 64 31 65 33 66
REMARK SMILES IDX 35 67 32 68 54 69 55 70 60 71 56 72 57 73 59 74 61 75 58 76
REMARK SMILES IDX 42 77 43 78 48 79 44 80 45 81 47 82 49 83 46 84
REMARK H PARENT 12 5 16 27 66 46 40 57
REMARK Flexibility Score: inf
ROOT
ATOM      1  C   UNL A   1      32.711  29.635  25.550  1.00  0.00     0.117 C 
ENDROOT
BRANCH   1   2
ATOM      2  N   UNL A   1      32.962  29.600  24.111  1.00  0.00    -0.355 N 
ATOM      3  C   UNL A   1      32.678  28.591  23.229  1.00  0.00     0.227 C 
ATOM      4  O   UNL A   1      33.467  28.441  22.291  1.00  0.00    -0.274 OA
ATOM      5  H   UNL A   1      33.389  30.400  23.728  1.00  0.00     0.163 HD
BRANCH   3   6
ATOM      6  C   UNL A   1      31.406  27.741  23.386  1.00  0.00     0.114 C 
BRANCH   6   7
ATOM      7  C   UNL A   1      31.342  26.628  22.317  1.00  0.00     0.076 C 
BRANCH   7   8
ATOM      8  C   UNL A   1      31.619  25.229  22.749  1.00  0.00     0.064 A 
ATOM      9  N   UNL A   1      32.702  23.488  23.344  1.00  0.00    -0.270 N 
ATOM     10  C   UNL A   1      31.378  23.157  23.483  1.00  0.00     0.109 A 
ATOM     11  N   UNL A   1      32.867  24.754  22.873  1.00  0.00    -0.178 NA
ATOM     12  C   UNL A   1      30.656  24.267  23.130  1.00  0.00     0.045 A 
BRANCH   9  13
ATOM     13  C   UNL A   1      33.839  22.571  23.470  1.00  0.00     0.101 C 
ATOM     14  C   UNL A   1      35.200  23.260  23.328  1.00  0.00     0.033 C 
ATOM     15  C   UNL A   1      33.804  21.776  24.781  1.00  0.00     0.033 C 
ENDBRANCH   9  13
ENDBRANCH   7   8
ENDBRANCH   6   7
BRANCH   6  16
ATOM     16  C   UNL A   1      30.090  28.557  23.256  1.00  0.00    -0.034 A 
ATOM     17  C   UNL A   1      28.863  27.884  23.429  1.00  0.00     0.004 A 
ATOM     18  C   UNL A   1      30.037  29.902  22.845  1.00  0.00     0.025 A 
ATOM     19  C   UNL A   1      27.645  28.499  23.123  1.00  0.00     0.002 A 
ATOM     20  C   UNL A   1      28.815  30.516  22.550  1.00  0.00     0.041 A 
ATOM     21  C   UNL A   1      27.621  29.813  22.667  1.00  0.00     0.020 A 
ATOM     22  Cl  UNL A   1      28.787  32.147  21.993  1.00  0.00    -0.084 Cl
ENDBRANCH   6  16
ENDBRANCH   3   6
ENDBRANCH   1   2
BRANCH   1  23
ATOM     23  C   UNL A   1      33.797  28.878  26.307  1.00  0.00     0.042 C 
BRANCH  23  24
ATOM     24  C   UNL A   1      34.402  29.625  27.470  1.00  0.00     0.118 C 
BRANCH  24  25
ATOM     25  N   UNL A   1      34.561  31.065  27.299  1.00  0.00    -0.352 N 
ATOM     26  C   UNL A   1      35.574  31.883  27.774  1.00  0.00     0.251 C 
ATOM     27  H   UNL A   1      33.858  31.515  26.778  1.00  0.00     0.163 HD
ATOM     28  O   UNL A   1      35.490  33.113  27.631  1.00  0.00    -0.269 OA
BRANCH  26  29
ATOM     29  C   UNL A   1      36.753  31.312  28.460  1.00  0.00     0.039 A 
ATOM     30  C   UNL A   1      37.603  32.033  29.307  1.00  0.00     0.014 A 
ATOM     31  C   UNL A   1      37.113  30.015  28.163  1.00  0.00     0.014 A 
ATOM     32  C   UNL A   1      38.805  31.430  29.708  1.00  0.00     0.010 A 
ATOM     33  C   UNL A   1      37.922  29.328  28.998  1.00  0.00     0.010 A 
ATOM     34  C   UNL A   1      38.983  30.076  29.433  1.00  0.00    -0.014 A 
BRANCH  34  35
ATOM     35  C   UNL A   1      40.189  29.295  29.593  1.00  0.00     0.031 A 
ATOM     36  C   UNL A   1      40.441  28.851  30.977  1.00  0.00     0.074 A 
ATOM     37  C   UNL A   1      40.787  28.697  28.536  1.00  0.00     0.049 A 
ATOM     38  N   UNL A   1      41.341  29.288  31.789  1.00  0.00    -0.248 NA
ATOM     39  C   UNL A   1      39.460  27.943  31.596  1.00  0.00     0.031 C 
ATOM     40  C   UNL A   1      40.389  28.670  27.121  1.00  0.00     0.029 A 
ATOM     41  N   UNL A   1      41.878  27.887  28.547  1.00  0.00    -0.354 N 
ATOM     42  C   UNL A   1      41.163  28.563  32.961  1.00  0.00     0.074 A 
ATOM     43  C   UNL A   1      39.862  27.960  32.867  1.00  0.00     0.031 C 
ATOM     44  C   UNL A   1      41.116  27.739  26.458  1.00  0.00     0.029 A 
ATOM     45  C   UNL A   1      42.128  27.218  27.357  1.00  0.00     0.049 A 
ATOM     46  H   UNL A   1      42.449  27.783  29.341  1.00  0.00     0.167 HD
ATOM     47  C   UNL A   1      42.202  28.305  33.800  1.00  0.00     0.037 A 
ATOM     48  C   UNL A   1      43.089  26.280  27.163  1.00  0.00     0.037 A 
ATOM     49  C   UNL A   1      43.356  29.096  33.445  1.00  0.00     0.049 A 
ATOM     50  C   UNL A   1      44.061  26.415  28.281  1.00  0.00     0.074 A 
ATOM     51  C   UNL A   1      43.616  30.451  33.377  1.00  0.00     0.029 A 
ATOM     52  N   UNL A   1      44.326  28.491  32.679  1.00  0.00    -0.354 N 
ATOM     53  N   UNL A   1      44.836  27.453  28.449  1.00  0.00    -0.248 NA
ATOM     54  C   UNL A   1      43.826  25.618  29.476  1.00  0.00     0.031 C 
ATOM     55  C   UNL A   1      44.415  30.617  32.206  1.00  0.00     0.029 A 
ATOM     56  C   UNL A   1      44.653  29.353  31.661  1.00  0.00     0.049 A 
ATOM     57  H   UNL A   1      44.716  27.600  32.833  1.00  0.00     0.167 HD
ATOM     58  C   UNL A   1      44.846  27.679  29.820  1.00  0.00     0.074 A 
ATOM     59  C   UNL A   1      44.275  26.466  30.406  1.00  0.00     0.031 C 
ATOM     60  C   UNL A   1      45.039  28.932  30.330  1.00  0.00     0.037 A 
BRANCH  47  61
ATOM     61  C   UNL A   1      42.295  27.111  34.715  1.00  0.00     0.057 A 
ATOM     62  C   UNL A   1      41.918  27.257  36.062  1.00  0.00     0.134 A 
ATOM     63  C   UNL A   1      42.955  25.903  34.410  1.00  0.00     0.134 A 
ATOM     64  F   UNL A   1      41.293  28.365  36.485  1.00  0.00    -0.206 F 
ATOM     65  C   UNL A   1      42.230  26.302  37.038  1.00  0.00     0.040 A 
ATOM     66  C   UNL A   1      43.219  24.917  35.365  1.00  0.00     0.040 A 
ATOM     67  F   UNL A   1      43.470  25.644  33.202  1.00  0.00    -0.206 F 
ATOM     68  C   UNL A   1      42.885  25.128  36.691  1.00  0.00     0.006 A 
ENDBRANCH  47  61
BRANCH  48  69
ATOM     69  C   UNL A   1      43.065  25.099  26.271  1.00  0.00     0.057 A 
ATOM     70  C   UNL A   1      44.049  24.899  25.294  1.00  0.00     0.134 A 
ATOM     71  C   UNL A   1      42.232  24.000  26.542  1.00  0.00     0.134 A 
ATOM     72  F   UNL A   1      44.919  25.875  24.995  1.00  0.00    -0.206 F 
ATOM     73  C   UNL A   1      44.209  23.670  24.637  1.00  0.00     0.040 A 
ATOM     74  C   UNL A   1      42.377  22.769  25.892  1.00  0.00     0.040 A 
ATOM     75  F   UNL A   1      41.305  24.060  27.510  1.00  0.00    -0.206 F 
ATOM     76  C   UNL A   1      43.379  22.596  24.945  1.00  0.00     0.006 A 
ENDBRANCH  48  69
BRANCH  60  77
ATOM     77  C   UNL A   1      45.458  30.020  29.371  1.00  0.00     0.057 A 
ATOM     78  C   UNL A   1      44.557  30.841  28.672  1.00  0.00     0.134 A 
ATOM     79  C   UNL A   1      46.811  30.353  29.270  1.00  0.00     0.134 A 
ATOM     80  F   UNL A   1      43.237  30.672  28.782  1.00  0.00    -0.206 F 
ATOM     81  C   UNL A   1      44.984  31.912  27.880  1.00  0.00     0.040 A 
ATOM     82  C   UNL A   1      47.250  31.441  28.508  1.00  0.00     0.040 A 
ATOM     83  F   UNL A   1      47.731  29.656  29.954  1.00  0.00    -0.206 F 
ATOM     84  C   UNL A   1      46.336  32.220  27.802  1.00  0.00     0.006 A 
ENDBRANCH  60  77
ENDBRANCH  34  35
ENDBRANCH  26  29
ENDBRANCH  24  25
ENDBRANCH  23  24
ENDBRANCH   1  23
TORSDOF 14
ENDMDL
MODEL 3
REMARK VINA RESULT:     -11.6      3.608      8.571
REMARK SMILES CC(C)n1ccc(C[C@@H](C(=O)NCCCNC(=O)c2ccc(-c3c4nc(c(-c5c(F)cccc5F)c5ccc([nH]5)c(-c5c(F)cccc5F)c5nc(c(-c6c(F)cccc6F)c6ccc3[nH]6)C=C5)C=C4)cc2)c2cccc(Cl)c2)n1
REMARK SMILES IDX 13 1 12 2 10 3 11 4 9 6 8 7 7 8 4 9 5 10 80 11 6 12 2 13
REMARK SMILES IDX 1 14 3 15 73 16 74 17 79 18 75 19 77 20 76 21 78 22 14 23
REMARK SMILES IDX 15 24 16 25 17 26 18 28 19 29 20 30 72 31 21 32 71 33 22 34
REMARK SMILES IDX 23 35 24 36 65 37 25 38 70 39 64 40 66 41 26 42 69 43 63 44
REMARK SMILES IDX 62 45 27 47 53 48 36 49 52 50 37 51 40 52 51 53 67 54 38 55
REMARK SMILES IDX 39 56 50 58 68 59 41 60 28 61 29 62 34 63 30 64 31 65 33 66
REMARK SMILES IDX 35 67 32 68 54 69 55 70 60 71 56 72 57 73 59 74 61 75 58 76
REMARK SMILES IDX 42 77 43 78 48 79 44 80 45 81 47 82 49 83 46 84
REMARK H PARENT 12 5 16 27 66 46 40 57
REMARK Flexibility Score: inf
ROOT
ATOM      1  C   UNL A   1      33.649  29.469  26.921  1.00  0.00     0.117 C 
ENDROOT
BRANCH   1   2
ATOM      2  N   UNL A   1      32.797  28.420  27.474  1.00  0.00    -0.355 N 
ATOM      3  C   UNL A   1      32.051  27.492  26.795  1.00  0.00     0.227 C 
ATOM      4  O   UNL A   1      30.984  27.155  27.317  1.00  0.00    -0.274 OA
ATOM      5  H   UNL A   1      32.752  28.373  28.456  1.00  0.00     0.163 HD
BRANCH   3   6
ATOM      6  C   UNL A   1      32.564  26.875  25.483  1.00  0.00     0.114 C 
BRANCH   6   7
ATOM      7  C   UNL A   1      31.407  26.639  24.487  1.00  0.00     0.076 C 
BRANCH   7   8
ATOM      8  C   UNL A   1      30.892  27.812  23.725  1.00  0.00     0.064 A 
ATOM      9  N   UNL A   1      29.584  29.373  23.085  1.00  0.00    -0.270 N 
ATOM     10  C   UNL A   1      30.755  29.576  22.399  1.00  0.00     0.109 A 
ATOM     11  N   UNL A   1      29.644  28.278  23.890  1.00  0.00    -0.178 NA
ATOM     12  C   UNL A   1      31.625  28.599  22.809  1.00  0.00     0.045 A 
BRANCH   9  13
ATOM     13  C   UNL A   1      28.321  30.085  22.866  1.00  0.00     0.101 C 
ATOM     14  C   UNL A   1      28.254  31.442  23.574  1.00  0.00     0.033 C 
ATOM     15  C   UNL A   1      28.006  30.270  21.376  1.00  0.00     0.033 C 
ENDBRANCH   9  13
ENDBRANCH   7   8
ENDBRANCH   6   7
BRANCH   6  16
ATOM     16  C   UNL A   1      33.272  25.506  25.672  1.00  0.00    -0.034 A 
ATOM     17  C   UNL A   1      32.577  24.476  26.338  1.00  0.00     0.004 A 
ATOM     18  C   UNL A   1      34.617  25.264  25.334  1.00  0.00     0.025 A 
ATOM     19  C   UNL A   1      33.219  23.296  26.727  1.00  0.00     0.002 A 
ATOM     20  C   UNL A   1      35.252  24.077  25.716  1.00  0.00     0.041 A 
ATOM     21  C   UNL A   1      34.564  23.102  26.430  1.00  0.00     0.020 A 
ATOM     22  Cl  UNL A   1      36.916  23.835  25.339  1.00  0.00    -0.084 Cl
ENDBRANCH   6  16
ENDBRANCH   3   6
ENDBRANCH   1   2
BRANCH   1  23
ATOM     23  C   UNL A   1      33.226  30.839  27.439  1.00  0.00     0.042 C 
BRANCH  23  24
ATOM     24  C   UNL A   1      34.359  31.795  27.715  1.00  0.00     0.118 C 
BRANCH  24  25
ATOM     25  N   UNL A   1      34.473  32.280  29.087  1.00  0.00    -0.352 N 
ATOM     26  C   UNL A   1      35.388  31.909  30.059  1.00  0.00     0.251 C 
ATOM     27  H   UNL A   1      33.814  32.960  29.357  1.00  0.00     0.163 HD
ATOM     28  O   UNL A   1      35.267  32.343  31.215  1.00  0.00    -0.269 OA
BRANCH  26  29
ATOM     29  C   UNL A   1      36.506  30.995  29.741  1.00  0.00     0.039 A 
ATOM     30  C   UNL A   1      36.360  29.632  29.458  1.00  0.00     0.014 A 
ATOM     31  C   UNL A   1      37.793  31.482  29.840  1.00  0.00     0.014 A 
ATOM     32  C   UNL A   1      37.516  28.840  29.397  1.00  0.00     0.010 A 
ATOM     33  C   UNL A   1      38.809  30.840  29.225  1.00  0.00     0.010 A 
ATOM     34  C   UNL A   1      38.752  29.484  29.396  1.00  0.00    -0.014 A 
BRANCH  34  35
ATOM     35  C   UNL A   1      40.060  28.880  29.514  1.00  0.00     0.031 A 
ATOM     36  C   UNL A   1      40.537  28.742  30.903  1.00  0.00     0.074 A 
ATOM     37  C   UNL A   1      40.596  28.155  28.505  1.00  0.00     0.049 A 
ATOM     38  N   UNL A   1      41.466  29.420  31.484  1.00  0.00    -0.248 NA
ATOM     39  C   UNL A   1      39.768  27.873  31.810  1.00  0.00     0.031 C 
ATOM     40  C   UNL A   1      40.032  27.812  27.190  1.00  0.00     0.029 A 
ATOM     41  N   UNL A   1      41.776  27.482  28.499  1.00  0.00    -0.354 N 
ATOM     42  C   UNL A   1      41.532  28.921  32.780  1.00  0.00     0.074 A 
ATOM     43  C   UNL A   1      40.319  28.178  32.985  1.00  0.00     0.031 C 
ATOM     44  C   UNL A   1      40.788  26.853  26.604  1.00  0.00     0.029 A 
ATOM     45  C   UNL A   1      41.962  26.625  27.423  1.00  0.00     0.049 A 
ATOM     46  H   UNL A   1      42.450  27.594  29.208  1.00  0.00     0.167 HD
ATOM     47  C   UNL A   1      42.691  28.942  33.490  1.00  0.00     0.037 A 
ATOM     48  C   UNL A   1      43.006  25.774  27.261  1.00  0.00     0.037 A 
ATOM     49  C   UNL A   1      43.679  29.766  32.835  1.00  0.00     0.049 A 
ATOM     50  C   UNL A   1      44.084  26.225  28.183  1.00  0.00     0.074 A 
ATOM     51  C   UNL A   1      43.749  31.102  32.491  1.00  0.00     0.029 A 
ATOM     52  N   UNL A   1      44.617  29.130  32.055  1.00  0.00    -0.354 N 
ATOM     53  N   UNL A   1      44.730  27.351  28.049  1.00  0.00    -0.248 NA
ATOM     54  C   UNL A   1      44.104  25.654  29.522  1.00  0.00     0.031 C 
ATOM     55  C   UNL A   1      44.368  31.121  31.205  1.00  0.00     0.029 A 
ATOM     56  C   UNL A   1      44.700  29.808  30.864  1.00  0.00     0.049 A 
ATOM     57  H   UNL A   1      45.136  28.332  32.306  1.00  0.00     0.167 HD
ATOM     58  C   UNL A   1      44.881  27.838  29.342  1.00  0.00     0.074 A 
ATOM     59  C   UNL A   1      44.550  26.709  30.210  1.00  0.00     0.031 C 
ATOM     60  C   UNL A   1      44.970  29.179  29.588  1.00  0.00     0.037 A 
BRANCH  47  61
ATOM     61  C   UNL A   1      43.052  27.964  34.579  1.00  0.00     0.057 A 
ATOM     62  C   UNL A   1      43.152  28.429  35.903  1.00  0.00     0.134 A 
ATOM     63  C   UNL A   1      43.538  26.657  34.370  1.00  0.00     0.134 A 
ATOM     64  F   UNL A   1      42.736  29.660  36.233  1.00  0.00    -0.206 F 
ATOM     65  C   UNL A   1      43.747  27.674  36.922  1.00  0.00     0.040 A 
ATOM     66  C   UNL A   1      44.079  25.873  35.392  1.00  0.00     0.040 A 
ATOM     67  F   UNL A   1      43.611  26.098  33.157  1.00  0.00    -0.206 F 
ATOM     68  C   UNL A   1      44.215  26.392  36.668  1.00  0.00     0.006 A 
ENDBRANCH  47  61
BRANCH  48  69
ATOM     69  C   UNL A   1      43.027  24.446  26.607  1.00  0.00     0.057 A 
ATOM     70  C   UNL A   1      43.796  24.207  25.460  1.00  0.00     0.134 A 
ATOM     71  C   UNL A   1      42.508  23.310  27.251  1.00  0.00     0.134 A 
ATOM     72  F   UNL A   1      44.368  25.224  24.800  1.00  0.00    -0.206 F 
ATOM     73  C   UNL A   1      44.053  22.910  24.992  1.00  0.00     0.040 A 
ATOM     74  C   UNL A   1      42.753  22.010  26.793  1.00  0.00     0.040 A 
ATOM     75  F   UNL A   1      41.820  23.421  28.396  1.00  0.00    -0.206 F 
ATOM     76  C   UNL A   1      43.540  21.806  25.666  1.00  0.00     0.006 A 
ENDBRANCH  48  69
BRANCH  60  77
ATOM     77  C   UNL A   1      45.120  30.099  28.399  1.00  0.00     0.057 A 
ATOM     78  C   UNL A   1      44.044  30.721  27.745  1.00  0.00     0.134 A 
ATOM     79  C   UNL A   1      46.401  30.492  28.002  1.00  0.00     0.134 A 
ATOM     80  F   UNL A   1      42.782  30.493  28.118  1.00  0.00    -0.206 F 
ATOM     81  C   UNL A   1      44.232  31.654  26.721  1.00  0.00     0.040 A 
ATOM     82  C   UNL A   1      46.605  31.448  27.002  1.00  0.00     0.040 A 
ATOM     83  F   UNL A   1      47.483  29.990  28.617  1.00  0.00    -0.206 F 
ATOM     84  C   UNL A   1      45.518  32.027  26.351  1.00  0.00     0.006 A 
ENDBRANCH  60  77
ENDBRANCH  34  35
ENDBRANCH  26  29
ENDBRANCH  24  25
ENDBRANCH  23  24
ENDBRANCH   1  23
TORSDOF 14
ENDMDL
