MODEL 1
REMARK VINA RESULT:     -12.3      0.000      0.000
REMARK SMILES O=C(NCCCNC(=O)c1cccc(NC(=O)c2cc3ccccc3[nH]2)c1)c1ccc(-c2c3nc(c(-c4c(F)cccc4F)c4ccc([nH]4)c(-c4c(F)cccc4F)c4nc(c(-c5c(F)cccc5F)c5ccc2[nH]5)C=C4)C=C3)cc1
REMARK SMILES IDX 5 1 4 2 3 3 1 4 2 5 28 7 29 8 81 9 30 10 80 11 31 12 32 13
REMARK SMILES IDX 33 14 74 15 34 16 79 17 73 18 75 19 35 20 78 21 72 22 71 23
REMARK SMILES IDX 36 25 62 26 45 27 61 28 46 29 49 30 60 31 76 32 47 33 48 34
REMARK SMILES IDX 59 36 77 37 50 38 37 39 38 40 43 41 39 42 40 43 42 44 44 45
REMARK SMILES IDX 41 46 63 47 64 48 69 49 65 50 66 51 68 52 70 53 67 54 51 55
REMARK SMILES IDX 52 56 57 57 53 58 54 59 56 60 58 61 55 62 6 63 7 64 8 65
REMARK SMILES IDX 9 67 10 68 11 69 27 70 12 71 14 72 13 73 15 74 16 75 17 77
REMARK SMILES IDX 18 78 19 79 26 80 20 81 25 82 21 84 24 85 22 86 23 87
REMARK H PARENT 3 6 75 24 49 35 7 66 15 76 26 83
REMARK Flexibility Score: inf
ROOT
ATOM      1  C   UNL A   1      37.242  19.595  24.972  1.00  0.00     0.042 C 
ENDROOT
BRANCH   1   2
ATOM      2  C   UNL A   1      38.541  20.267  25.382  1.00  0.00     0.118 C 
BRANCH   2   3
ATOM      3  N   UNL A   1      39.632  19.320  25.580  1.00  0.00    -0.352 N 
ATOM      4  O   UNL A   1      41.734  18.608  25.955  1.00  0.00    -0.269 OA
ATOM      5  C   UNL A   1      40.916  19.520  26.027  1.00  0.00     0.251 C 
ATOM      6  H   UNL A   1      39.414  18.387  25.356  1.00  0.00     0.163 HD
BRANCH   5   7
ATOM      7  C   UNL A   1      41.321  20.833  26.574  1.00  0.00     0.039 A 
ATOM      8  C   UNL A   1      41.198  21.107  27.936  1.00  0.00     0.014 A 
ATOM      9  C   UNL A   1      41.858  21.797  25.714  1.00  0.00     0.014 A 
ATOM     10  C   UNL A   1      41.442  22.390  28.409  1.00  0.00     0.010 A 
ATOM     11  C   UNL A   1      42.214  23.054  26.214  1.00  0.00     0.010 A 
ATOM     12  C   UNL A   1      41.978  23.370  27.560  1.00  0.00    -0.014 A 
BRANCH  12  13
ATOM     13  C   UNL A   1      42.357  24.686  28.134  1.00  0.00     0.031 A 
ATOM     14  C   UNL A   1      43.779  25.001  28.502  1.00  0.00     0.074 A 
ATOM     15  C   UNL A   1      41.393  25.616  28.291  1.00  0.00     0.049 A 
ATOM     16  N   UNL A   1      44.273  26.108  28.995  1.00  0.00    -0.248 NA
ATOM     17  C   UNL A   1      44.774  23.937  28.299  1.00  0.00     0.031 C 
ATOM     18  C   UNL A   1      39.975  25.418  27.978  1.00  0.00     0.029 A 
ATOM     19  N   UNL A   1      41.457  26.912  28.730  1.00  0.00    -0.354 N 
ATOM     20  C   UNL A   1      45.630  25.873  29.178  1.00  0.00     0.074 A 
ATOM     21  C   UNL A   1      45.877  24.506  28.768  1.00  0.00     0.031 C 
ATOM     22  C   UNL A   1      39.314  26.565  28.186  1.00  0.00     0.029 A 
ATOM     23  C   UNL A   1      40.244  27.555  28.714  1.00  0.00     0.049 A 
ATOM     24  H   UNL A   1      42.292  27.341  29.027  1.00  0.00     0.167 HD
ATOM     25  C   UNL A   1      46.579  26.722  29.639  1.00  0.00     0.037 A 
ATOM     26  C   UNL A   1      39.907  28.798  29.103  1.00  0.00     0.037 A 
ATOM     27  C   UNL A   1      46.325  28.085  30.035  1.00  0.00     0.049 A 
ATOM     28  C   UNL A   1      40.974  29.704  29.640  1.00  0.00     0.074 A 
ATOM     29  C   UNL A   1      47.226  29.035  30.483  1.00  0.00     0.029 A 
ATOM     30  N   UNL A   1      45.076  28.689  30.039  1.00  0.00    -0.354 N 
ATOM     31  N   UNL A   1      42.258  29.478  29.774  1.00  0.00    -0.248 NA
ATOM     32  C   UNL A   1      40.546  31.036  30.085  1.00  0.00     0.031 C 
ATOM     33  C   UNL A   1      46.516  30.197  30.806  1.00  0.00     0.029 A 
ATOM     34  C   UNL A   1      45.180  29.989  30.506  1.00  0.00     0.049 A 
ATOM     35  H   UNL A   1      44.239  28.257  29.752  1.00  0.00     0.167 HD
ATOM     36  C   UNL A   1      42.795  30.643  30.301  1.00  0.00     0.074 A 
ATOM     37  C   UNL A   1      41.699  31.581  30.441  1.00  0.00     0.031 C 
ATOM     38  C   UNL A   1      44.079  30.911  30.641  1.00  0.00     0.037 A 
BRANCH  25  39
ATOM     39  C   UNL A   1      47.984  26.201  29.760  1.00  0.00     0.057 A 
ATOM     40  C   UNL A   1      48.887  26.244  28.690  1.00  0.00     0.134 A 
ATOM     41  C   UNL A   1      48.452  25.694  30.979  1.00  0.00     0.134 A 
ATOM     42  F   UNL A   1      48.501  26.708  27.493  1.00  0.00    -0.206 F 
ATOM     43  C   UNL A   1      50.199  25.785  28.824  1.00  0.00     0.040 A 
ATOM     44  C   UNL A   1      49.769  25.255  31.132  1.00  0.00     0.040 A 
ATOM     45  F   UNL A   1      47.643  25.632  32.047  1.00  0.00    -0.206 F 
ATOM     46  C   UNL A   1      50.646  25.295  30.050  1.00  0.00     0.006 A 
ENDBRANCH  25  39
BRANCH  26  47
ATOM     47  C   UNL A   1      38.495  29.243  29.007  1.00  0.00     0.057 A 
ATOM     48  C   UNL A   1      37.650  29.219  30.121  1.00  0.00     0.134 A 
ATOM     49  C   UNL A   1      37.962  29.718  27.802  1.00  0.00     0.134 A 
ATOM     50  F   UNL A   1      38.098  28.761  31.300  1.00  0.00    -0.206 F 
ATOM     51  C   UNL A   1      36.320  29.634  30.038  1.00  0.00     0.040 A 
ATOM     52  C   UNL A   1      36.645  30.165  27.711  1.00  0.00     0.040 A 
ATOM     53  F   UNL A   1      38.725  29.777  26.700  1.00  0.00    -0.206 F 
ATOM     54  C   UNL A   1      35.816  30.116  28.830  1.00  0.00     0.006 A 
ENDBRANCH  26  47
BRANCH  38  55
ATOM     55  C   UNL A   1      44.370  32.286  31.167  1.00  0.00     0.057 A 
ATOM     56  C   UNL A   1      44.673  33.356  30.316  1.00  0.00     0.134 A 
ATOM     57  C   UNL A   1      44.324  32.544  32.543  1.00  0.00     0.134 A 
ATOM     58  F   UNL A   1      44.747  33.169  28.990  1.00  0.00    -0.206 F 
ATOM     59  C   UNL A   1      44.945  34.630  30.817  1.00  0.00     0.040 A 
ATOM     60  C   UNL A   1      44.567  33.820  33.053  1.00  0.00     0.040 A 
ATOM     61  F   UNL A   1      44.034  31.564  33.412  1.00  0.00    -0.206 F 
ATOM     62  C   UNL A   1      44.886  34.865  32.189  1.00  0.00     0.006 A 
ENDBRANCH  38  55
ENDBRANCH  12  13
ENDBRANCH   5   7
ENDBRANCH   2   3
ENDBRANCH   1   2
BRANCH   1  63
ATOM     63  C   UNL A   1      36.036  20.518  25.007  1.00  0.00     0.118 C 
BRANCH  63  64
ATOM     64  N   UNL A   1      36.395  21.902  25.311  1.00  0.00    -0.352 N 
ATOM     65  C   UNL A   1      35.699  23.070  25.103  1.00  0.00     0.251 C 
ATOM     66  H   UNL A   1      37.278  22.017  25.731  1.00  0.00     0.163 HD
ATOM     67  O   UNL A   1      36.256  24.154  25.249  1.00  0.00    -0.269 OA
BRANCH  65  68
ATOM     68  C   UNL A   1      34.282  23.021  24.697  1.00  0.00     0.041 A 
ATOM     69  C   UNL A   1      33.280  22.848  25.649  1.00  0.00     0.014 A 
ATOM     70  C   UNL A   1      33.946  23.199  23.358  1.00  0.00     0.040 A 
ATOM     71  C   UNL A   1      31.942  22.945  25.257  1.00  0.00     0.003 A 
ATOM     72  C   UNL A   1      32.619  23.406  22.983  1.00  0.00     0.042 A 
ATOM     73  C   UNL A   1      31.609  23.254  23.930  1.00  0.00     0.026 A 
BRANCH  72  74
ATOM     74  N   UNL A   1      32.468  23.954  21.708  1.00  0.00    -0.321 N 
ATOM     75  C   UNL A   1      32.802  25.161  21.181  1.00  0.00     0.272 C 
ATOM     76  H   UNL A   1      32.032  23.348  21.065  1.00  0.00     0.170 HD
ATOM     77  O   UNL A   1      33.121  25.171  19.991  1.00  0.00    -0.267 OA
BRANCH  75  78
ATOM     78  C   UNL A   1      32.580  26.384  21.902  1.00  0.00     0.105 A 
ATOM     79  C   UNL A   1      31.386  26.829  22.451  1.00  0.00     0.042 A 
ATOM     80  N   UNL A   1      33.567  26.925  22.707  1.00  0.00    -0.351 N 
ATOM     81  C   UNL A   1      31.667  26.934  23.850  1.00  0.00     0.000 A 
ATOM     82  C   UNL A   1      33.054  26.898  23.991  1.00  0.00     0.046 A 
ATOM     83  H   UNL A   1      34.448  27.261  22.425  1.00  0.00     0.167 HD
ATOM     84  C   UNL A   1      30.865  26.865  25.002  1.00  0.00     0.010 A 
ATOM     85  C   UNL A   1      33.696  26.736  25.221  1.00  0.00     0.026 A 
ATOM     86  C   UNL A   1      31.486  26.637  26.237  1.00  0.00     0.001 A 
ATOM     87  C   UNL A   1      32.876  26.557  26.338  1.00  0.00     0.002 A 
ENDBRANCH  75  78
ENDBRANCH  72  74
ENDBRANCH  65  68
ENDBRANCH  63  64
ENDBRANCH   1  63
TORSDOF 12
ENDMDL
MODEL 2
REMARK VINA RESULT:     -12.3      0.175      1.600
REMARK SMILES O=C(NCCCNC(=O)c1cccc(NC(=O)c2cc3ccccc3[nH]2)c1)c1ccc(-c2c3nc(c(-c4c(F)cccc4F)c4ccc([nH]4)c(-c4c(F)cccc4F)c4nc(c(-c5c(F)cccc5F)c5ccc2[nH]5)C=C4)C=C3)cc1
REMARK SMILES IDX 5 1 4 2 3 3 1 4 2 5 28 7 29 8 81 9 30 10 80 11 31 12 32 13
REMARK SMILES IDX 33 14 74 15 34 16 79 17 73 18 75 19 35 20 78 21 72 22 71 23
REMARK SMILES IDX 36 25 62 26 45 27 61 28 46 29 49 30 60 31 76 32 47 33 48 34
REMARK SMILES IDX 59 36 77 37 50 38 37 39 38 40 43 41 39 42 40 43 42 44 44 45
REMARK SMILES IDX 41 46 63 47 64 48 69 49 65 50 66 51 68 52 70 53 67 54 51 55
REMARK SMILES IDX 52 56 57 57 53 58 54 59 56 60 58 61 55 62 6 63 7 64 8 65
REMARK SMILES IDX 9 67 10 68 11 69 27 70 12 71 14 72 13 73 15 74 16 75 17 77
REMARK SMILES IDX 18 78 19 79 26 80 20 81 25 82 21 84 24 85 22 86 23 87
REMARK H PARENT 3 6 75 24 49 35 7 66 15 76 26 83
REMARK Flexibility Score: inf
ROOT
ATOM      1  C   UNL A   1      37.405  19.629  24.926  1.00  0.00     0.042 C 
ENDROOT
BRANCH   1   2
ATOM      2  C   UNL A   1      38.606  20.254  25.614  1.00  0.00     0.118 C 
BRANCH   2   3
ATOM      3  N   UNL A   1      39.749  19.351  25.689  1.00  0.00    -0.352 N 
ATOM      4  O   UNL A   1      41.904  18.724  25.864  1.00  0.00    -0.269 OA
ATOM      5  C   UNL A   1      41.057  19.597  26.032  1.00  0.00     0.251 C 
ATOM      6  H   UNL A   1      39.552  18.416  25.457  1.00  0.00     0.163 HD
BRANCH   5   7
ATOM      7  C   UNL A   1      41.452  20.910  26.582  1.00  0.00     0.039 A 
ATOM      8  C   UNL A   1      41.362  21.167  27.950  1.00  0.00     0.014 A 
ATOM      9  C   UNL A   1      41.946  21.895  25.719  1.00  0.00     0.014 A 
ATOM     10  C   UNL A   1      41.595  22.449  28.431  1.00  0.00     0.010 A 
ATOM     11  C   UNL A   1      42.292  23.153  26.223  1.00  0.00     0.010 A 
ATOM     12  C   UNL A   1      42.088  23.450  27.579  1.00  0.00    -0.014 A 
BRANCH  12  13
ATOM     13  C   UNL A   1      42.457  24.766  28.157  1.00  0.00     0.031 A 
ATOM     14  C   UNL A   1      43.877  25.092  28.522  1.00  0.00     0.074 A 
ATOM     15  C   UNL A   1      41.486  25.687  28.320  1.00  0.00     0.049 A 
ATOM     16  N   UNL A   1      44.364  26.201  29.018  1.00  0.00    -0.248 NA
ATOM     17  C   UNL A   1      44.881  24.037  28.312  1.00  0.00     0.031 C 
ATOM     18  C   UNL A   1      40.069  25.479  28.011  1.00  0.00     0.029 A 
ATOM     19  N   UNL A   1      41.541  26.982  28.764  1.00  0.00    -0.354 N 
ATOM     20  C   UNL A   1      45.723  25.976  29.196  1.00  0.00     0.074 A 
ATOM     21  C   UNL A   1      45.980  24.614  28.780  1.00  0.00     0.031 C 
ATOM     22  C   UNL A   1      39.398  26.619  28.226  1.00  0.00     0.029 A 
ATOM     23  C   UNL A   1      40.322  27.614  28.755  1.00  0.00     0.049 A 
ATOM     24  H   UNL A   1      42.373  27.417  29.061  1.00  0.00     0.167 HD
ATOM     25  C   UNL A   1      46.667  26.832  29.658  1.00  0.00     0.037 A 
ATOM     26  C   UNL A   1      39.975  28.853  29.150  1.00  0.00     0.037 A 
ATOM     27  C   UNL A   1      46.402  28.191  30.060  1.00  0.00     0.049 A 
ATOM     28  C   UNL A   1      41.036  29.766  29.688  1.00  0.00     0.074 A 
ATOM     29  C   UNL A   1      47.296  29.147  30.510  1.00  0.00     0.029 A 
ATOM     30  N   UNL A   1      45.148  28.784  30.070  1.00  0.00    -0.354 N 
ATOM     31  N   UNL A   1      42.322  29.550  29.817  1.00  0.00    -0.248 NA
ATOM     32  C   UNL A   1      40.598  31.092  30.139  1.00  0.00     0.031 C 
ATOM     33  C   UNL A   1      46.577  30.302  30.839  1.00  0.00     0.029 A 
ATOM     34  C   UNL A   1      45.242  30.084  30.542  1.00  0.00     0.049 A 
ATOM     35  H   UNL A   1      44.314  28.347  29.784  1.00  0.00     0.167 HD
ATOM     36  C   UNL A   1      42.851  30.718  30.347  1.00  0.00     0.074 A 
ATOM     37  C   UNL A   1      41.748  31.646  30.494  1.00  0.00     0.031 C 
ATOM     38  C   UNL A   1      44.134  30.996  30.684  1.00  0.00     0.037 A 
BRANCH  25  39
ATOM     39  C   UNL A   1      48.076  26.322  29.772  1.00  0.00     0.057 A 
ATOM     40  C   UNL A   1      48.565  25.749  30.953  1.00  0.00     0.134 A 
ATOM     41  C   UNL A   1      48.938  26.361  28.669  1.00  0.00     0.134 A 
ATOM     42  F   UNL A   1      47.796  25.689  32.049  1.00  0.00    -0.206 F 
ATOM     43  C   UNL A   1      49.867  25.250  31.037  1.00  0.00     0.040 A 
ATOM     44  C   UNL A   1      50.234  25.844  28.734  1.00  0.00     0.040 A 
ATOM     45  F   UNL A   1      48.532  26.889  27.504  1.00  0.00    -0.206 F 
ATOM     46  C   UNL A   1      50.703  25.291  29.922  1.00  0.00     0.006 A 
ENDBRANCH  25  39
BRANCH  26  47
ATOM     47  C   UNL A   1      38.559  29.287  29.060  1.00  0.00     0.057 A 
ATOM     48  C   UNL A   1      38.012  29.731  27.852  1.00  0.00     0.134 A 
ATOM     49  C   UNL A   1      37.716  29.254  30.178  1.00  0.00     0.134 A 
ATOM     50  F   UNL A   1      38.774  29.798  26.749  1.00  0.00    -0.206 F 
ATOM     51  C   UNL A   1      36.682  30.143  27.761  1.00  0.00     0.040 A 
ATOM     52  C   UNL A   1      36.377  29.634  30.095  1.00  0.00     0.040 A 
ATOM     53  F   UNL A   1      38.178  28.828  31.363  1.00  0.00    -0.206 F 
ATOM     54  C   UNL A   1      35.858  30.088  28.884  1.00  0.00     0.006 A 
ENDBRANCH  26  47
BRANCH  38  55
ATOM     55  C   UNL A   1      44.414  32.370  31.216  1.00  0.00     0.057 A 
ATOM     56  C   UNL A   1      44.401  32.649  32.588  1.00  0.00     0.134 A 
ATOM     57  C   UNL A   1      44.722  33.422  30.343  1.00  0.00     0.134 A 
ATOM     58  F   UNL A   1      44.098  31.690  33.474  1.00  0.00    -0.206 F 
ATOM     59  C   UNL A   1      44.660  33.933  33.072  1.00  0.00     0.040 A 
ATOM     60  C   UNL A   1      45.010  34.702  30.817  1.00  0.00     0.040 A 
ATOM     61  F   UNL A   1      44.757  33.219  29.017  1.00  0.00    -0.206 F 
ATOM     62  C   UNL A   1      44.972  34.961  32.185  1.00  0.00     0.006 A 
ENDBRANCH  38  55
ENDBRANCH  12  13
ENDBRANCH   5   7
ENDBRANCH   2   3
ENDBRANCH   1   2
BRANCH   1  63
ATOM     63  C   UNL A   1      36.153  20.488  24.979  1.00  0.00     0.118 C 
BRANCH  63  64
ATOM     64  N   UNL A   1      36.443  21.887  25.281  1.00  0.00    -0.352 N 
ATOM     65  C   UNL A   1      35.709  23.025  25.034  1.00  0.00     0.251 C 
ATOM     66  H   UNL A   1      37.303  22.043  25.734  1.00  0.00     0.163 HD
ATOM     67  O   UNL A   1      36.215  24.132  25.189  1.00  0.00    -0.269 OA
BRANCH  65  68
ATOM     68  C   UNL A   1      34.311  22.913  24.574  1.00  0.00     0.041 A 
ATOM     69  C   UNL A   1      33.291  22.623  25.477  1.00  0.00     0.014 A 
ATOM     70  C   UNL A   1      34.010  23.149  23.235  1.00  0.00     0.040 A 
ATOM     71  C   UNL A   1      31.964  22.662  25.042  1.00  0.00     0.003 A 
ATOM     72  C   UNL A   1      32.686  23.297  22.824  1.00  0.00     0.042 A 
ATOM     73  C   UNL A   1      31.656  23.028  23.723  1.00  0.00     0.026 A 
BRANCH  72  74
ATOM     74  N   UNL A   1      32.542  23.909  21.578  1.00  0.00    -0.321 N 
ATOM     75  C   UNL A   1      32.838  25.156  21.128  1.00  0.00     0.272 C 
ATOM     76  H   UNL A   1      32.149  23.323  20.891  1.00  0.00     0.170 HD
ATOM     77  O   UNL A   1      33.185  25.246  19.948  1.00  0.00    -0.267 OA
BRANCH  75  78
ATOM     78  C   UNL A   1      32.546  26.327  21.908  1.00  0.00     0.105 A 
ATOM     79  C   UNL A   1      31.310  26.720  22.400  1.00  0.00     0.042 A 
ATOM     80  N   UNL A   1      33.466  26.826  22.814  1.00  0.00    -0.351 N 
ATOM     81  C   UNL A   1      31.491  26.736  23.819  1.00  0.00     0.000 A 
ATOM     82  C   UNL A   1      32.865  26.708  24.055  1.00  0.00     0.046 A 
ATOM     83  H   UNL A   1      34.359  27.190  22.617  1.00  0.00     0.167 HD
ATOM     84  C   UNL A   1      30.612  26.583  24.905  1.00  0.00     0.010 A 
ATOM     85  C   UNL A   1      33.423  26.473  25.313  1.00  0.00     0.026 A 
ATOM     86  C   UNL A   1      31.150  26.282  26.163  1.00  0.00     0.001 A 
ATOM     87  C   UNL A   1      32.530  26.211  26.356  1.00  0.00     0.002 A 
ENDBRANCH  75  78
ENDBRANCH  72  74
ENDBRANCH  65  68
ENDBRANCH  63  64
ENDBRANCH   1  63
TORSDOF 12
ENDMDL
MODEL 3
REMARK VINA RESULT:     -12.3      0.282      6.245
REMARK SMILES O=C(NCCCNC(=O)c1cccc(NC(=O)c2cc3ccccc3[nH]2)c1)c1ccc(-c2c3nc(c(-c4c(F)cccc4F)c4ccc([nH]4)c(-c4c(F)cccc4F)c4nc(c(-c5c(F)cccc5F)c5ccc2[nH]5)C=C4)C=C3)cc1
REMARK SMILES IDX 5 1 4 2 3 3 1 4 2 5 28 7 29 8 81 9 30 10 80 11 31 12 32 13
REMARK SMILES IDX 33 14 74 15 34 16 79 17 73 18 75 19 35 20 78 21 72 22 71 23
REMARK SMILES IDX 36 25 62 26 45 27 61 28 46 29 49 30 60 31 76 32 47 33 48 34
REMARK SMILES IDX 59 36 77 37 50 38 37 39 38 40 43 41 39 42 40 43 42 44 44 45
REMARK SMILES IDX 41 46 63 47 64 48 69 49 65 50 66 51 68 52 70 53 67 54 51 55
REMARK SMILES IDX 52 56 57 57 53 58 54 59 56 60 58 61 55 62 6 63 7 64 8 65
REMARK SMILES IDX 9 67 10 68 11 69 27 70 12 71 14 72 13 73 15 74 16 75 17 77
REMARK SMILES IDX 18 78 19 79 26 80 20 81 25 82 21 84 24 85 22 86 23 87
REMARK H PARENT 3 6 75 24 49 35 7 66 15 76 26 83
REMARK Flexibility Score: inf
ROOT
ATOM      1  C   UNL A   1      37.404  19.578  24.944  1.00  0.00     0.042 C 
ENDROOT
BRANCH   1   2
ATOM      2  C   UNL A   1      38.648  20.250  25.498  1.00  0.00     0.118 C 
BRANCH   2   3
ATOM      3  N   UNL A   1      39.767  19.328  25.655  1.00  0.00    -0.352 N 
ATOM      4  O   UNL A   1      41.898  18.665  25.949  1.00  0.00    -0.269 OA
ATOM      5  C   UNL A   1      41.063  19.559  26.051  1.00  0.00     0.251 C 
ATOM      6  H   UNL A   1      39.562  18.389  25.444  1.00  0.00     0.163 HD
BRANCH   5   7
ATOM      7  C   UNL A   1      41.460  20.882  26.577  1.00  0.00     0.039 A 
ATOM      8  C   UNL A   1      41.367  21.166  27.939  1.00  0.00     0.014 A 
ATOM      9  C   UNL A   1      41.959  21.848  25.696  1.00  0.00     0.014 A 
ATOM     10  C   UNL A   1      41.602  22.456  28.396  1.00  0.00     0.010 A 
ATOM     11  C   UNL A   1      42.306  23.116  26.177  1.00  0.00     0.010 A 
ATOM     12  C   UNL A   1      42.099  23.439  27.526  1.00  0.00    -0.014 A 
BRANCH  12  13
ATOM     13  C   UNL A   1      42.470  24.765  28.080  1.00  0.00     0.031 A 
ATOM     14  C   UNL A   1      41.437  25.829  28.323  1.00  0.00     0.074 A 
ATOM     15  C   UNL A   1      43.762  24.988  28.393  1.00  0.00     0.049 A 
ATOM     16  N   UNL A   1      41.597  27.031  28.817  1.00  0.00    -0.248 NA
ATOM     17  C   UNL A   1      40.048  25.510  27.958  1.00  0.00     0.031 C 
ATOM     18  C   UNL A   1      44.854  24.033  28.191  1.00  0.00     0.029 A 
ATOM     19  N   UNL A   1      44.373  26.073  28.965  1.00  0.00    -0.354 N 
ATOM     20  C   UNL A   1      40.339  27.618  28.808  1.00  0.00     0.074 A 
ATOM     21  C   UNL A   1      39.429  26.650  28.233  1.00  0.00     0.031 C 
ATOM     22  C   UNL A   1      45.990  24.552  28.677  1.00  0.00     0.029 A 
ATOM     23  C   UNL A   1      45.722  25.901  29.157  1.00  0.00     0.049 A 
ATOM     24  H   UNL A   1      43.893  26.896  29.214  1.00  0.00     0.167 HD
ATOM     25  C   UNL A   1      39.979  28.849  29.247  1.00  0.00     0.037 A 
ATOM     26  C   UNL A   1      46.651  26.742  29.646  1.00  0.00     0.037 A 
ATOM     27  C   UNL A   1      40.891  29.802  29.827  1.00  0.00     0.049 A 
ATOM     28  C   UNL A   1      46.227  28.110  30.092  1.00  0.00     0.074 A 
ATOM     29  C   UNL A   1      40.617  31.061  30.333  1.00  0.00     0.029 A 
ATOM     30  N   UNL A   1      42.257  29.604  29.973  1.00  0.00    -0.354 N 
ATOM     31  N   UNL A   1      45.028  28.638  30.110  1.00  0.00    -0.248 NA
ATOM     32  C   UNL A   1      47.286  29.001  30.582  1.00  0.00     0.031 C 
ATOM     33  C   UNL A   1      41.823  31.645  30.737  1.00  0.00     0.029 A 
ATOM     34  C   UNL A   1      42.841  30.728  30.535  1.00  0.00     0.049 A 
ATOM     35  H   UNL A   1      42.739  28.786  29.715  1.00  0.00     0.167 HD
ATOM     36  C   UNL A   1      45.183  29.914  30.628  1.00  0.00     0.074 A 
ATOM     37  C   UNL A   1      46.591  30.073  30.932  1.00  0.00     0.031 C 
ATOM     38  C   UNL A   1      44.245  30.871  30.832  1.00  0.00     0.037 A 
BRANCH  25  39
ATOM     39  C   UNL A   1      38.537  29.248  29.100  1.00  0.00     0.057 A 
ATOM     40  C   UNL A   1      37.646  29.226  30.181  1.00  0.00     0.134 A 
ATOM     41  C   UNL A   1      38.048  29.709  27.871  1.00  0.00     0.134 A 
ATOM     42  F   UNL A   1      38.046  28.786  31.382  1.00  0.00    -0.206 F 
ATOM     43  C   UNL A   1      36.316  29.628  30.039  1.00  0.00     0.040 A 
ATOM     44  C   UNL A   1      36.727  30.138  27.723  1.00  0.00     0.040 A 
ATOM     45  F   UNL A   1      38.849  29.766  26.796  1.00  0.00    -0.206 F 
ATOM     46  C   UNL A   1      35.856  30.094  28.808  1.00  0.00     0.006 A 
ENDBRANCH  25  39
BRANCH  26  47
ATOM     47  C   UNL A   1      48.069  26.312  29.722  1.00  0.00     0.057 A 
ATOM     48  C   UNL A   1      48.586  25.721  30.879  1.00  0.00     0.134 A 
ATOM     49  C   UNL A   1      48.936  26.471  28.634  1.00  0.00     0.134 A 
ATOM     50  F   UNL A   1      47.808  25.557  31.960  1.00  0.00    -0.206 F 
ATOM     51  C   UNL A   1      49.920  25.317  30.959  1.00  0.00     0.040 A 
ATOM     52  C   UNL A   1      50.263  26.044  28.688  1.00  0.00     0.040 A 
ATOM     53  F   UNL A   1      48.498  27.021  27.492  1.00  0.00    -0.206 F 
ATOM     54  C   UNL A   1      50.760  25.471  29.857  1.00  0.00     0.006 A 
ENDBRANCH  26  47
BRANCH  38  55
ATOM     55  C   UNL A   1      44.710  32.161  31.439  1.00  0.00     0.057 A 
ATOM     56  C   UNL A   1      44.752  32.353  32.826  1.00  0.00     0.134 A 
ATOM     57  C   UNL A   1      45.142  33.216  30.625  1.00  0.00     0.134 A 
ATOM     58  F   UNL A   1      44.337  31.387  33.659  1.00  0.00    -0.206 F 
ATOM     59  C   UNL A   1      45.184  33.559  33.381  1.00  0.00     0.040 A 
ATOM     60  C   UNL A   1      45.602  34.416  31.170  1.00  0.00     0.040 A 
ATOM     61  F   UNL A   1      45.133  33.095  29.289  1.00  0.00    -0.206 F 
ATOM     62  C   UNL A   1      45.616  34.591  32.552  1.00  0.00     0.006 A 
ENDBRANCH  38  55
ENDBRANCH  12  13
ENDBRANCH   5   7
ENDBRANCH   2   3
ENDBRANCH   1   2
BRANCH   1  63
ATOM     63  C   UNL A   1      36.172  20.467  24.954  1.00  0.00     0.118 C 
BRANCH  63  64
ATOM     64  N   UNL A   1      36.492  21.869  25.209  1.00  0.00    -0.352 N 
ATOM     65  C   UNL A   1      35.774  23.012  24.938  1.00  0.00     0.251 C 
ATOM     66  H   UNL A   1      37.361  22.023  25.644  1.00  0.00     0.163 HD
ATOM     67  O   UNL A   1      36.302  24.114  25.052  1.00  0.00    -0.269 OA
BRANCH  65  68
ATOM     68  C   UNL A   1      34.368  22.912  24.502  1.00  0.00     0.041 A 
ATOM     69  C   UNL A   1      33.363  22.615  25.419  1.00  0.00     0.014 A 
ATOM     70  C   UNL A   1      34.044  23.166  23.172  1.00  0.00     0.040 A 
ATOM     71  C   UNL A   1      32.029  22.664  25.009  1.00  0.00     0.003 A 
ATOM     72  C   UNL A   1      32.713  23.325  22.787  1.00  0.00     0.042 A 
ATOM     73  C   UNL A   1      31.698  23.049  23.700  1.00  0.00     0.026 A 
BRANCH  72  74
ATOM     74  N   UNL A   1      32.550  23.954  21.551  1.00  0.00    -0.321 N 
ATOM     75  C   UNL A   1      32.841  25.206  21.112  1.00  0.00     0.272 C 
ATOM     76  H   UNL A   1      32.144  23.378  20.864  1.00  0.00     0.170 HD
ATOM     77  O   UNL A   1      33.168  25.312  19.929  1.00  0.00    -0.267 OA
BRANCH  75  78
ATOM     78  C   UNL A   1      32.565  26.367  21.913  1.00  0.00     0.105 A 
ATOM     79  C   UNL A   1      31.334  26.770  22.412  1.00  0.00     0.042 A 
ATOM     80  N   UNL A   1      33.491  26.837  22.828  1.00  0.00    -0.351 N 
ATOM     81  C   UNL A   1      31.515  26.759  23.831  1.00  0.00     0.000 A 
ATOM     82  C   UNL A   1      32.889  26.706  24.066  1.00  0.00     0.046 A 
ATOM     83  H   UNL A   1      34.390  27.192  22.637  1.00  0.00     0.167 HD
ATOM     84  C   UNL A   1      30.634  26.599  24.914  1.00  0.00     0.010 A 
ATOM     85  C   UNL A   1      33.442  26.442  25.321  1.00  0.00     0.026 A 
ATOM     86  C   UNL A   1      31.166  26.268  26.166  1.00  0.00     0.001 A 
ATOM     87  C   UNL A   1      32.545  26.175  26.359  1.00  0.00     0.002 A 
ENDBRANCH  75  78
ENDBRANCH  72  74
ENDBRANCH  65  68
ENDBRANCH  63  64
ENDBRANCH   1  63
TORSDOF 12
ENDMDL
