MODEL 1
REMARK VINA RESULT:     -13.3      0.000      0.000
REMARK SMILES O=C(CC1(C(=O)NCCCNC(=O)c2ccc(-c3c4nc(c(-c5c(F)cccc5F)c5ccc([nH]5)c(-c5c(F)cccc5F)c5nc(c(-c6c(F)cccc6F)c6ccc3[nH]6)C=C5)C=C4)cc2)CCCCC1)Nc1ccc(N2CCOC2=O)cc1
REMARK SMILES IDX 8 1 7 2 5 3 6 4 4 6 68 7 72 8 69 9 71 10 70 11 3 12 2 13
REMARK SMILES IDX 1 14 73 15 74 17 75 18 85 19 76 20 84 21 77 22 78 23 79 24
REMARK SMILES IDX 82 25 80 26 81 27 83 28 9 29 10 30 11 31 12 32 13 34 14 35
REMARK SMILES IDX 15 36 67 37 16 38 66 39 17 40 18 41 19 42 60 43 20 44 65 45
REMARK SMILES IDX 59 46 61 47 21 48 64 49 58 50 57 51 22 53 48 54 31 55 47 56
REMARK SMILES IDX 32 57 35 58 46 59 62 60 33 61 34 62 45 64 63 65 36 66 23 67
REMARK SMILES IDX 24 68 29 69 25 70 26 71 28 72 30 73 27 74 49 75 50 76 55 77
REMARK SMILES IDX 51 78 52 79 54 80 56 81 53 82 37 83 38 84 43 85 39 86 40 87
REMARK SMILES IDX 42 88 44 89 41 90
REMARK H PARENT 7 5 73 16 11 33 61 52 35 63
REMARK Flexibility Score: inf
ROOT
ATOM      1  C   UNL A   1      32.137  29.355  24.290  1.00  0.00     0.117 C 
ENDROOT
BRANCH   1   2
ATOM      2  N   UNL A   1      32.987  28.884  23.230  1.00  0.00    -0.356 N 
ATOM      3  C   UNL A   1      33.253  27.651  22.736  1.00  0.00     0.226 C 
ATOM      4  O   UNL A   1      33.957  27.687  21.720  1.00  0.00    -0.274 OA
ATOM      5  H   UNL A   1      33.474  29.605  22.769  1.00  0.00     0.163 HD
BRANCH   3   6
ATOM      6  C   UNL A   1      32.788  26.287  23.362  1.00  0.00     0.058 C 
ATOM      7  C   UNL A   1      31.297  26.276  23.790  1.00  0.00     0.017 C 
ATOM      8  C   UNL A   1      33.712  25.856  24.532  1.00  0.00     0.017 C 
ATOM      9  C   UNL A   1      30.881  26.623  25.217  1.00  0.00     0.001 C 
ATOM     10  C   UNL A   1      33.344  26.302  25.940  1.00  0.00     0.001 C 
ATOM     11  C   UNL A   1      31.867  26.176  26.288  1.00  0.00     0.000 C 
BRANCH   6  12
ATOM     12  C   UNL A   1      33.064  25.195  22.212  1.00  0.00     0.117 C 
BRANCH  12  13
ATOM     13  C   UNL A   1      33.634  23.847  22.641  1.00  0.00     0.225 C 
ATOM     14  O   UNL A   1      34.772  23.488  22.365  1.00  0.00    -0.275 OA
ATOM     15  N   UNL A   1      32.690  23.080  23.312  1.00  0.00    -0.326 N 
ATOM     16  H   UNL A   1      31.858  23.518  23.605  1.00  0.00     0.169 HD
BRANCH  15  17
ATOM     17  C   UNL A   1      32.859  21.723  23.596  1.00  0.00     0.041 A 
ATOM     18  C   UNL A   1      32.146  20.795  22.830  1.00  0.00     0.028 A 
ATOM     19  C   UNL A   1      33.654  21.301  24.653  1.00  0.00     0.028 A 
ATOM     20  C   UNL A   1      32.274  19.431  23.092  1.00  0.00     0.028 A 
ATOM     21  C   UNL A   1      33.679  19.947  24.990  1.00  0.00     0.028 A 
ATOM     22  C   UNL A   1      33.009  19.004  24.200  1.00  0.00     0.047 A 
BRANCH  22  23
ATOM     23  N   UNL A   1      33.090  17.643  24.518  1.00  0.00    -0.274 N 
ATOM     24  C   UNL A   1      32.689  17.094  25.771  1.00  0.00     0.171 C 
ATOM     25  C   UNL A   1      33.627  16.660  23.713  1.00  0.00     0.414 C 
ATOM     26  C   UNL A   1      32.636  15.619  25.455  1.00  0.00     0.257 C 
ATOM     27  O   UNL A   1      33.513  15.447  24.339  1.00  0.00    -0.447 OA
ATOM     28  O   UNL A   1      34.182  16.796  22.630  1.00  0.00    -0.224 OA
ENDBRANCH  22  23
ENDBRANCH  15  17
ENDBRANCH  12  13
ENDBRANCH   6  12
ENDBRANCH   3   6
ENDBRANCH   1   2
BRANCH   1  29
ATOM     29  C   UNL A   1      32.889  29.926  25.476  1.00  0.00     0.042 C 
BRANCH  29  30
ATOM     30  C   UNL A   1      31.977  30.362  26.600  1.00  0.00     0.118 C 
BRANCH  30  31
ATOM     31  N   UNL A   1      31.911  31.817  26.727  1.00  0.00    -0.352 N 
ATOM     32  C   UNL A   1      32.721  32.702  27.395  1.00  0.00     0.251 C 
ATOM     33  H   UNL A   1      31.155  32.233  26.252  1.00  0.00     0.163 HD
ATOM     34  O   UNL A   1      32.345  33.859  27.557  1.00  0.00    -0.269 OA
BRANCH  32  35
ATOM     35  C   UNL A   1      34.024  32.268  27.940  1.00  0.00     0.039 A 
ATOM     36  C   UNL A   1      35.059  33.199  28.062  1.00  0.00     0.014 A 
ATOM     37  C   UNL A   1      34.236  30.944  28.326  1.00  0.00     0.014 A 
ATOM     38  C   UNL A   1      36.267  32.817  28.650  1.00  0.00     0.010 A 
ATOM     39  C   UNL A   1      35.380  30.601  29.029  1.00  0.00     0.010 A 
ATOM     40  C   UNL A   1      36.417  31.529  29.189  1.00  0.00    -0.014 A 
BRANCH  40  41
ATOM     41  C   UNL A   1      37.648  31.124  29.912  1.00  0.00     0.031 A 
ATOM     42  C   UNL A   1      38.661  30.238  29.236  1.00  0.00     0.074 A 
ATOM     43  C   UNL A   1      37.814  31.491  31.197  1.00  0.00     0.049 A 
ATOM     44  N   UNL A   1      39.755  29.713  29.726  1.00  0.00    -0.248 NA
ATOM     45  C   UNL A   1      38.395  29.864  27.837  1.00  0.00     0.031 C 
ATOM     46  C   UNL A   1      36.871  32.295  31.979  1.00  0.00     0.029 A 
ATOM     47  N   UNL A   1      38.831  31.227  32.080  1.00  0.00    -0.354 N 
ATOM     48  C   UNL A   1      40.291  28.939  28.705  1.00  0.00     0.074 A 
ATOM     49  C   UNL A   1      39.373  29.007  27.592  1.00  0.00     0.031 C 
ATOM     50  C   UNL A   1      37.369  32.487  33.210  1.00  0.00     0.029 A 
ATOM     51  C   UNL A   1      38.638  31.780  33.324  1.00  0.00     0.049 A 
ATOM     52  H   UNL A   1      39.623  30.692  31.845  1.00  0.00     0.167 HD
ATOM     53  C   UNL A   1      41.459  28.256  28.686  1.00  0.00     0.037 A 
ATOM     54  C   UNL A   1      39.397  31.713  34.434  1.00  0.00     0.037 A 
ATOM     55  C   UNL A   1      42.384  28.216  29.788  1.00  0.00     0.049 A 
ATOM     56  C   UNL A   1      40.687  30.940  34.388  1.00  0.00     0.074 A 
ATOM     57  C   UNL A   1      43.627  27.612  29.848  1.00  0.00     0.029 A 
ATOM     58  N   UNL A   1      42.162  28.803  31.025  1.00  0.00    -0.354 N 
ATOM     59  N   UNL A   1      41.221  30.281  33.387  1.00  0.00    -0.248 NA
ATOM     60  C   UNL A   1      41.482  30.904  35.623  1.00  0.00     0.031 C 
ATOM     61  C   UNL A   1      44.132  27.783  31.140  1.00  0.00     0.029 A 
ATOM     62  C   UNL A   1      43.232  28.548  31.866  1.00  0.00     0.049 A 
ATOM     63  H   UNL A   1      41.363  29.323  31.268  1.00  0.00     0.167 HD
ATOM     64  C   UNL A   1      42.424  29.775  33.864  1.00  0.00     0.074 A 
ATOM     65  C   UNL A   1      42.550  30.224  35.235  1.00  0.00     0.031 C 
ATOM     66  C   UNL A   1      43.341  29.007  33.227  1.00  0.00     0.037 A 
BRANCH  53  67
ATOM     67  C   UNL A   1      41.809  27.502  27.435  1.00  0.00     0.057 A 
ATOM     68  C   UNL A   1      42.510  28.102  26.379  1.00  0.00     0.134 A 
ATOM     69  C   UNL A   1      41.483  26.147  27.302  1.00  0.00     0.134 A 
ATOM     70  F   UNL A   1      42.842  29.401  26.435  1.00  0.00    -0.206 F 
ATOM     71  C   UNL A   1      42.853  27.389  25.230  1.00  0.00     0.040 A 
ATOM     72  C   UNL A   1      41.848  25.414  26.171  1.00  0.00     0.040 A 
ATOM     73  F   UNL A   1      40.817  25.507  28.276  1.00  0.00    -0.206 F 
ATOM     74  C   UNL A   1      42.530  26.037  25.128  1.00  0.00     0.006 A 
ENDBRANCH  53  67
BRANCH  54  75
ATOM     75  C   UNL A   1      38.967  32.401  35.679  1.00  0.00     0.057 A 
ATOM     76  C   UNL A   1      39.281  33.746  35.909  1.00  0.00     0.134 A 
ATOM     77  C   UNL A   1      38.254  31.728  36.678  1.00  0.00     0.134 A 
ATOM     78  F   UNL A   1      39.977  34.441  34.998  1.00  0.00    -0.206 F 
ATOM     79  C   UNL A   1      38.926  34.388  37.097  1.00  0.00     0.040 A 
ATOM     80  C   UNL A   1      37.865  32.366  37.857  1.00  0.00     0.040 A 
ATOM     81  F   UNL A   1      37.910  30.441  36.517  1.00  0.00    -0.206 F 
ATOM     82  C   UNL A   1      38.213  33.698  38.075  1.00  0.00     0.006 A 
ENDBRANCH  54  75
BRANCH  66  83
ATOM     83  C   UNL A   1      44.573  28.630  33.995  1.00  0.00     0.057 A 
ATOM     84  C   UNL A   1      44.645  27.450  34.748  1.00  0.00     0.134 A 
ATOM     85  C   UNL A   1      45.717  29.438  33.948  1.00  0.00     0.134 A 
ATOM     86  F   UNL A   1      43.580  26.639  34.844  1.00  0.00    -0.206 F 
ATOM     87  C   UNL A   1      45.801  27.102  35.448  1.00  0.00     0.040 A 
ATOM     88  C   UNL A   1      46.889  29.085  34.617  1.00  0.00     0.040 A 
ATOM     89  F   UNL A   1      45.720  30.575  33.237  1.00  0.00    -0.206 F 
ATOM     90  C   UNL A   1      46.930  27.917  35.376  1.00  0.00     0.006 A 
ENDBRANCH  66  83
ENDBRANCH  40  41
ENDBRANCH  32  35
ENDBRANCH  30  31
ENDBRANCH  29  30
ENDBRANCH   1  29
TORSDOF 14
ENDMDL
MODEL 2
REMARK VINA RESULT:     -13.2      0.324      6.036
REMARK SMILES O=C(CC1(C(=O)NCCCNC(=O)c2ccc(-c3c4nc(c(-c5c(F)cccc5F)c5ccc([nH]5)c(-c5c(F)cccc5F)c5nc(c(-c6c(F)cccc6F)c6ccc3[nH]6)C=C5)C=C4)cc2)CCCCC1)Nc1ccc(N2CCOC2=O)cc1
REMARK SMILES IDX 8 1 7 2 5 3 6 4 4 6 68 7 72 8 69 9 71 10 70 11 3 12 2 13
REMARK SMILES IDX 1 14 73 15 74 17 75 18 85 19 76 20 84 21 77 22 78 23 79 24
REMARK SMILES IDX 82 25 80 26 81 27 83 28 9 29 10 30 11 31 12 32 13 34 14 35
REMARK SMILES IDX 15 36 67 37 16 38 66 39 17 40 18 41 19 42 60 43 20 44 65 45
REMARK SMILES IDX 59 46 61 47 21 48 64 49 58 50 57 51 22 53 48 54 31 55 47 56
REMARK SMILES IDX 32 57 35 58 46 59 62 60 33 61 34 62 45 64 63 65 36 66 23 67
REMARK SMILES IDX 24 68 29 69 25 70 26 71 28 72 30 73 27 74 49 75 50 76 55 77
REMARK SMILES IDX 51 78 52 79 54 80 56 81 53 82 37 83 38 84 43 85 39 86 40 87
REMARK SMILES IDX 42 88 44 89 41 90
REMARK H PARENT 7 5 73 16 11 33 61 52 35 63
REMARK Flexibility Score: inf
ROOT
ATOM      1  C   UNL A   1      32.101  29.341  24.307  1.00  0.00     0.117 C 
ENDROOT
BRANCH   1   2
ATOM      2  N   UNL A   1      32.922  28.911  23.209  1.00  0.00    -0.356 N 
ATOM      3  C   UNL A   1      33.242  27.691  22.714  1.00  0.00     0.226 C 
ATOM      4  O   UNL A   1      33.888  27.757  21.662  1.00  0.00    -0.274 OA
ATOM      5  H   UNL A   1      33.336  29.655  22.715  1.00  0.00     0.163 HD
BRANCH   3   6
ATOM      6  C   UNL A   1      32.902  26.308  23.380  1.00  0.00     0.058 C 
ATOM      7  C   UNL A   1      31.422  26.184  23.831  1.00  0.00     0.017 C 
ATOM      8  C   UNL A   1      33.874  25.985  24.545  1.00  0.00     0.017 C 
ATOM      9  C   UNL A   1      30.999  26.530  25.256  1.00  0.00     0.001 C 
ATOM     10  C   UNL A   1      33.490  26.433  25.948  1.00  0.00     0.001 C 
ATOM     11  C   UNL A   1      32.033  26.193  26.322  1.00  0.00     0.000 C 
BRANCH   6  12
ATOM     12  C   UNL A   1      33.251  25.215  22.251  1.00  0.00     0.117 C 
BRANCH  12  13
ATOM     13  C   UNL A   1      33.791  23.866  22.718  1.00  0.00     0.225 C 
ATOM     14  O   UNL A   1      34.955  23.524  22.555  1.00  0.00    -0.275 OA
ATOM     15  N   UNL A   1      32.792  23.081  23.279  1.00  0.00    -0.326 N 
ATOM     16  H   UNL A   1      31.930  23.506  23.492  1.00  0.00     0.169 HD
BRANCH  15  17
ATOM     17  C   UNL A   1      32.947  21.721  23.561  1.00  0.00     0.041 A 
ATOM     18  C   UNL A   1      32.134  20.810  22.880  1.00  0.00     0.028 A 
ATOM     19  C   UNL A   1      33.829  21.284  24.539  1.00  0.00     0.028 A 
ATOM     20  C   UNL A   1      32.245  19.445  23.144  1.00  0.00     0.028 A 
ATOM     21  C   UNL A   1      33.846  19.933  24.888  1.00  0.00     0.028 A 
ATOM     22  C   UNL A   1      33.073  19.005  24.178  1.00  0.00     0.047 A 
BRANCH  22  23
ATOM     23  N   UNL A   1      33.143  17.644  24.503  1.00  0.00    -0.274 N 
ATOM     24  C   UNL A   1      32.771  17.108  25.771  1.00  0.00     0.171 C 
ATOM     25  C   UNL A   1      33.643  16.649  23.689  1.00  0.00     0.414 C 
ATOM     26  C   UNL A   1      32.688  15.633  25.466  1.00  0.00     0.257 C 
ATOM     27  O   UNL A   1      33.530  15.441  24.326  1.00  0.00    -0.447 OA
ATOM     28  O   UNL A   1      34.169  16.770  22.590  1.00  0.00    -0.224 OA
ENDBRANCH  22  23
ENDBRANCH  15  17
ENDBRANCH  12  13
ENDBRANCH   6  12
ENDBRANCH   3   6
ENDBRANCH   1   2
BRANCH   1  29
ATOM     29  C   UNL A   1      32.879  29.949  25.459  1.00  0.00     0.042 C 
BRANCH  29  30
ATOM     30  C   UNL A   1      31.992  30.402  26.597  1.00  0.00     0.118 C 
BRANCH  30  31
ATOM     31  N   UNL A   1      32.013  31.853  26.770  1.00  0.00    -0.352 N 
ATOM     32  C   UNL A   1      32.878  32.667  27.461  1.00  0.00     0.251 C 
ATOM     33  H   UNL A   1      31.281  32.328  26.314  1.00  0.00     0.163 HD
ATOM     34  O   UNL A   1      32.571  33.838  27.663  1.00  0.00    -0.269 OA
BRANCH  32  35
ATOM     35  C   UNL A   1      34.155  32.139  27.983  1.00  0.00     0.039 A 
ATOM     36  C   UNL A   1      35.247  33.001  28.119  1.00  0.00     0.014 A 
ATOM     37  C   UNL A   1      34.288  30.795  28.333  1.00  0.00     0.014 A 
ATOM     38  C   UNL A   1      36.433  32.531  28.687  1.00  0.00     0.010 A 
ATOM     39  C   UNL A   1      35.414  30.364  29.017  1.00  0.00     0.010 A 
ATOM     40  C   UNL A   1      36.508  31.222  29.191  1.00  0.00    -0.014 A 
BRANCH  40  41
ATOM     41  C   UNL A   1      37.716  30.724  29.892  1.00  0.00     0.031 A 
ATOM     42  C   UNL A   1      37.980  31.130  31.318  1.00  0.00     0.074 A 
ATOM     43  C   UNL A   1      38.611  29.972  29.221  1.00  0.00     0.049 A 
ATOM     44  N   UNL A   1      39.017  30.866  32.073  1.00  0.00    -0.248 NA
ATOM     45  C   UNL A   1      36.965  31.971  31.973  1.00  0.00     0.031 C 
ATOM     46  C   UNL A   1      38.496  29.567  27.818  1.00  0.00     0.029 A 
ATOM     47  N   UNL A   1      39.800  29.421  29.626  1.00  0.00    -0.354 N 
ATOM     48  C   UNL A   1      38.783  31.520  33.276  1.00  0.00     0.074 A 
ATOM     49  C   UNL A   1      37.543  32.247  33.131  1.00  0.00     0.031 C 
ATOM     50  C   UNL A   1      39.551  28.806  27.490  1.00  0.00     0.029 A 
ATOM     51  C   UNL A   1      40.442  28.711  28.640  1.00  0.00     0.049 A 
ATOM     52  H   UNL A   1      40.161  29.526  30.537  1.00  0.00     0.167 HD
ATOM     53  C   UNL A   1      39.521  31.494  34.410  1.00  0.00     0.037 A 
ATOM     54  C   UNL A   1      41.623  28.064  28.660  1.00  0.00     0.037 A 
ATOM     55  C   UNL A   1      40.740  30.745  34.556  1.00  0.00     0.049 A 
ATOM     56  C   UNL A   1      42.427  28.058  29.932  1.00  0.00     0.074 A 
ATOM     57  C   UNL A   1      41.527  30.593  35.684  1.00  0.00     0.029 A 
ATOM     58  N   UNL A   1      41.349  30.022  33.541  1.00  0.00    -0.354 N 
ATOM     59  N   UNL A   1      42.152  28.613  31.087  1.00  0.00    -0.248 NA
ATOM     60  C   UNL A   1      43.704  27.332  29.903  1.00  0.00     0.031 C 
ATOM     61  C   UNL A   1      42.644  29.828  35.335  1.00  0.00     0.029 A 
ATOM     62  C   UNL A   1      42.521  29.450  34.007  1.00  0.00     0.049 A 
ATOM     63  H   UNL A   1      41.001  29.931  32.625  1.00  0.00     0.167 HD
ATOM     64  C   UNL A   1      43.206  28.282  31.930  1.00  0.00     0.074 A 
ATOM     65  C   UNL A   1      44.113  27.459  31.157  1.00  0.00     0.031 C 
ATOM     66  C   UNL A   1      43.408  28.629  33.224  1.00  0.00     0.037 A 
BRANCH  53  67
ATOM     67  C   UNL A   1      39.029  32.291  35.583  1.00  0.00     0.057 A 
ATOM     68  C   UNL A   1      38.256  31.714  36.601  1.00  0.00     0.134 A 
ATOM     69  C   UNL A   1      39.370  33.643  35.723  1.00  0.00     0.134 A 
ATOM     70  F   UNL A   1      37.882  30.428  36.524  1.00  0.00    -0.206 F 
ATOM     71  C   UNL A   1      37.823  32.456  37.701  1.00  0.00     0.040 A 
ATOM     72  C   UNL A   1      38.969  34.387  36.834  1.00  0.00     0.040 A 
ATOM     73  F   UNL A   1      40.110  34.259  34.789  1.00  0.00    -0.206 F 
ATOM     74  C   UNL A   1      38.188  33.794  37.824  1.00  0.00     0.006 A 
ENDBRANCH  53  67
BRANCH  54  75
ATOM     75  C   UNL A   1      42.115  27.362  27.446  1.00  0.00     0.057 A 
ATOM     76  C   UNL A   1      42.807  28.050  26.441  1.00  0.00     0.134 A 
ATOM     77  C   UNL A   1      41.887  25.995  27.249  1.00  0.00     0.134 A 
ATOM     78  F   UNL A   1      43.041  29.364  26.563  1.00  0.00    -0.206 F 
ATOM     79  C   UNL A   1      43.228  27.410  25.274  1.00  0.00     0.040 A 
ATOM     80  C   UNL A   1      42.331  25.336  26.101  1.00  0.00     0.040 A 
ATOM     81  F   UNL A   1      41.242  25.273  28.178  1.00  0.00    -0.206 F 
ATOM     82  C   UNL A   1      42.993  26.048  25.103  1.00  0.00     0.006 A 
ENDBRANCH  54  75
BRANCH  66  83
ATOM     83  C   UNL A   1      44.640  28.096  33.893  1.00  0.00     0.057 A 
ATOM     84  C   UNL A   1      44.659  26.844  34.522  1.00  0.00     0.134 A 
ATOM     85  C   UNL A   1      45.836  28.827  33.874  1.00  0.00     0.134 A 
ATOM     86  F   UNL A   1      43.544  26.099  34.587  1.00  0.00    -0.206 F 
ATOM     87  C   UNL A   1      45.814  26.351  35.130  1.00  0.00     0.040 A 
ATOM     88  C   UNL A   1      47.005  28.332  34.450  1.00  0.00     0.040 A 
ATOM     89  F   UNL A   1      45.890  30.028  33.278  1.00  0.00    -0.206 F 
ATOM     90  C   UNL A   1      46.994  27.093  35.088  1.00  0.00     0.006 A 
ENDBRANCH  66  83
ENDBRANCH  40  41
ENDBRANCH  32  35
ENDBRANCH  30  31
ENDBRANCH  29  30
ENDBRANCH   1  29
TORSDOF 14
ENDMDL
MODEL 3
REMARK VINA RESULT:     -13.0      3.607      6.129
REMARK SMILES O=C(CC1(C(=O)NCCCNC(=O)c2ccc(-c3c4nc(c(-c5c(F)cccc5F)c5ccc([nH]5)c(-c5c(F)cccc5F)c5nc(c(-c6c(F)cccc6F)c6ccc3[nH]6)C=C5)C=C4)cc2)CCCCC1)Nc1ccc(N2CCOC2=O)cc1
REMARK SMILES IDX 8 1 7 2 5 3 6 4 4 6 68 7 72 8 69 9 71 10 70 11 3 12 2 13
REMARK SMILES IDX 1 14 73 15 74 17 75 18 85 19 76 20 84 21 77 22 78 23 79 24
REMARK SMILES IDX 82 25 80 26 81 27 83 28 9 29 10 30 11 31 12 32 13 34 14 35
REMARK SMILES IDX 15 36 67 37 16 38 66 39 17 40 18 41 19 42 60 43 20 44 65 45
REMARK SMILES IDX 59 46 61 47 21 48 64 49 58 50 57 51 22 53 48 54 31 55 47 56
REMARK SMILES IDX 32 57 35 58 46 59 62 60 33 61 34 62 45 64 63 65 36 66 23 67
REMARK SMILES IDX 24 68 29 69 25 70 26 71 28 72 30 73 27 74 49 75 50 76 55 77
REMARK SMILES IDX 51 78 52 79 54 80 56 81 53 82 37 83 38 84 43 85 39 86 40 87
REMARK SMILES IDX 42 88 44 89 41 90
REMARK H PARENT 7 5 73 16 11 33 61 52 35 63
REMARK Flexibility Score: inf
ROOT
ATOM      1  C   UNL A   1      35.458  24.208  24.118  1.00  0.00     0.117 C 
ENDROOT
BRANCH   1   2
ATOM      2  N   UNL A   1      34.527  24.391  25.198  1.00  0.00    -0.356 N 
ATOM      3  C   UNL A   1      33.336  25.029  25.296  1.00  0.00     0.226 C 
ATOM      4  O   UNL A   1      32.784  24.842  26.386  1.00  0.00    -0.274 OA
ATOM      5  H   UNL A   1      34.814  23.965  26.038  1.00  0.00     0.163 HD
BRANCH   3   6
ATOM      6  C   UNL A   1      32.695  25.958  24.202  1.00  0.00     0.058 C 
ATOM      7  C   UNL A   1      33.660  27.052  23.673  1.00  0.00     0.017 C 
ATOM      8  C   UNL A   1      31.359  26.576  24.694  1.00  0.00     0.017 C 
ATOM      9  C   UNL A   1      33.681  28.450  24.286  1.00  0.00     0.001 C 
ATOM     10  C   UNL A   1      31.408  27.922  25.402  1.00  0.00     0.001 C 
ATOM     11  C   UNL A   1      32.323  28.954  24.757  1.00  0.00     0.000 C 
BRANCH   6  12
ATOM     12  C   UNL A   1      32.261  24.955  23.020  1.00  0.00     0.117 C 
BRANCH  12  13
ATOM     13  C   UNL A   1      31.839  23.542  23.412  1.00  0.00     0.225 C 
ATOM     14  O   UNL A   1      30.840  23.308  24.080  1.00  0.00    -0.275 OA
ATOM     15  N   UNL A   1      32.753  22.593  22.973  1.00  0.00    -0.326 N 
ATOM     16  H   UNL A   1      33.439  22.873  22.324  1.00  0.00     0.169 HD
BRANCH  15  17
ATOM     17  C   UNL A   1      32.749  21.263  23.399  1.00  0.00     0.041 A 
ATOM     18  C   UNL A   1      33.430  20.945  24.579  1.00  0.00     0.028 A 
ATOM     19  C   UNL A   1      32.150  20.265  22.641  1.00  0.00     0.028 A 
ATOM     20  C   UNL A   1      33.463  19.627  25.030  1.00  0.00     0.028 A 
ATOM     21  C   UNL A   1      32.295  18.933  23.031  1.00  0.00     0.028 A 
ATOM     22  C   UNL A   1      32.931  18.609  24.236  1.00  0.00     0.047 A 
BRANCH  22  23
ATOM     23  N   UNL A   1      33.019  17.271  24.641  1.00  0.00    -0.274 N 
ATOM     24  C   UNL A   1      32.565  16.791  25.905  1.00  0.00     0.171 C 
ATOM     25  C   UNL A   1      33.613  16.252  23.926  1.00  0.00     0.414 C 
ATOM     26  C   UNL A   1      32.554  15.299  25.678  1.00  0.00     0.257 C 
ATOM     27  O   UNL A   1      33.489  15.077  24.619  1.00  0.00    -0.447 OA
ATOM     28  O   UNL A   1      34.219  16.334  22.865  1.00  0.00    -0.224 OA
ENDBRANCH  22  23
ENDBRANCH  15  17
ENDBRANCH  12  13
ENDBRANCH   6  12
ENDBRANCH   3   6
ENDBRANCH   1   2
BRANCH   1  29
ATOM     29  C   UNL A   1      36.545  23.190  24.405  1.00  0.00     0.042 C 
BRANCH  29  30
ATOM     30  C   UNL A   1      36.781  22.978  25.883  1.00  0.00     0.118 C 
BRANCH  30  31
ATOM     31  N   UNL A   1      37.997  22.211  26.145  1.00  0.00    -0.352 N 
ATOM     32  C   UNL A   1      39.264  22.617  26.488  1.00  0.00     0.251 C 
ATOM     33  H   UNL A   1      37.890  21.236  26.059  1.00  0.00     0.163 HD
ATOM     34  O   UNL A   1      40.190  21.814  26.431  1.00  0.00    -0.269 OA
BRANCH  32  35
ATOM     35  C   UNL A   1      39.523  24.014  26.897  1.00  0.00     0.039 A 
ATOM     36  C   UNL A   1      39.293  24.392  28.222  1.00  0.00     0.014 A 
ATOM     37  C   UNL A   1      39.985  24.956  25.978  1.00  0.00     0.014 A 
ATOM     38  C   UNL A   1      39.611  25.687  28.636  1.00  0.00     0.010 A 
ATOM     39  C   UNL A   1      40.426  26.195  26.418  1.00  0.00     0.010 A 
ATOM     40  C   UNL A   1      40.232  26.583  27.750  1.00  0.00    -0.014 A 
BRANCH  40  41
ATOM     41  C   UNL A   1      40.676  27.929  28.187  1.00  0.00     0.031 A 
ATOM     42  C   UNL A   1      42.144  28.269  28.203  1.00  0.00     0.074 A 
ATOM     43  C   UNL A   1      39.767  28.815  28.639  1.00  0.00     0.049 A 
ATOM     44  N   UNL A   1      42.734  29.358  28.625  1.00  0.00    -0.248 NA
ATOM     45  C   UNL A   1      43.074  27.238  27.713  1.00  0.00     0.031 C 
ATOM     46  C   UNL A   1      38.324  28.578  28.731  1.00  0.00     0.029 A 
ATOM     47  N   UNL A   1      39.922  30.091  29.117  1.00  0.00    -0.354 N 
ATOM     48  C   UNL A   1      44.096  29.134  28.468  1.00  0.00     0.074 A 
ATOM     49  C   UNL A   1      44.251  27.784  27.975  1.00  0.00     0.031 C 
ATOM     50  C   UNL A   1      37.725  29.682  29.201  1.00  0.00     0.029 A 
ATOM     51  C   UNL A   1      38.741  30.686  29.492  1.00  0.00     0.049 A 
ATOM     52  H   UNL A   1      40.796  30.539  29.187  1.00  0.00     0.167 HD
ATOM     53  C   UNL A   1      45.124  29.986  28.686  1.00  0.00     0.037 A 
ATOM     54  C   UNL A   1      38.506  31.901  30.022  1.00  0.00     0.037 A 
ATOM     55  C   UNL A   1      44.960  31.338  29.149  1.00  0.00     0.049 A 
ATOM     56  C   UNL A   1      39.669  32.826  30.261  1.00  0.00     0.074 A 
ATOM     57  C   UNL A   1      45.929  32.308  29.335  1.00  0.00     0.029 A 
ATOM     58  N   UNL A   1      43.747  31.911  29.500  1.00  0.00    -0.354 N 
ATOM     59  N   UNL A   1      40.944  32.629  30.029  1.00  0.00    -0.248 NA
ATOM     60  C   UNL A   1      39.359  34.144  30.834  1.00  0.00     0.031 C 
ATOM     61  C   UNL A   1      45.310  33.447  29.856  1.00  0.00     0.029 A 
ATOM     62  C   UNL A   1      43.947  33.210  29.934  1.00  0.00     0.049 A 
ATOM     63  H   UNL A   1      42.874  31.460  29.449  1.00  0.00     0.167 HD
ATOM     64  C   UNL A   1      41.585  33.805  30.401  1.00  0.00     0.074 A 
ATOM     65  C   UNL A   1      40.554  34.716  30.852  1.00  0.00     0.031 C 
ATOM     66  C   UNL A   1      42.907  34.104  30.375  1.00  0.00     0.037 A 
BRANCH  53  67
ATOM     67  C   UNL A   1      46.515  29.486  28.420  1.00  0.00     0.057 A 
ATOM     68  C   UNL A   1      47.282  28.863  29.414  1.00  0.00     0.134 A 
ATOM     69  C   UNL A   1      47.079  29.587  27.141  1.00  0.00     0.134 A 
ATOM     70  F   UNL A   1      46.809  28.744  30.664  1.00  0.00    -0.206 F 
ATOM     71  C   UNL A   1      48.565  28.380  29.152  1.00  0.00     0.040 A 
ATOM     72  C   UNL A   1      48.348  29.080  26.859  1.00  0.00     0.040 A 
ATOM     73  F   UNL A   1      46.399  30.169  26.141  1.00  0.00    -0.206 F 
ATOM     74  C   UNL A   1      49.097  28.479  27.869  1.00  0.00     0.006 A 
ENDBRANCH  53  67
BRANCH  54  75
ATOM     75  C   UNL A   1      37.120  32.321  30.353  1.00  0.00     0.057 A 
ATOM     76  C   UNL A   1      36.360  33.085  29.458  1.00  0.00     0.134 A 
ATOM     77  C   UNL A   1      36.528  31.990  31.578  1.00  0.00     0.134 A 
ATOM     78  F   UNL A   1      36.876  33.448  28.275  1.00  0.00    -0.206 F 
ATOM     79  C   UNL A   1      35.076  33.527  29.780  1.00  0.00     0.040 A 
ATOM     80  C   UNL A   1      35.233  32.399  31.900  1.00  0.00     0.040 A 
ATOM     81  F   UNL A   1      37.196  31.251  32.476  1.00  0.00    -0.206 F 
ATOM     82  C   UNL A   1      34.508  33.182  31.004  1.00  0.00     0.006 A 
ENDBRANCH  54  75
BRANCH  66  83
ATOM     83  C   UNL A   1      43.308  35.480  30.818  1.00  0.00     0.057 A 
ATOM     84  C   UNL A   1      43.582  35.776  32.159  1.00  0.00     0.134 A 
ATOM     85  C   UNL A   1      43.461  36.512  29.883  1.00  0.00     0.134 A 
ATOM     86  F   UNL A   1      43.442  34.835  33.106  1.00  0.00    -0.206 F 
ATOM     87  C   UNL A   1      43.968  37.057  32.558  1.00  0.00     0.040 A 
ATOM     88  C   UNL A   1      43.877  37.787  30.265  1.00  0.00     0.040 A 
ATOM     89  F   UNL A   1      43.226  36.293  28.580  1.00  0.00    -0.206 F 
ATOM     90  C   UNL A   1      44.125  38.064  31.608  1.00  0.00     0.006 A 
ENDBRANCH  66  83
ENDBRANCH  40  41
ENDBRANCH  32  35
ENDBRANCH  30  31
ENDBRANCH  29  30
ENDBRANCH   1  29
TORSDOF 14
ENDMDL
