MODEL 1
REMARK VINA RESULT:     -12.9      0.000      0.000
REMARK SMILES Cc1c(CC(=O)NCCCNC(=O)c2ccc(-c3c4nc(c(-c5c(F)cccc5F)c5ccc([nH]5)c(-c5c(F)cccc5F)c5nc(c(-c6c(F)cccc6F)c6ccc3[nH]6)C=C5)C=C4)cc2)cccc1-c1ccn(C(F)F)c(=O)c1
REMARK SMILES IDX 8 1 7 2 5 3 6 4 4 6 3 7 1 8 2 9 71 10 68 11 70 12 69 13
REMARK SMILES IDX 72 14 73 15 81 16 74 17 79 18 75 19 80 20 76 21 77 22 78 23
REMARK SMILES IDX 9 24 10 25 11 26 12 27 13 29 14 30 15 31 67 32 16 33 66 34
REMARK SMILES IDX 17 35 18 36 19 37 60 38 20 39 65 40 59 41 61 42 21 43 64 44
REMARK SMILES IDX 58 45 57 46 22 48 48 49 31 50 47 51 32 52 35 53 46 54 62 55
REMARK SMILES IDX 33 56 34 57 45 59 63 60 36 61 23 62 24 63 29 64 25 65 26 66
REMARK SMILES IDX 28 67 30 68 27 69 49 70 50 71 55 72 51 73 52 74 54 75 56 76
REMARK SMILES IDX 53 77 37 78 38 79 43 80 39 81 40 82 42 83 44 84 41 85
REMARK H PARENT 7 5 11 28 61 47 35 58
REMARK Flexibility Score: inf
ROOT
ATOM      1  C   UNL A   1      32.540  29.804  26.038  1.00  0.00     0.117 C 
ENDROOT
BRANCH   1   2
ATOM      2  N   UNL A   1      31.714  28.667  26.412  1.00  0.00    -0.356 N 
ATOM      3  C   UNL A   1      32.028  27.335  26.448  1.00  0.00     0.224 C 
ATOM      4  O   UNL A   1      31.156  26.542  26.809  1.00  0.00    -0.275 OA
ATOM      5  H   UNL A   1      30.793  28.887  26.681  1.00  0.00     0.163 HD
BRANCH   3   6
ATOM      6  C   UNL A   1      33.421  26.844  26.057  1.00  0.00     0.135 C 
BRANCH   6   7
ATOM      7  C   UNL A   1      33.404  25.768  24.985  1.00  0.00    -0.035 A 
ATOM      8  C   UNL A   1      33.365  23.871  26.689  1.00  0.00     0.045 C 
ATOM      9  C   UNL A   1      33.472  24.378  25.268  1.00  0.00    -0.040 A 
ATOM     10  C   UNL A   1      33.614  23.464  24.189  1.00  0.00    -0.015 A 
ATOM     11  C   UNL A   1      33.383  26.197  23.642  1.00  0.00     0.004 A 
ATOM     12  C   UNL A   1      33.611  23.932  22.865  1.00  0.00     0.009 A 
ATOM     13  C   UNL A   1      33.480  25.289  22.592  1.00  0.00     0.001 A 
BRANCH  10  14
ATOM     14  C   UNL A   1      33.857  22.020  24.409  1.00  0.00    -0.011 A 
ATOM     15  C   UNL A   1      35.152  21.472  24.763  1.00  0.00     0.027 A 
ATOM     16  C   UNL A   1      32.831  21.179  24.183  1.00  0.00     0.080 A 
ATOM     17  C   UNL A   1      35.345  20.148  24.777  1.00  0.00     0.095 A 
ATOM     18  C   UNL A   1      33.018  19.704  24.252  1.00  0.00     0.255 A 
ATOM     19  N   UNL A   1      34.310  19.273  24.504  1.00  0.00    -0.258 N 
ATOM     20  O   UNL A   1      32.045  18.983  24.056  1.00  0.00    -0.269 OA
BRANCH  19  21
ATOM     21  C   UNL A   1      34.536  17.850  24.481  1.00  0.00     0.451 C 
ATOM     22  F   UNL A   1      34.395  17.353  23.229  1.00  0.00    -0.185 F 
ATOM     23  F   UNL A   1      35.783  17.549  24.917  1.00  0.00    -0.185 F 
ENDBRANCH  19  21
ENDBRANCH  10  14
ENDBRANCH   6   7
ENDBRANCH   3   6
ENDBRANCH   1   2
BRANCH   1  24
ATOM     24  C   UNL A   1      33.007  30.618  27.242  1.00  0.00     0.042 C 
BRANCH  24  25
ATOM     25  C   UNL A   1      34.324  30.149  27.837  1.00  0.00     0.118 C 
BRANCH  25  26
ATOM     26  N   UNL A   1      34.991  31.136  28.678  1.00  0.00    -0.352 N 
ATOM     27  C   UNL A   1      36.242  31.074  29.271  1.00  0.00     0.251 C 
ATOM     28  H   UNL A   1      34.481  31.961  28.849  1.00  0.00     0.163 HD
ATOM     29  O   UNL A   1      36.645  32.001  29.956  1.00  0.00    -0.269 OA
BRANCH  27  30
ATOM     30  C   UNL A   1      37.143  29.940  28.949  1.00  0.00     0.039 A 
ATOM     31  C   UNL A   1      37.285  28.931  29.907  1.00  0.00     0.014 A 
ATOM     32  C   UNL A   1      37.994  29.984  27.848  1.00  0.00     0.014 A 
ATOM     33  C   UNL A   1      38.437  28.148  29.905  1.00  0.00     0.010 A 
ATOM     34  C   UNL A   1      39.184  29.288  27.902  1.00  0.00     0.010 A 
ATOM     35  C   UNL A   1      39.436  28.426  28.974  1.00  0.00    -0.014 A 
BRANCH  35  36
ATOM     36  C   UNL A   1      40.818  27.993  29.144  1.00  0.00     0.031 A 
ATOM     37  C   UNL A   1      41.312  26.749  28.522  1.00  0.00     0.074 A 
ATOM     38  C   UNL A   1      41.677  28.797  29.810  1.00  0.00     0.049 A 
ATOM     39  N   UNL A   1      42.327  26.079  28.956  1.00  0.00    -0.248 NA
ATOM     40  C   UNL A   1      40.671  26.139  27.364  1.00  0.00     0.031 C 
ATOM     41  C   UNL A   1      43.133  28.702  29.848  1.00  0.00     0.029 A 
ATOM     42  N   UNL A   1      41.367  29.773  30.769  1.00  0.00    -0.354 N 
ATOM     43  C   UNL A   1      42.638  25.130  28.009  1.00  0.00     0.074 A 
ATOM     44  C   UNL A   1      41.544  25.171  27.066  1.00  0.00     0.031 C 
ATOM     45  C   UNL A   1      43.581  29.345  30.937  1.00  0.00     0.029 A 
ATOM     46  C   UNL A   1      42.419  29.750  31.709  1.00  0.00     0.049 A 
ATOM     47  H   UNL A   1      40.574  30.358  30.783  1.00  0.00     0.167 HD
ATOM     48  C   UNL A   1      43.851  24.507  28.050  1.00  0.00     0.037 A 
ATOM     49  C   UNL A   1      42.200  29.427  33.016  1.00  0.00     0.037 A 
ATOM     50  C   UNL A   1      44.642  24.955  29.194  1.00  0.00     0.049 A 
ATOM     51  C   UNL A   1      42.971  28.217  33.490  1.00  0.00     0.074 A 
ATOM     52  C   UNL A   1      45.636  25.912  29.321  1.00  0.00     0.029 A 
ATOM     53  N   UNL A   1      44.241  24.628  30.483  1.00  0.00    -0.354 N 
ATOM     54  N   UNL A   1      43.517  27.345  32.689  1.00  0.00    -0.248 NA
ATOM     55  C   UNL A   1      43.156  27.873  34.898  1.00  0.00     0.031 C 
ATOM     56  C   UNL A   1      45.800  26.197  30.697  1.00  0.00     0.029 A 
ATOM     57  C   UNL A   1      44.918  25.402  31.406  1.00  0.00     0.049 A 
ATOM     58  H   UNL A   1      43.570  23.944  30.708  1.00  0.00     0.167 HD
ATOM     59  C   UNL A   1      44.077  26.335  33.426  1.00  0.00     0.074 A 
ATOM     60  C   UNL A   1      43.848  26.723  34.804  1.00  0.00     0.031 C 
ATOM     61  C   UNL A   1      44.665  25.255  32.831  1.00  0.00     0.037 A 
BRANCH  48  62
ATOM     62  C   UNL A   1      44.425  23.737  26.884  1.00  0.00     0.057 A 
ATOM     63  C   UNL A   1      43.959  22.447  26.560  1.00  0.00     0.134 A 
ATOM     64  C   UNL A   1      45.479  24.191  26.073  1.00  0.00     0.134 A 
ATOM     65  F   UNL A   1      42.883  21.913  27.152  1.00  0.00    -0.206 F 
ATOM     66  C   UNL A   1      44.579  21.627  25.607  1.00  0.00     0.040 A 
ATOM     67  C   UNL A   1      46.145  23.365  25.156  1.00  0.00     0.040 A 
ATOM     68  F   UNL A   1      45.879  25.470  26.105  1.00  0.00    -0.206 F 
ATOM     69  C   UNL A   1      45.705  22.069  24.932  1.00  0.00     0.006 A 
ENDBRANCH  48  62
BRANCH  49  70
ATOM     70  C   UNL A   1      40.860  29.831  33.509  1.00  0.00     0.057 A 
ATOM     71  C   UNL A   1      40.655  31.173  33.874  1.00  0.00     0.134 A 
ATOM     72  C   UNL A   1      39.724  29.053  33.275  1.00  0.00     0.134 A 
ATOM     73  F   UNL A   1      41.705  31.975  34.111  1.00  0.00    -0.206 F 
ATOM     74  C   UNL A   1      39.380  31.745  33.899  1.00  0.00     0.040 A 
ATOM     75  C   UNL A   1      38.440  29.615  33.303  1.00  0.00     0.040 A 
ATOM     76  F   UNL A   1      39.839  27.772  32.897  1.00  0.00    -0.206 F 
ATOM     77  C   UNL A   1      38.270  30.971  33.578  1.00  0.00     0.006 A 
ENDBRANCH  49  70
BRANCH  61  78
ATOM     78  C   UNL A   1      45.128  23.998  33.522  1.00  0.00     0.057 A 
ATOM     79  C   UNL A   1      46.434  23.790  33.989  1.00  0.00     0.134 A 
ATOM     80  C   UNL A   1      44.196  22.997  33.880  1.00  0.00     0.134 A 
ATOM     81  F   UNL A   1      47.396  24.704  33.810  1.00  0.00    -0.206 F 
ATOM     82  C   UNL A   1      46.796  22.649  34.717  1.00  0.00     0.040 A 
ATOM     83  C   UNL A   1      44.535  21.882  34.650  1.00  0.00     0.040 A 
ATOM     84  F   UNL A   1      42.907  23.073  33.515  1.00  0.00    -0.206 F 
ATOM     85  C   UNL A   1      45.844  21.696  35.063  1.00  0.00     0.006 A 
ENDBRANCH  61  78
ENDBRANCH  35  36
ENDBRANCH  27  30
ENDBRANCH  25  26
ENDBRANCH  24  25
ENDBRANCH   1  24
TORSDOF 13
ENDMDL
MODEL 2
REMARK VINA RESULT:     -12.7      4.599      9.599
REMARK SMILES Cc1c(CC(=O)NCCCNC(=O)c2ccc(-c3c4nc(c(-c5c(F)cccc5F)c5ccc([nH]5)c(-c5c(F)cccc5F)c5nc(c(-c6c(F)cccc6F)c6ccc3[nH]6)C=C5)C=C4)cc2)cccc1-c1ccn(C(F)F)c(=O)c1
REMARK SMILES IDX 8 1 7 2 5 3 6 4 4 6 3 7 1 8 2 9 71 10 68 11 70 12 69 13
REMARK SMILES IDX 72 14 73 15 81 16 74 17 79 18 75 19 80 20 76 21 77 22 78 23
REMARK SMILES IDX 9 24 10 25 11 26 12 27 13 29 14 30 15 31 67 32 16 33 66 34
REMARK SMILES IDX 17 35 18 36 19 37 60 38 20 39 65 40 59 41 61 42 21 43 64 44
REMARK SMILES IDX 58 45 57 46 22 48 48 49 31 50 47 51 32 52 35 53 46 54 62 55
REMARK SMILES IDX 33 56 34 57 45 59 63 60 36 61 23 62 24 63 29 64 25 65 26 66
REMARK SMILES IDX 28 67 30 68 27 69 49 70 50 71 55 72 51 73 52 74 54 75 56 76
REMARK SMILES IDX 53 77 37 78 38 79 43 80 39 81 40 82 42 83 44 84 41 85
REMARK H PARENT 7 5 11 28 61 47 35 58
REMARK Flexibility Score: inf
ROOT
ATOM      1  C   UNL A   1      37.666  22.601  25.355  1.00  0.00     0.117 C 
ENDROOT
BRANCH   1   2
ATOM      2  N   UNL A   1      36.404  22.213  25.966  1.00  0.00    -0.356 N 
ATOM      3  C   UNL A   1      35.261  22.944  26.142  1.00  0.00     0.224 C 
ATOM      4  O   UNL A   1      34.300  22.397  26.688  1.00  0.00    -0.275 OA
ATOM      5  H   UNL A   1      36.366  21.288  26.301  1.00  0.00     0.163 HD
BRANCH   3   6
ATOM      6  C   UNL A   1      35.174  24.395  25.672  1.00  0.00     0.135 C 
BRANCH   6   7
ATOM      7  C   UNL A   1      34.215  24.599  24.512  1.00  0.00    -0.035 A 
ATOM      8  C   UNL A   1      33.193  26.697  25.539  1.00  0.00     0.045 C 
ATOM      9  C   UNL A   1      33.224  25.615  24.484  1.00  0.00    -0.040 A 
ATOM     10  C   UNL A   1      32.273  25.618  23.426  1.00  0.00    -0.015 A 
ATOM     11  C   UNL A   1      34.290  23.680  23.445  1.00  0.00     0.004 A 
ATOM     12  C   UNL A   1      32.368  24.671  22.393  1.00  0.00     0.009 A 
ATOM     13  C   UNL A   1      33.379  23.717  22.394  1.00  0.00     0.001 A 
BRANCH  10  14
ATOM     14  C   UNL A   1      31.114  26.539  23.413  1.00  0.00    -0.011 A 
ATOM     15  C   UNL A   1      29.882  26.283  24.133  1.00  0.00     0.027 A 
ATOM     16  C   UNL A   1      31.194  27.623  22.621  1.00  0.00     0.080 A 
ATOM     17  C   UNL A   1      28.812  27.064  23.943  1.00  0.00     0.095 A 
ATOM     18  C   UNL A   1      30.031  28.533  22.444  1.00  0.00     0.255 A 
ATOM     19  N   UNL A   1      28.869  28.157  23.097  1.00  0.00    -0.258 N 
ATOM     20  O   UNL A   1      30.164  29.518  21.726  1.00  0.00    -0.269 OA
BRANCH  19  21
ATOM     21  C   UNL A   1      27.701  28.969  22.865  1.00  0.00     0.451 C 
ATOM     22  F   UNL A   1      26.573  28.324  23.246  1.00  0.00    -0.185 F 
ATOM     23  F   UNL A   1      27.774  30.133  23.555  1.00  0.00    -0.185 F 
ENDBRANCH  19  21
ENDBRANCH  10  14
ENDBRANCH   6   7
ENDBRANCH   3   6
ENDBRANCH   1   2
BRANCH   1  24
ATOM     24  C   UNL A   1      38.838  21.740  25.823  1.00  0.00     0.042 C 
BRANCH  24  25
ATOM     25  C   UNL A   1      39.714  22.400  26.875  1.00  0.00     0.118 C 
BRANCH  25  26
ATOM     26  N   UNL A   1      41.023  22.821  26.391  1.00  0.00    -0.352 N 
ATOM     27  C   UNL A   1      41.534  24.103  26.259  1.00  0.00     0.251 C 
ATOM     28  H   UNL A   1      41.629  22.094  26.122  1.00  0.00     0.163 HD
ATOM     29  O   UNL A   1      42.663  24.274  25.827  1.00  0.00    -0.269 OA
BRANCH  27  30
ATOM     30  C   UNL A   1      40.754  25.253  26.781  1.00  0.00     0.039 A 
ATOM     31  C   UNL A   1      40.844  26.465  26.089  1.00  0.00     0.014 A 
ATOM     32  C   UNL A   1      40.146  25.204  28.032  1.00  0.00     0.014 A 
ATOM     33  C   UNL A   1      40.578  27.654  26.763  1.00  0.00     0.010 A 
ATOM     34  C   UNL A   1      39.985  26.379  28.737  1.00  0.00     0.010 A 
ATOM     35  C   UNL A   1      40.275  27.602  28.123  1.00  0.00    -0.014 A 
BRANCH  35  36
ATOM     36  C   UNL A   1      40.409  28.753  29.008  1.00  0.00     0.031 A 
ATOM     37  C   UNL A   1      39.303  29.714  29.185  1.00  0.00     0.074 A 
ATOM     38  C   UNL A   1      41.537  28.885  29.742  1.00  0.00     0.049 A 
ATOM     39  N   UNL A   1      39.464  30.938  29.565  1.00  0.00    -0.248 NA
ATOM     40  C   UNL A   1      37.912  29.374  28.913  1.00  0.00     0.031 C 
ATOM     41  C   UNL A   1      41.757  29.777  30.876  1.00  0.00     0.029 A 
ATOM     42  N   UNL A   1      42.805  28.352  29.467  1.00  0.00    -0.354 N 
ATOM     43  C   UNL A   1      38.221  31.456  29.847  1.00  0.00     0.074 A 
ATOM     44  C   UNL A   1      37.286  30.462  29.371  1.00  0.00     0.031 C 
ATOM     45  C   UNL A   1      43.077  29.960  31.032  1.00  0.00     0.029 A 
ATOM     46  C   UNL A   1      43.740  29.308  29.917  1.00  0.00     0.049 A 
ATOM     47  H   UNL A   1      43.003  27.484  29.045  1.00  0.00     0.167 HD
ATOM     48  C   UNL A   1      38.117  32.606  30.573  1.00  0.00     0.037 A 
ATOM     49  C   UNL A   1      44.604  29.920  29.057  1.00  0.00     0.037 A 
ATOM     50  C   UNL A   1      39.433  33.145  30.909  1.00  0.00     0.049 A 
ATOM     51  C   UNL A   1      44.464  31.423  29.008  1.00  0.00     0.074 A 
ATOM     52  C   UNL A   1      40.222  33.034  32.043  1.00  0.00     0.029 A 
ATOM     53  N   UNL A   1      40.250  33.652  29.907  1.00  0.00    -0.354 N 
ATOM     54  N   UNL A   1      43.422  32.070  29.450  1.00  0.00    -0.248 NA
ATOM     55  C   UNL A   1      45.466  32.314  28.427  1.00  0.00     0.031 C 
ATOM     56  C   UNL A   1      41.537  33.433  31.705  1.00  0.00     0.029 A 
ATOM     57  C   UNL A   1      41.542  33.803  30.372  1.00  0.00     0.049 A 
ATOM     58  H   UNL A   1      39.952  33.872  28.996  1.00  0.00     0.167 HD
ATOM     59  C   UNL A   1      43.572  33.408  29.197  1.00  0.00     0.074 A 
ATOM     60  C   UNL A   1      44.879  33.514  28.578  1.00  0.00     0.031 C 
ATOM     61  C   UNL A   1      42.593  34.310  29.504  1.00  0.00     0.037 A 
BRANCH  48  62
ATOM     62  C   UNL A   1      36.834  33.055  31.233  1.00  0.00     0.057 A 
ATOM     63  C   UNL A   1      35.908  33.869  30.551  1.00  0.00     0.134 A 
ATOM     64  C   UNL A   1      36.479  32.762  32.560  1.00  0.00     0.134 A 
ATOM     65  F   UNL A   1      36.031  34.142  29.246  1.00  0.00    -0.206 F 
ATOM     66  C   UNL A   1      34.799  34.454  31.177  1.00  0.00     0.040 A 
ATOM     67  C   UNL A   1      35.405  33.382  33.216  1.00  0.00     0.040 A 
ATOM     68  F   UNL A   1      37.132  31.827  33.265  1.00  0.00    -0.206 F 
ATOM     69  C   UNL A   1      34.569  34.248  32.527  1.00  0.00     0.006 A 
ENDBRANCH  48  62
BRANCH  49  70
ATOM     70  C   UNL A   1      45.007  29.063  27.914  1.00  0.00     0.057 A 
ATOM     71  C   UNL A   1      46.018  28.107  28.114  1.00  0.00     0.134 A 
ATOM     72  C   UNL A   1      44.194  28.905  26.789  1.00  0.00     0.134 A 
ATOM     73  F   UNL A   1      46.833  28.200  29.177  1.00  0.00    -0.206 F 
ATOM     74  C   UNL A   1      46.145  26.983  27.294  1.00  0.00     0.040 A 
ATOM     75  C   UNL A   1      44.316  27.785  25.956  1.00  0.00     0.040 A 
ATOM     76  F   UNL A   1      43.192  29.762  26.546  1.00  0.00    -0.206 F 
ATOM     77  C   UNL A   1      45.268  26.803  26.229  1.00  0.00     0.006 A 
ENDBRANCH  49  70
BRANCH  61  78
ATOM     78  C   UNL A   1      42.555  35.760  29.094  1.00  0.00     0.057 A 
ATOM     79  C   UNL A   1      43.226  36.788  29.770  1.00  0.00     0.134 A 
ATOM     80  C   UNL A   1      41.945  36.140  27.876  1.00  0.00     0.134 A 
ATOM     81  F   UNL A   1      43.933  36.551  30.883  1.00  0.00    -0.206 F 
ATOM     82  C   UNL A   1      43.249  38.107  29.296  1.00  0.00     0.040 A 
ATOM     83  C   UNL A   1      42.005  37.440  27.368  1.00  0.00     0.040 A 
ATOM     84  F   UNL A   1      41.282  35.256  27.115  1.00  0.00    -0.206 F 
ATOM     85  C   UNL A   1      42.650  38.435  28.085  1.00  0.00     0.006 A 
ENDBRANCH  61  78
ENDBRANCH  35  36
ENDBRANCH  27  30
ENDBRANCH  25  26
ENDBRANCH  24  25
ENDBRANCH   1  24
TORSDOF 13
ENDMDL
MODEL 3
REMARK VINA RESULT:     -12.4      2.120      3.541
REMARK SMILES Cc1c(CC(=O)NCCCNC(=O)c2ccc(-c3c4nc(c(-c5c(F)cccc5F)c5ccc([nH]5)c(-c5c(F)cccc5F)c5nc(c(-c6c(F)cccc6F)c6ccc3[nH]6)C=C5)C=C4)cc2)cccc1-c1ccn(C(F)F)c(=O)c1
REMARK SMILES IDX 8 1 7 2 5 3 6 4 4 6 3 7 1 8 2 9 71 10 68 11 70 12 69 13
REMARK SMILES IDX 72 14 73 15 81 16 74 17 79 18 75 19 80 20 76 21 77 22 78 23
REMARK SMILES IDX 9 24 10 25 11 26 12 27 13 29 14 30 15 31 67 32 16 33 66 34
REMARK SMILES IDX 17 35 18 36 19 37 60 38 20 39 65 40 59 41 61 42 21 43 64 44
REMARK SMILES IDX 58 45 57 46 22 48 48 49 31 50 47 51 32 52 35 53 46 54 62 55
REMARK SMILES IDX 33 56 34 57 45 59 63 60 36 61 23 62 24 63 29 64 25 65 26 66
REMARK SMILES IDX 28 67 30 68 27 69 49 70 50 71 55 72 51 73 52 74 54 75 56 76
REMARK SMILES IDX 53 77 37 78 38 79 43 80 39 81 40 82 42 83 44 84 41 85
REMARK H PARENT 7 5 11 28 61 47 35 58
REMARK Flexibility Score: inf
ROOT
ATOM      1  C   UNL A   1      33.350  29.295  26.387  1.00  0.00     0.117 C 
ENDROOT
BRANCH   1   2
ATOM      2  N   UNL A   1      32.364  28.248  26.604  1.00  0.00    -0.356 N 
ATOM      3  C   UNL A   1      32.485  26.892  26.458  1.00  0.00     0.224 C 
ATOM      4  O   UNL A   1      31.503  26.191  26.707  1.00  0.00    -0.275 OA
ATOM      5  H   UNL A   1      31.477  28.560  26.899  1.00  0.00     0.163 HD
BRANCH   3   6
ATOM      6  C   UNL A   1      33.802  26.265  26.005  1.00  0.00     0.135 C 
BRANCH   6   7
ATOM      7  C   UNL A   1      33.625  25.170  24.966  1.00  0.00    -0.035 A 
ATOM      8  C   UNL A   1      33.715  23.308  26.707  1.00  0.00     0.045 C 
ATOM      9  C   UNL A   1      33.676  23.784  25.272  1.00  0.00    -0.040 A 
ATOM     10  C   UNL A   1      33.661  22.845  24.205  1.00  0.00    -0.015 A 
ATOM     11  C   UNL A   1      33.464  25.575  23.625  1.00  0.00     0.004 A 
ATOM     12  C   UNL A   1      33.522  23.289  22.879  1.00  0.00     0.009 A 
ATOM     13  C   UNL A   1      33.409  24.644  22.592  1.00  0.00     0.001 A 
BRANCH  10  14
ATOM     14  C   UNL A   1      33.877  21.397  24.428  1.00  0.00    -0.011 A 
ATOM     15  C   UNL A   1      35.170  20.821  24.740  1.00  0.00     0.027 A 
ATOM     16  C   UNL A   1      32.824  20.580  24.247  1.00  0.00     0.080 A 
ATOM     17  C   UNL A   1      35.332  19.492  24.758  1.00  0.00     0.095 A 
ATOM     18  C   UNL A   1      32.977  19.102  24.322  1.00  0.00     0.255 A 
ATOM     19  N   UNL A   1      34.266  18.641  24.530  1.00  0.00    -0.258 N 
ATOM     20  O   UNL A   1      31.981  18.404  24.167  1.00  0.00    -0.269 OA
BRANCH  19  21
ATOM     21  C   UNL A   1      34.457  17.213  24.511  1.00  0.00     0.451 C 
ATOM     22  F   UNL A   1      34.455  16.736  23.244  1.00  0.00    -0.185 F 
ATOM     23  F   UNL A   1      35.634  16.872  25.089  1.00  0.00    -0.185 F 
ENDBRANCH  19  21
ENDBRANCH  10  14
ENDBRANCH   6   7
ENDBRANCH   3   6
ENDBRANCH   1   2
BRANCH   1  24
ATOM     24  C   UNL A   1      34.237  29.533  27.607  1.00  0.00     0.042 C 
BRANCH  24  25
ATOM     25  C   UNL A   1      34.950  30.874  27.606  1.00  0.00     0.118 C 
BRANCH  25  26
ATOM     26  N   UNL A   1      34.105  32.006  27.967  1.00  0.00    -0.352 N 
ATOM     27  C   UNL A   1      34.304  32.965  28.948  1.00  0.00     0.251 C 
ATOM     28  H   UNL A   1      33.278  32.102  27.441  1.00  0.00     0.163 HD
ATOM     29  O   UNL A   1      33.480  33.850  29.118  1.00  0.00    -0.269 OA
BRANCH  27  30
ATOM     30  C   UNL A   1      35.591  32.993  29.686  1.00  0.00     0.039 A 
ATOM     31  C   UNL A   1      36.651  33.705  29.116  1.00  0.00     0.014 A 
ATOM     32  C   UNL A   1      35.815  32.157  30.777  1.00  0.00     0.014 A 
ATOM     33  C   UNL A   1      37.958  33.369  29.458  1.00  0.00     0.010 A 
ATOM     34  C   UNL A   1      37.104  31.745  31.042  1.00  0.00     0.010 A 
ATOM     35  C   UNL A   1      38.171  32.299  30.326  1.00  0.00    -0.014 A 
BRANCH  35  36
ATOM     36  C   UNL A   1      39.443  31.591  30.411  1.00  0.00     0.031 A 
ATOM     37  C   UNL A   1      39.667  30.330  29.677  1.00  0.00     0.074 A 
ATOM     38  C   UNL A   1      40.458  32.153  31.106  1.00  0.00     0.049 A 
ATOM     39  N   UNL A   1      40.538  29.441  30.020  1.00  0.00    -0.248 NA
ATOM     40  C   UNL A   1      38.894  29.956  28.500  1.00  0.00     0.031 C 
ATOM     41  C   UNL A   1      41.867  31.772  31.082  1.00  0.00     0.029 A 
ATOM     42  N   UNL A   1      40.368  33.088  32.148  1.00  0.00    -0.354 N 
ATOM     43  C   UNL A   1      40.636  28.531  28.992  1.00  0.00     0.074 A 
ATOM     44  C   UNL A   1      39.551  28.864  28.096  1.00  0.00     0.031 C 
ATOM     45  C   UNL A   1      42.456  32.222  32.200  1.00  0.00     0.029 A 
ATOM     46  C   UNL A   1      41.413  32.781  33.043  1.00  0.00     0.049 A 
ATOM     47  H   UNL A   1      39.707  33.814  32.236  1.00  0.00     0.167 HD
ATOM     48  C   UNL A   1      41.701  27.681  28.941  1.00  0.00     0.037 A 
ATOM     49  C   UNL A   1      41.162  32.400  34.329  1.00  0.00     0.037 A 
ATOM     50  C   UNL A   1      42.589  27.869  30.085  1.00  0.00     0.049 A 
ATOM     51  C   UNL A   1      41.688  31.027  34.680  1.00  0.00     0.074 A 
ATOM     52  C   UNL A   1      43.755  28.599  30.249  1.00  0.00     0.029 A 
ATOM     53  N   UNL A   1      42.158  27.522  31.360  1.00  0.00    -0.354 N 
ATOM     54  N   UNL A   1      42.033  30.135  33.794  1.00  0.00    -0.248 NA
ATOM     55  C   UNL A   1      41.830  30.538  36.049  1.00  0.00     0.031 C 
ATOM     56  C   UNL A   1      44.001  28.732  31.636  1.00  0.00     0.029 A 
ATOM     57  C   UNL A   1      42.994  28.068  32.314  1.00  0.00     0.049 A 
ATOM     58  H   UNL A   1      41.370  26.966  31.555  1.00  0.00     0.167 HD
ATOM     59  C   UNL A   1      42.397  28.977  34.429  1.00  0.00     0.074 A 
ATOM     60  C   UNL A   1      42.278  29.287  35.841  1.00  0.00     0.031 C 
ATOM     61  C   UNL A   1      42.747  27.856  33.732  1.00  0.00     0.037 A 
BRANCH  48  62
ATOM     62  C   UNL A   1      42.087  26.913  27.698  1.00  0.00     0.057 A 
ATOM     63  C   UNL A   1      42.634  27.566  26.576  1.00  0.00     0.134 A 
ATOM     64  C   UNL A   1      41.893  25.532  27.525  1.00  0.00     0.134 A 
ATOM     65  F   UNL A   1      42.995  28.855  26.613  1.00  0.00    -0.206 F 
ATOM     66  C   UNL A   1      42.838  26.928  25.345  1.00  0.00     0.040 A 
ATOM     67  C   UNL A   1      42.039  24.891  26.286  1.00  0.00     0.040 A 
ATOM     68  F   UNL A   1      41.595  24.737  28.562  1.00  0.00    -0.206 F 
ATOM     69  C   UNL A   1      42.498  25.596  25.183  1.00  0.00     0.006 A 
ENDBRANCH  48  62
BRANCH  49  70
ATOM     70  C   UNL A   1      39.939  33.017  34.901  1.00  0.00     0.057 A 
ATOM     71  C   UNL A   1      38.740  32.285  34.869  1.00  0.00     0.134 A 
ATOM     72  C   UNL A   1      40.004  34.097  35.785  1.00  0.00     0.134 A 
ATOM     73  F   UNL A   1      38.613  31.234  34.043  1.00  0.00    -0.206 F 
ATOM     74  C   UNL A   1      37.690  32.549  35.752  1.00  0.00     0.040 A 
ATOM     75  C   UNL A   1      38.955  34.374  36.671  1.00  0.00     0.040 A 
ATOM     76  F   UNL A   1      41.124  34.826  35.891  1.00  0.00    -0.206 F 
ATOM     77  C   UNL A   1      37.811  33.576  36.682  1.00  0.00     0.006 A 
ENDBRANCH  49  70
BRANCH  61  78
ATOM     78  C   UNL A   1      42.966  26.479  34.306  1.00  0.00     0.057 A 
ATOM     79  C   UNL A   1      41.973  25.725  34.945  1.00  0.00     0.134 A 
ATOM     80  C   UNL A   1      44.186  25.800  34.081  1.00  0.00     0.134 A 
ATOM     81  F   UNL A   1      40.737  26.207  35.132  1.00  0.00    -0.206 F 
ATOM     82  C   UNL A   1      42.191  24.408  35.373  1.00  0.00     0.040 A 
ATOM     83  C   UNL A   1      44.396  24.471  34.457  1.00  0.00     0.040 A 
ATOM     84  F   UNL A   1      45.219  26.393  33.466  1.00  0.00    -0.206 F 
ATOM     85  C   UNL A   1      43.400  23.771  35.117  1.00  0.00     0.006 A 
ENDBRANCH  61  78
ENDBRANCH  35  36
ENDBRANCH  27  30
ENDBRANCH  25  26
ENDBRANCH  24  25
ENDBRANCH   1  24
TORSDOF 13
ENDMDL
