MODEL 1
REMARK VINA RESULT:     -11.5      0.000      0.000
REMARK SMILES CC[C@@H](C)[C@H](NC(=O)C1CCN(C(=O)OC(C)(C)C)CC1)C(=O)NCCCNC(=O)c1ccc(-c2c3nc(c(-c4c(F)cccc4F)c4ccc([nH]4)c(-c4c(F)cccc4F)c4nc(c(-c5c(F)cccc5F)c5ccc2[nH]5)C=C4)C=C3)cc1
REMARK SMILES IDX 25 1 24 2 22 3 23 4 5 6 3 7 4 8 2 9 1 10 6 11 7 12 8 14 9 15
REMARK SMILES IDX 10 16 21 17 11 18 20 19 12 20 13 21 14 22 15 23 16 24 17 25
REMARK SMILES IDX 18 26 19 27 26 28 27 29 28 30 29 31 30 33 31 34 32 35 84 36
REMARK SMILES IDX 33 37 83 38 34 39 35 40 36 41 77 42 37 43 82 44 76 45 78 46
REMARK SMILES IDX 38 47 81 48 75 49 74 50 39 52 65 53 48 54 64 55 49 56 52 57
REMARK SMILES IDX 63 58 79 59 50 60 51 61 62 63 80 64 53 65 40 66 41 67 46 68
REMARK SMILES IDX 42 69 43 70 45 71 47 72 44 73 66 74 67 75 72 76 68 77 69 78
REMARK SMILES IDX 71 79 73 80 70 81 54 82 55 83 60 84 56 85 57 86 59 87 61 88
REMARK SMILES IDX 58 89
REMARK H PARENT 24 5 6 13 28 32 78 51 52 62
REMARK Flexibility Score: inf
ROOT
ATOM      1  C   UNL A   1      36.023  23.847  24.992  1.00  0.00     0.117 C 
ENDROOT
BRANCH   1   2
ATOM      2  N   UNL A   1      35.645  23.657  23.601  1.00  0.00    -0.354 N 
ATOM      3  C   UNL A   1      34.445  23.230  23.095  1.00  0.00     0.242 C 
ATOM      4  O   UNL A   1      34.196  23.462  21.910  1.00  0.00    -0.273 OA
ATOM      5  H   UNL A   1      36.341  23.862  22.936  1.00  0.00     0.163 HD
BRANCH   3   6
ATOM      6  C   UNL A   1      33.393  22.601  24.021  1.00  0.00     0.174 C 
BRANCH   6   7
ATOM      7  C   UNL A   1      33.653  21.032  24.166  1.00  0.00     0.018 C 
ATOM      8  C   UNL A   1      32.395  20.130  24.149  1.00  0.00     0.010 C 
BRANCH   7   9
ATOM      9  C   UNL A   1      34.582  20.627  25.341  1.00  0.00     0.002 C 
ATOM     10  C   UNL A   1      35.858  19.890  24.933  1.00  0.00     0.004 C 
ENDBRANCH   7   9
ENDBRANCH   6   7
BRANCH   6  11
ATOM     11  N   UNL A   1      32.059  22.987  23.533  1.00  0.00    -0.344 N 
ATOM     12  C   UNL A   1      31.115  23.873  23.930  1.00  0.00     0.223 C 
ATOM     13  H   UNL A   1      31.792  22.485  22.730  1.00  0.00     0.164 HD
ATOM     14  O   UNL A   1      30.127  23.897  23.181  1.00  0.00    -0.275 OA
BRANCH  12  15
ATOM     15  C   UNL A   1      31.160  24.741  25.202  1.00  0.00     0.082 C 
ATOM     16  C   UNL A   1      30.137  25.898  25.039  1.00  0.00     0.035 C 
ATOM     17  C   UNL A   1      32.489  25.374  25.661  1.00  0.00     0.035 C 
ATOM     18  C   UNL A   1      30.663  26.988  24.098  1.00  0.00     0.124 C 
ATOM     19  C   UNL A   1      32.970  26.568  24.829  1.00  0.00     0.124 C 
ATOM     20  N   UNL A   1      31.904  27.534  24.624  1.00  0.00    -0.308 N 
ATOM     21  C   UNL A   1      31.983  28.896  24.878  1.00  0.00     0.410 C 
ATOM     22  O   UNL A   1      31.063  29.667  24.644  1.00  0.00    -0.224 OA
BRANCH  21  23
ATOM     23  O   UNL A   1      33.170  29.280  25.432  1.00  0.00    -0.444 OA
BRANCH  23  24
ATOM     24  C   UNL A   1      33.258  29.463  26.875  1.00  0.00     0.106 C 
ATOM     25  C   UNL A   1      32.220  28.611  27.620  1.00  0.00     0.056 C 
ATOM     26  C   UNL A   1      34.683  29.207  27.387  1.00  0.00     0.056 C 
ATOM     27  C   UNL A   1      32.925  30.944  27.128  1.00  0.00     0.056 C 
ENDBRANCH  23  24
ENDBRANCH  21  23
ENDBRANCH  12  15
ENDBRANCH   6  11
ENDBRANCH   3   6
ENDBRANCH   1   2
BRANCH   1  28
ATOM     28  C   UNL A   1      37.338  23.193  25.360  1.00  0.00     0.042 C 
BRANCH  28  29
ATOM     29  C   UNL A   1      38.176  24.042  26.297  1.00  0.00     0.118 C 
BRANCH  29  30
ATOM     30  N   UNL A   1      39.606  23.863  26.087  1.00  0.00    -0.352 N 
ATOM     31  C   UNL A   1      40.663  24.627  26.510  1.00  0.00     0.251 C 
ATOM     32  H   UNL A   1      39.853  23.070  25.558  1.00  0.00     0.163 HD
ATOM     33  O   UNL A   1      41.785  24.422  26.060  1.00  0.00    -0.269 OA
BRANCH  31  34
ATOM     34  C   UNL A   1      40.438  25.710  27.485  1.00  0.00     0.039 A 
ATOM     35  C   UNL A   1      39.501  25.522  28.503  1.00  0.00     0.014 A 
ATOM     36  C   UNL A   1      41.166  26.900  27.410  1.00  0.00     0.014 A 
ATOM     37  C   UNL A   1      39.352  26.497  29.487  1.00  0.00     0.010 A 
ATOM     38  C   UNL A   1      41.104  27.812  28.453  1.00  0.00     0.010 A 
ATOM     39  C   UNL A   1      40.187  27.627  29.496  1.00  0.00    -0.014 A 
BRANCH  39  40
ATOM     40  C   UNL A   1      40.107  28.640  30.576  1.00  0.00     0.031 A 
ATOM     41  C   UNL A   1      39.107  29.759  30.482  1.00  0.00     0.074 A 
ATOM     42  C   UNL A   1      40.971  28.583  31.608  1.00  0.00     0.049 A 
ATOM     43  N   UNL A   1      38.925  30.774  31.288  1.00  0.00    -0.248 NA
ATOM     44  C   UNL A   1      38.211  29.756  29.313  1.00  0.00     0.031 C 
ATOM     45  C   UNL A   1      42.018  27.575  31.783  1.00  0.00     0.029 A 
ATOM     46  N   UNL A   1      41.109  29.398  32.702  1.00  0.00    -0.354 N 
ATOM     47  C   UNL A   1      37.910  31.531  30.717  1.00  0.00     0.074 A 
ATOM     48  C   UNL A   1      37.560  30.898  29.465  1.00  0.00     0.031 C 
ATOM     49  C   UNL A   1      42.663  27.806  32.938  1.00  0.00     0.029 A 
ATOM     50  C   UNL A   1      42.111  29.006  33.557  1.00  0.00     0.049 A 
ATOM     51  H   UNL A   1      40.544  30.189  32.860  1.00  0.00     0.167 HD
ATOM     52  C   UNL A   1      37.301  32.635  31.207  1.00  0.00     0.037 A 
ATOM     53  C   UNL A   1      42.538  29.557  34.709  1.00  0.00     0.037 A 
ATOM     54  C   UNL A   1      37.638  33.248  32.463  1.00  0.00     0.049 A 
ATOM     55  C   UNL A   1      41.861  30.800  35.218  1.00  0.00     0.074 A 
ATOM     56  C   UNL A   1      37.050  34.342  33.073  1.00  0.00     0.029 A 
ATOM     57  N   UNL A   1      38.657  32.822  33.301  1.00  0.00    -0.354 N 
ATOM     58  N   UNL A   1      40.858  31.468  34.701  1.00  0.00    -0.248 NA
ATOM     59  C   UNL A   1      42.373  31.362  36.475  1.00  0.00     0.031 C 
ATOM     60  C   UNL A   1      37.747  34.609  34.255  1.00  0.00     0.029 A 
ATOM     61  C   UNL A   1      38.730  33.644  34.413  1.00  0.00     0.049 A 
ATOM     62  H   UNL A   1      39.243  32.049  33.131  1.00  0.00     0.167 HD
ATOM     63  C   UNL A   1      40.598  32.509  35.583  1.00  0.00     0.074 A 
ATOM     64  C   UNL A   1      41.539  32.372  36.676  1.00  0.00     0.031 C 
ATOM     65  C   UNL A   1      39.665  33.488  35.497  1.00  0.00     0.037 A 
BRANCH  52  66
ATOM     66  C   UNL A   1      36.201  33.243  30.384  1.00  0.00     0.057 A 
ATOM     67  C   UNL A   1      36.470  34.021  29.249  1.00  0.00     0.134 A 
ATOM     68  C   UNL A   1      34.856  33.022  30.709  1.00  0.00     0.134 A 
ATOM     69  F   UNL A   1      37.735  34.285  28.890  1.00  0.00    -0.206 F 
ATOM     70  C   UNL A   1      35.444  34.577  28.484  1.00  0.00     0.040 A 
ATOM     71  C   UNL A   1      33.822  33.546  29.933  1.00  0.00     0.040 A 
ATOM     72  F   UNL A   1      34.526  32.283  31.780  1.00  0.00    -0.206 F 
ATOM     73  C   UNL A   1      34.115  34.332  28.820  1.00  0.00     0.006 A 
ENDBRANCH  52  66
BRANCH  53  74
ATOM     74  C   UNL A   1      43.641  28.925  35.476  1.00  0.00     0.057 A 
ATOM     75  C   UNL A   1      43.379  27.939  36.435  1.00  0.00     0.134 A 
ATOM     76  C   UNL A   1      44.977  29.295  35.282  1.00  0.00     0.134 A 
ATOM     77  F   UNL A   1      42.118  27.553  36.679  1.00  0.00    -0.206 F 
ATOM     78  C   UNL A   1      44.401  27.361  37.189  1.00  0.00     0.040 A 
ATOM     79  C   UNL A   1      46.013  28.705  36.009  1.00  0.00     0.040 A 
ATOM     80  F   UNL A   1      45.298  30.227  34.372  1.00  0.00    -0.206 F 
ATOM     81  C   UNL A   1      45.725  27.742  36.974  1.00  0.00     0.006 A 
ENDBRANCH  53  74
BRANCH  65  82
ATOM     82  C   UNL A   1      39.582  34.461  36.638  1.00  0.00     0.057 A 
ATOM     83  C   UNL A   1      38.856  34.181  37.802  1.00  0.00     0.134 A 
ATOM     84  C   UNL A   1      40.277  35.677  36.585  1.00  0.00     0.134 A 
ATOM     85  F   UNL A   1      38.158  33.041  37.912  1.00  0.00    -0.206 F 
ATOM     86  C   UNL A   1      38.801  35.088  38.862  1.00  0.00     0.040 A 
ATOM     87  C   UNL A   1      40.256  36.576  37.651  1.00  0.00     0.040 A 
ATOM     88  F   UNL A   1      41.002  36.001  35.505  1.00  0.00    -0.206 F 
ATOM     89  C   UNL A   1      39.510  36.286  38.791  1.00  0.00     0.006 A 
ENDBRANCH  65  82
ENDBRANCH  39  40
ENDBRANCH  31  34
ENDBRANCH  29  30
ENDBRANCH  28  29
ENDBRANCH   1  28
TORSDOF 16
ENDMDL
MODEL 2
REMARK VINA RESULT:     -11.5      2.154      7.799
REMARK SMILES CC[C@@H](C)[C@H](NC(=O)C1CCN(C(=O)OC(C)(C)C)CC1)C(=O)NCCCNC(=O)c1ccc(-c2c3nc(c(-c4c(F)cccc4F)c4ccc([nH]4)c(-c4c(F)cccc4F)c4nc(c(-c5c(F)cccc5F)c5ccc2[nH]5)C=C4)C=C3)cc1
REMARK SMILES IDX 25 1 24 2 22 3 23 4 5 6 3 7 4 8 2 9 1 10 6 11 7 12 8 14 9 15
REMARK SMILES IDX 10 16 21 17 11 18 20 19 12 20 13 21 14 22 15 23 16 24 17 25
REMARK SMILES IDX 18 26 19 27 26 28 27 29 28 30 29 31 30 33 31 34 32 35 84 36
REMARK SMILES IDX 33 37 83 38 34 39 35 40 36 41 77 42 37 43 82 44 76 45 78 46
REMARK SMILES IDX 38 47 81 48 75 49 74 50 39 52 65 53 48 54 64 55 49 56 52 57
REMARK SMILES IDX 63 58 79 59 50 60 51 61 62 63 80 64 53 65 40 66 41 67 46 68
REMARK SMILES IDX 42 69 43 70 45 71 47 72 44 73 66 74 67 75 72 76 68 77 69 78
REMARK SMILES IDX 71 79 73 80 70 81 54 82 55 83 60 84 56 85 57 86 59 87 61 88
REMARK SMILES IDX 58 89
REMARK H PARENT 24 5 6 13 28 32 78 51 52 62
REMARK Flexibility Score: inf
ROOT
ATOM      1  C   UNL A   1      31.740  30.432  26.261  1.00  0.00     0.117 C 
ENDROOT
BRANCH   1   2
ATOM      2  N   UNL A   1      31.306  30.166  24.898  1.00  0.00    -0.354 N 
ATOM      3  C   UNL A   1      31.202  28.959  24.258  1.00  0.00     0.242 C 
ATOM      4  O   UNL A   1      30.497  28.895  23.247  1.00  0.00    -0.273 OA
ATOM      5  H   UNL A   1      31.054  30.955  24.367  1.00  0.00     0.163 HD
BRANCH   3   6
ATOM      6  C   UNL A   1      31.839  27.701  24.865  1.00  0.00     0.174 C 
BRANCH   6   7
ATOM      7  C   UNL A   1      33.427  27.761  24.717  1.00  0.00     0.018 C 
ATOM      8  C   UNL A   1      34.217  28.106  26.003  1.00  0.00     0.010 C 
BRANCH   7   9
ATOM      9  C   UNL A   1      33.944  28.616  23.529  1.00  0.00     0.002 C 
ATOM     10  C   UNL A   1      33.887  27.930  22.164  1.00  0.00     0.004 C 
ENDBRANCH   7   9
ENDBRANCH   6   7
BRANCH   6  11
ATOM     11  N   UNL A   1      31.184  26.522  24.276  1.00  0.00    -0.344 N 
ATOM     12  C   UNL A   1      31.114  25.207  24.593  1.00  0.00     0.223 C 
ATOM     13  H   UNL A   1      30.677  26.740  23.461  1.00  0.00     0.164 HD
ATOM     14  O   UNL A   1      30.397  24.558  23.818  1.00  0.00    -0.275 OA
BRANCH  12  15
ATOM     15  C   UNL A   1      31.871  24.507  25.737  1.00  0.00     0.082 C 
ATOM     16  C   UNL A   1      33.366  24.387  25.332  1.00  0.00     0.035 C 
ATOM     17  C   UNL A   1      31.423  23.114  26.226  1.00  0.00     0.035 C 
ATOM     18  C   UNL A   1      33.584  23.270  24.306  1.00  0.00     0.124 C 
ATOM     19  C   UNL A   1      31.762  21.950  25.289  1.00  0.00     0.124 C 
ATOM     20  N   UNL A   1      33.150  21.999  24.863  1.00  0.00    -0.308 N 
ATOM     21  C   UNL A   1      34.060  20.954  24.940  1.00  0.00     0.410 C 
ATOM     22  O   UNL A   1      35.207  21.044  24.525  1.00  0.00    -0.224 OA
BRANCH  21  23
ATOM     23  O   UNL A   1      33.559  19.837  25.541  1.00  0.00    -0.444 OA
BRANCH  23  24
ATOM     24  C   UNL A   1      33.392  18.619  24.759  1.00  0.00     0.106 C 
ATOM     25  C   UNL A   1      32.555  18.866  23.495  1.00  0.00     0.056 C 
ATOM     26  C   UNL A   1      34.746  17.972  24.431  1.00  0.00     0.056 C 
ATOM     27  C   UNL A   1      32.613  17.647  25.662  1.00  0.00     0.056 C 
ENDBRANCH  23  24
ENDBRANCH  21  23
ENDBRANCH  12  15
ENDBRANCH   6  11
ENDBRANCH   3   6
ENDBRANCH   1   2
BRANCH   1  28
ATOM     28  C   UNL A   1      31.469  31.848  26.721  1.00  0.00     0.042 C 
BRANCH  28  29
ATOM     29  C   UNL A   1      32.700  32.530  27.286  1.00  0.00     0.118 C 
BRANCH  29  30
ATOM     30  N   UNL A   1      32.473  33.937  27.586  1.00  0.00    -0.352 N 
ATOM     31  C   UNL A   1      33.087  34.755  28.499  1.00  0.00     0.251 C 
ATOM     32  H   UNL A   1      31.768  34.368  27.050  1.00  0.00     0.163 HD
ATOM     33  O   UNL A   1      32.615  35.860  28.743  1.00  0.00    -0.269 OA
BRANCH  31  34
ATOM     34  C   UNL A   1      34.296  34.288  29.202  1.00  0.00     0.039 A 
ATOM     35  C   UNL A   1      34.153  33.533  30.367  1.00  0.00     0.014 A 
ATOM     36  C   UNL A   1      35.567  34.576  28.701  1.00  0.00     0.014 A 
ATOM     37  C   UNL A   1      35.285  33.002  30.983  1.00  0.00     0.010 A 
ATOM     38  C   UNL A   1      36.679  33.949  29.243  1.00  0.00     0.010 A 
ATOM     39  C   UNL A   1      36.552  33.166  30.399  1.00  0.00    -0.014 A 
BRANCH  39  40
ATOM     40  C   UNL A   1      37.762  32.545  30.987  1.00  0.00     0.031 A 
ATOM     41  C   UNL A   1      38.360  31.319  30.354  1.00  0.00     0.074 A 
ATOM     42  C   UNL A   1      38.286  33.049  32.122  1.00  0.00     0.049 A 
ATOM     43  N   UNL A   1      39.373  30.593  30.751  1.00  0.00    -0.248 NA
ATOM     44  C   UNL A   1      37.715  30.823  29.125  1.00  0.00     0.031 C 
ATOM     45  C   UNL A   1      37.766  34.203  32.857  1.00  0.00     0.029 A 
ATOM     46  N   UNL A   1      39.371  32.648  32.859  1.00  0.00    -0.354 N 
ATOM     47  C   UNL A   1      39.477  29.555  29.834  1.00  0.00     0.074 A 
ATOM     48  C   UNL A   1      38.385  29.703  28.899  1.00  0.00     0.031 C 
ATOM     49  C   UNL A   1      38.556  34.443  33.915  1.00  0.00     0.029 A 
ATOM     50  C   UNL A   1      39.606  33.432  33.963  1.00  0.00     0.049 A 
ATOM     51  H   UNL A   1      39.929  31.873  32.619  1.00  0.00     0.167 HD
ATOM     52  C   UNL A   1      40.416  28.584  29.759  1.00  0.00     0.037 A 
ATOM     53  C   UNL A   1      40.558  33.339  34.910  1.00  0.00     0.037 A 
ATOM     54  C   UNL A   1      41.512  28.452  30.681  1.00  0.00     0.049 A 
ATOM     55  C   UNL A   1      41.574  32.234  34.817  1.00  0.00     0.074 A 
ATOM     56  C   UNL A   1      42.545  27.532  30.665  1.00  0.00     0.029 A 
ATOM     57  N   UNL A   1      41.716  29.266  31.785  1.00  0.00    -0.354 N 
ATOM     58  N   UNL A   1      41.699  31.298  33.908  1.00  0.00    -0.248 NA
ATOM     59  C   UNL A   1      42.585  32.177  35.881  1.00  0.00     0.031 C 
ATOM     60  C   UNL A   1      43.344  27.755  31.789  1.00  0.00     0.029 A 
ATOM     61  C   UNL A   1      42.846  28.854  32.472  1.00  0.00     0.049 A 
ATOM     62  H   UNL A   1      41.142  30.023  32.044  1.00  0.00     0.167 HD
ATOM     63  C   UNL A   1      42.819  30.561  34.271  1.00  0.00     0.074 A 
ATOM     64  C   UNL A   1      43.345  31.170  35.475  1.00  0.00     0.031 C 
ATOM     65  C   UNL A   1      43.362  29.478  33.663  1.00  0.00     0.037 A 
BRANCH  52  66
ATOM     66  C   UNL A   1      40.300  27.593  28.636  1.00  0.00     0.057 A 
ATOM     67  C   UNL A   1      40.950  27.786  27.409  1.00  0.00     0.134 A 
ATOM     68  C   UNL A   1      39.558  26.415  28.793  1.00  0.00     0.134 A 
ATOM     69  F   UNL A   1      41.665  28.899  27.187  1.00  0.00    -0.206 F 
ATOM     70  C   UNL A   1      40.846  26.858  26.372  1.00  0.00     0.040 A 
ATOM     71  C   UNL A   1      39.472  25.465  27.774  1.00  0.00     0.040 A 
ATOM     72  F   UNL A   1      38.913  26.164  29.942  1.00  0.00    -0.206 F 
ATOM     73  C   UNL A   1      40.112  25.689  26.557  1.00  0.00     0.006 A 
ENDBRANCH  52  66
BRANCH  53  74
ATOM     74  C   UNL A   1      40.618  34.335  36.010  1.00  0.00     0.057 A 
ATOM     75  C   UNL A   1      39.893  34.146  37.193  1.00  0.00     0.134 A 
ATOM     76  C   UNL A   1      41.386  35.501  35.905  1.00  0.00     0.134 A 
ATOM     77  F   UNL A   1      39.126  33.056  37.347  1.00  0.00    -0.206 F 
ATOM     78  C   UNL A   1      39.910  35.089  38.221  1.00  0.00     0.040 A 
ATOM     79  C   UNL A   1      41.434  36.440  36.938  1.00  0.00     0.040 A 
ATOM     80  F   UNL A   1      42.111  35.739  34.802  1.00  0.00    -0.206 F 
ATOM     81  C   UNL A   1      40.687  36.240  38.096  1.00  0.00     0.006 A 
ENDBRANCH  53  74
BRANCH  65  82
ATOM     82  C   UNL A   1      44.618  28.912  34.261  1.00  0.00     0.057 A 
ATOM     83  C   UNL A   1      45.888  29.386  33.910  1.00  0.00     0.134 A 
ATOM     84  C   UNL A   1      44.549  27.908  35.235  1.00  0.00     0.134 A 
ATOM     85  F   UNL A   1      46.025  30.338  32.975  1.00  0.00    -0.206 F 
ATOM     86  C   UNL A   1      47.046  28.862  34.486  1.00  0.00     0.040 A 
ATOM     87  C   UNL A   1      45.698  27.399  35.842  1.00  0.00     0.040 A 
ATOM     88  F   UNL A   1      43.364  27.417  35.626  1.00  0.00    -0.206 F 
ATOM     89  C   UNL A   1      46.952  27.871  35.462  1.00  0.00     0.006 A 
ENDBRANCH  65  82
ENDBRANCH  39  40
ENDBRANCH  31  34
ENDBRANCH  29  30
ENDBRANCH  28  29
ENDBRANCH   1  28
TORSDOF 16
ENDMDL
MODEL 3
REMARK VINA RESULT:     -11.5      2.144      8.195
REMARK SMILES CC[C@@H](C)[C@H](NC(=O)C1CCN(C(=O)OC(C)(C)C)CC1)C(=O)NCCCNC(=O)c1ccc(-c2c3nc(c(-c4c(F)cccc4F)c4ccc([nH]4)c(-c4c(F)cccc4F)c4nc(c(-c5c(F)cccc5F)c5ccc2[nH]5)C=C4)C=C3)cc1
REMARK SMILES IDX 25 1 24 2 22 3 23 4 5 6 3 7 4 8 2 9 1 10 6 11 7 12 8 14 9 15
REMARK SMILES IDX 10 16 21 17 11 18 20 19 12 20 13 21 14 22 15 23 16 24 17 25
REMARK SMILES IDX 18 26 19 27 26 28 27 29 28 30 29 31 30 33 31 34 32 35 84 36
REMARK SMILES IDX 33 37 83 38 34 39 35 40 36 41 77 42 37 43 82 44 76 45 78 46
REMARK SMILES IDX 38 47 81 48 75 49 74 50 39 52 65 53 48 54 64 55 49 56 52 57
REMARK SMILES IDX 63 58 79 59 50 60 51 61 62 63 80 64 53 65 40 66 41 67 46 68
REMARK SMILES IDX 42 69 43 70 45 71 47 72 44 73 66 74 67 75 72 76 68 77 69 78
REMARK SMILES IDX 71 79 73 80 70 81 54 82 55 83 60 84 56 85 57 86 59 87 61 88
REMARK SMILES IDX 58 89
REMARK H PARENT 24 5 6 13 28 32 78 51 52 62
REMARK Flexibility Score: inf
ROOT
ATOM      1  C   UNL A   1      31.467  30.809  26.144  1.00  0.00     0.117 C 
ENDROOT
BRANCH   1   2
ATOM      2  N   UNL A   1      30.943  30.488  24.826  1.00  0.00    -0.354 N 
ATOM      3  C   UNL A   1      30.893  29.268  24.204  1.00  0.00     0.242 C 
ATOM      4  O   UNL A   1      30.113  29.127  23.259  1.00  0.00    -0.273 OA
ATOM      5  H   UNL A   1      30.577  31.244  24.315  1.00  0.00     0.163 HD
BRANCH   3   6
ATOM      6  C   UNL A   1      31.691  28.080  24.760  1.00  0.00     0.174 C 
BRANCH   6   7
ATOM      7  C   UNL A   1      33.251  28.417  24.765  1.00  0.00     0.018 C 
ATOM      8  C   UNL A   1      34.029  28.052  23.477  1.00  0.00     0.010 C 
BRANCH   7   9
ATOM      9  C   UNL A   1      34.026  27.917  26.014  1.00  0.00     0.002 C 
ATOM     10  C   UNL A   1      34.273  28.977  27.089  1.00  0.00     0.004 C 
ENDBRANCH   7   9
ENDBRANCH   6   7
BRANCH   6  11
ATOM     11  N   UNL A   1      31.298  26.872  24.017  1.00  0.00    -0.344 N 
ATOM     12  C   UNL A   1      31.354  25.540  24.256  1.00  0.00     0.223 C 
ATOM     13  H   UNL A   1      30.900  27.081  23.141  1.00  0.00     0.164 HD
ATOM     14  O   UNL A   1      30.860  24.861  23.344  1.00  0.00    -0.275 OA
BRANCH  12  15
ATOM     15  C   UNL A   1      32.009  24.862  25.475  1.00  0.00     0.082 C 
ATOM     16  C   UNL A   1      33.513  24.640  25.160  1.00  0.00     0.035 C 
ATOM     17  C   UNL A   1      31.456  23.525  26.008  1.00  0.00     0.035 C 
ATOM     18  C   UNL A   1      33.720  23.458  24.205  1.00  0.00     0.124 C 
ATOM     19  C   UNL A   1      31.776  22.295  25.153  1.00  0.00     0.124 C 
ATOM     20  N   UNL A   1      33.185  22.245  24.802  1.00  0.00    -0.308 N 
ATOM     21  C   UNL A   1      34.029  21.158  24.982  1.00  0.00     0.410 C 
ATOM     22  O   UNL A   1      35.199  21.162  24.627  1.00  0.00    -0.224 OA
BRANCH  21  23
ATOM     23  O   UNL A   1      33.434  20.104  25.612  1.00  0.00    -0.444 OA
BRANCH  23  24
ATOM     24  C   UNL A   1      33.245  18.853  24.887  1.00  0.00     0.106 C 
ATOM     25  C   UNL A   1      32.529  17.801  25.746  1.00  0.00     0.056 C 
ATOM     26  C   UNL A   1      32.528  19.083  23.548  1.00  0.00     0.056 C 
ATOM     27  C   UNL A   1      34.660  18.332  24.580  1.00  0.00     0.056 C 
ENDBRANCH  23  24
ENDBRANCH  21  23
ENDBRANCH  12  15
ENDBRANCH   6  11
ENDBRANCH   3   6
ENDBRANCH   1   2
BRANCH   1  28
ATOM     28  C   UNL A   1      31.356  32.275  26.503  1.00  0.00     0.042 C 
BRANCH  28  29
ATOM     29  C   UNL A   1      32.570  32.792  27.251  1.00  0.00     0.118 C 
BRANCH  29  30
ATOM     30  N   UNL A   1      32.441  34.194  27.626  1.00  0.00    -0.352 N 
ATOM     31  C   UNL A   1      33.094  34.912  28.595  1.00  0.00     0.251 C 
ATOM     32  H   UNL A   1      31.783  34.706  27.102  1.00  0.00     0.163 HD
ATOM     33  O   UNL A   1      32.701  36.035  28.892  1.00  0.00    -0.269 OA
BRANCH  31  34
ATOM     34  C   UNL A   1      34.249  34.316  29.293  1.00  0.00     0.039 A 
ATOM     35  C   UNL A   1      34.028  33.566  30.449  1.00  0.00     0.014 A 
ATOM     36  C   UNL A   1      35.543  34.479  28.794  1.00  0.00     0.014 A 
ATOM     37  C   UNL A   1      35.100  32.917  31.059  1.00  0.00     0.010 A 
ATOM     38  C   UNL A   1      36.585  33.737  29.330  1.00  0.00     0.010 A 
ATOM     39  C   UNL A   1      36.378  32.958  30.476  1.00  0.00    -0.014 A 
BRANCH  39  40
ATOM     40  C   UNL A   1      37.518  32.210  31.058  1.00  0.00     0.031 A 
ATOM     41  C   UNL A   1      38.046  32.584  32.416  1.00  0.00     0.074 A 
ATOM     42  C   UNL A   1      38.112  31.237  30.341  1.00  0.00     0.049 A 
ATOM     43  N   UNL A   1      39.070  32.096  33.068  1.00  0.00    -0.248 NA
ATOM     44  C   UNL A   1      37.349  33.671  33.125  1.00  0.00     0.031 C 
ATOM     45  C   UNL A   1      37.722  30.818  28.993  1.00  0.00     0.029 A 
ATOM     46  N   UNL A   1      39.175  30.426  30.645  1.00  0.00    -0.354 N 
ATOM     47  C   UNL A   1      39.147  32.822  34.249  1.00  0.00     0.074 A 
ATOM     48  C   UNL A   1      38.110  33.829  34.197  1.00  0.00     0.031 C 
ATOM     49  C   UNL A   1      38.508  29.801  28.604  1.00  0.00     0.029 A 
ATOM     50  C   UNL A   1      39.487  29.531  29.651  1.00  0.00     0.049 A 
ATOM     51  H   UNL A   1      39.669  30.481  31.496  1.00  0.00     0.167 HD
ATOM     52  C   UNL A   1      39.985  32.647  35.296  1.00  0.00     0.037 A 
ATOM     53  C   UNL A   1      40.458  28.600  29.590  1.00  0.00     0.037 A 
ATOM     54  C   UNL A   1      41.001  31.631  35.351  1.00  0.00     0.049 A 
ATOM     55  C   UNL A   1      41.393  28.443  30.758  1.00  0.00     0.074 A 
ATOM     56  C   UNL A   1      41.871  31.338  36.386  1.00  0.00     0.029 A 
ATOM     57  N   UNL A   1      41.285  30.743  34.325  1.00  0.00    -0.354 N 
ATOM     58  N   UNL A   1      41.413  29.094  31.896  1.00  0.00    -0.248 NA
ATOM     59  C   UNL A   1      42.438  27.418  30.633  1.00  0.00     0.031 C 
ATOM     60  C   UNL A   1      42.716  30.308  35.967  1.00  0.00     0.029 A 
ATOM     61  C   UNL A   1      42.333  29.916  34.694  1.00  0.00     0.049 A 
ATOM     62  H   UNL A   1      40.813  30.706  33.462  1.00  0.00     0.167 HD
ATOM     63  C   UNL A   1      42.448  28.537  32.636  1.00  0.00     0.074 A 
ATOM     64  C   UNL A   1      43.021  27.485  31.821  1.00  0.00     0.031 C 
ATOM     65  C   UNL A   1      42.884  28.866  33.876  1.00  0.00     0.037 A 
BRANCH  52  66
ATOM     66  C   UNL A   1      39.829  33.570  36.471  1.00  0.00     0.057 A 
ATOM     67  C   UNL A   1      38.985  33.262  37.547  1.00  0.00     0.134 A 
ATOM     68  C   UNL A   1      40.556  34.765  36.545  1.00  0.00     0.134 A 
ATOM     69  F   UNL A   1      38.248  32.141  37.534  1.00  0.00    -0.206 F 
ATOM     70  C   UNL A   1      38.849  34.120  38.640  1.00  0.00     0.040 A 
ATOM     71  C   UNL A   1      40.453  35.615  37.647  1.00  0.00     0.040 A 
ATOM     72  F   UNL A   1      41.386  35.121  35.552  1.00  0.00    -0.206 F 
ATOM     73  C   UNL A   1      39.593  35.297  38.696  1.00  0.00     0.006 A 
ENDBRANCH  52  66
BRANCH  53  74
ATOM     74  C   UNL A   1      40.580  27.724  28.397  1.00  0.00     0.057 A 
ATOM     75  C   UNL A   1      41.331  28.122  27.284  1.00  0.00     0.134 A 
ATOM     76  C   UNL A   1      39.944  26.478  28.332  1.00  0.00     0.134 A 
ATOM     77  F   UNL A   1      41.950  29.312  27.280  1.00  0.00    -0.206 F 
ATOM     78  C   UNL A   1      41.426  27.327  26.142  1.00  0.00     0.040 A 
ATOM     79  C   UNL A   1      40.054  25.659  27.206  1.00  0.00     0.040 A 
ATOM     80  F   UNL A   1      39.217  26.033  29.367  1.00  0.00    -0.206 F 
ATOM     81  C   UNL A   1      40.789  26.088  26.103  1.00  0.00     0.006 A 
ENDBRANCH  53  74
BRANCH  65  82
ATOM     82  C   UNL A   1      44.006  28.049  34.449  1.00  0.00     0.057 A 
ATOM     83  C   UNL A   1      45.346  28.439  34.333  1.00  0.00     0.134 A 
ATOM     84  C   UNL A   1      43.734  26.876  35.166  1.00  0.00     0.134 A 
ATOM     85  F   UNL A   1      45.675  29.545  33.649  1.00  0.00    -0.206 F 
ATOM     86  C   UNL A   1      46.377  27.678  34.886  1.00  0.00     0.040 A 
ATOM     87  C   UNL A   1      44.754  26.125  35.751  1.00  0.00     0.040 A 
ATOM     88  F   UNL A   1      42.472  26.451  35.326  1.00  0.00    -0.206 F 
ATOM     89  C   UNL A   1      46.081  26.521  35.605  1.00  0.00     0.006 A 
ENDBRANCH  65  82
ENDBRANCH  39  40
ENDBRANCH  31  34
ENDBRANCH  29  30
ENDBRANCH  28  29
ENDBRANCH   1  28
TORSDOF 16
ENDMDL
