MODEL 1
REMARK VINA RESULT:     -14.1      0.000      0.000
REMARK SMILES Cc1ccc(-c2cnnc(-n3nc(C)c4c3NC(=O)C[C@@H]4c3ccc(C(=O)NCCCNC(=O)c4ccc(-c5c6nc(c(-c7c(F)cccc7F)c7ccc([nH]7)c(-c7c(F)cccc7F)c7nc(c(-c8c(F)cccc8F)c8ccc5[nH]8)C=C7)C=C6)cc4)cc3)n2)cc1
REMARK SMILES IDX 29 1 28 2 26 3 27 4 25 6 22 7 23 8 90 9 24 10 89 11 21 12
REMARK SMILES IDX 11 13 12 14 16 15 13 16 15 17 17 18 14 19 18 20 20 22 19 23
REMARK SMILES IDX 10 24 6 25 7 26 91 27 8 28 9 29 5 30 1 31 2 32 3 33 93 34
REMARK SMILES IDX 4 35 92 36 30 37 31 38 32 39 33 40 34 42 35 43 36 44 88 45
REMARK SMILES IDX 37 46 87 47 38 48 39 49 40 50 81 51 41 52 86 53 80 54 82 55
REMARK SMILES IDX 42 56 85 57 79 58 78 59 43 61 69 62 52 63 68 64 53 65 56 66
REMARK SMILES IDX 67 67 83 68 54 69 55 70 66 72 84 73 57 74 44 75 45 76 50 77
REMARK SMILES IDX 46 78 47 79 49 80 51 81 48 82 70 83 71 84 76 85 72 86 73 87
REMARK SMILES IDX 75 88 77 89 74 90 58 91 59 92 64 93 60 94 61 95 63 96 65 97
REMARK SMILES IDX 62 98
REMARK H PARENT 28 5 17 21 32 41 82 60 56 71
REMARK Flexibility Score: inf
ROOT
ATOM      1  C   UNL A   1      30.938  31.656  26.203  1.00  0.00     0.118 C 
ENDROOT
BRANCH   1   2
ATOM      2  N   UNL A   1      30.278  32.151  24.997  1.00  0.00    -0.352 N 
ATOM      3  C   UNL A   1      29.675  31.443  23.979  1.00  0.00     0.251 C 
ATOM      4  O   UNL A   1      28.962  32.012  23.159  1.00  0.00    -0.269 OA
ATOM      5  H   UNL A   1      30.262  33.130  24.897  1.00  0.00     0.163 HD
BRANCH   3   6
ATOM      6  C   UNL A   1      29.841  29.976  23.902  1.00  0.00     0.039 A 
ATOM      7  C   UNL A   1      30.377  27.268  23.421  1.00  0.00    -0.040 A 
ATOM      8  C   UNL A   1      31.218  28.033  24.255  1.00  0.00     0.005 A 
ATOM      9  C   UNL A   1      29.172  27.839  22.993  1.00  0.00     0.005 A 
ATOM     10  C   UNL A   1      30.952  29.383  24.496  1.00  0.00     0.014 A 
ATOM     11  C   UNL A   1      28.909  29.183  23.238  1.00  0.00     0.014 A 
BRANCH   7  12
ATOM     12  C   UNL A   1      30.848  25.889  23.014  1.00  0.00     0.064 C 
ATOM     13  N   UNL A   1      32.864  23.876  25.243  1.00  0.00    -0.180 N 
ATOM     14  N   UNL A   1      31.908  24.177  26.165  1.00  0.00    -0.168 NA
ATOM     15  C   UNL A   1      32.789  24.782  24.198  1.00  0.00     0.143 A 
ATOM     16  C   UNL A   1      31.000  24.882  25.486  1.00  0.00     0.066 A 
ATOM     17  C   UNL A   1      31.471  25.198  24.182  1.00  0.00     0.026 A 
ATOM     18  N   UNL A   1      33.696  25.254  23.269  1.00  0.00    -0.310 N 
ATOM     19  C   UNL A   1      29.755  25.281  26.189  1.00  0.00     0.069 C 
ATOM     20  C   UNL A   1      33.208  26.084  22.209  1.00  0.00     0.226 C 
ATOM     21  H   UNL A   1      34.651  25.025  23.333  1.00  0.00     0.171 HD
ATOM     22  C   UNL A   1      31.775  25.895  21.801  1.00  0.00     0.113 C 
ATOM     23  O   UNL A   1      34.028  26.790  21.626  1.00  0.00    -0.275 OA
BRANCH  13  24
ATOM     24  C   UNL A   1      33.501  22.601  25.244  1.00  0.00     0.272 A 
ATOM     25  C   UNL A   1      35.316  21.238  25.000  1.00  0.00     0.095 A 
ATOM     26  C   UNL A   1      34.467  20.175  24.742  1.00  0.00     0.164 A 
ATOM     27  N   UNL A   1      34.851  22.503  25.209  1.00  0.00    -0.208 NA
ATOM     28  N   UNL A   1      33.138  20.328  24.775  1.00  0.00    -0.153 NA
ATOM     29  N   UNL A   1      32.654  21.550  25.073  1.00  0.00    -0.109 NA
BRANCH  25  30
ATOM     30  C   UNL A   1      36.753  21.000  25.182  1.00  0.00     0.002 A 
ATOM     31  C   UNL A   1      40.915  20.261  26.125  1.00  0.00     0.044 C 
ATOM     32  C   UNL A   1      39.474  20.524  25.800  1.00  0.00    -0.051 A 
ATOM     33  C   UNL A   1      38.669  19.494  25.306  1.00  0.00     0.004 A 
ATOM     34  C   UNL A   1      38.918  21.793  25.978  1.00  0.00     0.004 A 
ATOM     35  C   UNL A   1      37.323  19.728  25.001  1.00  0.00     0.011 A 
ATOM     36  C   UNL A   1      37.575  22.029  25.668  1.00  0.00     0.011 A 
ENDBRANCH  25  30
ENDBRANCH  13  24
ENDBRANCH   7  12
ENDBRANCH   3   6
ENDBRANCH   1   2
BRANCH   1  37
ATOM     37  C   UNL A   1      31.846  32.692  26.857  1.00  0.00     0.042 C 
BRANCH  37  38
ATOM     38  C   UNL A   1      33.072  32.107  27.533  1.00  0.00     0.118 C 
BRANCH  38  39
ATOM     39  N   UNL A   1      33.399  30.750  27.121  1.00  0.00    -0.352 N 
ATOM     40  C   UNL A   1      34.538  30.002  27.363  1.00  0.00     0.251 C 
ATOM     41  H   UNL A   1      32.706  30.296  26.589  1.00  0.00     0.163 HD
ATOM     42  O   UNL A   1      34.641  28.888  26.854  1.00  0.00    -0.269 OA
BRANCH  40  43
ATOM     43  C   UNL A   1      35.532  30.448  28.374  1.00  0.00     0.039 A 
ATOM     44  C   UNL A   1      36.447  31.429  27.966  1.00  0.00     0.014 A 
ATOM     45  C   UNL A   1      35.777  29.709  29.522  1.00  0.00     0.014 A 
ATOM     46  C   UNL A   1      37.730  31.420  28.498  1.00  0.00     0.010 A 
ATOM     47  C   UNL A   1      37.074  29.591  29.950  1.00  0.00     0.010 A 
ATOM     48  C   UNL A   1      38.057  30.399  29.381  1.00  0.00    -0.014 A 
BRANCH  48  49
ATOM     49  C   UNL A   1      39.407  30.071  29.780  1.00  0.00     0.031 A 
ATOM     50  C   UNL A   1      40.038  28.886  29.185  1.00  0.00     0.074 A 
ATOM     51  C   UNL A   1      40.088  30.946  30.550  1.00  0.00     0.049 A 
ATOM     52  N   UNL A   1      41.014  28.247  29.720  1.00  0.00    -0.248 NA
ATOM     53  C   UNL A   1      39.584  28.304  27.924  1.00  0.00     0.031 C 
ATOM     54  C   UNL A   1      41.519  30.973  30.830  1.00  0.00     0.029 A 
ATOM     55  N   UNL A   1      39.550  31.916  31.408  1.00  0.00    -0.354 N 
ATOM     56  C   UNL A   1      41.505  27.384  28.770  1.00  0.00     0.074 A 
ATOM     57  C   UNL A   1      40.537  27.396  27.700  1.00  0.00     0.031 C 
ATOM     58  C   UNL A   1      41.724  31.662  31.967  1.00  0.00     0.029 A 
ATOM     59  C   UNL A   1      40.416  31.968  32.521  1.00  0.00     0.049 A 
ATOM     60  H   UNL A   1      38.736  32.450  31.263  1.00  0.00     0.167 HD
ATOM     61  C   UNL A   1      42.758  26.877  28.928  1.00  0.00     0.037 A 
ATOM     62  C   UNL A   1      39.979  31.571  33.754  1.00  0.00     0.037 A 
ATOM     63  C   UNL A   1      43.346  27.355  30.175  1.00  0.00     0.049 A 
ATOM     64  C   UNL A   1      40.733  30.372  34.283  1.00  0.00     0.074 A 
ATOM     65  C   UNL A   1      44.176  28.429  30.455  1.00  0.00     0.029 A 
ATOM     66  N   UNL A   1      42.788  26.964  31.387  1.00  0.00    -0.354 N 
ATOM     67  N   UNL A   1      41.367  29.518  33.525  1.00  0.00    -0.248 NA
ATOM     68  C   UNL A   1      40.867  30.063  35.703  1.00  0.00     0.031 C 
ATOM     69  C   UNL A   1      44.068  28.720  31.838  1.00  0.00     0.029 A 
ATOM     70  C   UNL A   1      43.192  27.809  32.402  1.00  0.00     0.049 A 
ATOM     71  H   UNL A   1      42.187  26.192  31.505  1.00  0.00     0.167 HD
ATOM     72  C   UNL A   1      41.999  28.585  34.310  1.00  0.00     0.074 A 
ATOM     73  C   UNL A   1      41.656  28.974  35.665  1.00  0.00     0.031 C 
ATOM     74  C   UNL A   1      42.765  27.584  33.776  1.00  0.00     0.037 A 
BRANCH  61  75
ATOM     75  C   UNL A   1      43.530  26.236  27.806  1.00  0.00     0.057 A 
ATOM     76  C   UNL A   1      44.170  27.019  26.828  1.00  0.00     0.134 A 
ATOM     77  C   UNL A   1      43.643  24.848  27.612  1.00  0.00     0.134 A 
ATOM     78  F   UNL A   1      44.214  28.354  26.911  1.00  0.00    -0.206 F 
ATOM     79  C   UNL A   1      44.791  26.471  25.700  1.00  0.00     0.040 A 
ATOM     80  C   UNL A   1      44.219  24.286  26.464  1.00  0.00     0.040 A 
ATOM     81  F   UNL A   1      43.231  23.978  28.546  1.00  0.00    -0.206 F 
ATOM     82  C   UNL A   1      44.790  25.100  25.496  1.00  0.00     0.006 A 
ENDBRANCH  61  75
BRANCH  62  83
ATOM     83  C   UNL A   1      38.535  31.877  33.964  1.00  0.00     0.057 A 
ATOM     84  C   UNL A   1      38.189  33.206  34.281  1.00  0.00     0.134 A 
ATOM     85  C   UNL A   1      37.527  31.074  33.422  1.00  0.00     0.134 A 
ATOM     86  F   UNL A   1      39.105  34.030  34.815  1.00  0.00    -0.206 F 
ATOM     87  C   UNL A   1      36.954  33.756  33.923  1.00  0.00     0.040 A 
ATOM     88  C   UNL A   1      36.278  31.611  33.082  1.00  0.00     0.040 A 
ATOM     89  F   UNL A   1      37.773  29.800  33.088  1.00  0.00    -0.206 F 
ATOM     90  C   UNL A   1      36.009  32.966  33.280  1.00  0.00     0.006 A 
ENDBRANCH  62  83
BRANCH  74  91
ATOM     91  C   UNL A   1      43.283  26.349  34.486  1.00  0.00     0.057 A 
ATOM     92  C   UNL A   1      42.472  25.383  35.097  1.00  0.00     0.134 A 
ATOM     93  C   UNL A   1      44.660  26.013  34.430  1.00  0.00     0.134 A 
ATOM     94  F   UNL A   1      41.139  25.497  35.131  1.00  0.00    -0.206 F 
ATOM     95  C   UNL A   1      42.991  24.204  35.653  1.00  0.00     0.040 A 
ATOM     96  C   UNL A   1      45.177  24.811  34.920  1.00  0.00     0.040 A 
ATOM     97  F   UNL A   1      45.571  26.822  33.870  1.00  0.00    -0.206 F 
ATOM     98  C   UNL A   1      44.344  23.906  35.551  1.00  0.00     0.006 A 
ENDBRANCH  74  91
ENDBRANCH  48  49
ENDBRANCH  40  43
ENDBRANCH  38  39
ENDBRANCH  37  38
ENDBRANCH   1  37
TORSDOF 13
ENDMDL
MODEL 2
REMARK VINA RESULT:     -14.1      1.027      2.108
REMARK SMILES Cc1ccc(-c2cnnc(-n3nc(C)c4c3NC(=O)C[C@@H]4c3ccc(C(=O)NCCCNC(=O)c4ccc(-c5c6nc(c(-c7c(F)cccc7F)c7ccc([nH]7)c(-c7c(F)cccc7F)c7nc(c(-c8c(F)cccc8F)c8ccc5[nH]8)C=C7)C=C6)cc4)cc3)n2)cc1
REMARK SMILES IDX 29 1 28 2 26 3 27 4 25 6 22 7 23 8 90 9 24 10 89 11 21 12
REMARK SMILES IDX 11 13 12 14 16 15 13 16 15 17 17 18 14 19 18 20 20 22 19 23
REMARK SMILES IDX 10 24 6 25 7 26 91 27 8 28 9 29 5 30 1 31 2 32 3 33 93 34
REMARK SMILES IDX 4 35 92 36 30 37 31 38 32 39 33 40 34 42 35 43 36 44 88 45
REMARK SMILES IDX 37 46 87 47 38 48 39 49 40 50 81 51 41 52 86 53 80 54 82 55
REMARK SMILES IDX 42 56 85 57 79 58 78 59 43 61 69 62 52 63 68 64 53 65 56 66
REMARK SMILES IDX 67 67 83 68 54 69 55 70 66 72 84 73 57 74 44 75 45 76 50 77
REMARK SMILES IDX 46 78 47 79 49 80 51 81 48 82 70 83 71 84 76 85 72 86 73 87
REMARK SMILES IDX 75 88 77 89 74 90 58 91 59 92 64 93 60 94 61 95 63 96 65 97
REMARK SMILES IDX 62 98
REMARK H PARENT 28 5 17 21 32 41 82 60 56 71
REMARK Flexibility Score: inf
ROOT
ATOM      1  C   UNL A   1      30.917  31.513  26.269  1.00  0.00     0.118 C 
ENDROOT
BRANCH   1   2
ATOM      2  N   UNL A   1      30.172  31.983  25.102  1.00  0.00    -0.352 N 
ATOM      3  C   UNL A   1      29.595  31.254  24.084  1.00  0.00     0.251 C 
ATOM      4  O   UNL A   1      28.806  31.782  23.308  1.00  0.00    -0.269 OA
ATOM      5  H   UNL A   1      30.069  32.959  25.033  1.00  0.00     0.163 HD
BRANCH   3   6
ATOM      6  C   UNL A   1      29.883  29.810  23.956  1.00  0.00     0.039 A 
ATOM      7  C   UNL A   1      30.594  27.168  23.352  1.00  0.00    -0.040 A 
ATOM      8  C   UNL A   1      31.466  28.002  24.082  1.00  0.00     0.005 A 
ATOM      9  C   UNL A   1      29.296  27.627  23.101  1.00  0.00     0.005 A 
ATOM     10  C   UNL A   1      31.113  29.319  24.384  1.00  0.00     0.014 A 
ATOM     11  C   UNL A   1      28.946  28.939  23.405  1.00  0.00     0.014 A 
BRANCH   7  12
ATOM     12  C   UNL A   1      31.131  25.842  22.858  1.00  0.00     0.064 C 
ATOM     13  N   UNL A   1      33.574  23.989  24.777  1.00  0.00    -0.180 N 
ATOM     14  N   UNL A   1      32.715  24.191  25.816  1.00  0.00    -0.168 NA
ATOM     15  C   UNL A   1      33.292  24.899  23.772  1.00  0.00     0.143 A 
ATOM     16  C   UNL A   1      31.672  24.820  25.269  1.00  0.00     0.066 A 
ATOM     17  C   UNL A   1      31.951  25.194  23.925  1.00  0.00     0.026 A 
ATOM     18  N   UNL A   1      34.033  25.462  22.752  1.00  0.00    -0.310 N 
ATOM     19  C   UNL A   1      30.493  25.097  26.126  1.00  0.00     0.069 C 
ATOM     20  C   UNL A   1      33.348  26.259  21.779  1.00  0.00     0.226 C 
ATOM     21  H   UNL A   1      35.005  25.319  22.694  1.00  0.00     0.171 HD
ATOM     22  C   UNL A   1      31.898  25.947  21.542  1.00  0.00     0.113 C 
ATOM     23  O   UNL A   1      34.026  27.044  21.118  1.00  0.00    -0.275 OA
BRANCH  13  24
ATOM     24  C   UNL A   1      34.315  22.776  24.671  1.00  0.00     0.272 A 
ATOM     25  C   UNL A   1      34.584  20.529  24.964  1.00  0.00     0.095 A 
ATOM     26  C   UNL A   1      35.957  20.700  24.924  1.00  0.00     0.164 A 
ATOM     27  N   UNL A   1      33.720  21.581  24.889  1.00  0.00    -0.208 NA
ATOM     28  N   UNL A   1      36.497  21.908  24.721  1.00  0.00    -0.153 NA
ATOM     29  N   UNL A   1      35.659  22.949  24.549  1.00  0.00    -0.109 NA
BRANCH  25  30
ATOM     30  C   UNL A   1      34.015  19.176  24.961  1.00  0.00     0.002 A 
ATOM     31  C   UNL A   1      32.629  15.081  25.230  1.00  0.00     0.044 C 
ATOM     32  C   UNL A   1      33.114  16.497  25.132  1.00  0.00    -0.051 A 
ATOM     33  C   UNL A   1      32.458  17.512  25.834  1.00  0.00     0.004 A 
ATOM     34  C   UNL A   1      34.216  16.825  24.339  1.00  0.00     0.004 A 
ATOM     35  C   UNL A   1      32.903  18.836  25.751  1.00  0.00     0.011 A 
ATOM     36  C   UNL A   1      34.658  18.149  24.252  1.00  0.00     0.011 A 
ENDBRANCH  25  30
ENDBRANCH  13  24
ENDBRANCH   7  12
ENDBRANCH   3   6
ENDBRANCH   1   2
BRANCH   1  37
ATOM     37  C   UNL A   1      31.946  32.522  26.768  1.00  0.00     0.042 C 
BRANCH  37  38
ATOM     38  C   UNL A   1      33.098  31.906  27.538  1.00  0.00     0.118 C 
BRANCH  38  39
ATOM     39  N   UNL A   1      33.433  30.546  27.140  1.00  0.00    -0.352 N 
ATOM     40  C   UNL A   1      34.585  29.814  27.370  1.00  0.00     0.251 C 
ATOM     41  H   UNL A   1      32.735  30.076  26.629  1.00  0.00     0.163 HD
ATOM     42  O   UNL A   1      34.690  28.694  26.876  1.00  0.00    -0.269 OA
BRANCH  40  43
ATOM     43  C   UNL A   1      35.593  30.287  28.354  1.00  0.00     0.039 A 
ATOM     44  C   UNL A   1      36.534  31.218  27.892  1.00  0.00     0.014 A 
ATOM     45  C   UNL A   1      35.820  29.604  29.540  1.00  0.00     0.014 A 
ATOM     46  C   UNL A   1      37.818  31.202  28.422  1.00  0.00     0.010 A 
ATOM     47  C   UNL A   1      37.115  29.473  29.972  1.00  0.00     0.010 A 
ATOM     48  C   UNL A   1      38.119  30.222  29.360  1.00  0.00    -0.014 A 
BRANCH  48  49
ATOM     49  C   UNL A   1      39.461  29.878  29.774  1.00  0.00     0.031 A 
ATOM     50  C   UNL A   1      40.062  28.652  29.232  1.00  0.00     0.074 A 
ATOM     51  C   UNL A   1      40.163  30.769  30.506  1.00  0.00     0.049 A 
ATOM     52  N   UNL A   1      41.022  28.013  29.796  1.00  0.00    -0.248 NA
ATOM     53  C   UNL A   1      39.593  28.026  27.998  1.00  0.00     0.031 C 
ATOM     54  C   UNL A   1      41.594  30.772  30.785  1.00  0.00     0.029 A 
ATOM     55  N   UNL A   1      39.649  31.788  31.319  1.00  0.00    -0.354 N 
ATOM     56  C   UNL A   1      41.490  27.097  28.885  1.00  0.00     0.074 A 
ATOM     57  C   UNL A   1      40.523  27.087  27.815  1.00  0.00     0.031 C 
ATOM     58  C   UNL A   1      41.816  31.505  31.891  1.00  0.00     0.029 A 
ATOM     59  C   UNL A   1      40.516  31.868  32.430  1.00  0.00     0.049 A 
ATOM     60  H   UNL A   1      38.849  32.336  31.150  1.00  0.00     0.167 HD
ATOM     61  C   UNL A   1      42.731  26.567  29.068  1.00  0.00     0.037 A 
ATOM     62  C   UNL A   1      40.070  31.537  33.678  1.00  0.00     0.037 A 
ATOM     63  C   UNL A   1      43.331  27.084  30.293  1.00  0.00     0.049 A 
ATOM     64  C   UNL A   1      40.793  30.344  34.260  1.00  0.00     0.074 A 
ATOM     65  C   UNL A   1      44.187  28.148  30.526  1.00  0.00     0.029 A 
ATOM     66  N   UNL A   1      42.762  26.761  31.520  1.00  0.00    -0.354 N 
ATOM     67  N   UNL A   1      41.406  29.441  33.542  1.00  0.00    -0.248 NA
ATOM     68  C   UNL A   1      40.919  30.094  35.693  1.00  0.00     0.031 C 
ATOM     69  C   UNL A   1      44.086  28.503  31.894  1.00  0.00     0.029 A 
ATOM     70  C   UNL A   1      43.188  27.640  32.497  1.00  0.00     0.049 A 
ATOM     71  H   UNL A   1      42.143  26.010  31.671  1.00  0.00     0.167 HD
ATOM     72  C   UNL A   1      42.014  28.529  34.368  1.00  0.00     0.074 A 
ATOM     73  C   UNL A   1      41.681  28.986  35.704  1.00  0.00     0.031 C 
ATOM     74  C   UNL A   1      42.755  27.487  33.879  1.00  0.00     0.037 A 
BRANCH  61  75
ATOM     75  C   UNL A   1      43.486  25.857  27.976  1.00  0.00     0.057 A 
ATOM     76  C   UNL A   1      43.631  24.457  27.988  1.00  0.00     0.134 A 
ATOM     77  C   UNL A   1      44.130  26.504  26.906  1.00  0.00     0.134 A 
ATOM     78  F   UNL A   1      43.018  23.693  28.899  1.00  0.00    -0.206 F 
ATOM     79  C   UNL A   1      44.427  23.766  27.067  1.00  0.00     0.040 A 
ATOM     80  C   UNL A   1      44.969  25.832  26.006  1.00  0.00     0.040 A 
ATOM     81  F   UNL A   1      43.944  27.810  26.669  1.00  0.00    -0.206 F 
ATOM     82  C   UNL A   1      45.127  24.456  26.090  1.00  0.00     0.006 A 
ENDBRANCH  61  75
BRANCH  62  83
ATOM     83  C   UNL A   1      38.633  31.888  33.873  1.00  0.00     0.057 A 
ATOM     84  C   UNL A   1      38.319  33.240  34.113  1.00  0.00     0.134 A 
ATOM     85  C   UNL A   1      37.605  31.078  33.381  1.00  0.00     0.134 A 
ATOM     86  F   UNL A   1      39.255  34.072  34.597  1.00  0.00    -0.206 F 
ATOM     87  C   UNL A   1      37.096  33.797  33.726  1.00  0.00     0.040 A 
ATOM     88  C   UNL A   1      36.368  31.623  33.013  1.00  0.00     0.040 A 
ATOM     89  F   UNL A   1      37.821  29.782  33.120  1.00  0.00    -0.206 F 
ATOM     90  C   UNL A   1      36.131  32.993  33.132  1.00  0.00     0.006 A 
ENDBRANCH  62  83
BRANCH  74  91
ATOM     91  C   UNL A   1      43.242  26.272  34.643  1.00  0.00     0.057 A 
ATOM     92  C   UNL A   1      42.407  25.293  35.200  1.00  0.00     0.134 A 
ATOM     93  C   UNL A   1      44.626  25.967  34.703  1.00  0.00     0.134 A 
ATOM     94  F   UNL A   1      41.073  25.376  35.125  1.00  0.00    -0.206 F 
ATOM     95  C   UNL A   1      42.906  24.133  35.810  1.00  0.00     0.040 A 
ATOM     96  C   UNL A   1      45.130  24.783  35.247  1.00  0.00     0.040 A 
ATOM     97  F   UNL A   1      45.560  26.792  34.207  1.00  0.00    -0.206 F 
ATOM     98  C   UNL A   1      44.268  23.865  35.820  1.00  0.00     0.006 A 
ENDBRANCH  74  91
ENDBRANCH  48  49
ENDBRANCH  40  43
ENDBRANCH  38  39
ENDBRANCH  37  38
ENDBRANCH   1  37
TORSDOF 13
ENDMDL
MODEL 3
REMARK VINA RESULT:     -13.8      3.285      9.875
REMARK SMILES Cc1ccc(-c2cnnc(-n3nc(C)c4c3NC(=O)C[C@@H]4c3ccc(C(=O)NCCCNC(=O)c4ccc(-c5c6nc(c(-c7c(F)cccc7F)c7ccc([nH]7)c(-c7c(F)cccc7F)c7nc(c(-c8c(F)cccc8F)c8ccc5[nH]8)C=C7)C=C6)cc4)cc3)n2)cc1
REMARK SMILES IDX 29 1 28 2 26 3 27 4 25 6 22 7 23 8 90 9 24 10 89 11 21 12
REMARK SMILES IDX 11 13 12 14 16 15 13 16 15 17 17 18 14 19 18 20 20 22 19 23
REMARK SMILES IDX 10 24 6 25 7 26 91 27 8 28 9 29 5 30 1 31 2 32 3 33 93 34
REMARK SMILES IDX 4 35 92 36 30 37 31 38 32 39 33 40 34 42 35 43 36 44 88 45
REMARK SMILES IDX 37 46 87 47 38 48 39 49 40 50 81 51 41 52 86 53 80 54 82 55
REMARK SMILES IDX 42 56 85 57 79 58 78 59 43 61 69 62 52 63 68 64 53 65 56 66
REMARK SMILES IDX 67 67 83 68 54 69 55 70 66 72 84 73 57 74 44 75 45 76 50 77
REMARK SMILES IDX 46 78 47 79 49 80 51 81 48 82 70 83 71 84 76 85 72 86 73 87
REMARK SMILES IDX 75 88 77 89 74 90 58 91 59 92 64 93 60 94 61 95 63 96 65 97
REMARK SMILES IDX 62 98
REMARK H PARENT 28 5 17 21 32 41 82 60 56 71
REMARK Flexibility Score: inf
ROOT
ATOM      1  C   UNL A   1      38.583  20.482  25.711  1.00  0.00     0.118 C 
ENDROOT
BRANCH   1   2
ATOM      2  N   UNL A   1      38.893  21.909  25.783  1.00  0.00    -0.352 N 
ATOM      3  C   UNL A   1      38.036  22.987  25.829  1.00  0.00     0.251 C 
ATOM      4  O   UNL A   1      38.451  24.103  26.124  1.00  0.00    -0.269 OA
ATOM      5  H   UNL A   1      39.852  22.131  25.800  1.00  0.00     0.163 HD
BRANCH   3   6
ATOM      6  C   UNL A   1      36.593  22.793  25.573  1.00  0.00     0.039 A 
ATOM      7  C   UNL A   1      33.864  22.804  24.937  1.00  0.00    -0.040 A 
ATOM      8  C   UNL A   1      34.817  22.315  24.021  1.00  0.00     0.005 A 
ATOM      9  C   UNL A   1      34.290  23.108  26.236  1.00  0.00     0.005 A 
ATOM     10  C   UNL A   1      36.177  22.308  24.336  1.00  0.00     0.014 A 
ATOM     11  C   UNL A   1      35.646  23.098  26.548  1.00  0.00     0.014 A 
BRANCH   7  12
ATOM     12  C   UNL A   1      32.447  23.002  24.447  1.00  0.00     0.064 C 
ATOM     13  N   UNL A   1      31.038  26.317  24.107  1.00  0.00    -0.180 N 
ATOM     14  N   UNL A   1      32.187  26.591  23.428  1.00  0.00    -0.168 NA
ATOM     15  C   UNL A   1      31.223  25.175  24.868  1.00  0.00     0.143 A 
ATOM     16  C   UNL A   1      32.833  25.423  23.380  1.00  0.00     0.066 A 
ATOM     17  C   UNL A   1      32.191  24.452  24.198  1.00  0.00     0.026 A 
ATOM     18  N   UNL A   1      30.645  24.689  26.026  1.00  0.00    -0.310 N 
ATOM     19  C   UNL A   1      34.096  25.353  22.603  1.00  0.00     0.069 C 
ATOM     20  C   UNL A   1      30.981  23.361  26.442  1.00  0.00     0.226 C 
ATOM     21  H   UNL A   1      30.020  25.239  26.549  1.00  0.00     0.171 HD
ATOM     22  C   UNL A   1      31.392  22.394  25.369  1.00  0.00     0.113 C 
ATOM     23  O   UNL A   1      30.780  23.074  27.621  1.00  0.00    -0.275 OA
BRANCH  13  24
ATOM     24  C   UNL A   1      29.803  26.916  23.721  1.00  0.00     0.272 A 
ATOM     25  C   UNL A   1      28.497  28.709  23.187  1.00  0.00     0.095 A 
ATOM     26  C   UNL A   1      27.374  27.980  23.537  1.00  0.00     0.164 A 
ATOM     27  N   UNL A   1      29.758  28.207  23.321  1.00  0.00    -0.208 NA
ATOM     28  N   UNL A   1      27.474  26.708  23.943  1.00  0.00    -0.153 NA
ATOM     29  N   UNL A   1      28.705  26.160  23.992  1.00  0.00    -0.109 NA
BRANCH  25  30
ATOM     30  C   UNL A   1      28.347  30.015  22.535  1.00  0.00     0.002 A 
ATOM     31  C   UNL A   1      27.499  33.782  20.571  1.00  0.00     0.044 C 
ATOM     32  C   UNL A   1      27.793  32.474  21.245  1.00  0.00    -0.051 A 
ATOM     33  C   UNL A   1      27.924  32.416  22.636  1.00  0.00     0.004 A 
ATOM     34  C   UNL A   1      27.947  31.302  20.501  1.00  0.00     0.004 A 
ATOM     35  C   UNL A   1      28.197  31.202  23.274  1.00  0.00     0.011 A 
ATOM     36  C   UNL A   1      28.224  30.089  21.138  1.00  0.00     0.011 A 
ENDBRANCH  25  30
ENDBRANCH  13  24
ENDBRANCH   7  12
ENDBRANCH   3   6
ENDBRANCH   1   2
BRANCH   1  37
ATOM     37  C   UNL A   1      39.825  19.598  25.732  1.00  0.00     0.042 C 
BRANCH  37  38
ATOM     38  C   UNL A   1      40.808  19.931  26.839  1.00  0.00     0.118 C 
BRANCH  38  39
ATOM     39  N   UNL A   1      42.122  20.350  26.374  1.00  0.00    -0.352 N 
ATOM     40  C   UNL A   1      42.617  21.624  26.152  1.00  0.00     0.251 C 
ATOM     41  H   UNL A   1      42.753  19.619  26.188  1.00  0.00     0.163 HD
ATOM     42  O   UNL A   1      43.745  21.753  25.682  1.00  0.00    -0.269 OA
BRANCH  40  43
ATOM     43  C   UNL A   1      41.882  22.815  26.650  1.00  0.00     0.039 A 
ATOM     44  C   UNL A   1      41.910  23.957  25.838  1.00  0.00     0.014 A 
ATOM     45  C   UNL A   1      41.492  22.920  27.978  1.00  0.00     0.014 A 
ATOM     46  C   UNL A   1      41.886  25.212  26.433  1.00  0.00     0.010 A 
ATOM     47  C   UNL A   1      41.616  24.140  28.592  1.00  0.00     0.010 A 
ATOM     48  C   UNL A   1      41.885  25.269  27.821  1.00  0.00    -0.014 A 
BRANCH  48  49
ATOM     49  C   UNL A   1      42.165  26.464  28.586  1.00  0.00     0.031 A 
ATOM     50  C   UNL A   1      41.047  27.357  28.914  1.00  0.00     0.074 A 
ATOM     51  C   UNL A   1      43.402  26.629  29.102  1.00  0.00     0.049 A 
ATOM     52  N   UNL A   1      41.180  28.602  29.198  1.00  0.00    -0.248 NA
ATOM     53  C   UNL A   1      39.657  26.906  28.919  1.00  0.00     0.031 C 
ATOM     54  C   UNL A   1      43.829  27.580  30.123  1.00  0.00     0.029 A 
ATOM     55  N   UNL A   1      44.594  26.054  28.643  1.00  0.00    -0.354 N 
ATOM     56  C   UNL A   1      39.978  29.035  29.703  1.00  0.00     0.074 A 
ATOM     57  C   UNL A   1      39.041  27.970  29.437  1.00  0.00     0.031 C 
ATOM     58  C   UNL A   1      45.158  27.756  30.017  1.00  0.00     0.029 A 
ATOM     59  C   UNL A   1      45.592  27.035  28.832  1.00  0.00     0.049 A 
ATOM     60  H   UNL A   1      44.713  25.152  28.267  1.00  0.00     0.167 HD
ATOM     61  C   UNL A   1      39.949  30.183  30.434  1.00  0.00     0.037 A 
ATOM     62  C   UNL A   1      46.213  27.604  27.756  1.00  0.00     0.037 A 
ATOM     63  C   UNL A   1      41.281  30.776  30.502  1.00  0.00     0.049 A 
ATOM     64  C   UNL A   1      45.953  29.090  27.651  1.00  0.00     0.074 A 
ATOM     65  C   UNL A   1      42.293  30.673  31.443  1.00  0.00     0.029 A 
ATOM     66  N   UNL A   1      41.872  31.261  29.341  1.00  0.00    -0.354 N 
ATOM     67  N   UNL A   1      44.923  29.690  28.185  1.00  0.00    -0.248 NA
ATOM     68  C   UNL A   1      46.851  30.022  26.975  1.00  0.00     0.031 C 
ATOM     69  C   UNL A   1      43.511  31.043  30.822  1.00  0.00     0.029 A 
ATOM     70  C   UNL A   1      43.236  31.395  29.512  1.00  0.00     0.049 A 
ATOM     71  H   UNL A   1      41.386  31.478  28.512  1.00  0.00     0.167 HD
ATOM     72  C   UNL A   1      45.011  31.042  27.965  1.00  0.00     0.074 A 
ATOM     73  C   UNL A   1      46.239  31.197  27.206  1.00  0.00     0.031 C 
ATOM     74  C   UNL A   1      44.075  31.919  28.443  1.00  0.00     0.037 A 
BRANCH  61  75
ATOM     75  C   UNL A   1      38.797  30.555  31.328  1.00  0.00     0.057 A 
ATOM     76  C   UNL A   1      37.703  31.288  30.832  1.00  0.00     0.134 A 
ATOM     77  C   UNL A   1      38.728  30.255  32.701  1.00  0.00     0.134 A 
ATOM     78  F   UNL A   1      37.586  31.587  29.533  1.00  0.00    -0.206 F 
ATOM     79  C   UNL A   1      36.672  31.764  31.650  1.00  0.00     0.040 A 
ATOM     80  C   UNL A   1      37.729  30.766  33.540  1.00  0.00     0.040 A 
ATOM     81  F   UNL A   1      39.610  29.426  33.277  1.00  0.00    -0.206 F 
ATOM     82  C   UNL A   1      36.697  31.532  33.016  1.00  0.00     0.006 A 
ENDBRANCH  61  75
BRANCH  62  83
ATOM     83  C   UNL A   1      46.366  26.646  26.624  1.00  0.00     0.057 A 
ATOM     84  C   UNL A   1      47.352  25.647  26.744  1.00  0.00     0.134 A 
ATOM     85  C   UNL A   1      45.327  26.403  25.721  1.00  0.00     0.134 A 
ATOM     86  F   UNL A   1      48.385  25.820  27.584  1.00  0.00    -0.206 F 
ATOM     87  C   UNL A   1      47.223  24.400  26.124  1.00  0.00     0.040 A 
ATOM     88  C   UNL A   1      45.203  25.165  25.076  1.00  0.00     0.040 A 
ATOM     89  F   UNL A   1      44.346  27.299  25.550  1.00  0.00    -0.206 F 
ATOM     90  C   UNL A   1      46.119  24.141  25.321  1.00  0.00     0.006 A 
ENDBRANCH  62  83
BRANCH  74  91
ATOM     91  C   UNL A   1      43.897  33.373  28.052  1.00  0.00     0.057 A 
ATOM     92  C   UNL A   1      43.933  34.449  28.948  1.00  0.00     0.134 A 
ATOM     93  C   UNL A   1      43.841  33.747  26.685  1.00  0.00     0.134 A 
ATOM     94  F   UNL A   1      44.098  34.269  30.264  1.00  0.00    -0.206 F 
ATOM     95  C   UNL A   1      43.866  35.786  28.526  1.00  0.00     0.040 A 
ATOM     96  C   UNL A   1      43.842  35.075  26.251  1.00  0.00     0.040 A 
ATOM     97  F   UNL A   1      43.810  32.840  25.697  1.00  0.00    -0.206 F 
ATOM     98  C   UNL A   1      43.838  36.103  27.175  1.00  0.00     0.006 A 
ENDBRANCH  74  91
ENDBRANCH  48  49
ENDBRANCH  40  43
ENDBRANCH  38  39
ENDBRANCH  37  38
ENDBRANCH   1  37
TORSDOF 13
ENDMDL
