MODEL 1
REMARK VINA RESULT:     -12.8      0.000      0.000
REMARK SMILES C[C@@]1(C(=O)c2ccccc2N)[C@H](C(=O)NCCCNC(=O)c2ccc(-c3c4nc(c(-c5c(F)cccc5F)c5ccc([nH]5)c(-c5c(F)cccc5F)c5nc(c(-c6c(F)cccc6F)c6ccc3[nH]6)C=C5)C=C4)cc2)[C@@H]1C(=O)N1CCOCC1
REMARK SMILES IDX 16 1 15 2 13 3 14 4 12 6 1 7 2 8 76 9 3 10 4 11 5 12 6 13
REMARK SMILES IDX 10 14 7 15 9 16 8 17 11 18 77 21 78 22 79 23 80 24 84 25
REMARK SMILES IDX 81 26 83 27 82 28 17 29 18 30 19 31 20 32 21 34 22 35 23 36
REMARK SMILES IDX 75 37 24 38 74 39 25 40 26 41 27 42 68 43 28 44 73 45 67 46
REMARK SMILES IDX 69 47 29 48 72 49 66 50 65 51 30 53 56 54 39 55 55 56 40 57
REMARK SMILES IDX 43 58 54 59 70 60 41 61 42 62 53 64 71 65 44 66 31 67 32 68
REMARK SMILES IDX 37 69 33 70 34 71 36 72 38 73 35 74 57 75 58 76 63 77 59 78
REMARK SMILES IDX 60 79 62 80 64 81 61 82 45 83 46 84 51 85 47 86 48 87 50 88
REMARK SMILES IDX 52 89 49 90
REMARK H PARENT 15 5 11 19 11 20 19 33 69 52 43 63
REMARK Flexibility Score: inf
ROOT
ATOM      1  C   UNL A   1      36.311  19.618  24.766  1.00  0.00     0.117 C 
ENDROOT
BRANCH   1   2
ATOM      2  N   UNL A   1      35.773  20.587  25.698  1.00  0.00    -0.356 N 
ATOM      3  C   UNL A   1      35.028  21.724  25.601  1.00  0.00     0.224 C 
ATOM      4  O   UNL A   1      34.874  22.320  26.671  1.00  0.00    -0.275 OA
ATOM      5  H   UNL A   1      36.003  20.372  26.630  1.00  0.00     0.163 HD
BRANCH   3   6
ATOM      6  C   UNL A   1      34.333  22.319  24.427  1.00  0.00     0.106 C 
ATOM      7  C   UNL A   1      32.767  22.033  22.362  1.00  0.00     0.022 C 
ATOM      8  C   UNL A   1      32.883  22.108  23.905  1.00  0.00     0.056 C 
ATOM      9  C   UNL A   1      33.410  23.470  24.331  1.00  0.00     0.106 C 
BRANCH   8  10
ATOM     10  C   UNL A   1      32.244  20.901  24.555  1.00  0.00     0.172 C 
ATOM     11  O   UNL A   1      31.403  21.189  25.410  1.00  0.00    -0.293 OA
BRANCH  10  12
ATOM     12  C   UNL A   1      32.528  19.436  24.395  1.00  0.00     0.041 A 
ATOM     13  C   UNL A   1      32.468  18.976  23.052  1.00  0.00     0.014 A 
ATOM     14  C   UNL A   1      32.932  18.519  25.377  1.00  0.00     0.042 A 
ATOM     15  C   UNL A   1      32.898  17.703  22.673  1.00  0.00     0.001 A 
ATOM     16  C   UNL A   1      33.408  17.252  24.971  1.00  0.00     0.026 A 
ATOM     17  C   UNL A   1      33.405  16.849  23.636  1.00  0.00     0.002 A 
BRANCH  14  18
ATOM     18  N   UNL A   1      32.903  18.765  26.731  1.00  0.00    -0.398 N 
ATOM     19  H   UNL A   1      32.937  19.691  27.065  1.00  0.00     0.156 HD
ATOM     20  H   UNL A   1      32.847  18.015  27.366  1.00  0.00     0.156 HD
ENDBRANCH  14  18
ENDBRANCH  10  12
ENDBRANCH   8  10
BRANCH   9  21
ATOM     21  C   UNL A   1      33.001  24.409  25.390  1.00  0.00     0.227 C 
ATOM     22  O   UNL A   1      33.832  24.913  26.126  1.00  0.00    -0.275 OA
ATOM     23  N   UNL A   1      31.680  24.862  25.340  1.00  0.00    -0.338 N 
ATOM     24  C   UNL A   1      30.653  24.493  24.355  1.00  0.00     0.148 C 
ATOM     25  C   UNL A   1      31.308  26.040  26.126  1.00  0.00     0.148 C 
ATOM     26  C   UNL A   1      30.328  25.693  23.459  1.00  0.00     0.181 C 
ATOM     27  C   UNL A   1      30.996  27.198  25.169  1.00  0.00     0.181 C 
ATOM     28  O   UNL A   1      29.950  26.833  24.248  1.00  0.00    -0.378 OA
ENDBRANCH   9  21
ENDBRANCH   3   6
ENDBRANCH   1   2
BRANCH   1  29
ATOM     29  C   UNL A   1      37.790  19.886  24.504  1.00  0.00     0.042 C 
BRANCH  29  30
ATOM     30  C   UNL A   1      38.632  20.111  25.751  1.00  0.00     0.118 C 
BRANCH  30  31
ATOM     31  N   UNL A   1      39.768  19.199  25.814  1.00  0.00    -0.352 N 
ATOM     32  C   UNL A   1      41.117  19.392  25.996  1.00  0.00     0.251 C 
ATOM     33  H   UNL A   1      39.519  18.254  25.703  1.00  0.00     0.163 HD
ATOM     34  O   UNL A   1      41.867  18.445  25.751  1.00  0.00    -0.269 OA
BRANCH  32  35
ATOM     35  C   UNL A   1      41.723  20.681  26.437  1.00  0.00     0.039 A 
ATOM     36  C   UNL A   1      42.028  21.634  25.451  1.00  0.00     0.014 A 
ATOM     37  C   UNL A   1      42.089  20.956  27.753  1.00  0.00     0.014 A 
ATOM     38  C   UNL A   1      42.621  22.858  25.790  1.00  0.00     0.010 A 
ATOM     39  C   UNL A   1      42.601  22.212  28.106  1.00  0.00     0.010 A 
ATOM     40  C   UNL A   1      42.867  23.183  27.131  1.00  0.00    -0.014 A 
BRANCH  40  41
ATOM     41  C   UNL A   1      43.364  24.530  27.536  1.00  0.00     0.031 A 
ATOM     42  C   UNL A   1      42.408  25.616  27.957  1.00  0.00     0.074 A 
ATOM     43  C   UNL A   1      44.682  24.805  27.448  1.00  0.00     0.049 A 
ATOM     44  N   UNL A   1      42.651  26.878  28.211  1.00  0.00    -0.248 NA
ATOM     45  C   UNL A   1      40.993  25.239  28.096  1.00  0.00     0.031 C 
ATOM     46  C   UNL A   1      45.717  23.858  27.031  1.00  0.00     0.029 A 
ATOM     47  N   UNL A   1      45.377  25.968  27.681  1.00  0.00    -0.354 N 
ATOM     48  C   UNL A   1      41.423  27.449  28.526  1.00  0.00     0.074 A 
ATOM     49  C   UNL A   1      40.430  26.404  28.391  1.00  0.00     0.031 C 
ATOM     50  C   UNL A   1      46.910  24.472  27.040  1.00  0.00     0.029 A 
ATOM     51  C   UNL A   1      46.722  25.869  27.415  1.00  0.00     0.049 A 
ATOM     52  H   UNL A   1      44.951  26.794  28.006  1.00  0.00     0.167 HD
ATOM     53  C   UNL A   1      41.149  28.719  28.910  1.00  0.00     0.037 A 
ATOM     54  C   UNL A   1      47.695  26.800  27.442  1.00  0.00     0.037 A 
ATOM     55  C   UNL A   1      42.137  29.757  29.064  1.00  0.00     0.049 A 
ATOM     56  C   UNL A   1      47.355  28.213  27.824  1.00  0.00     0.074 A 
ATOM     57  C   UNL A   1      41.958  31.059  29.501  1.00  0.00     0.029 A 
ATOM     58  N   UNL A   1      43.487  29.613  28.786  1.00  0.00    -0.354 N 
ATOM     59  N   UNL A   1      46.197  28.719  28.172  1.00  0.00    -0.248 NA
ATOM     60  C   UNL A   1      48.457  29.187  27.816  1.00  0.00     0.031 C 
ATOM     61  C   UNL A   1      43.191  31.717  29.441  1.00  0.00     0.029 A 
ATOM     62  C   UNL A   1      44.147  30.811  29.012  1.00  0.00     0.049 A 
ATOM     63  H   UNL A   1      43.915  28.783  28.473  1.00  0.00     0.167 HD
ATOM     64  C   UNL A   1      46.435  30.061  28.441  1.00  0.00     0.074 A 
ATOM     65  C   UNL A   1      47.851  30.286  28.241  1.00  0.00     0.031 C 
ATOM     66  C   UNL A   1      45.557  31.023  28.812  1.00  0.00     0.037 A 
BRANCH  53  67
ATOM     67  C   UNL A   1      39.719  29.069  29.207  1.00  0.00     0.057 A 
ATOM     68  C   UNL A   1      38.838  29.476  28.198  1.00  0.00     0.134 A 
ATOM     69  C   UNL A   1      39.198  28.922  30.499  1.00  0.00     0.134 A 
ATOM     70  F   UNL A   1      39.275  29.642  26.941  1.00  0.00    -0.206 F 
ATOM     71  C   UNL A   1      37.494  29.742  28.465  1.00  0.00     0.040 A 
ATOM     72  C   UNL A   1      37.849  29.161  30.775  1.00  0.00     0.040 A 
ATOM     73  F   UNL A   1      39.983  28.523  31.510  1.00  0.00    -0.206 F 
ATOM     74  C   UNL A   1      36.994  29.575  29.755  1.00  0.00     0.006 A 
ENDBRANCH  53  67
BRANCH  54  75
ATOM     75  C   UNL A   1      49.089  26.437  27.074  1.00  0.00     0.057 A 
ATOM     76  C   UNL A   1      49.515  26.463  25.741  1.00  0.00     0.134 A 
ATOM     77  C   UNL A   1      50.016  26.025  28.040  1.00  0.00     0.134 A 
ATOM     78  F   UNL A   1      48.666  26.828  24.769  1.00  0.00    -0.206 F 
ATOM     79  C   UNL A   1      50.803  26.066  25.377  1.00  0.00     0.040 A 
ATOM     80  C   UNL A   1      51.316  25.654  27.694  1.00  0.00     0.040 A 
ATOM     81  F   UNL A   1      49.673  25.985  29.336  1.00  0.00    -0.206 F 
ATOM     82  C   UNL A   1      51.709  25.663  26.356  1.00  0.00     0.006 A 
ENDBRANCH  54  75
BRANCH  66  83
ATOM     83  C   UNL A   1      46.105  32.401  29.047  1.00  0.00     0.057 A 
ATOM     84  C   UNL A   1      46.144  33.359  28.026  1.00  0.00     0.134 A 
ATOM     85  C   UNL A   1      46.568  32.782  30.312  1.00  0.00     0.134 A 
ATOM     86  F   UNL A   1      45.730  33.051  26.788  1.00  0.00    -0.206 F 
ATOM     87  C   UNL A   1      46.642  34.643  28.251  1.00  0.00     0.040 A 
ATOM     88  C   UNL A   1      47.044  34.072  30.555  1.00  0.00     0.040 A 
ATOM     89  F   UNL A   1      46.552  31.914  31.334  1.00  0.00    -0.206 F 
ATOM     90  C   UNL A   1      47.087  35.004  29.521  1.00  0.00     0.006 A 
ENDBRANCH  66  83
ENDBRANCH  40  41
ENDBRANCH  32  35
ENDBRANCH  30  31
ENDBRANCH  29  30
ENDBRANCH   1  29
TORSDOF 14
ENDMDL
MODEL 2
REMARK VINA RESULT:     -12.7      5.049     10.443
REMARK SMILES C[C@@]1(C(=O)c2ccccc2N)[C@H](C(=O)NCCCNC(=O)c2ccc(-c3c4nc(c(-c5c(F)cccc5F)c5ccc([nH]5)c(-c5c(F)cccc5F)c5nc(c(-c6c(F)cccc6F)c6ccc3[nH]6)C=C5)C=C4)cc2)[C@@H]1C(=O)N1CCOCC1
REMARK SMILES IDX 16 1 15 2 13 3 14 4 12 6 1 7 2 8 76 9 3 10 4 11 5 12 6 13
REMARK SMILES IDX 10 14 7 15 9 16 8 17 11 18 77 21 78 22 79 23 80 24 84 25
REMARK SMILES IDX 81 26 83 27 82 28 17 29 18 30 19 31 20 32 21 34 22 35 23 36
REMARK SMILES IDX 75 37 24 38 74 39 25 40 26 41 27 42 68 43 28 44 73 45 67 46
REMARK SMILES IDX 69 47 29 48 72 49 66 50 65 51 30 53 56 54 39 55 55 56 40 57
REMARK SMILES IDX 43 58 54 59 70 60 41 61 42 62 53 64 71 65 44 66 31 67 32 68
REMARK SMILES IDX 37 69 33 70 34 71 36 72 38 73 35 74 57 75 58 76 63 77 59 78
REMARK SMILES IDX 60 79 62 80 64 81 61 82 45 83 46 84 51 85 47 86 48 87 50 88
REMARK SMILES IDX 52 89 49 90
REMARK H PARENT 15 5 11 19 11 20 19 33 69 52 43 63
REMARK Flexibility Score: inf
ROOT
ATOM      1  C   UNL A   1      31.698  30.411  26.825  1.00  0.00     0.117 C 
ENDROOT
BRANCH   1   2
ATOM      2  N   UNL A   1      32.207  29.986  25.538  1.00  0.00    -0.356 N 
ATOM      3  C   UNL A   1      32.213  28.823  24.827  1.00  0.00     0.224 C 
ATOM      4  O   UNL A   1      32.868  28.874  23.781  1.00  0.00    -0.275 OA
ATOM      5  H   UNL A   1      32.659  30.716  25.058  1.00  0.00     0.163 HD
BRANCH   3   6
ATOM      6  C   UNL A   1      31.515  27.535  25.089  1.00  0.00     0.106 C 
ATOM      7  C   UNL A   1      29.416  26.017  24.789  1.00  0.00     0.022 C 
ATOM      8  C   UNL A   1      30.677  26.635  24.136  1.00  0.00     0.056 C 
ATOM      9  C   UNL A   1      31.934  26.139  24.836  1.00  0.00     0.106 C 
BRANCH   8  10
ATOM     10  C   UNL A   1      30.321  27.375  22.866  1.00  0.00     0.172 C 
ATOM     11  O   UNL A   1      30.898  26.945  21.865  1.00  0.00    -0.293 OA
BRANCH  10  12
ATOM     12  C   UNL A   1      29.464  28.588  22.646  1.00  0.00     0.041 A 
ATOM     13  C   UNL A   1      28.126  28.443  23.099  1.00  0.00     0.014 A 
ATOM     14  C   UNL A   1      29.848  29.843  22.151  1.00  0.00     0.042 A 
ATOM     15  C   UNL A   1      27.235  29.516  23.172  1.00  0.00     0.001 A 
ATOM     16  C   UNL A   1      28.952  30.928  22.275  1.00  0.00     0.026 A 
ATOM     17  C   UNL A   1      27.665  30.774  22.790  1.00  0.00     0.002 A 
BRANCH  14  18
ATOM     18  N   UNL A   1      31.056  30.105  21.545  1.00  0.00    -0.398 N 
ATOM     19  H   UNL A   1      31.869  29.633  21.841  1.00  0.00     0.156 HD
ATOM     20  H   UNL A   1      31.108  30.763  20.815  1.00  0.00     0.156 HD
ENDBRANCH  14  18
ENDBRANCH  10  12
ENDBRANCH   8  10
BRANCH   9  21
ATOM     21  C   UNL A   1      33.227  25.646  24.331  1.00  0.00     0.227 C 
ATOM     22  O   UNL A   1      34.273  26.105  24.754  1.00  0.00    -0.275 OA
ATOM     23  N   UNL A   1      33.185  24.490  23.547  1.00  0.00    -0.338 N 
ATOM     24  C   UNL A   1      31.993  23.721  23.163  1.00  0.00     0.148 C 
ATOM     25  C   UNL A   1      34.429  23.754  23.310  1.00  0.00     0.148 C 
ATOM     26  C   UNL A   1      31.991  22.362  23.872  1.00  0.00     0.181 C 
ATOM     27  C   UNL A   1      34.359  22.408  24.044  1.00  0.00     0.181 C 
ATOM     28  O   UNL A   1      33.212  21.650  23.613  1.00  0.00    -0.378 OA
ENDBRANCH   9  21
ENDBRANCH   3   6
ENDBRANCH   1   2
BRANCH   1  29
ATOM     29  C   UNL A   1      31.490  31.923  26.850  1.00  0.00     0.042 C 
BRANCH  29  30
ATOM     30  C   UNL A   1      32.769  32.746  26.882  1.00  0.00     0.118 C 
BRANCH  30  31
ATOM     31  N   UNL A   1      32.591  34.004  27.595  1.00  0.00    -0.352 N 
ATOM     32  C   UNL A   1      33.197  34.550  28.703  1.00  0.00     0.251 C 
ATOM     33  H   UNL A   1      31.895  34.581  27.206  1.00  0.00     0.163 HD
ATOM     34  O   UNL A   1      32.658  35.528  29.224  1.00  0.00    -0.269 OA
BRANCH  32  35
ATOM     35  C   UNL A   1      34.440  34.009  29.323  1.00  0.00     0.039 A 
ATOM     36  C   UNL A   1      34.301  33.083  30.370  1.00  0.00     0.014 A 
ATOM     37  C   UNL A   1      35.723  34.440  28.991  1.00  0.00     0.014 A 
ATOM     38  C   UNL A   1      35.425  32.551  31.017  1.00  0.00     0.010 A 
ATOM     39  C   UNL A   1      36.850  33.846  29.575  1.00  0.00     0.010 A 
ATOM     40  C   UNL A   1      36.717  32.889  30.591  1.00  0.00    -0.014 A 
BRANCH  40  41
ATOM     41  C   UNL A   1      37.930  32.234  31.162  1.00  0.00     0.031 A 
ATOM     42  C   UNL A   1      38.633  31.123  30.424  1.00  0.00     0.074 A 
ATOM     43  C   UNL A   1      38.358  32.586  32.392  1.00  0.00     0.049 A 
ATOM     44  N   UNL A   1      39.614  30.354  30.828  1.00  0.00    -0.248 NA
ATOM     45  C   UNL A   1      38.161  30.826  29.063  1.00  0.00     0.031 C 
ATOM     46  C   UNL A   1      37.759  33.627  33.228  1.00  0.00     0.029 A 
ATOM     47  N   UNL A   1      39.382  32.094  33.165  1.00  0.00    -0.354 N 
ATOM     48  C   UNL A   1      39.869  29.476  29.780  1.00  0.00     0.074 A 
ATOM     49  C   UNL A   1      38.912  29.781  28.738  1.00  0.00     0.031 C 
ATOM     50  C   UNL A   1      38.423  33.699  34.392  1.00  0.00     0.029 A 
ATOM     51  C   UNL A   1      39.465  32.677  34.407  1.00  0.00     0.049 A 
ATOM     52  H   UNL A   1      39.998  31.390  32.858  1.00  0.00     0.167 HD
ATOM     53  C   UNL A   1      40.824  28.520  29.687  1.00  0.00     0.037 A 
ATOM     54  C   UNL A   1      40.268  32.408  35.454  1.00  0.00     0.037 A 
ATOM     55  C   UNL A   1      41.791  28.226  30.715  1.00  0.00     0.049 A 
ATOM     56  C   UNL A   1      41.285  31.307  35.340  1.00  0.00     0.074 A 
ATOM     57  C   UNL A   1      42.828  27.309  30.684  1.00  0.00     0.029 A 
ATOM     58  N   UNL A   1      41.839  28.841  31.955  1.00  0.00    -0.354 N 
ATOM     59  N   UNL A   1      41.547  30.526  34.321  1.00  0.00    -0.248 NA
ATOM     60  C   UNL A   1      42.119  31.048  36.524  1.00  0.00     0.031 C 
ATOM     61  C   UNL A   1      43.474  27.336  31.924  1.00  0.00     0.029 A 
ATOM     62  C   UNL A   1      42.869  28.303  32.710  1.00  0.00     0.049 A 
ATOM     63  H   UNL A   1      41.231  29.555  32.257  1.00  0.00     0.167 HD
ATOM     64  C   UNL A   1      42.585  29.699  34.733  1.00  0.00     0.074 A 
ATOM     65  C   UNL A   1      42.922  30.090  36.086  1.00  0.00     0.031 C 
ATOM     66  C   UNL A   1      43.198  28.700  34.054  1.00  0.00     0.037 A 
BRANCH  53  67
ATOM     67  C   UNL A   1      40.886  27.714  28.421  1.00  0.00     0.057 A 
ATOM     68  C   UNL A   1      40.156  26.529  28.266  1.00  0.00     0.134 A 
ATOM     69  C   UNL A   1      41.622  28.167  27.317  1.00  0.00     0.134 A 
ATOM     70  F   UNL A   1      39.436  26.038  29.286  1.00  0.00    -0.206 F 
ATOM     71  C   UNL A   1      40.168  25.815  27.067  1.00  0.00     0.040 A 
ATOM     72  C   UNL A   1      41.622  27.475  26.104  1.00  0.00     0.040 A 
ATOM     73  F   UNL A   1      42.334  29.302  27.392  1.00  0.00    -0.206 F 
ATOM     74  C   UNL A   1      40.895  26.292  25.979  1.00  0.00     0.006 A 
ENDBRANCH  53  67
BRANCH  54  75
ATOM     75  C   UNL A   1      40.133  33.176  36.719  1.00  0.00     0.057 A 
ATOM     76  C   UNL A   1      39.182  32.821  37.684  1.00  0.00     0.134 A 
ATOM     77  C   UNL A   1      40.925  34.301  36.979  1.00  0.00     0.134 A 
ATOM     78  F   UNL A   1      38.379  31.766  37.482  1.00  0.00    -0.206 F 
ATOM     79  C   UNL A   1      39.005  33.571  38.846  1.00  0.00     0.040 A 
ATOM     80  C   UNL A   1      40.779  35.044  38.151  1.00  0.00     0.040 A 
ATOM     81  F   UNL A   1      41.859  34.691  36.098  1.00  0.00    -0.206 F 
ATOM     82  C   UNL A   1      39.808  34.685  39.085  1.00  0.00     0.006 A 
ENDBRANCH  54  75
BRANCH  66  83
ATOM     83  C   UNL A   1      44.308  27.973  34.756  1.00  0.00     0.057 A 
ATOM     84  C   UNL A   1      44.074  26.798  35.480  1.00  0.00     0.134 A 
ATOM     85  C   UNL A   1      45.628  28.434  34.678  1.00  0.00     0.134 A 
ATOM     86  F   UNL A   1      42.829  26.313  35.606  1.00  0.00    -0.206 F 
ATOM     87  C   UNL A   1      45.111  26.117  36.120  1.00  0.00     0.040 A 
ATOM     88  C   UNL A   1      46.677  27.747  35.291  1.00  0.00     0.040 A 
ATOM     89  F   UNL A   1      45.921  29.550  33.994  1.00  0.00    -0.206 F 
ATOM     90  C   UNL A   1      46.418  26.589  36.020  1.00  0.00     0.006 A 
ENDBRANCH  66  83
ENDBRANCH  40  41
ENDBRANCH  32  35
ENDBRANCH  30  31
ENDBRANCH  29  30
ENDBRANCH   1  29
TORSDOF 14
ENDMDL
MODEL 3
REMARK VINA RESULT:     -12.7      1.468      6.285
REMARK SMILES C[C@@]1(C(=O)c2ccccc2N)[C@H](C(=O)NCCCNC(=O)c2ccc(-c3c4nc(c(-c5c(F)cccc5F)c5ccc([nH]5)c(-c5c(F)cccc5F)c5nc(c(-c6c(F)cccc6F)c6ccc3[nH]6)C=C5)C=C4)cc2)[C@@H]1C(=O)N1CCOCC1
REMARK SMILES IDX 16 1 15 2 13 3 14 4 12 6 1 7 2 8 76 9 3 10 4 11 5 12 6 13
REMARK SMILES IDX 10 14 7 15 9 16 8 17 11 18 77 21 78 22 79 23 80 24 84 25
REMARK SMILES IDX 81 26 83 27 82 28 17 29 18 30 19 31 20 32 21 34 22 35 23 36
REMARK SMILES IDX 75 37 24 38 74 39 25 40 26 41 27 42 68 43 28 44 73 45 67 46
REMARK SMILES IDX 69 47 29 48 72 49 66 50 65 51 30 53 56 54 39 55 55 56 40 57
REMARK SMILES IDX 43 58 54 59 70 60 41 61 42 62 53 64 71 65 44 66 31 67 32 68
REMARK SMILES IDX 37 69 33 70 34 71 36 72 38 73 35 74 57 75 58 76 63 77 59 78
REMARK SMILES IDX 60 79 62 80 64 81 61 82 45 83 46 84 51 85 47 86 48 87 50 88
REMARK SMILES IDX 52 89 49 90
REMARK H PARENT 15 5 11 19 11 20 19 33 69 52 43 63
REMARK Flexibility Score: inf
ROOT
ATOM      1  C   UNL A   1      37.365  20.916  24.477  1.00  0.00     0.117 C 
ENDROOT
BRANCH   1   2
ATOM      2  N   UNL A   1      36.264  20.971  25.415  1.00  0.00    -0.356 N 
ATOM      3  C   UNL A   1      35.020  21.528  25.426  1.00  0.00     0.224 C 
ATOM      4  O   UNL A   1      34.427  21.418  26.503  1.00  0.00    -0.275 OA
ATOM      5  H   UNL A   1      36.462  20.489  26.249  1.00  0.00     0.163 HD
BRANCH   3   6
ATOM      6  C   UNL A   1      34.256  22.192  24.335  1.00  0.00     0.106 C 
ATOM      7  C   UNL A   1      32.544  22.033  22.374  1.00  0.00     0.022 C 
ATOM      8  C   UNL A   1      32.769  22.029  23.906  1.00  0.00     0.056 C 
ATOM      9  C   UNL A   1      33.349  23.360  24.361  1.00  0.00     0.106 C 
BRANCH   8  10
ATOM     10  C   UNL A   1      32.156  20.799  24.539  1.00  0.00     0.172 C 
ATOM     11  O   UNL A   1      31.311  21.057  25.400  1.00  0.00    -0.293 OA
BRANCH  10  12
ATOM     12  C   UNL A   1      32.470  19.342  24.358  1.00  0.00     0.041 A 
ATOM     13  C   UNL A   1      32.403  18.898  23.010  1.00  0.00     0.014 A 
ATOM     14  C   UNL A   1      32.906  18.423  25.323  1.00  0.00     0.042 A 
ATOM     15  C   UNL A   1      32.856  17.639  22.609  1.00  0.00     0.001 A 
ATOM     16  C   UNL A   1      33.403  17.171  24.896  1.00  0.00     0.026 A 
ATOM     17  C   UNL A   1      33.393  16.785  23.556  1.00  0.00     0.002 A 
BRANCH  14  18
ATOM     18  N   UNL A   1      32.888  18.651  26.681  1.00  0.00    -0.398 N 
ATOM     19  H   UNL A   1      33.412  18.075  27.283  1.00  0.00     0.156 HD
ATOM     20  H   UNL A   1      32.352  19.389  27.049  1.00  0.00     0.156 HD
ENDBRANCH  14  18
ENDBRANCH  10  12
ENDBRANCH   8  10
BRANCH   9  21
ATOM     21  C   UNL A   1      33.031  24.250  25.491  1.00  0.00     0.227 C 
ATOM     22  O   UNL A   1      33.904  24.608  26.262  1.00  0.00    -0.275 OA
ATOM     23  N   UNL A   1      31.762  24.836  25.481  1.00  0.00    -0.338 N 
ATOM     24  C   UNL A   1      30.708  24.651  24.473  1.00  0.00     0.148 C 
ATOM     25  C   UNL A   1      31.508  25.981  26.357  1.00  0.00     0.148 C 
ATOM     26  C   UNL A   1      30.511  25.943  23.674  1.00  0.00     0.181 C 
ATOM     27  C   UNL A   1      31.319  27.235  25.494  1.00  0.00     0.181 C 
ATOM     28  O   UNL A   1      30.245  27.050  24.551  1.00  0.00    -0.378 OA
ENDBRANCH   9  21
ENDBRANCH   3   6
ENDBRANCH   1   2
BRANCH   1  29
ATOM     29  C   UNL A   1      38.254  19.707  24.760  1.00  0.00     0.042 C 
BRANCH  29  30
ATOM     30  C   UNL A   1      39.066  19.796  26.044  1.00  0.00     0.118 C 
BRANCH  30  31
ATOM     31  N   UNL A   1      40.358  19.132  25.919  1.00  0.00    -0.352 N 
ATOM     32  C   UNL A   1      41.655  19.575  26.022  1.00  0.00     0.251 C 
ATOM     33  H   UNL A   1      40.287  18.171  25.720  1.00  0.00     0.163 HD
ATOM     34  O   UNL A   1      42.547  18.828  25.617  1.00  0.00    -0.269 OA
BRANCH  32  35
ATOM     35  C   UNL A   1      42.039  20.911  26.562  1.00  0.00     0.039 A 
ATOM     36  C   UNL A   1      42.434  21.899  25.646  1.00  0.00     0.014 A 
ATOM     37  C   UNL A   1      42.119  21.204  27.922  1.00  0.00     0.014 A 
ATOM     38  C   UNL A   1      42.832  23.171  26.082  1.00  0.00     0.010 A 
ATOM     39  C   UNL A   1      42.432  22.499  28.357  1.00  0.00     0.010 A 
ATOM     40  C   UNL A   1      42.786  23.502  27.443  1.00  0.00    -0.014 A 
BRANCH  40  41
ATOM     41  C   UNL A   1      43.065  24.886  27.926  1.00  0.00     0.031 A 
ATOM     42  C   UNL A   1      44.452  25.296  28.350  1.00  0.00     0.074 A 
ATOM     43  C   UNL A   1      42.047  25.760  28.059  1.00  0.00     0.049 A 
ATOM     44  N   UNL A   1      44.847  26.408  28.919  1.00  0.00    -0.248 NA
ATOM     45  C   UNL A   1      45.531  24.323  28.123  1.00  0.00     0.031 C 
ATOM     46  C   UNL A   1      40.651  25.492  27.710  1.00  0.00     0.029 A 
ATOM     47  N   UNL A   1      42.021  27.046  28.545  1.00  0.00    -0.354 N 
ATOM     48  C   UNL A   1      46.215  26.265  29.128  1.00  0.00     0.074 A 
ATOM     49  C   UNL A   1      46.573  24.942  28.663  1.00  0.00     0.031 C 
ATOM     50  C   UNL A   1      39.907  26.573  27.988  1.00  0.00     0.029 A 
ATOM     51  C   UNL A   1      40.761  27.596  28.581  1.00  0.00     0.049 A 
ATOM     52  H   UNL A   1      42.827  27.527  28.840  1.00  0.00     0.167 HD
ATOM     53  C   UNL A   1      47.094  27.160  29.641  1.00  0.00     0.037 A 
ATOM     54  C   UNL A   1      40.331  28.779  29.060  1.00  0.00     0.037 A 
ATOM     55  C   UNL A   1      46.744  28.485  30.087  1.00  0.00     0.049 A 
ATOM     56  C   UNL A   1      41.320  29.733  29.670  1.00  0.00     0.074 A 
ATOM     57  C   UNL A   1      47.579  29.479  30.572  1.00  0.00     0.029 A 
ATOM     58  N   UNL A   1      45.458  29.002  30.105  1.00  0.00    -0.354 N 
ATOM     59  N   UNL A   1      42.618  29.602  29.807  1.00  0.00    -0.248 NA
ATOM     60  C   UNL A   1      40.787  31.000  30.192  1.00  0.00     0.031 C 
ATOM     61  C   UNL A   1      46.791  30.579  30.928  1.00  0.00     0.029 A 
ATOM     62  C   UNL A   1      45.473  30.288  30.620  1.00  0.00     0.049 A 
ATOM     63  H   UNL A   1      44.653  28.525  29.797  1.00  0.00     0.167 HD
ATOM     64  C   UNL A   1      43.055  30.773  30.413  1.00  0.00     0.074 A 
ATOM     65  C   UNL A   1      41.890  31.614  30.594  1.00  0.00     0.031 C 
ATOM     66  C   UNL A   1      44.308  31.117  30.794  1.00  0.00     0.037 A 
BRANCH  53  67
ATOM     67  C   UNL A   1      48.534  26.747  29.743  1.00  0.00     0.057 A 
ATOM     68  C   UNL A   1      49.028  26.077  30.869  1.00  0.00     0.134 A 
ATOM     69  C   UNL A   1      49.417  26.953  28.675  1.00  0.00     0.134 A 
ATOM     70  F   UNL A   1      48.236  25.854  31.928  1.00  0.00    -0.206 F 
ATOM     71  C   UNL A   1      50.352  25.640  30.937  1.00  0.00     0.040 A 
ATOM     72  C   UNL A   1      50.737  26.498  28.720  1.00  0.00     0.040 A 
ATOM     73  F   UNL A   1      49.006  27.577  27.561  1.00  0.00    -0.206 F 
ATOM     74  C   UNL A   1      51.208  25.842  29.856  1.00  0.00     0.006 A 
ENDBRANCH  53  67
BRANCH  54  75
ATOM     75  C   UNL A   1      38.887  29.129  29.008  1.00  0.00     0.057 A 
ATOM     76  C   UNL A   1      38.068  28.991  30.135  1.00  0.00     0.134 A 
ATOM     77  C   UNL A   1      38.286  29.576  27.825  1.00  0.00     0.134 A 
ATOM     78  F   UNL A   1      38.583  28.546  31.292  1.00  0.00    -0.206 F 
ATOM     79  C   UNL A   1      36.700  29.257  30.082  1.00  0.00     0.040 A 
ATOM     80  C   UNL A   1      36.924  29.874  27.765  1.00  0.00     0.040 A 
ATOM     81  F   UNL A   1      39.016  29.735  26.711  1.00  0.00    -0.206 F 
ATOM     82  C   UNL A   1      36.124  29.704  28.894  1.00  0.00     0.006 A 
ENDBRANCH  54  75
BRANCH  66  83
ATOM     83  C   UNL A   1      44.488  32.467  31.424  1.00  0.00     0.057 A 
ATOM     84  C   UNL A   1      44.436  32.643  32.812  1.00  0.00     0.134 A 
ATOM     85  C   UNL A   1      44.750  33.597  30.638  1.00  0.00     0.134 A 
ATOM     86  F   UNL A   1      44.173  31.604  33.620  1.00  0.00    -0.206 F 
ATOM     87  C   UNL A   1      44.617  33.898  33.396  1.00  0.00     0.040 A 
ATOM     88  C   UNL A   1      44.959  34.851  31.212  1.00  0.00     0.040 A 
ATOM     89  F   UNL A   1      44.819  33.495  29.302  1.00  0.00    -0.206 F 
ATOM     90  C   UNL A   1      44.887  35.005  32.594  1.00  0.00     0.006 A 
ENDBRANCH  66  83
ENDBRANCH  40  41
ENDBRANCH  32  35
ENDBRANCH  30  31
ENDBRANCH  29  30
ENDBRANCH   1  29
TORSDOF 14
ENDMDL
