MODEL 1
REMARK VINA RESULT:     -11.9      0.000      0.000
REMARK SMILES O=C(NCCCNC(=O)c1cccc2cccc([S@](=O)c3ccccc3CO)c12)c1ccc(-c2c3nc(c(-c4c(F)cccc4F)c4ccc([nH]4)c(-c4c(F)cccc4F)c4nc(c(-c5c(F)cccc5F)c5ccc2[nH]5)C=C4)C=C3)cc1
REMARK SMILES IDX 6 1 5 2 4 3 3 4 1 5 2 6 30 8 31 9 83 10 32 11 82 12 33 13
REMARK SMILES IDX 34 14 35 15 76 16 36 17 81 18 75 19 77 20 37 21 80 22 74 23
REMARK SMILES IDX 73 24 38 26 64 27 47 28 63 29 48 30 51 31 62 32 78 33 49 34
REMARK SMILES IDX 50 35 61 37 79 38 52 39 39 40 40 41 45 42 41 43 42 44 44 45
REMARK SMILES IDX 46 46 43 47 65 48 66 49 71 50 67 51 68 52 70 53 72 54 69 55
REMARK SMILES IDX 53 56 54 57 59 58 55 59 56 60 58 61 60 62 57 63 7 64 8 65
REMARK SMILES IDX 9 67 10 68 11 69 29 70 12 71 14 72 18 73 13 74 15 75 17 76
REMARK SMILES IDX 16 77 19 78 20 79 21 80 22 81 26 82 23 83 25 84 24 85 27 86
REMARK SMILES IDX 28 87
REMARK H PARENT 3 7 77 25 51 36 7 66 28 88
REMARK Flexibility Score: inf
ROOT
ATOM      1  C   UNL A   1      36.194  19.951  25.001  1.00  0.00     0.118 C 
ENDROOT
BRANCH   1   2
ATOM      2  C   UNL A   1      37.599  19.454  24.657  1.00  0.00     0.042 C 
BRANCH   2   3
ATOM      3  C   UNL A   1      38.701  20.136  25.456  1.00  0.00     0.118 C 
BRANCH   3   4
ATOM      4  N   UNL A   1      39.798  19.223  25.751  1.00  0.00    -0.352 N 
ATOM      5  O   UNL A   1      41.941  18.598  26.040  1.00  0.00    -0.269 OA
ATOM      6  C   UNL A   1      41.086  19.488  26.124  1.00  0.00     0.251 C 
ATOM      7  H   UNL A   1      39.575  18.266  25.670  1.00  0.00     0.163 HD
BRANCH   6   8
ATOM      8  C   UNL A   1      41.472  20.823  26.618  1.00  0.00     0.039 A 
ATOM      9  C   UNL A   1      41.588  21.075  27.988  1.00  0.00     0.014 A 
ATOM     10  C   UNL A   1      41.798  21.822  25.694  1.00  0.00     0.014 A 
ATOM     11  C   UNL A   1      41.913  22.351  28.437  1.00  0.00     0.010 A 
ATOM     12  C   UNL A   1      42.198  23.080  26.145  1.00  0.00     0.010 A 
ATOM     13  C   UNL A   1      42.239  23.360  27.521  1.00  0.00    -0.014 A 
BRANCH  13  14
ATOM     14  C   UNL A   1      42.679  24.691  28.001  1.00  0.00     0.031 A 
ATOM     15  C   UNL A   1      41.676  25.759  28.321  1.00  0.00     0.074 A 
ATOM     16  C   UNL A   1      43.997  24.942  28.113  1.00  0.00     0.049 A 
ATOM     17  N   UNL A   1      41.877  27.008  28.655  1.00  0.00    -0.248 NA
ATOM     18  C   UNL A   1      40.258  25.375  28.246  1.00  0.00     0.031 C 
ATOM     19  C   UNL A   1      45.065  23.983  27.827  1.00  0.00     0.029 A 
ATOM     20  N   UNL A   1      44.663  26.083  28.480  1.00  0.00    -0.354 N 
ATOM     21  C   UNL A   1      40.615  27.568  28.803  1.00  0.00     0.074 A 
ATOM     22  C   UNL A   1      39.654  26.527  28.502  1.00  0.00     0.031 C 
ATOM     23  C   UNL A   1      46.251  24.571  28.036  1.00  0.00     0.029 A 
ATOM     24  C   UNL A   1      46.029  25.963  28.410  1.00  0.00     0.049 A 
ATOM     25  H   UNL A   1      44.207  26.907  28.767  1.00  0.00     0.167 HD
ATOM     26  C   UNL A   1      40.292  28.835  29.159  1.00  0.00     0.037 A 
ATOM     27  C   UNL A   1      46.998  26.880  28.591  1.00  0.00     0.037 A 
ATOM     28  C   UNL A   1      41.257  29.859  29.466  1.00  0.00     0.049 A 
ATOM     29  C   UNL A   1      46.617  28.284  28.954  1.00  0.00     0.074 A 
ATOM     30  C   UNL A   1      41.032  31.162  29.876  1.00  0.00     0.029 A 
ATOM     31  N   UNL A   1      42.633  29.697  29.388  1.00  0.00    -0.354 N 
ATOM     32  N   UNL A   1      45.421  28.796  29.120  1.00  0.00    -0.248 NA
ATOM     33  C   UNL A   1      47.714  29.239  29.155  1.00  0.00     0.031 C 
ATOM     34  C   UNL A   1      42.270  31.800  30.002  1.00  0.00     0.029 A 
ATOM     35  C   UNL A   1      43.269  30.882  29.719  1.00  0.00     0.049 A 
ATOM     36  H   UNL A   1      43.090  28.862  29.135  1.00  0.00     0.167 HD
ATOM     37  C   UNL A   1      45.620  30.125  29.467  1.00  0.00     0.074 A 
ATOM     38  C   UNL A   1      47.053  30.339  29.490  1.00  0.00     0.031 C 
ATOM     39  C   UNL A   1      44.698  31.077  29.745  1.00  0.00     0.037 A 
BRANCH  26  40
ATOM     40  C   UNL A   1      38.833  29.189  29.200  1.00  0.00     0.057 A 
ATOM     41  C   UNL A   1      38.086  29.126  30.383  1.00  0.00     0.134 A 
ATOM     42  C   UNL A   1      38.171  29.612  28.040  1.00  0.00     0.134 A 
ATOM     43  F   UNL A   1      38.655  28.718  31.527  1.00  0.00    -0.206 F 
ATOM     44  C   UNL A   1      36.724  29.439  30.403  1.00  0.00     0.040 A 
ATOM     45  C   UNL A   1      36.817  29.953  28.054  1.00  0.00     0.040 A 
ATOM     46  F   UNL A   1      38.829  29.703  26.875  1.00  0.00    -0.206 F 
ATOM     47  C   UNL A   1      36.088  29.858  29.237  1.00  0.00     0.006 A 
ENDBRANCH  26  40
BRANCH  27  48
ATOM     48  C   UNL A   1      48.414  26.479  28.415  1.00  0.00     0.057 A 
ATOM     49  C   UNL A   1      49.136  25.897  29.461  1.00  0.00     0.134 A 
ATOM     50  C   UNL A   1      49.058  26.613  27.179  1.00  0.00     0.134 A 
ATOM     51  F   UNL A   1      48.577  25.755  30.673  1.00  0.00    -0.206 F 
ATOM     52  C   UNL A   1      50.451  25.461  29.285  1.00  0.00     0.040 A 
ATOM     53  C   UNL A   1      50.362  26.162  26.981  1.00  0.00     0.040 A 
ATOM     54  F   UNL A   1      48.411  27.154  26.135  1.00  0.00    -0.206 F 
ATOM     55  C   UNL A   1      51.063  25.585  28.039  1.00  0.00     0.006 A 
ENDBRANCH  27  48
BRANCH  39  56
ATOM     56  C   UNL A   1      45.205  32.431  30.140  1.00  0.00     0.057 A 
ATOM     57  C   UNL A   1      45.383  33.456  29.204  1.00  0.00     0.134 A 
ATOM     58  C   UNL A   1      45.454  32.728  31.486  1.00  0.00     0.134 A 
ATOM     59  F   UNL A   1      45.173  33.230  27.899  1.00  0.00    -0.206 F 
ATOM     60  C   UNL A   1      45.800  34.730  29.593  1.00  0.00     0.040 A 
ATOM     61  C   UNL A   1      45.851  34.003  31.889  1.00  0.00     0.040 A 
ATOM     62  F   UNL A   1      45.296  31.790  32.432  1.00  0.00    -0.206 F 
ATOM     63  C   UNL A   1      46.026  35.009  30.940  1.00  0.00     0.006 A 
ENDBRANCH  39  56
ENDBRANCH  13  14
ENDBRANCH   6   8
ENDBRANCH   3   4
ENDBRANCH   2   3
ENDBRANCH   1   2
BRANCH   1  64
ATOM     64  N   UNL A   1      36.109  21.401  25.147  1.00  0.00    -0.352 N 
ATOM     65  C   UNL A   1      35.628  22.172  24.106  1.00  0.00     0.251 C 
ATOM     66  H   UNL A   1      36.395  21.829  25.986  1.00  0.00     0.163 HD
ATOM     67  O   UNL A   1      36.422  22.579  23.263  1.00  0.00    -0.269 OA
BRANCH  65  68
ATOM     68  C   UNL A   1      34.143  22.308  23.939  1.00  0.00     0.048 A 
ATOM     69  C   UNL A   1      33.378  21.142  23.788  1.00  0.00     0.014 A 
ATOM     70  C   UNL A   1      33.612  23.575  23.565  1.00  0.00     0.011 A 
ATOM     71  C   UNL A   1      32.218  21.165  23.030  1.00  0.00     0.001 A 
ATOM     72  C   UNL A   1      32.531  23.545  22.648  1.00  0.00    -0.016 A 
ATOM     73  C   UNL A   1      34.035  24.866  24.015  1.00  0.00     0.052 A 
ATOM     74  C   UNL A   1      31.846  22.346  22.397  1.00  0.00     0.009 A 
ATOM     75  C   UNL A   1      32.132  24.717  21.988  1.00  0.00     0.009 A 
ATOM     76  C   UNL A   1      33.652  26.021  23.307  1.00  0.00     0.019 A 
ATOM     77  C   UNL A   1      32.733  25.939  22.269  1.00  0.00     0.002 A 
BRANCH  73  78
ATOM     78  S   UNL A   1      34.674  25.215  25.713  1.00  0.00     0.086 S 
ATOM     79  O   UNL A   1      34.349  24.071  26.614  1.00  0.00    -0.249 OA
BRANCH  78  80
ATOM     80  C   UNL A   1      33.480  26.557  26.126  1.00  0.00     0.049 A 
ATOM     81  C   UNL A   1      34.001  27.831  26.439  1.00  0.00     0.018 A 
ATOM     82  C   UNL A   1      32.087  26.352  26.264  1.00  0.00    -0.006 A 
ATOM     83  C   UNL A   1      33.178  28.885  26.840  1.00  0.00     0.001 A 
ATOM     84  C   UNL A   1      31.279  27.426  26.704  1.00  0.00     0.007 A 
ATOM     85  C   UNL A   1      31.816  28.680  26.979  1.00  0.00     0.000 A 
BRANCH  82  86
ATOM     86  C   UNL A   1      31.375  25.040  26.048  1.00  0.00     0.192 C 
BRANCH  86  87
ATOM     87  O   UNL A   1      31.402  24.288  27.251  1.00  0.00    -0.392 OA
ATOM     88  H   UNL A   1      31.180  23.364  27.060  1.00  0.00     0.211 HD
ENDBRANCH  86  87
ENDBRANCH  82  86
ENDBRANCH  78  80
ENDBRANCH  73  78
ENDBRANCH  65  68
ENDBRANCH   1  64
TORSDOF 14
ENDMDL
MODEL 2
REMARK VINA RESULT:     -11.9      2.350      7.346
REMARK SMILES O=C(NCCCNC(=O)c1cccc2cccc([S@](=O)c3ccccc3CO)c12)c1ccc(-c2c3nc(c(-c4c(F)cccc4F)c4ccc([nH]4)c(-c4c(F)cccc4F)c4nc(c(-c5c(F)cccc5F)c5ccc2[nH]5)C=C4)C=C3)cc1
REMARK SMILES IDX 6 1 5 2 4 3 3 4 1 5 2 6 30 8 31 9 83 10 32 11 82 12 33 13
REMARK SMILES IDX 34 14 35 15 76 16 36 17 81 18 75 19 77 20 37 21 80 22 74 23
REMARK SMILES IDX 73 24 38 26 64 27 47 28 63 29 48 30 51 31 62 32 78 33 49 34
REMARK SMILES IDX 50 35 61 37 79 38 52 39 39 40 40 41 45 42 41 43 42 44 44 45
REMARK SMILES IDX 46 46 43 47 65 48 66 49 71 50 67 51 68 52 70 53 72 54 69 55
REMARK SMILES IDX 53 56 54 57 59 58 55 59 56 60 58 61 60 62 57 63 7 64 8 65
REMARK SMILES IDX 9 67 10 68 11 69 29 70 12 71 14 72 18 73 13 74 15 75 17 76
REMARK SMILES IDX 16 77 19 78 20 79 21 80 22 81 26 82 23 83 25 84 24 85 27 86
REMARK SMILES IDX 28 87
REMARK H PARENT 3 7 77 25 51 36 7 66 28 88
REMARK Flexibility Score: inf
ROOT
ATOM      1  C   UNL A   1      34.156  28.424  24.717  1.00  0.00     0.118 C 
ENDROOT
BRANCH   1   2
ATOM      2  C   UNL A   1      33.205  28.422  25.914  1.00  0.00     0.042 C 
BRANCH   2   3
ATOM      3  C   UNL A   1      33.910  28.585  27.254  1.00  0.00     0.118 C 
BRANCH   3   4
ATOM      4  N   UNL A   1      33.860  29.964  27.725  1.00  0.00    -0.352 N 
ATOM      5  O   UNL A   1      34.419  31.727  29.009  1.00  0.00    -0.269 OA
ATOM      6  C   UNL A   1      34.768  30.675  28.460  1.00  0.00     0.251 C 
ATOM      7  H   UNL A   1      33.047  30.460  27.473  1.00  0.00     0.163 HD
BRANCH   6   8
ATOM      8  C   UNL A   1      36.156  30.201  28.613  1.00  0.00     0.039 A 
ATOM      9  C   UNL A   1      37.071  30.310  27.563  1.00  0.00     0.014 A 
ATOM     10  C   UNL A   1      36.573  29.706  29.854  1.00  0.00     0.014 A 
ATOM     11  C   UNL A   1      38.365  29.820  27.710  1.00  0.00     0.010 A 
ATOM     12  C   UNL A   1      37.892  29.286  30.025  1.00  0.00     0.010 A 
ATOM     13  C   UNL A   1      38.793  29.320  28.948  1.00  0.00    -0.014 A 
BRANCH  13  14
ATOM     14  C   UNL A   1      40.198  28.889  29.134  1.00  0.00     0.031 A 
ATOM     15  C   UNL A   1      41.223  29.836  29.683  1.00  0.00     0.074 A 
ATOM     16  C   UNL A   1      40.553  27.643  28.768  1.00  0.00     0.049 A 
ATOM     17  N   UNL A   1      42.514  29.669  29.820  1.00  0.00    -0.248 NA
ATOM     18  C   UNL A   1      40.735  31.150  30.127  1.00  0.00     0.031 C 
ATOM     19  C   UNL A   1      39.644  26.635  28.220  1.00  0.00     0.029 A 
ATOM     20  N   UNL A   1      41.773  27.017  28.788  1.00  0.00    -0.354 N 
ATOM     21  C   UNL A   1      42.997  30.863  30.339  1.00  0.00     0.074 A 
ATOM     22  C   UNL A   1      41.863  31.753  30.474  1.00  0.00     0.031 C 
ATOM     23  C   UNL A   1      40.334  25.515  27.962  1.00  0.00     0.029 A 
ATOM     24  C   UNL A   1      41.742  25.746  28.268  1.00  0.00     0.049 A 
ATOM     25  H   UNL A   1      42.590  27.437  29.141  1.00  0.00     0.167 HD
ATOM     26  C   UNL A   1      44.271  31.181  30.673  1.00  0.00     0.037 A 
ATOM     27  C   UNL A   1      42.739  24.875  28.030  1.00  0.00     0.037 A 
ATOM     28  C   UNL A   1      45.389  30.283  30.545  1.00  0.00     0.049 A 
ATOM     29  C   UNL A   1      44.146  25.259  28.379  1.00  0.00     0.074 A 
ATOM     30  C   UNL A   1      46.711  30.495  30.894  1.00  0.00     0.029 A 
ATOM     31  N   UNL A   1      45.316  29.001  30.018  1.00  0.00    -0.354 N 
ATOM     32  N   UNL A   1      44.588  26.380  28.897  1.00  0.00    -0.248 NA
ATOM     33  C   UNL A   1      45.193  24.265  28.111  1.00  0.00     0.031 C 
ATOM     34  C   UNL A   1      47.445  29.360  30.536  1.00  0.00     0.029 A 
ATOM     35  C   UNL A   1      46.573  28.420  30.010  1.00  0.00     0.049 A 
ATOM     36  H   UNL A   1      44.491  28.568  29.697  1.00  0.00     0.167 HD
ATOM     37  C   UNL A   1      45.959  26.218  29.039  1.00  0.00     0.074 A 
ATOM     38  C   UNL A   1      46.275  24.889  28.556  1.00  0.00     0.031 C 
ATOM     39  C   UNL A   1      46.869  27.092  29.532  1.00  0.00     0.037 A 
BRANCH  26  40
ATOM     40  C   UNL A   1      44.523  32.573  31.178  1.00  0.00     0.057 A 
ATOM     41  C   UNL A   1      44.468  32.892  32.541  1.00  0.00     0.134 A 
ATOM     42  C   UNL A   1      44.840  33.606  30.286  1.00  0.00     0.134 A 
ATOM     43  F   UNL A   1      44.160  31.953  33.447  1.00  0.00    -0.206 F 
ATOM     44  C   UNL A   1      44.687  34.195  32.995  1.00  0.00     0.040 A 
ATOM     45  C   UNL A   1      45.086  34.906  30.730  1.00  0.00     0.040 A 
ATOM     46  F   UNL A   1      44.918  33.368  28.968  1.00  0.00    -0.206 F 
ATOM     47  C   UNL A   1      45.001  35.205  32.089  1.00  0.00     0.006 A 
ENDBRANCH  26  40
BRANCH  27  48
ATOM     48  C   UNL A   1      42.421  23.562  27.418  1.00  0.00     0.057 A 
ATOM     49  C   UNL A   1      42.529  23.363  26.039  1.00  0.00     0.134 A 
ATOM     50  C   UNL A   1      42.061  22.462  28.206  1.00  0.00     0.134 A 
ATOM     51  F   UNL A   1      42.856  24.383  25.231  1.00  0.00    -0.206 F 
ATOM     52  C   UNL A   1      42.290  22.113  25.462  1.00  0.00     0.040 A 
ATOM     53  C   UNL A   1      41.843  21.203  27.648  1.00  0.00     0.040 A 
ATOM     54  F   UNL A   1      41.953  22.590  29.537  1.00  0.00    -0.206 F 
ATOM     55  C   UNL A   1      41.955  21.027  26.270  1.00  0.00     0.006 A 
ENDBRANCH  27  48
BRANCH  39  56
ATOM     56  C   UNL A   1      48.293  26.628  29.614  1.00  0.00     0.057 A 
ATOM     57  C   UNL A   1      48.777  25.918  30.718  1.00  0.00     0.134 A 
ATOM     58  C   UNL A   1      49.168  26.840  28.541  1.00  0.00     0.134 A 
ATOM     59  F   UNL A   1      47.992  25.695  31.782  1.00  0.00    -0.206 F 
ATOM     60  C   UNL A   1      50.089  25.441  30.756  1.00  0.00     0.040 A 
ATOM     61  C   UNL A   1      50.474  26.350  28.559  1.00  0.00     0.040 A 
ATOM     62  F   UNL A   1      48.762  27.509  27.451  1.00  0.00    -0.206 F 
ATOM     63  C   UNL A   1      50.938  25.649  29.670  1.00  0.00     0.006 A 
ENDBRANCH  39  56
ENDBRANCH  13  14
ENDBRANCH   6   8
ENDBRANCH   3   4
ENDBRANCH   2   3
ENDBRANCH   1   2
BRANCH   1  64
ATOM     64  N   UNL A   1      33.492  28.695  23.445  1.00  0.00    -0.352 N 
ATOM     65  C   UNL A   1      33.127  27.649  22.621  1.00  0.00     0.251 C 
ATOM     66  H   UNL A   1      33.306  29.624  23.176  1.00  0.00     0.163 HD
ATOM     67  O   UNL A   1      33.940  27.242  21.795  1.00  0.00    -0.269 OA
BRANCH  65  68
ATOM     68  C   UNL A   1      31.843  26.926  22.902  1.00  0.00     0.048 A 
ATOM     69  C   UNL A   1      30.645  27.481  22.426  1.00  0.00     0.014 A 
ATOM     70  C   UNL A   1      31.824  25.942  23.931  1.00  0.00     0.011 A 
ATOM     71  C   UNL A   1      29.464  27.288  23.126  1.00  0.00     0.001 A 
ATOM     72  C   UNL A   1      30.655  25.905  24.731  1.00  0.00    -0.016 A 
ATOM     73  C   UNL A   1      32.842  24.984  24.241  1.00  0.00     0.052 A 
ATOM     74  C   UNL A   1      29.491  26.572  24.316  1.00  0.00     0.009 A 
ATOM     75  C   UNL A   1      30.648  25.195  25.941  1.00  0.00     0.009 A 
ATOM     76  C   UNL A   1      32.832  24.319  25.482  1.00  0.00     0.019 A 
ATOM     77  C   UNL A   1      31.754  24.457  26.346  1.00  0.00     0.002 A 
BRANCH  73  78
ATOM     78  S   UNL A   1      33.937  24.189  22.983  1.00  0.00     0.086 S 
ATOM     79  O   UNL A   1      33.245  24.169  21.660  1.00  0.00    -0.249 OA
BRANCH  78  80
ATOM     80  C   UNL A   1      33.830  22.474  23.650  1.00  0.00     0.049 A 
ATOM     81  C   UNL A   1      32.649  21.742  23.403  1.00  0.00     0.018 A 
ATOM     82  C   UNL A   1      34.811  21.898  24.491  1.00  0.00    -0.006 A 
ATOM     83  C   UNL A   1      32.448  20.467  23.934  1.00  0.00     0.001 A 
ATOM     84  C   UNL A   1      34.568  20.619  25.044  1.00  0.00     0.007 A 
ATOM     85  C   UNL A   1      33.406  19.908  24.761  1.00  0.00     0.000 A 
BRANCH  82  86
ATOM     86  C   UNL A   1      36.090  22.568  24.922  1.00  0.00     0.192 C 
BRANCH  86  87
ATOM     87  O   UNL A   1      36.214  22.483  26.333  1.00  0.00    -0.392 OA
ATOM     88  H   UNL A   1      35.471  21.973  26.693  1.00  0.00     0.211 HD
ENDBRANCH  86  87
ENDBRANCH  82  86
ENDBRANCH  78  80
ENDBRANCH  73  78
ENDBRANCH  65  68
ENDBRANCH   1  64
TORSDOF 14
ENDMDL
MODEL 3
REMARK VINA RESULT:     -11.9      2.605      7.703
REMARK SMILES O=C(NCCCNC(=O)c1cccc2cccc([S@](=O)c3ccccc3CO)c12)c1ccc(-c2c3nc(c(-c4c(F)cccc4F)c4ccc([nH]4)c(-c4c(F)cccc4F)c4nc(c(-c5c(F)cccc5F)c5ccc2[nH]5)C=C4)C=C3)cc1
REMARK SMILES IDX 6 1 5 2 4 3 3 4 1 5 2 6 30 8 31 9 83 10 32 11 82 12 33 13
REMARK SMILES IDX 34 14 35 15 76 16 36 17 81 18 75 19 77 20 37 21 80 22 74 23
REMARK SMILES IDX 73 24 38 26 64 27 47 28 63 29 48 30 51 31 62 32 78 33 49 34
REMARK SMILES IDX 50 35 61 37 79 38 52 39 39 40 40 41 45 42 41 43 42 44 44 45
REMARK SMILES IDX 46 46 43 47 65 48 66 49 71 50 67 51 68 52 70 53 72 54 69 55
REMARK SMILES IDX 53 56 54 57 59 58 55 59 56 60 58 61 60 62 57 63 7 64 8 65
REMARK SMILES IDX 9 67 10 68 11 69 29 70 12 71 14 72 18 73 13 74 15 75 17 76
REMARK SMILES IDX 16 77 19 78 20 79 21 80 22 81 26 82 23 83 25 84 24 85 27 86
REMARK SMILES IDX 28 87
REMARK H PARENT 3 7 77 25 51 36 7 66 28 88
REMARK Flexibility Score: inf
ROOT
ATOM      1  C   UNL A   1      33.604  28.891  25.723  1.00  0.00     0.118 C 
ENDROOT
BRANCH   1   2
ATOM      2  C   UNL A   1      33.796  29.825  26.919  1.00  0.00     0.042 C 
BRANCH   2   3
ATOM      3  C   UNL A   1      35.058  29.537  27.721  1.00  0.00     0.118 C 
BRANCH   3   4
ATOM      4  N   UNL A   1      35.156  30.393  28.897  1.00  0.00    -0.352 N 
ATOM      5  O   UNL A   1      35.957  31.085  30.884  1.00  0.00    -0.269 OA
ATOM      6  C   UNL A   1      36.176  30.537  29.797  1.00  0.00     0.251 C 
ATOM      7  H   UNL A   1      34.366  30.955  29.069  1.00  0.00     0.163 HD
BRANCH   6   8
ATOM      8  C   UNL A   1      37.531  30.041  29.491  1.00  0.00     0.039 A 
ATOM      9  C   UNL A   1      38.031  30.078  28.187  1.00  0.00     0.014 A 
ATOM     10  C   UNL A   1      38.346  29.601  30.540  1.00  0.00     0.014 A 
ATOM     11  C   UNL A   1      39.296  29.569  27.910  1.00  0.00     0.010 A 
ATOM     12  C   UNL A   1      39.643  29.162  30.272  1.00  0.00     0.010 A 
ATOM     13  C   UNL A   1      40.120  29.123  28.951  1.00  0.00    -0.014 A 
BRANCH  13  14
ATOM     14  C   UNL A   1      41.503  28.671  28.668  1.00  0.00     0.031 A 
ATOM     15  C   UNL A   1      42.640  29.650  28.657  1.00  0.00     0.074 A 
ATOM     16  C   UNL A   1      41.722  27.374  28.384  1.00  0.00     0.049 A 
ATOM     17  N   UNL A   1      43.893  29.457  28.333  1.00  0.00    -0.248 NA
ATOM     18  C   UNL A   1      42.325  31.031  29.053  1.00  0.00     0.031 C 
ATOM     19  C   UNL A   1      40.694  26.332  28.362  1.00  0.00     0.029 A 
ATOM     20  N   UNL A   1      42.874  26.713  28.045  1.00  0.00    -0.354 N 
ATOM     21  C   UNL A   1      44.511  30.694  28.458  1.00  0.00     0.074 A 
ATOM     22  C   UNL A   1      43.490  31.635  28.869  1.00  0.00     0.031 C 
ATOM     23  C   UNL A   1      41.261  25.163  28.035  1.00  0.00     0.029 A 
ATOM     24  C   UNL A   1      42.678  25.384  27.765  1.00  0.00     0.049 A 
ATOM     25  H   UNL A   1      43.756  27.149  28.008  1.00  0.00     0.167 HD
ATOM     26  C   UNL A   1      45.812  31.010  28.250  1.00  0.00     0.037 A 
ATOM     27  C   UNL A   1      43.533  24.451  27.307  1.00  0.00     0.037 A 
ATOM     28  C   UNL A   1      46.821  30.063  27.852  1.00  0.00     0.049 A 
ATOM     29  C   UNL A   1      44.962  24.830  27.054  1.00  0.00     0.074 A 
ATOM     30  C   UNL A   1      48.174  30.275  27.656  1.00  0.00     0.029 A 
ATOM     31  N   UNL A   1      46.583  28.723  27.583  1.00  0.00    -0.354 N 
ATOM     32  N   UNL A   1      45.542  25.997  27.204  1.00  0.00    -0.248 NA
ATOM     33  C   UNL A   1      45.855  23.770  26.569  1.00  0.00     0.031 C 
ATOM     34  C   UNL A   1      48.746  29.073  27.223  1.00  0.00     0.029 A 
ATOM     35  C   UNL A   1      47.759  28.100  27.198  1.00  0.00     0.049 A 
ATOM     36  H   UNL A   1      45.706  28.279  27.655  1.00  0.00     0.167 HD
ATOM     37  C   UNL A   1      46.872  25.807  26.854  1.00  0.00     0.074 A 
ATOM     38  C   UNL A   1      47.013  24.412  26.488  1.00  0.00     0.031 C 
ATOM     39  C   UNL A   1      47.884  26.708  26.844  1.00  0.00     0.037 A 
BRANCH  26  40
ATOM     40  C   UNL A   1      46.206  32.450  28.417  1.00  0.00     0.057 A 
ATOM     41  C   UNL A   1      46.168  33.360  27.352  1.00  0.00     0.134 A 
ATOM     42  C   UNL A   1      46.617  32.934  29.666  1.00  0.00     0.134 A 
ATOM     43  F   UNL A   1      45.795  32.959  26.128  1.00  0.00    -0.206 F 
ATOM     44  C   UNL A   1      46.556  34.692  27.517  1.00  0.00     0.040 A 
ATOM     45  C   UNL A   1      46.982  34.270  29.848  1.00  0.00     0.040 A 
ATOM     46  F   UNL A   1      46.669  32.119  30.729  1.00  0.00    -0.206 F 
ATOM     47  C   UNL A   1      46.960  35.151  28.769  1.00  0.00     0.006 A 
ENDBRANCH  26  40
BRANCH  27  48
ATOM     48  C   UNL A   1      43.037  23.078  27.054  1.00  0.00     0.057 A 
ATOM     49  C   UNL A   1      42.749  22.206  28.109  1.00  0.00     0.134 A 
ATOM     50  C   UNL A   1      42.781  22.626  25.753  1.00  0.00     0.134 A 
ATOM     51  F   UNL A   1      42.986  22.577  29.376  1.00  0.00    -0.206 F 
ATOM     52  C   UNL A   1      42.223  20.933  27.879  1.00  0.00     0.040 A 
ATOM     53  C   UNL A   1      42.235  21.367  25.509  1.00  0.00     0.040 A 
ATOM     54  F   UNL A   1      43.028  23.422  24.701  1.00  0.00    -0.206 F 
ATOM     55  C   UNL A   1      41.956  20.515  26.577  1.00  0.00     0.006 A 
ENDBRANCH  27  48
BRANCH  39  56
ATOM     56  C   UNL A   1      49.245  26.209  26.464  1.00  0.00     0.057 A 
ATOM     57  C   UNL A   1      49.763  26.385  25.175  1.00  0.00     0.134 A 
ATOM     58  C   UNL A   1      50.070  25.605  27.420  1.00  0.00     0.134 A 
ATOM     59  F   UNL A   1      49.017  26.945  24.212  1.00  0.00    -0.206 F 
ATOM     60  C   UNL A   1      51.055  25.967  24.849  1.00  0.00     0.040 A 
ATOM     61  C   UNL A   1      51.370  25.203  27.112  1.00  0.00     0.040 A 
ATOM     62  F   UNL A   1      49.633  25.413  28.674  1.00  0.00    -0.206 F 
ATOM     63  C   UNL A   1      51.865  25.384  25.821  1.00  0.00     0.006 A 
ENDBRANCH  39  56
ENDBRANCH  13  14
ENDBRANCH   6   8
ENDBRANCH   3   4
ENDBRANCH   2   3
ENDBRANCH   1   2
BRANCH   1  64
ATOM     64  N   UNL A   1      33.278  29.591  24.484  1.00  0.00    -0.352 N 
ATOM     65  C   UNL A   1      33.160  28.883  23.303  1.00  0.00     0.251 C 
ATOM     66  H   UNL A   1      33.143  30.566  24.490  1.00  0.00     0.163 HD
ATOM     67  O   UNL A   1      34.165  28.712  22.619  1.00  0.00    -0.269 OA
BRANCH  65  68
ATOM     68  C   UNL A   1      31.864  28.186  23.010  1.00  0.00     0.048 A 
ATOM     69  C   UNL A   1      30.874  28.885  22.301  1.00  0.00     0.014 A 
ATOM     70  C   UNL A   1      31.531  27.020  23.756  1.00  0.00     0.011 A 
ATOM     71  C   UNL A   1      29.534  28.619  22.535  1.00  0.00     0.001 A 
ATOM     72  C   UNL A   1      30.167  26.887  24.119  1.00  0.00    -0.016 A 
ATOM     73  C   UNL A   1      32.410  25.970  24.172  1.00  0.00     0.052 A 
ATOM     74  C   UNL A   1      29.188  27.681  23.501  1.00  0.00     0.009 A 
ATOM     75  C   UNL A   1      29.782  25.953  25.093  1.00  0.00     0.009 A 
ATOM     76  C   UNL A   1      32.011  25.074  25.183  1.00  0.00     0.019 A 
ATOM     77  C   UNL A   1      30.711  25.094  25.670  1.00  0.00     0.002 A 
BRANCH  73  78
ATOM     78  S   UNL A   1      33.862  25.383  23.192  1.00  0.00     0.086 S 
ATOM     79  O   UNL A   1      33.620  25.635  21.741  1.00  0.00    -0.249 OA
BRANCH  78  80
ATOM     80  C   UNL A   1      33.593  23.579  23.457  1.00  0.00     0.049 A 
ATOM     81  C   UNL A   1      32.553  22.954  22.736  1.00  0.00     0.018 A 
ATOM     82  C   UNL A   1      34.288  22.816  24.425  1.00  0.00    -0.006 A 
ATOM     83  C   UNL A   1      32.226  21.611  22.930  1.00  0.00     0.001 A 
ATOM     84  C   UNL A   1      33.915  21.467  24.626  1.00  0.00     0.007 A 
ATOM     85  C   UNL A   1      32.904  20.868  23.881  1.00  0.00     0.000 A 
BRANCH  82  86
ATOM     86  C   UNL A   1      35.368  23.343  25.335  1.00  0.00     0.192 C 
BRANCH  86  87
ATOM     87  O   UNL A   1      35.528  22.459  26.434  1.00  0.00    -0.392 OA
ATOM     88  H   UNL A   1      36.427  22.094  26.427  1.00  0.00     0.211 HD
ENDBRANCH  86  87
ENDBRANCH  82  86
ENDBRANCH  78  80
ENDBRANCH  73  78
ENDBRANCH  65  68
ENDBRANCH   1  64
TORSDOF 14
ENDMDL
