MODEL 1
REMARK VINA RESULT:     -12.0      0.000      0.000
REMARK SMILES Cc1cc(F)cc(N[C@](C)(C(=O)NCCCNC(=O)c2ccc(-c3c4nc(c(-c5c(F)cccc5F)c5ccc([nH]5)c(-c5c(F)cccc5F)c5nc(c(-c6c(F)cccc6F)c6ccc3[nH]6)C=C5)C=C4)cc2)c2cccc(F)c2)c1
REMARK SMILES IDX 15 1 14 2 13 3 11 4 12 5 9 7 10 8 8 9 7 11 1 12 2 13 3 14
REMARK SMILES IDX 81 15 4 16 5 17 6 18 74 19 75 20 80 21 76 22 78 23 77 24
REMARK SMILES IDX 79 25 16 26 17 27 18 28 19 30 20 31 21 32 73 33 22 34 72 35
REMARK SMILES IDX 23 36 24 37 25 38 66 39 26 40 71 41 65 42 67 43 27 44 70 45
REMARK SMILES IDX 64 46 63 47 28 49 54 50 37 51 53 52 38 53 41 54 52 55 68 56
REMARK SMILES IDX 39 57 40 58 51 60 69 61 42 62 29 63 30 64 35 65 31 66 32 67
REMARK SMILES IDX 34 68 36 69 33 70 55 71 56 72 61 73 57 74 58 75 60 76 62 77
REMARK SMILES IDX 59 78 43 79 44 80 49 81 45 82 46 83 48 84 50 85 47 86
REMARK H PARENT 13 6 8 10 17 29 67 48 41 59
REMARK Flexibility Score: inf
ROOT
ATOM      1  C   UNL A   1      38.609  20.453  25.058  1.00  0.00     0.042 C 
ENDROOT
BRANCH   1   2
ATOM      2  C   UNL A   1      37.861  21.725  25.455  1.00  0.00     0.117 C 
BRANCH   2   3
ATOM      3  N   UNL A   1      37.442  22.469  24.286  1.00  0.00    -0.354 N 
ATOM      4  C   UNL A   1      36.217  22.848  23.831  1.00  0.00     0.250 C 
ATOM      5  O   UNL A   1      36.189  23.118  22.619  1.00  0.00    -0.272 OA
ATOM      6  H   UNL A   1      38.186  22.756  23.709  1.00  0.00     0.163 HD
BRANCH   4   7
ATOM      7  C   UNL A   1      34.893  22.936  24.714  1.00  0.00     0.139 C 
ATOM      8  C   UNL A   1      35.057  23.076  26.248  1.00  0.00     0.051 C 
BRANCH   7   9
ATOM      9  N   UNL A   1      34.184  24.185  24.279  1.00  0.00    -0.368 N 
ATOM     10  H   UNL A   1      34.346  24.477  23.354  1.00  0.00     0.161 HD
BRANCH   9  11
ATOM     11  C   UNL A   1      33.322  24.979  25.035  1.00  0.00     0.038 A 
ATOM     12  C   UNL A   1      33.616  28.355  26.837  1.00  0.00     0.044 C 
ATOM     13  C   UNL A   1      33.043  27.082  26.295  1.00  0.00    -0.046 A 
ATOM     14  C   UNL A   1      31.712  26.753  26.551  1.00  0.00     0.042 A 
ATOM     15  C   UNL A   1      33.824  26.201  25.526  1.00  0.00     0.029 A 
ATOM     16  C   UNL A   1      31.199  25.564  26.055  1.00  0.00     0.125 A 
ATOM     17  F   UNL A   1      29.922  25.244  26.306  1.00  0.00    -0.207 F 
ATOM     18  C   UNL A   1      31.985  24.688  25.308  1.00  0.00     0.065 A 
ENDBRANCH   9  11
ENDBRANCH   7   9
BRANCH   7  19
ATOM     19  C   UNL A   1      34.032  21.672  24.385  1.00  0.00    -0.011 A 
ATOM     20  C   UNL A   1      32.930  21.684  23.505  1.00  0.00     0.007 A 
ATOM     21  C   UNL A   1      34.401  20.407  24.891  1.00  0.00     0.046 A 
ATOM     22  C   UNL A   1      32.244  20.507  23.157  1.00  0.00     0.003 A 
ATOM     23  C   UNL A   1      33.731  19.241  24.523  1.00  0.00     0.123 A 
ATOM     24  C   UNL A   1      32.654  19.279  23.660  1.00  0.00     0.039 A 
ATOM     25  F   UNL A   1      34.161  18.064  24.998  1.00  0.00    -0.207 F 
ENDBRANCH   7  19
ENDBRANCH   4   7
ENDBRANCH   2   3
ENDBRANCH   1   2
BRANCH   1  26
ATOM     26  C   UNL A   1      39.266  19.734  26.230  1.00  0.00     0.118 C 
BRANCH  26  27
ATOM     27  N   UNL A   1      40.533  19.126  25.857  1.00  0.00    -0.352 N 
ATOM     28  C   UNL A   1      41.793  19.667  25.791  1.00  0.00     0.251 C 
ATOM     29  H   UNL A   1      40.478  18.174  25.612  1.00  0.00     0.163 HD
ATOM     30  O   UNL A   1      42.684  19.032  25.234  1.00  0.00    -0.269 OA
BRANCH  28  31
ATOM     31  C   UNL A   1      42.095  20.996  26.372  1.00  0.00     0.039 A 
ATOM     32  C   UNL A   1      42.066  21.138  27.764  1.00  0.00     0.014 A 
ATOM     33  C   UNL A   1      42.332  22.116  25.569  1.00  0.00     0.014 A 
ATOM     34  C   UNL A   1      42.303  22.385  28.346  1.00  0.00     0.010 A 
ATOM     35  C   UNL A   1      42.651  23.341  26.152  1.00  0.00     0.010 A 
ATOM     36  C   UNL A   1      42.616  23.495  27.545  1.00  0.00    -0.014 A 
BRANCH  36  37
ATOM     37  C   UNL A   1      42.867  24.827  28.151  1.00  0.00     0.031 A 
ATOM     38  C   UNL A   1      44.257  25.220  28.572  1.00  0.00     0.074 A 
ATOM     39  C   UNL A   1      41.838  25.671  28.359  1.00  0.00     0.049 A 
ATOM     40  N   UNL A   1      44.670  26.331  29.127  1.00  0.00    -0.248 NA
ATOM     41  C   UNL A   1      45.318  24.222  28.366  1.00  0.00     0.031 C 
ATOM     42  C   UNL A   1      40.437  25.390  28.042  1.00  0.00     0.029 A 
ATOM     43  N   UNL A   1      41.813  26.938  28.885  1.00  0.00    -0.354 N 
ATOM     44  C   UNL A   1      46.030  26.156  29.356  1.00  0.00     0.074 A 
ATOM     45  C   UNL A   1      46.360  24.814  28.929  1.00  0.00     0.031 C 
ATOM     46  C   UNL A   1      39.695  26.469  28.341  1.00  0.00     0.029 A 
ATOM     47  C   UNL A   1      40.562  27.502  28.899  1.00  0.00     0.049 A 
ATOM     48  H   UNL A   1      42.617  27.398  29.220  1.00  0.00     0.167 HD
ATOM     49  C   UNL A   1      46.929  27.040  29.852  1.00  0.00     0.037 A 
ATOM     50  C   UNL A   1      40.161  28.721  29.306  1.00  0.00     0.037 A 
ATOM     51  C   UNL A   1      46.606  28.387  30.243  1.00  0.00     0.049 A 
ATOM     52  C   UNL A   1      41.176  29.692  29.838  1.00  0.00     0.074 A 
ATOM     53  C   UNL A   1      47.456  29.384  30.689  1.00  0.00     0.029 A 
ATOM     54  N   UNL A   1      45.328  28.924  30.236  1.00  0.00    -0.354 N 
ATOM     55  N   UNL A   1      42.470  29.539  29.982  1.00  0.00    -0.248 NA
ATOM     56  C   UNL A   1      40.675  31.008  30.259  1.00  0.00     0.031 C 
ATOM     57  C   UNL A   1      46.685  30.514  30.986  1.00  0.00     0.029 A 
ATOM     58  C   UNL A   1      45.362  30.232  30.689  1.00  0.00     0.049 A 
ATOM     59  H   UNL A   1      44.516  28.446  29.952  1.00  0.00     0.167 HD
ATOM     60  C   UNL A   1      42.942  30.744  30.485  1.00  0.00     0.074 A 
ATOM     61  C   UNL A   1      41.796  31.621  30.613  1.00  0.00     0.031 C 
ATOM     62  C   UNL A   1      44.211  31.092  30.807  1.00  0.00     0.037 A 
BRANCH  49  63
ATOM     63  C   UNL A   1      48.347  26.568  29.995  1.00  0.00     0.057 A 
ATOM     64  C   UNL A   1      48.787  25.885  31.137  1.00  0.00     0.134 A 
ATOM     65  C   UNL A   1      49.284  26.799  28.981  1.00  0.00     0.134 A 
ATOM     66  F   UNL A   1      47.943  25.643  32.152  1.00  0.00    -0.206 F 
ATOM     67  C   UNL A   1      50.116  25.483  31.282  1.00  0.00     0.040 A 
ATOM     68  C   UNL A   1      50.609  26.376  29.101  1.00  0.00     0.040 A 
ATOM     69  F   UNL A   1      48.930  27.439  27.857  1.00  0.00    -0.206 F 
ATOM     70  C   UNL A   1      51.032  25.726  30.260  1.00  0.00     0.006 A 
ENDBRANCH  49  63
BRANCH  50  71
ATOM     71  C   UNL A   1      38.736  29.108  29.166  1.00  0.00     0.057 A 
ATOM     72  C   UNL A   1      37.866  29.039  30.259  1.00  0.00     0.134 A 
ATOM     73  C   UNL A   1      38.217  29.578  27.954  1.00  0.00     0.134 A 
ATOM     74  F   UNL A   1      38.304  28.582  31.441  1.00  0.00    -0.206 F 
ATOM     75  C   UNL A   1      36.528  29.418  30.154  1.00  0.00     0.040 A 
ATOM     76  C   UNL A   1      36.885  29.979  27.838  1.00  0.00     0.040 A 
ATOM     77  F   UNL A   1      39.003  29.674  26.872  1.00  0.00    -0.206 F 
ATOM     78  C   UNL A   1      36.035  29.897  28.941  1.00  0.00     0.006 A 
ENDBRANCH  50  71
BRANCH  62  79
ATOM     79  C   UNL A   1      44.431  32.490  31.306  1.00  0.00     0.057 A 
ATOM     80  C   UNL A   1      44.391  32.801  32.671  1.00  0.00     0.134 A 
ATOM     81  C   UNL A   1      44.722  33.527  30.411  1.00  0.00     0.134 A 
ATOM     82  F   UNL A   1      44.104  31.854  33.576  1.00  0.00    -0.206 F 
ATOM     83  C   UNL A   1      44.616  34.101  33.127  1.00  0.00     0.040 A 
ATOM     84  C   UNL A   1      44.970  34.825  30.857  1.00  0.00     0.040 A 
ATOM     85  F   UNL A   1      44.781  33.294  29.092  1.00  0.00    -0.206 F 
ATOM     86  C   UNL A   1      44.913  35.116  32.220  1.00  0.00     0.006 A 
ENDBRANCH  62  79
ENDBRANCH  36  37
ENDBRANCH  28  31
ENDBRANCH  26  27
ENDBRANCH   1  26
TORSDOF 13
ENDMDL
MODEL 2
REMARK VINA RESULT:     -11.9      4.460      9.321
REMARK SMILES Cc1cc(F)cc(N[C@](C)(C(=O)NCCCNC(=O)c2ccc(-c3c4nc(c(-c5c(F)cccc5F)c5ccc([nH]5)c(-c5c(F)cccc5F)c5nc(c(-c6c(F)cccc6F)c6ccc3[nH]6)C=C5)C=C4)cc2)c2cccc(F)c2)c1
REMARK SMILES IDX 15 1 14 2 13 3 11 4 12 5 9 7 10 8 8 9 7 11 1 12 2 13 3 14
REMARK SMILES IDX 81 15 4 16 5 17 6 18 74 19 75 20 80 21 76 22 78 23 77 24
REMARK SMILES IDX 79 25 16 26 17 27 18 28 19 30 20 31 21 32 73 33 22 34 72 35
REMARK SMILES IDX 23 36 24 37 25 38 66 39 26 40 71 41 65 42 67 43 27 44 70 45
REMARK SMILES IDX 64 46 63 47 28 49 54 50 37 51 53 52 38 53 41 54 52 55 68 56
REMARK SMILES IDX 39 57 40 58 51 60 69 61 42 62 29 63 30 64 35 65 31 66 32 67
REMARK SMILES IDX 34 68 36 69 33 70 55 71 56 72 61 73 57 74 58 75 60 76 62 77
REMARK SMILES IDX 59 78 43 79 44 80 49 81 45 82 46 83 48 84 50 85 47 86
REMARK H PARENT 13 6 8 10 17 29 67 48 41 59
REMARK Flexibility Score: inf
ROOT
ATOM      1  C   UNL A   1      31.418  32.203  26.866  1.00  0.00     0.042 C 
ENDROOT
BRANCH   1   2
ATOM      2  C   UNL A   1      31.522  30.882  26.106  1.00  0.00     0.117 C 
BRANCH   2   3
ATOM      3  N   UNL A   1      31.696  29.769  27.016  1.00  0.00    -0.354 N 
ATOM      4  C   UNL A   1      31.890  28.438  26.810  1.00  0.00     0.250 C 
ATOM      5  O   UNL A   1      31.602  27.728  27.788  1.00  0.00    -0.272 OA
ATOM      6  H   UNL A   1      31.668  30.024  27.966  1.00  0.00     0.163 HD
BRANCH   4   7
ATOM      7  C   UNL A   1      32.414  27.783  25.456  1.00  0.00     0.139 C 
ATOM      8  C   UNL A   1      33.727  28.335  24.847  1.00  0.00     0.051 C 
BRANCH   7   9
ATOM      9  N   UNL A   1      32.702  26.344  25.772  1.00  0.00    -0.368 N 
ATOM     10  H   UNL A   1      32.296  25.990  26.596  1.00  0.00     0.161 HD
BRANCH   9  11
ATOM     11  C   UNL A   1      33.479  25.451  25.034  1.00  0.00     0.038 A 
ATOM     12  C   UNL A   1      36.831  23.666  25.590  1.00  0.00     0.044 C 
ATOM     13  C   UNL A   1      35.540  24.097  24.965  1.00  0.00    -0.046 A 
ATOM     14  C   UNL A   1      35.172  23.600  23.715  1.00  0.00     0.042 A 
ATOM     15  C   UNL A   1      34.682  25.000  25.616  1.00  0.00     0.029 A 
ATOM     16  C   UNL A   1      33.980  24.019  23.141  1.00  0.00     0.125 A 
ATOM     17  F   UNL A   1      33.629  23.546  21.938  1.00  0.00    -0.207 F 
ATOM     18  C   UNL A   1      33.143  24.928  23.786  1.00  0.00     0.065 A 
ENDBRANCH   9  11
ENDBRANCH   7   9
BRANCH   7  19
ATOM     19  C   UNL A   1      31.257  27.894  24.409  1.00  0.00    -0.011 A 
ATOM     20  C   UNL A   1      30.103  27.082  24.429  1.00  0.00     0.007 A 
ATOM     21  C   UNL A   1      31.273  28.915  23.434  1.00  0.00     0.046 A 
ATOM     22  C   UNL A   1      29.039  27.281  23.532  1.00  0.00     0.003 A 
ATOM     23  C   UNL A   1      30.204  29.122  22.563  1.00  0.00     0.123 A 
ATOM     24  C   UNL A   1      29.085  28.312  22.602  1.00  0.00     0.039 A 
ATOM     25  F   UNL A   1      30.257  30.140  21.694  1.00  0.00    -0.207 F 
ENDBRANCH   7  19
ENDBRANCH   4   7
ENDBRANCH   2   3
ENDBRANCH   1   2
BRANCH   1  26
ATOM     26  C   UNL A   1      32.745  32.937  27.009  1.00  0.00     0.118 C 
BRANCH  26  27
ATOM     27  N   UNL A   1      32.602  34.190  27.733  1.00  0.00    -0.352 N 
ATOM     28  C   UNL A   1      33.224  34.633  28.873  1.00  0.00     0.251 C 
ATOM     29  H   UNL A   1      31.954  34.820  27.343  1.00  0.00     0.163 HD
ATOM     30  O   UNL A   1      32.787  35.631  29.439  1.00  0.00    -0.269 OA
BRANCH  28  31
ATOM     31  C   UNL A   1      34.403  33.933  29.433  1.00  0.00     0.039 A 
ATOM     32  C   UNL A   1      35.677  34.328  29.010  1.00  0.00     0.014 A 
ATOM     33  C   UNL A   1      34.272  32.850  30.307  1.00  0.00     0.014 A 
ATOM     34  C   UNL A   1      36.810  33.662  29.482  1.00  0.00     0.010 A 
ATOM     35  C   UNL A   1      35.405  32.241  30.844  1.00  0.00     0.010 A 
ATOM     36  C   UNL A   1      36.685  32.624  30.419  1.00  0.00    -0.014 A 
BRANCH  36  37
ATOM     37  C   UNL A   1      37.881  31.906  30.927  1.00  0.00     0.031 A 
ATOM     38  C   UNL A   1      38.442  32.232  32.285  1.00  0.00     0.074 A 
ATOM     39  C   UNL A   1      38.489  30.987  30.152  1.00  0.00     0.049 A 
ATOM     40  N   UNL A   1      39.483  31.722  32.895  1.00  0.00    -0.248 NA
ATOM     41  C   UNL A   1      37.759  33.288  33.048  1.00  0.00     0.031 C 
ATOM     42  C   UNL A   1      38.075  30.617  28.799  1.00  0.00     0.029 A 
ATOM     43  N   UNL A   1      39.584  30.197  30.394  1.00  0.00    -0.354 N 
ATOM     44  C   UNL A   1      39.590  32.410  34.098  1.00  0.00     0.074 A 
ATOM     45  C   UNL A   1      38.542  33.407  34.108  1.00  0.00     0.031 C 
ATOM     46  C   UNL A   1      38.879  29.642  28.345  1.00  0.00     0.029 A 
ATOM     47  C   UNL A   1      39.882  29.341  29.362  1.00  0.00     0.049 A 
ATOM     48  H   UNL A   1      40.105  30.238  31.229  1.00  0.00     0.167 HD
ATOM     49  C   UNL A   1      40.464  32.212  35.114  1.00  0.00     0.037 A 
ATOM     50  C   UNL A   1      40.850  28.413  29.254  1.00  0.00     0.037 A 
ATOM     51  C   UNL A   1      41.483  31.197  35.117  1.00  0.00     0.049 A 
ATOM     52  C   UNL A   1      41.799  28.199  30.398  1.00  0.00     0.074 A 
ATOM     53  C   UNL A   1      42.371  30.867  36.126  1.00  0.00     0.029 A 
ATOM     54  N   UNL A   1      41.750  30.345  34.056  1.00  0.00    -0.354 N 
ATOM     55  N   UNL A   1      41.845  28.807  31.559  1.00  0.00    -0.248 NA
ATOM     56  C   UNL A   1      42.829  27.166  30.219  1.00  0.00     0.031 C 
ATOM     57  C   UNL A   1      43.200  29.839  35.660  1.00  0.00     0.029 A 
ATOM     58  C   UNL A   1      42.802  29.504  34.376  1.00  0.00     0.049 A 
ATOM     59  H   UNL A   1      41.264  30.340  33.200  1.00  0.00     0.167 HD
ATOM     60  C   UNL A   1      42.888  28.215  32.258  1.00  0.00     0.074 A 
ATOM     61  C   UNL A   1      43.443  27.192  31.394  1.00  0.00     0.031 C 
ATOM     62  C   UNL A   1      43.341  28.491  33.505  1.00  0.00     0.037 A 
BRANCH  49  63
ATOM     63  C   UNL A   1      40.348  33.120  36.304  1.00  0.00     0.057 A 
ATOM     64  C   UNL A   1      39.420  32.883  37.328  1.00  0.00     0.134 A 
ATOM     65  C   UNL A   1      41.170  34.246  36.429  1.00  0.00     0.134 A 
ATOM     66  F   UNL A   1      38.593  31.828  37.264  1.00  0.00    -0.206 F 
ATOM     67  C   UNL A   1      39.289  33.751  38.413  1.00  0.00     0.040 A 
ATOM     68  C   UNL A   1      41.069  35.108  37.523  1.00  0.00     0.040 A 
ATOM     69  F   UNL A   1      42.085  34.530  35.490  1.00  0.00    -0.206 F 
ATOM     70  C   UNL A   1      40.118  34.868  38.514  1.00  0.00     0.006 A 
ENDBRANCH  49  63
BRANCH  50  71
ATOM     71  C   UNL A   1      40.927  27.574  28.033  1.00  0.00     0.057 A 
ATOM     72  C   UNL A   1      41.697  27.976  26.936  1.00  0.00     0.134 A 
ATOM     73  C   UNL A   1      40.260  26.347  27.941  1.00  0.00     0.134 A 
ATOM     74  F   UNL A   1      42.345  29.150  26.962  1.00  0.00    -0.206 F 
ATOM     75  C   UNL A   1      41.799  27.192  25.787  1.00  0.00     0.040 A 
ATOM     76  C   UNL A   1      40.369  25.542  26.806  1.00  0.00     0.040 A 
ATOM     77  F   UNL A   1      39.513  25.903  28.962  1.00  0.00    -0.206 F 
ATOM     78  C   UNL A   1      41.138  25.966  25.723  1.00  0.00     0.006 A 
ENDBRANCH  50  71
BRANCH  62  79
ATOM     79  C   UNL A   1      44.478  27.658  34.019  1.00  0.00     0.057 A 
ATOM     80  C   UNL A   1      44.263  26.430  34.657  1.00  0.00     0.134 A 
ATOM     81  C   UNL A   1      45.803  28.075  33.840  1.00  0.00     0.134 A 
ATOM     82  F   UNL A   1      43.017  25.983  34.870  1.00  0.00    -0.206 F 
ATOM     83  C   UNL A   1      45.329  25.653  35.115  1.00  0.00     0.040 A 
ATOM     84  C   UNL A   1      46.876  27.296  34.274  1.00  0.00     0.040 A 
ATOM     85  F   UNL A   1      46.076  29.238  33.231  1.00  0.00    -0.206 F 
ATOM     86  C   UNL A   1      46.640  26.083  34.918  1.00  0.00     0.006 A 
ENDBRANCH  62  79
ENDBRANCH  36  37
ENDBRANCH  28  31
ENDBRANCH  26  27
ENDBRANCH   1  26
TORSDOF 13
ENDMDL
MODEL 3
REMARK VINA RESULT:     -11.8      3.962      9.017
REMARK SMILES Cc1cc(F)cc(N[C@](C)(C(=O)NCCCNC(=O)c2ccc(-c3c4nc(c(-c5c(F)cccc5F)c5ccc([nH]5)c(-c5c(F)cccc5F)c5nc(c(-c6c(F)cccc6F)c6ccc3[nH]6)C=C5)C=C4)cc2)c2cccc(F)c2)c1
REMARK SMILES IDX 15 1 14 2 13 3 11 4 12 5 9 7 10 8 8 9 7 11 1 12 2 13 3 14
REMARK SMILES IDX 81 15 4 16 5 17 6 18 74 19 75 20 80 21 76 22 78 23 77 24
REMARK SMILES IDX 79 25 16 26 17 27 18 28 19 30 20 31 21 32 73 33 22 34 72 35
REMARK SMILES IDX 23 36 24 37 25 38 66 39 26 40 71 41 65 42 67 43 27 44 70 45
REMARK SMILES IDX 64 46 63 47 28 49 54 50 37 51 53 52 38 53 41 54 52 55 68 56
REMARK SMILES IDX 39 57 40 58 51 60 69 61 42 62 29 63 30 64 35 65 31 66 32 67
REMARK SMILES IDX 34 68 36 69 33 70 55 71 56 72 61 73 57 74 58 75 60 76 62 77
REMARK SMILES IDX 59 78 43 79 44 80 49 81 45 82 46 83 48 84 50 85 47 86
REMARK H PARENT 13 6 8 10 17 29 67 48 41 59
REMARK Flexibility Score: inf
ROOT
ATOM      1  C   UNL A   1      31.467  32.080  26.940  1.00  0.00     0.042 C 
ENDROOT
BRANCH   1   2
ATOM      2  C   UNL A   1      31.665  30.789  26.148  1.00  0.00     0.117 C 
BRANCH   2   3
ATOM      3  N   UNL A   1      31.774  29.647  27.031  1.00  0.00    -0.354 N 
ATOM      4  C   UNL A   1      31.793  28.306  26.798  1.00  0.00     0.250 C 
ATOM      5  O   UNL A   1      31.497  27.616  27.788  1.00  0.00    -0.272 OA
ATOM      6  H   UNL A   1      31.847  29.886  27.983  1.00  0.00     0.163 HD
BRANCH   4   7
ATOM      7  C   UNL A   1      32.133  27.619  25.401  1.00  0.00     0.139 C 
ATOM      8  C   UNL A   1      33.299  28.210  24.570  1.00  0.00     0.051 C 
BRANCH   7   9
ATOM      9  N   UNL A   1      32.549  26.213  25.718  1.00  0.00    -0.368 N 
ATOM     10  H   UNL A   1      32.234  25.849  26.576  1.00  0.00     0.161 HD
BRANCH   9  11
ATOM     11  C   UNL A   1      33.332  25.362  24.937  1.00  0.00     0.038 A 
ATOM     12  C   UNL A   1      36.789  23.738  25.317  1.00  0.00     0.044 C 
ATOM     13  C   UNL A   1      35.449  24.109  24.758  1.00  0.00    -0.046 A 
ATOM     14  C   UNL A   1      35.045  23.602  23.524  1.00  0.00     0.042 A 
ATOM     15  C   UNL A   1      34.581  24.967  25.456  1.00  0.00     0.029 A 
ATOM     16  C   UNL A   1      33.809  23.966  23.011  1.00  0.00     0.125 A 
ATOM     17  F   UNL A   1      33.423  23.483  21.823  1.00  0.00    -0.207 F 
ATOM     18  C   UNL A   1      32.961  24.830  23.702  1.00  0.00     0.065 A 
ENDBRANCH   9  11
ENDBRANCH   7   9
BRANCH   7  19
ATOM     19  C   UNL A   1      30.819  27.625  24.550  1.00  0.00    -0.011 A 
ATOM     20  C   UNL A   1      29.839  26.612  24.618  1.00  0.00     0.007 A 
ATOM     21  C   UNL A   1      30.504  28.732  23.733  1.00  0.00     0.046 A 
ATOM     22  C   UNL A   1      28.626  26.705  23.913  1.00  0.00     0.003 A 
ATOM     23  C   UNL A   1      29.289  28.828  23.056  1.00  0.00     0.123 A 
ATOM     24  C   UNL A   1      28.346  27.822  23.138  1.00  0.00     0.039 A 
ATOM     25  F   UNL A   1      29.028  29.927  22.337  1.00  0.00    -0.207 F 
ENDBRANCH   7  19
ENDBRANCH   4   7
ENDBRANCH   2   3
ENDBRANCH   1   2
BRANCH   1  26
ATOM     26  C   UNL A   1      32.648  33.040  26.859  1.00  0.00     0.118 C 
BRANCH  26  27
ATOM     27  N   UNL A   1      32.476  34.192  27.730  1.00  0.00    -0.352 N 
ATOM     28  C   UNL A   1      33.168  34.566  28.854  1.00  0.00     0.251 C 
ATOM     29  H   UNL A   1      31.747  34.800  27.470  1.00  0.00     0.163 HD
ATOM     30  O   UNL A   1      32.710  35.456  29.565  1.00  0.00    -0.269 OA
BRANCH  28  31
ATOM     31  C   UNL A   1      34.446  33.917  29.228  1.00  0.00     0.039 A 
ATOM     32  C   UNL A   1      34.435  32.966  30.255  1.00  0.00     0.014 A 
ATOM     33  C   UNL A   1      35.659  34.280  28.637  1.00  0.00     0.014 A 
ATOM     34  C   UNL A   1      35.627  32.364  30.665  1.00  0.00     0.010 A 
ATOM     35  C   UNL A   1      36.836  33.620  28.988  1.00  0.00     0.010 A 
ATOM     36  C   UNL A   1      36.836  32.673  30.022  1.00  0.00    -0.014 A 
BRANCH  36  37
ATOM     37  C   UNL A   1      38.111  32.042  30.449  1.00  0.00     0.031 A 
ATOM     38  C   UNL A   1      38.922  32.649  31.562  1.00  0.00     0.074 A 
ATOM     39  C   UNL A   1      38.560  30.944  29.812  1.00  0.00     0.049 A 
ATOM     40  N   UNL A   1      40.063  32.250  32.066  1.00  0.00    -0.248 NA
ATOM     41  C   UNL A   1      38.396  33.880  32.170  1.00  0.00     0.031 C 
ATOM     42  C   UNL A   1      37.893  30.288  28.687  1.00  0.00     0.029 A 
ATOM     43  N   UNL A   1      39.683  30.185  30.022  1.00  0.00    -0.354 N 
ATOM     44  C   UNL A   1      40.399  33.192  33.032  1.00  0.00     0.074 A 
ATOM     45  C   UNL A   1      39.370  34.209  33.005  1.00  0.00     0.031 C 
ATOM     46  C   UNL A   1      38.598  29.201  28.332  1.00  0.00     0.029 A 
ATOM     47  C   UNL A   1      39.779  29.102  29.183  1.00  0.00     0.049 A 
ATOM     48  H   UNL A   1      40.356  30.396  30.710  1.00  0.00     0.167 HD
ATOM     49  C   UNL A   1      41.454  33.198  33.882  1.00  0.00     0.037 A 
ATOM     50  C   UNL A   1      40.711  28.133  29.115  1.00  0.00     0.037 A 
ATOM     51  C   UNL A   1      42.457  32.168  33.931  1.00  0.00     0.049 A 
ATOM     52  C   UNL A   1      41.864  28.150  30.078  1.00  0.00     0.074 A 
ATOM     53  C   UNL A   1      43.524  32.043  34.804  1.00  0.00     0.029 A 
ATOM     54  N   UNL A   1      42.516  31.084  33.069  1.00  0.00    -0.354 N 
ATOM     55  N   UNL A   1      42.131  29.007  31.033  1.00  0.00    -0.248 NA
ATOM     56  C   UNL A   1      42.843  27.060  29.955  1.00  0.00     0.031 C 
ATOM     57  C   UNL A   1      44.251  30.902  34.445  1.00  0.00     0.029 A 
ATOM     58  C   UNL A   1      43.613  30.296  33.374  1.00  0.00     0.049 A 
ATOM     59  H   UNL A   1      41.874  30.902  32.346  1.00  0.00     0.167 HD
ATOM     60  C   UNL A   1      43.291  28.549  31.641  1.00  0.00     0.074 A 
ATOM     61  C   UNL A   1      43.672  27.332  30.954  1.00  0.00     0.031 C 
ATOM     62  C   UNL A   1      43.976  29.086  32.680  1.00  0.00     0.037 A 
BRANCH  49  63
ATOM     63  C   UNL A   1      41.566  34.361  34.825  1.00  0.00     0.057 A 
ATOM     64  C   UNL A   1      42.248  35.535  34.474  1.00  0.00     0.134 A 
ATOM     65  C   UNL A   1      40.988  34.308  36.099  1.00  0.00     0.134 A 
ATOM     66  F   UNL A   1      42.836  35.646  33.273  1.00  0.00    -0.206 F 
ATOM     67  C   UNL A   1      42.383  36.597  35.369  1.00  0.00     0.040 A 
ATOM     68  C   UNL A   1      41.092  35.376  36.993  1.00  0.00     0.040 A 
ATOM     69  F   UNL A   1      40.315  33.219  36.498  1.00  0.00    -0.206 F 
ATOM     70  C   UNL A   1      41.801  36.521  36.633  1.00  0.00     0.006 A 
ENDBRANCH  49  63
BRANCH  50  71
ATOM     71  C   UNL A   1      40.552  27.032  28.134  1.00  0.00     0.057 A 
ATOM     72  C   UNL A   1      39.745  25.926  28.425  1.00  0.00     0.134 A 
ATOM     73  C   UNL A   1      41.175  27.068  26.882  1.00  0.00     0.134 A 
ATOM     74  F   UNL A   1      39.136  25.831  29.616  1.00  0.00    -0.206 F 
ATOM     75  C   UNL A   1      39.566  24.891  27.507  1.00  0.00     0.040 A 
ATOM     76  C   UNL A   1      40.989  26.049  25.946  1.00  0.00     0.040 A 
ATOM     77  F   UNL A   1      41.954  28.105  26.542  1.00  0.00    -0.206 F 
ATOM     78  C   UNL A   1      40.185  24.954  26.260  1.00  0.00     0.006 A 
ENDBRANCH  50  71
BRANCH  62  79
ATOM     79  C   UNL A   1      45.194  28.348  33.152  1.00  0.00     0.057 A 
ATOM     80  C   UNL A   1      45.114  27.332  34.113  1.00  0.00     0.134 A 
ATOM     81  C   UNL A   1      46.453  28.633  32.610  1.00  0.00     0.134 A 
ATOM     82  F   UNL A   1      43.939  27.022  34.678  1.00  0.00    -0.206 F 
ATOM     83  C   UNL A   1      46.250  26.637  34.531  1.00  0.00     0.040 A 
ATOM     84  C   UNL A   1      47.592  27.929  33.005  1.00  0.00     0.040 A 
ATOM     85  F   UNL A   1      46.596  29.589  31.682  1.00  0.00    -0.206 F 
ATOM     86  C   UNL A   1      47.492  26.931  33.972  1.00  0.00     0.006 A 
ENDBRANCH  62  79
ENDBRANCH  36  37
ENDBRANCH  28  31
ENDBRANCH  26  27
ENDBRANCH   1  26
TORSDOF 13
ENDMDL
