MODEL 1
REMARK VINA RESULT:     -10.2      0.000      0.000
REMARK SMILES [N-]=[N+]=NC[C@H](NC=O)C(=O)NCCCNC(=O)c1ccc(-c2c3nc(c(-c4c(F)cccc4F)c4ccc([nH]4)c(-c4c(F)cccc4F)c4nc(c(-c5c(F)cccc5F)c5ccc2[nH]5)C=C4)C=C3)cc1
REMARK SMILES IDX 13 1 12 2 11 3 9 4 10 5 5 7 4 8 3 9 1 10 2 11 6 12 7 13 8 15
REMARK SMILES IDX 14 16 15 17 16 18 17 20 18 21 19 22 71 23 20 24 70 25 21 26
REMARK SMILES IDX 22 27 23 28 64 29 24 30 69 31 63 32 65 33 25 34 68 35 62 36
REMARK SMILES IDX 61 37 26 39 52 40 35 41 51 42 36 43 39 44 50 45 66 46 37 47
REMARK SMILES IDX 38 48 49 50 67 51 40 52 27 53 28 54 33 55 29 56 30 57 32 58
REMARK SMILES IDX 34 59 31 60 53 61 54 62 59 63 55 64 56 65 58 66 60 67 57 68
REMARK SMILES IDX 41 69 42 70 47 71 43 72 44 73 46 74 48 75 45 76
REMARK H PARENT 11 6 6 14 15 19 65 38 39 49
REMARK Flexibility Score: inf
ROOT
ATOM      1  C   UNL A   1      35.394  32.197  31.308  1.00  0.00     0.042 C 
ENDROOT
BRANCH   1   2
ATOM      2  C   UNL A   1      34.343  32.825  32.211  1.00  0.00     0.117 C 
BRANCH   2   3
ATOM      3  N   UNL A   1      34.828  34.038  32.841  1.00  0.00    -0.354 N 
ATOM      4  C   UNL A   1      34.388  35.323  32.762  1.00  0.00     0.242 C 
ATOM      5  O   UNL A   1      35.068  36.186  33.326  1.00  0.00    -0.273 OA
ATOM      6  H   UNL A   1      35.610  33.910  33.427  1.00  0.00     0.163 HD
BRANCH   4   7
ATOM      7  C   UNL A   1      33.122  35.720  31.979  1.00  0.00     0.176 C 
BRANCH   7   8
ATOM      8  C   UNL A   1      33.426  36.618  30.763  1.00  0.00     0.125 C 
BRANCH   8   9
ATOM      9  N   UNL A   1      32.461  36.371  29.672  1.00  0.00    -0.091 NA
ATOM     10  N   UNL A   1      32.871  34.419  28.365  1.00  0.00    -0.003 NA
ATOM     11  N   UNL A   1      32.668  35.352  28.981  1.00  0.00     0.001 N 
ENDBRANCH   8   9
ENDBRANCH   7   8
BRANCH   7  12
ATOM     12  N   UNL A   1      32.059  36.146  32.891  1.00  0.00    -0.347 N 
ATOM     13  C   UNL A   1      30.717  35.984  32.773  1.00  0.00     0.337 C 
ATOM     14  H   UNL A   1      32.358  36.614  33.703  1.00  0.00     0.164 HD
ATOM     15  O   UNL A   1      29.920  36.536  33.517  1.00  0.00    -0.279 OA
ENDBRANCH   7  12
ENDBRANCH   4   7
ENDBRANCH   2   3
ENDBRANCH   1   2
BRANCH   1  16
ATOM     16  C   UNL A   1      35.262  32.615  29.852  1.00  0.00     0.118 C 
BRANCH  16  17
ATOM     17  N   UNL A   1      34.460  31.675  29.077  1.00  0.00    -0.352 N 
ATOM     18  C   UNL A   1      34.852  30.573  28.358  1.00  0.00     0.251 C 
ATOM     19  H   UNL A   1      33.493  31.857  29.070  1.00  0.00     0.163 HD
ATOM     20  O   UNL A   1      34.063  30.033  27.589  1.00  0.00    -0.269 OA
BRANCH  18  21
ATOM     21  C   UNL A   1      36.225  30.047  28.503  1.00  0.00     0.039 A 
ATOM     22  C   UNL A   1      37.136  30.220  27.459  1.00  0.00     0.014 A 
ATOM     23  C   UNL A   1      36.609  29.375  29.665  1.00  0.00     0.014 A 
ATOM     24  C   UNL A   1      38.451  29.774  27.610  1.00  0.00     0.010 A 
ATOM     25  C   UNL A   1      37.939  29.023  29.853  1.00  0.00     0.010 A 
ATOM     26  C   UNL A   1      38.871  29.205  28.823  1.00  0.00    -0.014 A 
BRANCH  26  27
ATOM     27  C   UNL A   1      40.272  28.759  29.033  1.00  0.00     0.031 A 
ATOM     28  C   UNL A   1      41.270  29.705  29.643  1.00  0.00     0.074 A 
ATOM     29  C   UNL A   1      40.658  27.537  28.617  1.00  0.00     0.049 A 
ATOM     30  N   UNL A   1      42.560  29.557  29.805  1.00  0.00    -0.248 NA
ATOM     31  C   UNL A   1      40.753  31.003  30.108  1.00  0.00     0.031 C 
ATOM     32  C   UNL A   1      39.792  26.540  27.985  1.00  0.00     0.029 A 
ATOM     33  N   UNL A   1      41.889  26.929  28.655  1.00  0.00    -0.354 N 
ATOM     34  C   UNL A   1      43.005  30.739  30.384  1.00  0.00     0.074 A 
ATOM     35  C   UNL A   1      41.865  31.622  30.478  1.00  0.00     0.031 C 
ATOM     36  C   UNL A   1      40.511  25.438  27.716  1.00  0.00     0.029 A 
ATOM     37  C   UNL A   1      41.898  25.667  28.109  1.00  0.00     0.049 A 
ATOM     38  H   UNL A   1      42.689  27.357  29.036  1.00  0.00     0.167 HD
ATOM     39  C   UNL A   1      44.245  31.049  30.828  1.00  0.00     0.037 A 
ATOM     40  C   UNL A   1      42.916  24.803  27.932  1.00  0.00     0.037 A 
ATOM     41  C   UNL A   1      45.375  30.164  30.744  1.00  0.00     0.049 A 
ATOM     42  C   UNL A   1      44.298  25.200  28.381  1.00  0.00     0.074 A 
ATOM     43  C   UNL A   1      46.671  30.377  31.180  1.00  0.00     0.029 A 
ATOM     44  N   UNL A   1      45.342  28.894  30.190  1.00  0.00    -0.354 N 
ATOM     45  N   UNL A   1      44.694  26.303  28.968  1.00  0.00    -0.248 NA
ATOM     46  C   UNL A   1      45.374  24.228  28.146  1.00  0.00     0.031 C 
ATOM     47  C   UNL A   1      47.433  29.253  30.849  1.00  0.00     0.029 A 
ATOM     48  C   UNL A   1      46.597  28.315  30.262  1.00  0.00     0.049 A 
ATOM     49  H   UNL A   1      44.544  28.466  29.802  1.00  0.00     0.167 HD
ATOM     50  C   UNL A   1      46.051  26.136  29.216  1.00  0.00     0.074 A 
ATOM     51  C   UNL A   1      46.407  24.823  28.724  1.00  0.00     0.031 C 
ATOM     52  C   UNL A   1      46.925  26.992  29.800  1.00  0.00     0.037 A 
BRANCH  39  53
ATOM     53  C   UNL A   1      44.440  32.397  31.463  1.00  0.00     0.057 A 
ATOM     54  C   UNL A   1      44.281  32.587  32.842  1.00  0.00     0.134 A 
ATOM     55  C   UNL A   1      44.834  33.502  30.700  1.00  0.00     0.134 A 
ATOM     56  F   UNL A   1      43.890  31.573  33.630  1.00  0.00    -0.206 F 
ATOM     57  C   UNL A   1      44.487  33.833  33.437  1.00  0.00     0.040 A 
ATOM     58  C   UNL A   1      45.074  34.746  31.288  1.00  0.00     0.040 A 
ATOM     59  F   UNL A   1      45.010  33.390  29.376  1.00  0.00    -0.206 F 
ATOM     60  C   UNL A   1      44.895  34.915  32.659  1.00  0.00     0.006 A 
ENDBRANCH  39  53
BRANCH  40  61
ATOM     61  C   UNL A   1      42.683  23.472  27.310  1.00  0.00     0.057 A 
ATOM     62  C   UNL A   1      42.334  22.364  28.091  1.00  0.00     0.134 A 
ATOM     63  C   UNL A   1      42.859  23.261  25.938  1.00  0.00     0.134 A 
ATOM     64  F   UNL A   1      42.166  22.496  29.415  1.00  0.00    -0.206 F 
ATOM     65  C   UNL A   1      42.212  21.087  27.538  1.00  0.00     0.040 A 
ATOM     66  C   UNL A   1      42.707  21.996  25.366  1.00  0.00     0.040 A 
ATOM     67  F   UNL A   1      43.185  24.282  25.130  1.00  0.00    -0.206 F 
ATOM     68  C   UNL A   1      42.398  20.902  26.170  1.00  0.00     0.006 A 
ENDBRANCH  40  61
BRANCH  52  69
ATOM     69  C   UNL A   1      48.331  26.509  30.011  1.00  0.00     0.057 A 
ATOM     70  C   UNL A   1      48.717  25.808  31.159  1.00  0.00     0.134 A 
ATOM     71  C   UNL A   1      49.301  26.710  29.019  1.00  0.00     0.134 A 
ATOM     72  F   UNL A   1      47.840  25.592  32.152  1.00  0.00    -0.206 F 
ATOM     73  C   UNL A   1      50.023  25.345  31.325  1.00  0.00     0.040 A 
ATOM     74  C   UNL A   1      50.600  26.223  29.159  1.00  0.00     0.040 A 
ATOM     75  F   UNL A   1      48.995  27.365  27.889  1.00  0.00    -0.206 F 
ATOM     76  C   UNL A   1      50.966  25.544  30.318  1.00  0.00     0.006 A 
ENDBRANCH  52  69
ENDBRANCH  26  27
ENDBRANCH  18  21
ENDBRANCH  16  17
ENDBRANCH   1  16
TORSDOF 13
ENDMDL
MODEL 2
REMARK VINA RESULT:     -10.0      5.263      9.759
REMARK SMILES [N-]=[N+]=NC[C@H](NC=O)C(=O)NCCCNC(=O)c1ccc(-c2c3nc(c(-c4c(F)cccc4F)c4ccc([nH]4)c(-c4c(F)cccc4F)c4nc(c(-c5c(F)cccc5F)c5ccc2[nH]5)C=C4)C=C3)cc1
REMARK SMILES IDX 13 1 12 2 11 3 9 4 10 5 5 7 4 8 3 9 1 10 2 11 6 12 7 13 8 15
REMARK SMILES IDX 14 16 15 17 16 18 17 20 18 21 19 22 71 23 20 24 70 25 21 26
REMARK SMILES IDX 22 27 23 28 64 29 24 30 69 31 63 32 65 33 25 34 68 35 62 36
REMARK SMILES IDX 61 37 26 39 52 40 35 41 51 42 36 43 39 44 50 45 66 46 37 47
REMARK SMILES IDX 38 48 49 50 67 51 40 52 27 53 28 54 33 55 29 56 30 57 32 58
REMARK SMILES IDX 34 59 31 60 53 61 54 62 59 63 55 64 56 65 58 66 60 67 57 68
REMARK SMILES IDX 41 69 42 70 47 71 43 72 44 73 46 74 48 75 45 76
REMARK H PARENT 11 6 6 14 15 19 65 38 39 49
REMARK Flexibility Score: inf
ROOT
ATOM      1  C   UNL A   1      37.594  19.776  25.001  1.00  0.00     0.042 C 
ENDROOT
BRANCH   1   2
ATOM      2  C   UNL A   1      36.543  20.863  24.834  1.00  0.00     0.117 C 
BRANCH   2   3
ATOM      3  N   UNL A   1      35.793  21.080  26.056  1.00  0.00    -0.354 N 
ATOM      4  C   UNL A   1      34.455  21.194  26.275  1.00  0.00     0.242 C 
ATOM      5  O   UNL A   1      34.096  21.491  27.418  1.00  0.00    -0.273 OA
ATOM      6  H   UNL A   1      36.347  21.159  26.867  1.00  0.00     0.163 HD
BRANCH   4   7
ATOM      7  C   UNL A   1      33.412  21.003  25.158  1.00  0.00     0.176 C 
BRANCH   7   8
ATOM      8  C   UNL A   1      32.699  22.314  24.773  1.00  0.00     0.125 C 
BRANCH   8   9
ATOM      9  N   UNL A   1      31.319  22.338  25.303  1.00  0.00    -0.091 NA
ATOM     10  N   UNL A   1      30.993  23.683  27.245  1.00  0.00    -0.003 NA
ATOM     11  N   UNL A   1      31.139  23.039  26.320  1.00  0.00     0.001 N 
ENDBRANCH   8   9
ENDBRANCH   7   8
BRANCH   7  12
ATOM     12  N   UNL A   1      32.580  19.826  25.417  1.00  0.00    -0.347 N 
ATOM     13  C   UNL A   1      32.894  18.513  25.287  1.00  0.00     0.337 C 
ATOM     14  H   UNL A   1      31.666  20.014  25.730  1.00  0.00     0.164 HD
ATOM     15  O   UNL A   1      32.057  17.625  25.369  1.00  0.00    -0.279 OA
ENDBRANCH   7  12
ENDBRANCH   4   7
ENDBRANCH   2   3
ENDBRANCH   1   2
BRANCH   1  16
ATOM     16  C   UNL A   1      38.845  20.256  25.721  1.00  0.00     0.118 C 
BRANCH  16  17
ATOM     17  N   UNL A   1      39.850  19.207  25.844  1.00  0.00    -0.352 N 
ATOM     18  C   UNL A   1      41.206  19.308  26.030  1.00  0.00     0.251 C 
ATOM     19  H   UNL A   1      39.503  18.287  25.787  1.00  0.00     0.163 HD
ATOM     20  O   UNL A   1      41.918  18.320  25.886  1.00  0.00    -0.269 OA
BRANCH  18  21
ATOM     21  C   UNL A   1      41.806  20.609  26.390  1.00  0.00     0.039 A 
ATOM     22  C   UNL A   1      42.161  21.502  25.376  1.00  0.00     0.014 A 
ATOM     23  C   UNL A   1      42.027  20.943  27.728  1.00  0.00     0.014 A 
ATOM     24  C   UNL A   1      42.679  22.755  25.711  1.00  0.00     0.010 A 
ATOM     25  C   UNL A   1      42.447  22.224  28.061  1.00  0.00     0.010 A 
ATOM     26  C   UNL A   1      42.790  23.140  27.057  1.00  0.00    -0.014 A 
BRANCH  26  27
ATOM     27  C   UNL A   1      43.297  24.479  27.448  1.00  0.00     0.031 A 
ATOM     28  C   UNL A   1      42.325  25.544  27.881  1.00  0.00     0.074 A 
ATOM     29  C   UNL A   1      44.611  24.757  27.350  1.00  0.00     0.049 A 
ATOM     30  N   UNL A   1      42.543  26.805  28.150  1.00  0.00    -0.248 NA
ATOM     31  C   UNL A   1      40.913  25.142  28.001  1.00  0.00     0.031 C 
ATOM     32  C   UNL A   1      45.649  23.820  26.915  1.00  0.00     0.029 A 
ATOM     33  N   UNL A   1      45.299  25.919  27.600  1.00  0.00    -0.354 N 
ATOM     34  C   UNL A   1      41.302  27.344  28.464  1.00  0.00     0.074 A 
ATOM     35  C   UNL A   1      40.325  26.295  28.283  1.00  0.00     0.031 C 
ATOM     36  C   UNL A   1      46.842  24.435  26.952  1.00  0.00     0.029 A 
ATOM     37  C   UNL A   1      46.650  25.822  27.363  1.00  0.00     0.049 A 
ATOM     38  H   UNL A   1      44.865  26.743  27.919  1.00  0.00     0.167 HD
ATOM     39  C   UNL A   1      41.007  28.592  28.898  1.00  0.00     0.037 A 
ATOM     40  C   UNL A   1      47.618  26.754  27.452  1.00  0.00     0.037 A 
ATOM     41  C   UNL A   1      41.983  29.630  29.089  1.00  0.00     0.049 A 
ATOM     42  C   UNL A   1      47.249  28.151  27.879  1.00  0.00     0.074 A 
ATOM     43  C   UNL A   1      41.789  30.924  29.540  1.00  0.00     0.029 A 
ATOM     44  N   UNL A   1      43.340  29.491  28.843  1.00  0.00    -0.354 N 
ATOM     45  N   UNL A   1      46.078  28.634  28.217  1.00  0.00    -0.248 NA
ATOM     46  C   UNL A   1      48.341  29.134  27.940  1.00  0.00     0.031 C 
ATOM     47  C   UNL A   1      43.022  31.581  29.524  1.00  0.00     0.029 A 
ATOM     48  C   UNL A   1      43.994  30.678  29.122  1.00  0.00     0.049 A 
ATOM     49  H   UNL A   1      43.775  28.669  28.518  1.00  0.00     0.167 HD
ATOM     50  C   UNL A   1      46.301  29.957  28.578  1.00  0.00     0.074 A 
ATOM     51  C   UNL A   1      47.720  30.198  28.425  1.00  0.00     0.031 C 
ATOM     52  C   UNL A   1      45.413  30.889  28.999  1.00  0.00     0.037 A 
BRANCH  39  53
ATOM     53  C   UNL A   1      39.570  28.896  29.214  1.00  0.00     0.057 A 
ATOM     54  C   UNL A   1      39.048  28.714  30.502  1.00  0.00     0.134 A 
ATOM     55  C   UNL A   1      38.713  29.420  28.239  1.00  0.00     0.134 A 
ATOM     56  F   UNL A   1      39.812  28.202  31.480  1.00  0.00    -0.206 F 
ATOM     57  C   UNL A   1      37.720  29.020  30.803  1.00  0.00     0.040 A 
ATOM     58  C   UNL A   1      37.392  29.760  28.536  1.00  0.00     0.040 A 
ATOM     59  F   UNL A   1      39.149  29.625  26.988  1.00  0.00    -0.206 F 
ATOM     60  C   UNL A   1      36.891  29.555  29.819  1.00  0.00     0.006 A 
ENDBRANCH  39  53
BRANCH  40  61
ATOM     61  C   UNL A   1      49.032  26.413  27.143  1.00  0.00     0.057 A 
ATOM     62  C   UNL A   1      49.516  26.471  25.830  1.00  0.00     0.134 A 
ATOM     63  C   UNL A   1      49.914  25.968  28.134  1.00  0.00     0.134 A 
ATOM     64  F   UNL A   1      48.716  26.874  24.832  1.00  0.00    -0.206 F 
ATOM     65  C   UNL A   1      50.810  26.056  25.508  1.00  0.00     0.040 A 
ATOM     66  C   UNL A   1      51.222  25.583  27.831  1.00  0.00     0.040 A 
ATOM     67  F   UNL A   1      49.518  25.897  29.414  1.00  0.00    -0.206 F 
ATOM     68  C   UNL A   1      51.667  25.611  26.511  1.00  0.00     0.006 A 
ENDBRANCH  40  61
BRANCH  52  69
ATOM     69  C   UNL A   1      45.954  32.231  29.399  1.00  0.00     0.057 A 
ATOM     70  C   UNL A   1      46.045  33.300  28.500  1.00  0.00     0.134 A 
ATOM     71  C   UNL A   1      46.343  32.468  30.725  1.00  0.00     0.134 A 
ATOM     72  F   UNL A   1      45.701  33.138  27.212  1.00  0.00    -0.206 F 
ATOM     73  C   UNL A   1      46.527  34.548  28.897  1.00  0.00     0.040 A 
ATOM     74  C   UNL A   1      46.794  33.720  31.142  1.00  0.00     0.040 A 
ATOM     75  F   UNL A   1      46.271  31.490  31.641  1.00  0.00    -0.206 F 
ATOM     76  C   UNL A   1      46.894  34.763  30.225  1.00  0.00     0.006 A 
ENDBRANCH  52  69
ENDBRANCH  26  27
ENDBRANCH  18  21
ENDBRANCH  16  17
ENDBRANCH   1  16
TORSDOF 13
ENDMDL
MODEL 3
REMARK VINA RESULT:      -9.9      4.813     10.044
REMARK SMILES [N-]=[N+]=NC[C@H](NC=O)C(=O)NCCCNC(=O)c1ccc(-c2c3nc(c(-c4c(F)cccc4F)c4ccc([nH]4)c(-c4c(F)cccc4F)c4nc(c(-c5c(F)cccc5F)c5ccc2[nH]5)C=C4)C=C3)cc1
REMARK SMILES IDX 13 1 12 2 11 3 9 4 10 5 5 7 4 8 3 9 1 10 2 11 6 12 7 13 8 15
REMARK SMILES IDX 14 16 15 17 16 18 17 20 18 21 19 22 71 23 20 24 70 25 21 26
REMARK SMILES IDX 22 27 23 28 64 29 24 30 69 31 63 32 65 33 25 34 68 35 62 36
REMARK SMILES IDX 61 37 26 39 52 40 35 41 51 42 36 43 39 44 50 45 66 46 37 47
REMARK SMILES IDX 38 48 49 50 67 51 40 52 27 53 28 54 33 55 29 56 30 57 32 58
REMARK SMILES IDX 34 59 31 60 53 61 54 62 59 63 55 64 56 65 58 66 60 67 57 68
REMARK SMILES IDX 41 69 42 70 47 71 43 72 44 73 46 74 48 75 45 76
REMARK H PARENT 11 6 6 14 15 19 65 38 39 49
REMARK Flexibility Score: inf
ROOT
ATOM      1  C   UNL A   1      37.788  19.432  24.996  1.00  0.00     0.042 C 
ENDROOT
BRANCH   1   2
ATOM      2  C   UNL A   1      36.672  20.409  24.655  1.00  0.00     0.117 C 
BRANCH   2   3
ATOM      3  N   UNL A   1      36.117  21.030  25.842  1.00  0.00    -0.354 N 
ATOM      4  C   UNL A   1      34.830  21.296  26.193  1.00  0.00     0.242 C 
ATOM      5  O   UNL A   1      34.652  21.943  27.229  1.00  0.00    -0.273 OA
ATOM      6  H   UNL A   1      36.787  21.307  26.509  1.00  0.00     0.163 HD
BRANCH   4   7
ATOM      7  C   UNL A   1      33.629  20.855  25.336  1.00  0.00     0.176 C 
BRANCH   7   8
ATOM      8  C   UNL A   1      32.716  22.030  24.932  1.00  0.00     0.125 C 
BRANCH   8   9
ATOM      9  N   UNL A   1      31.421  21.960  25.641  1.00  0.00    -0.091 NA
ATOM     10  N   UNL A   1      31.098  23.592  27.348  1.00  0.00    -0.003 NA
ATOM     11  N   UNL A   1      31.243  22.810  26.537  1.00  0.00     0.001 N 
ENDBRANCH   8   9
ENDBRANCH   7   8
BRANCH   7  12
ATOM     12  N   UNL A   1      32.993  19.664  25.904  1.00  0.00    -0.347 N 
ATOM     13  C   UNL A   1      32.859  18.428  25.364  1.00  0.00     0.337 C 
ATOM     14  H   UNL A   1      32.609  19.777  26.804  1.00  0.00     0.164 HD
ATOM     15  O   UNL A   1      32.157  17.562  25.866  1.00  0.00    -0.279 OA
ENDBRANCH   7  12
ENDBRANCH   4   7
ENDBRANCH   2   3
ENDBRANCH   1   2
BRANCH   1  16
ATOM     16  C   UNL A   1      38.970  20.091  25.690  1.00  0.00     0.118 C 
BRANCH  16  17
ATOM     17  N   UNL A   1      40.110  19.190  25.814  1.00  0.00    -0.352 N 
ATOM     18  C   UNL A   1      41.422  19.471  26.103  1.00  0.00     0.251 C 
ATOM     19  H   UNL A   1      39.908  18.237  25.669  1.00  0.00     0.163 HD
ATOM     20  O   UNL A   1      42.281  18.609  25.944  1.00  0.00    -0.269 OA
BRANCH  18  21
ATOM     21  C   UNL A   1      41.799  20.813  26.594  1.00  0.00     0.039 A 
ATOM     22  C   UNL A   1      42.250  21.771  25.683  1.00  0.00     0.014 A 
ATOM     23  C   UNL A   1      41.716  21.121  27.953  1.00  0.00     0.014 A 
ATOM     24  C   UNL A   1      42.557  23.057  26.131  1.00  0.00     0.010 A 
ATOM     25  C   UNL A   1      41.924  22.426  28.380  1.00  0.00     0.010 A 
ATOM     26  C   UNL A   1      42.360  23.405  27.477  1.00  0.00    -0.014 A 
BRANCH  26  27
ATOM     27  C   UNL A   1      42.635  24.775  27.979  1.00  0.00     0.031 A 
ATOM     28  C   UNL A   1      44.036  25.152  28.379  1.00  0.00     0.074 A 
ATOM     29  C   UNL A   1      41.624  25.650  28.137  1.00  0.00     0.049 A 
ATOM     30  N   UNL A   1      44.469  26.249  28.946  1.00  0.00    -0.248 NA
ATOM     31  C   UNL A   1      45.088  24.151  28.132  1.00  0.00     0.031 C 
ATOM     32  C   UNL A   1      40.218  25.393  27.814  1.00  0.00     0.029 A 
ATOM     33  N   UNL A   1      41.621  26.934  28.623  1.00  0.00    -0.354 N 
ATOM     34  C   UNL A   1      45.834  26.066  29.127  1.00  0.00     0.074 A 
ATOM     35  C   UNL A   1      46.148  24.729  28.678  1.00  0.00     0.031 C 
ATOM     36  C   UNL A   1      39.496  26.492  28.087  1.00  0.00     0.029 A 
ATOM     37  C   UNL A   1      40.374  27.511  28.653  1.00  0.00     0.049 A 
ATOM     38  H   UNL A   1      42.436  27.397  28.924  1.00  0.00     0.167 HD
ATOM     39  C   UNL A   1      46.751  26.946  29.594  1.00  0.00     0.037 A 
ATOM     40  C   UNL A   1      39.985  28.720  29.101  1.00  0.00     0.037 A 
ATOM     41  C   UNL A   1      46.438  28.280  30.029  1.00  0.00     0.049 A 
ATOM     42  C   UNL A   1      41.019  29.655  29.672  1.00  0.00     0.074 A 
ATOM     43  C   UNL A   1      47.297  29.256  30.504  1.00  0.00     0.029 A 
ATOM     44  N   UNL A   1      45.164  28.828  30.037  1.00  0.00    -0.354 N 
ATOM     45  N   UNL A   1      42.313  29.486  29.794  1.00  0.00    -0.248 NA
ATOM     46  C   UNL A   1      40.536  30.953  30.164  1.00  0.00     0.031 C 
ATOM     47  C   UNL A   1      46.537  30.379  30.843  1.00  0.00     0.029 A 
ATOM     48  C   UNL A   1      45.213  30.124  30.521  1.00  0.00     0.049 A 
ATOM     49  H   UNL A   1      44.347  28.364  29.744  1.00  0.00     0.167 HD
ATOM     50  C   UNL A   1      42.803  30.671  30.329  1.00  0.00     0.074 A 
ATOM     51  C   UNL A   1      41.669  31.553  30.499  1.00  0.00     0.031 C 
ATOM     52  C   UNL A   1      44.078  31.001  30.649  1.00  0.00     0.037 A 
BRANCH  39  53
ATOM     53  C   UNL A   1      48.183  26.498  29.640  1.00  0.00     0.057 A 
ATOM     54  C   UNL A   1      48.700  25.803  30.742  1.00  0.00     0.134 A 
ATOM     55  C   UNL A   1      49.043  26.719  28.557  1.00  0.00     0.134 A 
ATOM     56  F   UNL A   1      47.934  25.569  31.820  1.00  0.00    -0.206 F 
ATOM     57  C   UNL A   1      50.024  25.363  30.775  1.00  0.00     0.040 A 
ATOM     58  C   UNL A   1      50.360  26.257  28.565  1.00  0.00     0.040 A 
ATOM     59  F   UNL A   1      48.613  27.372  27.468  1.00  0.00    -0.206 F 
ATOM     60  C   UNL A   1      50.856  25.582  29.679  1.00  0.00     0.006 A 
ENDBRANCH  39  53
BRANCH  40  61
ATOM     61  C   UNL A   1      38.558  29.134  29.028  1.00  0.00     0.057 A 
ATOM     62  C   UNL A   1      38.027  29.686  27.856  1.00  0.00     0.134 A 
ATOM     63  C   UNL A   1      37.709  29.044  30.137  1.00  0.00     0.134 A 
ATOM     64  F   UNL A   1      38.794  29.815  26.763  1.00  0.00    -0.206 F 
ATOM     65  C   UNL A   1      36.720  30.175  27.802  1.00  0.00     0.040 A 
ATOM     66  C   UNL A   1      36.389  29.497  30.087  1.00  0.00     0.040 A 
ATOM     67  F   UNL A   1      38.150  28.517  31.289  1.00  0.00    -0.206 F 
ATOM     68  C   UNL A   1      35.896  30.078  28.921  1.00  0.00     0.006 A 
ENDBRANCH  40  61
BRANCH  52  69
ATOM     69  C   UNL A   1      44.329  32.396  31.142  1.00  0.00     0.057 A 
ATOM     70  C   UNL A   1      44.575  33.465  30.272  1.00  0.00     0.134 A 
ATOM     71  C   UNL A   1      44.272  32.680  32.514  1.00  0.00     0.134 A 
ATOM     72  F   UNL A   1      44.653  33.261  28.948  1.00  0.00    -0.206 F 
ATOM     73  C   UNL A   1      44.780  34.761  30.749  1.00  0.00     0.040 A 
ATOM     74  C   UNL A   1      44.443  33.976  33.000  1.00  0.00     0.040 A 
ATOM     75  F   UNL A   1      44.031  31.704  33.402  1.00  0.00    -0.206 F 
ATOM     76  C   UNL A   1      44.705  35.020  32.117  1.00  0.00     0.006 A 
ENDBRANCH  52  69
ENDBRANCH  26  27
ENDBRANCH  18  21
ENDBRANCH  16  17
ENDBRANCH   1  16
TORSDOF 13
ENDMDL
