MODEL 1
REMARK VINA RESULT:     -12.7      0.000      0.000
REMARK SMILES O=C(Cn1cccc1C(=O)N1CC[N@H+]2CCC[C@@H]2C1)NCCCNC(=O)c1ccc(-c2c3nc(c(-c4c(F)cccc4F)c4ccc([nH]4)c(-c4c(F)cccc4F)c4nc(c(-c5c(F)cccc5F)c5ccc2[nH]5)C=C4)C=C3)cc1
REMARK SMILES IDX 21 1 20 2 1 3 2 4 3 6 4 7 5 8 8 9 6 10 7 11 9 12 10 13 11 14
REMARK SMILES IDX 12 15 19 16 13 17 18 18 14 19 17 20 15 21 16 23 22 24 23 25
REMARK SMILES IDX 24 26 25 27 26 29 27 30 28 31 80 32 29 33 79 34 30 35 31 36
REMARK SMILES IDX 32 37 73 38 33 39 78 40 72 41 74 42 34 43 77 44 71 45 70 46
REMARK SMILES IDX 35 48 61 49 44 50 60 51 45 52 48 53 59 54 75 55 46 56 47 57
REMARK SMILES IDX 58 59 76 60 49 61 36 62 37 63 42 64 38 65 39 66 41 67 43 68
REMARK SMILES IDX 40 69 62 70 63 71 68 72 64 73 65 74 67 75 69 76 66 77 50 78
REMARK SMILES IDX 51 79 56 80 52 81 53 82 55 83 57 84 54 85
REMARK H PARENT 20 5 14 22 24 28 74 47 48 58
REMARK Flexibility Score: inf
ROOT
ATOM      1  C   UNL A   1      32.285  28.194  27.305  1.00  0.00     0.117 C 
ENDROOT
BRANCH   1   2
ATOM      2  N   UNL A   1      31.176  26.890  26.264  1.00  0.00    -0.354 N 
ATOM      3  O   UNL A   1      29.526  25.235  26.530  1.00  0.00    -0.273 OA
ATOM      4  C   UNL A   1      30.291  25.899  25.845  1.00  0.00     0.239 C 
ATOM      5  H   UNL A   1      31.511  27.135  25.372  1.00  0.00     0.163 HD
BRANCH   4   6
ATOM      6  C   UNL A   1      30.395  25.588  24.313  1.00  0.00     0.222 C 
BRANCH   6   7
ATOM      7  N   UNL A   1      31.482  24.821  23.605  1.00  0.00    -0.334 N 
ATOM      8  C   UNL A   1      31.832  25.252  22.321  1.00  0.00     0.087 A 
ATOM      9  C   UNL A   1      32.272  23.701  23.886  1.00  0.00     0.107 A 
ATOM     10  C   UNL A   1      32.884  24.509  21.849  1.00  0.00     0.020 A 
ATOM     11  C   UNL A   1      33.174  23.558  22.835  1.00  0.00     0.033 A 
BRANCH   9  12
ATOM     12  C   UNL A   1      32.328  22.832  25.045  1.00  0.00     0.270 C 
ATOM     13  O   UNL A   1      31.419  22.083  25.381  1.00  0.00    -0.267 OA
BRANCH  12  14
ATOM     14  N   UNL A   1      33.580  22.747  25.647  1.00  0.00    -0.326 N 
ATOM     15  C   UNL A   1      34.680  24.298  25.889  1.00  0.00     0.181 C 
ATOM     16  C   UNL A   1      34.330  21.051  25.222  1.00  0.00     0.185 C 
ATOM     17  C   UNL A   1      36.649  23.998  25.760  1.00  0.00     0.284 C 
ATOM     18  C   UNL A   1      36.254  20.903  25.301  1.00  0.00     0.204 C 
ATOM     19  N   UNL A   1      37.317  22.347  25.463  1.00  0.00    -0.330 N 
ATOM     20  C   UNL A   1      37.276  20.074  24.551  1.00  0.00     0.073 C 
ATOM     21  C   UNL A   1      38.598  21.855  25.877  1.00  0.00     0.262 C 
ATOM     22  H   UNL A   1      37.473  22.885  24.610  1.00  0.00     0.348 HD
ATOM     23  C   UNL A   1      38.576  20.370  25.393  1.00  0.00     0.068 C 
ENDBRANCH  12  14
ENDBRANCH   9  12
ENDBRANCH   6   7
ENDBRANCH   4   6
ENDBRANCH   1   2
BRANCH   1  24
ATOM     24  C   UNL A   1      33.204  29.455  26.846  1.00  0.00     0.042 C 
BRANCH  24  25
ATOM     25  C   UNL A   1      34.582  29.417  27.472  1.00  0.00     0.118 C 
BRANCH  25  26
ATOM     26  N   UNL A   1      34.904  30.463  28.427  1.00  0.00    -0.352 N 
ATOM     27  C   UNL A   1      36.162  30.683  28.958  1.00  0.00     0.251 C 
ATOM     28  H   UNL A   1      34.175  31.057  28.719  1.00  0.00     0.163 HD
ATOM     29  O   UNL A   1      36.403  31.617  29.708  1.00  0.00    -0.269 OA
BRANCH  27  30
ATOM     30  C   UNL A   1      37.169  29.641  28.667  1.00  0.00     0.039 A 
ATOM     31  C   UNL A   1      37.986  29.864  27.559  1.00  0.00     0.014 A 
ATOM     32  C   UNL A   1      37.530  28.740  29.674  1.00  0.00     0.014 A 
ATOM     33  C   UNL A   1      39.241  29.269  27.519  1.00  0.00     0.010 A 
ATOM     34  C   UNL A   1      38.826  28.241  29.684  1.00  0.00     0.010 A 
ATOM     35  C   UNL A   1      39.690  28.502  28.605  1.00  0.00    -0.014 A 
BRANCH  35  36
ATOM     36  C   UNL A   1      41.068  27.950  28.558  1.00  0.00     0.031 A 
ATOM     37  C   UNL A   1      41.193  26.514  28.076  1.00  0.00     0.074 A 
ATOM     38  C   UNL A   1      42.063  28.739  29.045  1.00  0.00     0.049 A 
ATOM     39  N   UNL A   1      41.928  25.556  28.556  1.00  0.00    -0.248 NA
ATOM     40  C   UNL A   1      40.302  26.046  26.990  1.00  0.00     0.031 C 
ATOM     41  C   UNL A   1      41.845  30.108  29.540  1.00  0.00     0.029 A 
ATOM     42  N   UNL A   1      43.417  28.563  29.247  1.00  0.00    -0.354 N 
ATOM     43  C   UNL A   1      41.684  24.406  27.785  1.00  0.00     0.074 A 
ATOM     44  C   UNL A   1      40.605  24.746  26.895  1.00  0.00     0.031 C 
ATOM     45  C   UNL A   1      42.990  30.632  29.996  1.00  0.00     0.029 A 
ATOM     46  C   UNL A   1      44.052  29.657  29.863  1.00  0.00     0.049 A 
ATOM     47  H   UNL A   1      43.896  27.744  28.984  1.00  0.00     0.167 HD
ATOM     48  C   UNL A   1      42.436  23.268  27.859  1.00  0.00     0.037 A 
ATOM     49  C   UNL A   1      45.318  29.801  30.345  1.00  0.00     0.037 A 
ATOM     50  C   UNL A   1      43.534  23.412  28.765  1.00  0.00     0.049 A 
ATOM     51  C   UNL A   1      45.982  28.485  30.281  1.00  0.00     0.074 A 
ATOM     52  C   UNL A   1      43.695  23.379  30.127  1.00  0.00     0.029 A 
ATOM     53  N   UNL A   1      44.733  23.792  28.217  1.00  0.00    -0.354 N 
ATOM     54  N   UNL A   1      46.480  27.929  29.219  1.00  0.00    -0.248 NA
ATOM     55  C   UNL A   1      45.977  27.651  31.492  1.00  0.00     0.031 C 
ATOM     56  C   UNL A   1      44.920  24.052  30.383  1.00  0.00     0.029 A 
ATOM     57  C   UNL A   1      45.418  24.519  29.164  1.00  0.00     0.049 A 
ATOM     58  H   UNL A   1      45.049  23.581  27.308  1.00  0.00     0.167 HD
ATOM     59  C   UNL A   1      46.570  26.594  29.571  1.00  0.00     0.074 A 
ATOM     60  C   UNL A   1      46.511  26.534  31.009  1.00  0.00     0.031 C 
ATOM     61  C   UNL A   1      46.224  25.624  28.689  1.00  0.00     0.037 A 
BRANCH  48  62
ATOM     62  C   UNL A   1      42.415  22.021  27.011  1.00  0.00     0.057 A 
ATOM     63  C   UNL A   1      41.683  20.900  27.470  1.00  0.00     0.134 A 
ATOM     64  C   UNL A   1      43.277  21.779  25.937  1.00  0.00     0.134 A 
ATOM     65  F   UNL A   1      40.810  21.013  28.484  1.00  0.00    -0.206 F 
ATOM     66  C   UNL A   1      41.853  19.615  26.946  1.00  0.00     0.040 A 
ATOM     67  C   UNL A   1      43.424  20.501  25.374  1.00  0.00     0.040 A 
ATOM     68  F   UNL A   1      44.066  22.745  25.447  1.00  0.00    -0.206 F 
ATOM     69  C   UNL A   1      42.734  19.409  25.896  1.00  0.00     0.006 A 
ENDBRANCH  48  62
BRANCH  49  70
ATOM     70  C   UNL A   1      45.958  30.941  31.083  1.00  0.00     0.057 A 
ATOM     71  C   UNL A   1      46.964  31.757  30.546  1.00  0.00     0.134 A 
ATOM     72  C   UNL A   1      45.592  31.268  32.406  1.00  0.00     0.134 A 
ATOM     73  F   UNL A   1      47.572  31.445  29.393  1.00  0.00    -0.206 F 
ATOM     74  C   UNL A   1      47.432  32.912  31.194  1.00  0.00     0.040 A 
ATOM     75  C   UNL A   1      46.066  32.400  33.077  1.00  0.00     0.040 A 
ATOM     76  F   UNL A   1      44.763  30.497  33.120  1.00  0.00    -0.206 F 
ATOM     77  C   UNL A   1      46.962  33.252  32.454  1.00  0.00     0.006 A 
ENDBRANCH  49  70
BRANCH  61  78
ATOM     78  C   UNL A   1      46.274  26.093  27.257  1.00  0.00     0.057 A 
ATOM     79  C   UNL A   1      47.471  26.082  26.538  1.00  0.00     0.134 A 
ATOM     80  C   UNL A   1      45.172  26.686  26.623  1.00  0.00     0.134 A 
ATOM     81  F   UNL A   1      48.580  25.553  27.077  1.00  0.00    -0.206 F 
ATOM     82  C   UNL A   1      47.560  26.630  25.252  1.00  0.00     0.040 A 
ATOM     83  C   UNL A   1      45.234  27.210  25.333  1.00  0.00     0.040 A 
ATOM     84  F   UNL A   1      44.006  26.798  27.257  1.00  0.00    -0.206 F 
ATOM     85  C   UNL A   1      46.438  27.192  24.645  1.00  0.00     0.006 A 
ENDBRANCH  61  78
ENDBRANCH  35  36
ENDBRANCH  27  30
ENDBRANCH  25  26
ENDBRANCH  24  25
ENDBRANCH   1  24
TORSDOF 13
ENDMDL
MODEL 2
REMARK VINA RESULT:     -12.6      2.836      7.711
REMARK SMILES O=C(Cn1cccc1C(=O)N1CC[N@H+]2CCC[C@@H]2C1)NCCCNC(=O)c1ccc(-c2c3nc(c(-c4c(F)cccc4F)c4ccc([nH]4)c(-c4c(F)cccc4F)c4nc(c(-c5c(F)cccc5F)c5ccc2[nH]5)C=C4)C=C3)cc1
REMARK SMILES IDX 21 1 20 2 1 3 2 4 3 6 4 7 5 8 8 9 6 10 7 11 9 12 10 13 11 14
REMARK SMILES IDX 12 15 19 16 13 17 18 18 14 19 17 20 15 21 16 23 22 24 23 25
REMARK SMILES IDX 24 26 25 27 26 29 27 30 28 31 80 32 29 33 79 34 30 35 31 36
REMARK SMILES IDX 32 37 73 38 33 39 78 40 72 41 74 42 34 43 77 44 71 45 70 46
REMARK SMILES IDX 35 48 61 49 44 50 60 51 45 52 48 53 59 54 75 55 46 56 47 57
REMARK SMILES IDX 58 59 76 60 49 61 36 62 37 63 42 64 38 65 39 66 41 67 43 68
REMARK SMILES IDX 40 69 62 70 63 71 68 72 64 73 65 74 67 75 69 76 66 77 50 78
REMARK SMILES IDX 51 79 56 80 52 81 53 82 55 83 57 84 54 85
REMARK H PARENT 20 5 14 22 24 28 74 47 48 58
REMARK Flexibility Score: inf
ROOT
ATOM      1  C   UNL A   1      37.422  22.925  26.273  1.00  0.00     0.117 C 
ENDROOT
BRANCH   1   2
ATOM      2  N   UNL A   1      35.459  22.959  26.676  1.00  0.00    -0.354 N 
ATOM      3  O   UNL A   1      33.765  21.723  27.741  1.00  0.00    -0.273 OA
ATOM      4  C   UNL A   1      34.161  22.686  27.098  1.00  0.00     0.239 C 
ATOM      5  H   UNL A   1      35.268  23.829  26.257  1.00  0.00     0.163 HD
BRANCH   4   6
ATOM      6  C   UNL A   1      33.113  23.732  26.586  1.00  0.00     0.222 C 
BRANCH   6   7
ATOM      7  N   UNL A   1      32.273  23.653  25.337  1.00  0.00    -0.334 N 
ATOM      8  C   UNL A   1      32.608  22.663  24.408  1.00  0.00     0.087 A 
ATOM      9  C   UNL A   1      31.195  24.365  24.800  1.00  0.00     0.107 A 
ATOM     10  C   UNL A   1      31.706  22.668  23.374  1.00  0.00     0.020 A 
ATOM     11  C   UNL A   1      30.810  23.714  23.631  1.00  0.00     0.033 A 
BRANCH   9  12
ATOM     12  C   UNL A   1      30.452  25.504  25.303  1.00  0.00     0.270 C 
ATOM     13  O   UNL A   1      29.868  25.516  26.380  1.00  0.00    -0.267 OA
BRANCH  12  14
ATOM     14  N   UNL A   1      30.615  26.674  24.569  1.00  0.00    -0.326 N 
ATOM     15  C   UNL A   1      31.684  28.125  25.226  1.00  0.00     0.181 C 
ATOM     16  C   UNL A   1      29.022  26.982  23.577  1.00  0.00     0.185 C 
ATOM     17  C   UNL A   1      31.070  29.957  24.723  1.00  0.00     0.284 C 
ATOM     18  C   UNL A   1      28.666  28.803  23.038  1.00  0.00     0.204 C 
ATOM     19  N   UNL A   1      29.610  30.192  23.687  1.00  0.00    -0.330 N 
ATOM     20  C   UNL A   1      27.402  29.603  22.808  1.00  0.00     0.073 C 
ATOM     21  C   UNL A   1      29.355  31.294  22.806  1.00  0.00     0.262 C 
ATOM     22  H   UNL A   1      29.358  30.505  24.624  1.00  0.00     0.348 HD
ATOM     23  C   UNL A   1      27.990  30.910  22.151  1.00  0.00     0.068 C 
ENDBRANCH  12  14
ENDBRANCH   9  12
ENDBRANCH   6   7
ENDBRANCH   4   6
ENDBRANCH   1   2
BRANCH   1  24
ATOM     24  C   UNL A   1      38.340  21.900  25.407  1.00  0.00     0.042 C 
BRANCH  24  25
ATOM     25  C   UNL A   1      39.526  21.387  26.196  1.00  0.00     0.118 C 
BRANCH  25  26
ATOM     26  N   UNL A   1      40.105  20.123  25.775  1.00  0.00    -0.352 N 
ATOM     27  C   UNL A   1      41.412  19.739  26.013  1.00  0.00     0.251 C 
ATOM     28  H   UNL A   1      39.527  19.495  25.284  1.00  0.00     0.163 HD
ATOM     29  O   UNL A   1      41.840  18.639  25.698  1.00  0.00    -0.269 OA
BRANCH  27  30
ATOM     30  C   UNL A   1      42.298  20.792  26.551  1.00  0.00     0.039 A 
ATOM     31  C   UNL A   1      42.685  21.791  25.658  1.00  0.00     0.014 A 
ATOM     32  C   UNL A   1      42.376  20.978  27.936  1.00  0.00     0.014 A 
ATOM     33  C   UNL A   1      43.037  23.039  26.156  1.00  0.00     0.010 A 
ATOM     34  C   UNL A   1      42.618  22.257  28.421  1.00  0.00     0.010 A 
ATOM     35  C   UNL A   1      42.951  23.296  27.533  1.00  0.00    -0.014 A 
BRANCH  35  36
ATOM     36  C   UNL A   1      43.259  24.667  28.016  1.00  0.00     0.031 A 
ATOM     37  C   UNL A   1      44.691  24.907  28.464  1.00  0.00     0.074 A 
ATOM     38  C   UNL A   1      42.216  25.534  28.109  1.00  0.00     0.049 A 
ATOM     39  N   UNL A   1      45.120  25.551  29.509  1.00  0.00    -0.248 NA
ATOM     40  C   UNL A   1      45.791  24.252  27.721  1.00  0.00     0.031 C 
ATOM     41  C   UNL A   1      40.843  25.201  27.695  1.00  0.00     0.029 A 
ATOM     42  N   UNL A   1      42.080  26.826  28.575  1.00  0.00    -0.354 N 
ATOM     43  C   UNL A   1      46.523  25.480  29.505  1.00  0.00     0.074 A 
ATOM     44  C   UNL A   1      46.874  24.588  28.430  1.00  0.00     0.031 C 
ATOM     45  C   UNL A   1      40.017  26.227  27.936  1.00  0.00     0.029 A 
ATOM     46  C   UNL A   1      40.760  27.311  28.544  1.00  0.00     0.049 A 
ATOM     47  H   UNL A   1      42.840  27.361  28.901  1.00  0.00     0.167 HD
ATOM     48  C   UNL A   1      47.323  26.223  30.327  1.00  0.00     0.037 A 
ATOM     49  C   UNL A   1      40.216  28.456  29.041  1.00  0.00     0.037 A 
ATOM     50  C   UNL A   1      46.564  27.121  31.140  1.00  0.00     0.049 A 
ATOM     51  C   UNL A   1      41.250  29.143  29.839  1.00  0.00     0.074 A 
ATOM     52  C   UNL A   1      45.813  27.016  32.283  1.00  0.00     0.029 A 
ATOM     53  N   UNL A   1      46.409  28.398  30.661  1.00  0.00    -0.354 N 
ATOM     54  N   UNL A   1      42.236  29.846  29.373  1.00  0.00    -0.248 NA
ATOM     55  C   UNL A   1      41.262  28.917  31.292  1.00  0.00     0.031 C 
ATOM     56  C   UNL A   1      44.966  28.156  32.290  1.00  0.00     0.029 A 
ATOM     57  C   UNL A   1      45.199  28.873  31.115  1.00  0.00     0.049 A 
ATOM     58  H   UNL A   1      47.049  28.887  30.095  1.00  0.00     0.167 HD
ATOM     59  C   UNL A   1      43.125  29.889  30.432  1.00  0.00     0.074 A 
ATOM     60  C   UNL A   1      42.380  29.553  31.619  1.00  0.00     0.031 C 
ATOM     61  C   UNL A   1      44.455  29.737  30.221  1.00  0.00     0.037 A 
BRANCH  48  62
ATOM     62  C   UNL A   1      48.822  26.387  30.350  1.00  0.00     0.057 A 
ATOM     63  C   UNL A   1      49.452  27.029  29.257  1.00  0.00     0.134 A 
ATOM     64  C   UNL A   1      49.679  25.720  31.232  1.00  0.00     0.134 A 
ATOM     65  F   UNL A   1      48.735  27.716  28.354  1.00  0.00    -0.206 F 
ATOM     66  C   UNL A   1      50.827  26.950  29.019  1.00  0.00     0.040 A 
ATOM     67  C   UNL A   1      51.067  25.671  31.026  1.00  0.00     0.040 A 
ATOM     68  F   UNL A   1      49.201  25.027  32.275  1.00  0.00    -0.206 F 
ATOM     69  C   UNL A   1      51.642  26.260  29.903  1.00  0.00     0.006 A 
ENDBRANCH  48  62
BRANCH  49  70
ATOM     70  C   UNL A   1      38.789  28.922  29.083  1.00  0.00     0.057 A 
ATOM     71  C   UNL A   1      37.933  28.731  30.177  1.00  0.00     0.134 A 
ATOM     72  C   UNL A   1      38.192  29.585  27.990  1.00  0.00     0.134 A 
ATOM     73  F   UNL A   1      38.276  27.933  31.198  1.00  0.00    -0.206 F 
ATOM     74  C   UNL A   1      36.657  29.314  30.254  1.00  0.00     0.040 A 
ATOM     75  C   UNL A   1      36.913  30.150  28.039  1.00  0.00     0.040 A 
ATOM     76  F   UNL A   1      38.817  29.708  26.813  1.00  0.00    -0.206 F 
ATOM     77  C   UNL A   1      36.154  30.049  29.191  1.00  0.00     0.006 A 
ENDBRANCH  49  70
BRANCH  61  78
ATOM     78  C   UNL A   1      44.862  30.056  28.804  1.00  0.00     0.057 A 
ATOM     79  C   UNL A   1      44.950  29.051  27.838  1.00  0.00     0.134 A 
ATOM     80  C   UNL A   1      45.300  31.330  28.419  1.00  0.00     0.134 A 
ATOM     81  F   UNL A   1      44.572  27.797  28.129  1.00  0.00    -0.206 F 
ATOM     82  C   UNL A   1      45.446  29.309  26.555  1.00  0.00     0.040 A 
ATOM     83  C   UNL A   1      45.768  31.614  27.136  1.00  0.00     0.040 A 
ATOM     84  F   UNL A   1      45.310  32.336  29.293  1.00  0.00    -0.206 F 
ATOM     85  C   UNL A   1      45.852  30.595  26.199  1.00  0.00     0.006 A 
ENDBRANCH  61  78
ENDBRANCH  35  36
ENDBRANCH  27  30
ENDBRANCH  25  26
ENDBRANCH  24  25
ENDBRANCH   1  24
TORSDOF 13
ENDMDL
MODEL 3
REMARK VINA RESULT:     -12.4      3.866      8.861
REMARK SMILES O=C(Cn1cccc1C(=O)N1CC[N@H+]2CCC[C@@H]2C1)NCCCNC(=O)c1ccc(-c2c3nc(c(-c4c(F)cccc4F)c4ccc([nH]4)c(-c4c(F)cccc4F)c4nc(c(-c5c(F)cccc5F)c5ccc2[nH]5)C=C4)C=C3)cc1
REMARK SMILES IDX 21 1 20 2 1 3 2 4 3 6 4 7 5 8 8 9 6 10 7 11 9 12 10 13 11 14
REMARK SMILES IDX 12 15 19 16 13 17 18 18 14 19 17 20 15 21 16 23 22 24 23 25
REMARK SMILES IDX 24 26 25 27 26 29 27 30 28 31 80 32 29 33 79 34 30 35 31 36
REMARK SMILES IDX 32 37 73 38 33 39 78 40 72 41 74 42 34 43 77 44 71 45 70 46
REMARK SMILES IDX 35 48 61 49 44 50 60 51 45 52 48 53 59 54 75 55 46 56 47 57
REMARK SMILES IDX 58 59 76 60 49 61 36 62 37 63 42 64 38 65 39 66 41 67 43 68
REMARK SMILES IDX 40 69 62 70 63 71 68 72 64 73 65 74 67 75 69 76 66 77 50 78
REMARK SMILES IDX 51 79 56 80 52 81 53 82 55 83 57 84 54 85
REMARK H PARENT 20 5 14 22 24 28 74 47 48 58
REMARK Flexibility Score: inf
ROOT
ATOM      1  C   UNL A   1      36.355  21.867  25.606  1.00  0.00     0.117 C 
ENDROOT
BRANCH   1   2
ATOM      2  N   UNL A   1      34.611  21.085  25.003  1.00  0.00    -0.354 N 
ATOM      3  O   UNL A   1      33.410  19.064  24.942  1.00  0.00    -0.273 OA
ATOM      4  C   UNL A   1      33.534  20.256  24.700  1.00  0.00     0.239 C 
ATOM      5  H   UNL A   1      34.221  21.919  24.657  1.00  0.00     0.163 HD
BRANCH   4   6
ATOM      6  C   UNL A   1      32.411  20.979  23.880  1.00  0.00     0.222 C 
BRANCH   6   7
ATOM      7  N   UNL A   1      32.380  22.421  23.443  1.00  0.00    -0.334 N 
ATOM      8  C   UNL A   1      33.139  22.761  22.318  1.00  0.00     0.087 A 
ATOM      9  C   UNL A   1      31.784  23.601  23.902  1.00  0.00     0.107 A 
ATOM     10  C   UNL A   1      32.942  24.082  22.003  1.00  0.00     0.020 A 
ATOM     11  C   UNL A   1      32.077  24.599  22.976  1.00  0.00     0.033 A 
BRANCH   9  12
ATOM     12  C   UNL A   1      30.918  23.861  25.035  1.00  0.00     0.270 C 
ATOM     13  O   UNL A   1      30.452  22.983  25.752  1.00  0.00    -0.267 OA
BRANCH  12  14
ATOM     14  N   UNL A   1      30.811  25.201  25.390  1.00  0.00    -0.326 N 
ATOM     15  C   UNL A   1      29.912  26.465  24.263  1.00  0.00     0.181 C 
ATOM     16  C   UNL A   1      32.364  25.680  26.381  1.00  0.00     0.185 C 
ATOM     17  C   UNL A   1      30.649  28.320  24.273  1.00  0.00     0.284 C 
ATOM     18  C   UNL A   1      32.840  27.551  26.407  1.00  0.00     0.204 C 
ATOM     19  N   UNL A   1      32.059  28.751  25.315  1.00  0.00    -0.330 N 
ATOM     20  C   UNL A   1      34.153  28.300  26.502  1.00  0.00     0.073 C 
ATOM     21  C   UNL A   1      32.354  30.042  25.864  1.00  0.00     0.262 C 
ATOM     22  H   UNL A   1      32.392  28.762  24.351  1.00  0.00     0.348 HD
ATOM     23  C   UNL A   1      33.640  29.777  26.710  1.00  0.00     0.068 C 
ENDBRANCH  12  14
ENDBRANCH   9  12
ENDBRANCH   6   7
ENDBRANCH   4   6
ENDBRANCH   1   2
BRANCH   1  24
ATOM     24  C   UNL A   1      37.276  23.068  25.010  1.00  0.00     0.042 C 
BRANCH  24  25
ATOM     25  C   UNL A   1      38.032  23.802  26.098  1.00  0.00     0.118 C 
BRANCH  25  26
ATOM     26  N   UNL A   1      39.459  23.548  26.198  1.00  0.00    -0.352 N 
ATOM     27  C   UNL A   1      40.343  24.316  26.934  1.00  0.00     0.251 C 
ATOM     28  H   UNL A   1      39.822  22.777  25.708  1.00  0.00     0.163 HD
ATOM     29  O   UNL A   1      41.526  24.028  27.045  1.00  0.00    -0.269 OA
BRANCH  27  30
ATOM     30  C   UNL A   1      39.799  25.581  27.470  1.00  0.00     0.039 A 
ATOM     31  C   UNL A   1      39.302  25.537  28.772  1.00  0.00     0.014 A 
ATOM     32  C   UNL A   1      40.154  26.790  26.862  1.00  0.00     0.014 A 
ATOM     33  C   UNL A   1      39.277  26.706  29.521  1.00  0.00     0.010 A 
ATOM     34  C   UNL A   1      40.234  27.930  27.650  1.00  0.00     0.010 A 
ATOM     35  C   UNL A   1      39.794  27.896  28.986  1.00  0.00    -0.014 A 
BRANCH  35  36
ATOM     36  C   UNL A   1      39.822  29.106  29.848  1.00  0.00     0.031 A 
ATOM     37  C   UNL A   1      38.628  30.038  29.725  1.00  0.00     0.074 A 
ATOM     38  C   UNL A   1      40.950  29.314  30.578  1.00  0.00     0.049 A 
ATOM     39  N   UNL A   1      38.612  31.336  29.666  1.00  0.00    -0.248 NA
ATOM     40  C   UNL A   1      37.283  29.451  29.526  1.00  0.00     0.031 C 
ATOM     41  C   UNL A   1      42.087  28.378  30.602  1.00  0.00     0.029 A 
ATOM     42  N   UNL A   1      41.385  30.327  31.408  1.00  0.00    -0.354 N 
ATOM     43  C   UNL A   1      37.272  31.738  29.533  1.00  0.00     0.074 A 
ATOM     44  C   UNL A   1      36.509  30.529  29.359  1.00  0.00     0.031 C 
ATOM     45  C   UNL A   1      43.074  28.855  31.370  1.00  0.00     0.029 A 
ATOM     46  C   UNL A   1      42.689  30.146  31.901  1.00  0.00     0.049 A 
ATOM     47  H   UNL A   1      40.829  31.109  31.634  1.00  0.00     0.167 HD
ATOM     48  C   UNL A   1      36.851  33.032  29.658  1.00  0.00     0.037 A 
ATOM     49  C   UNL A   1      43.499  30.977  32.614  1.00  0.00     0.037 A 
ATOM     50  C   UNL A   1      37.925  33.911  30.003  1.00  0.00     0.049 A 
ATOM     51  C   UNL A   1      42.843  32.296  32.693  1.00  0.00     0.074 A 
ATOM     52  C   UNL A   1      38.958  34.513  29.330  1.00  0.00     0.029 A 
ATOM     53  N   UNL A   1      38.099  34.170  31.340  1.00  0.00    -0.354 N 
ATOM     54  N   UNL A   1      41.864  32.619  33.483  1.00  0.00    -0.248 NA
ATOM     55  C   UNL A   1      43.227  33.317  31.708  1.00  0.00     0.031 C 
ATOM     56  C   UNL A   1      39.911  34.861  30.324  1.00  0.00     0.029 A 
ATOM     57  C   UNL A   1      39.440  34.398  31.554  1.00  0.00     0.049 A 
ATOM     58  H   UNL A   1      37.391  34.190  32.024  1.00  0.00     0.167 HD
ATOM     59  C   UNL A   1      41.337  33.752  32.889  1.00  0.00     0.074 A 
ATOM     60  C   UNL A   1      42.346  34.267  31.999  1.00  0.00     0.031 C 
ATOM     61  C   UNL A   1      39.995  33.925  32.805  1.00  0.00     0.037 A 
BRANCH  48  62
ATOM     62  C   UNL A   1      35.460  33.611  29.701  1.00  0.00     0.057 A 
ATOM     63  C   UNL A   1      34.905  34.136  28.510  1.00  0.00     0.134 A 
ATOM     64  C   UNL A   1      34.767  33.923  30.876  1.00  0.00     0.134 A 
ATOM     65  F   UNL A   1      35.471  33.889  27.318  1.00  0.00    -0.206 F 
ATOM     66  C   UNL A   1      33.785  34.972  28.497  1.00  0.00     0.040 A 
ATOM     67  C   UNL A   1      33.615  34.727  30.870  1.00  0.00     0.040 A 
ATOM     68  F   UNL A   1      35.221  33.533  32.075  1.00  0.00    -0.206 F 
ATOM     69  C   UNL A   1      33.138  35.278  29.684  1.00  0.00     0.006 A 
ENDBRANCH  48  62
BRANCH  49  70
ATOM     70  C   UNL A   1      44.924  30.808  33.058  1.00  0.00     0.057 A 
ATOM     71  C   UNL A   1      46.030  30.929  32.205  1.00  0.00     0.134 A 
ATOM     72  C   UNL A   1      45.253  30.492  34.392  1.00  0.00     0.134 A 
ATOM     73  F   UNL A   1      45.880  31.010  30.876  1.00  0.00    -0.206 F 
ATOM     74  C   UNL A   1      47.354  30.926  32.674  1.00  0.00     0.040 A 
ATOM     75  C   UNL A   1      46.567  30.458  34.872  1.00  0.00     0.040 A 
ATOM     76  F   UNL A   1      44.316  30.187  35.298  1.00  0.00    -0.206 F 
ATOM     77  C   UNL A   1      47.625  30.715  34.018  1.00  0.00     0.006 A 
ENDBRANCH  49  70
BRANCH  61  78
ATOM     78  C   UNL A   1      39.237  33.114  33.826  1.00  0.00     0.057 A 
ATOM     79  C   UNL A   1      39.038  33.595  35.122  1.00  0.00     0.134 A 
ATOM     80  C   UNL A   1      38.820  31.799  33.578  1.00  0.00     0.134 A 
ATOM     81  F   UNL A   1      39.428  34.835  35.452  1.00  0.00    -0.206 F 
ATOM     82  C   UNL A   1      38.449  32.803  36.115  1.00  0.00     0.040 A 
ATOM     83  C   UNL A   1      38.203  31.006  34.545  1.00  0.00     0.040 A 
ATOM     84  F   UNL A   1      39.025  31.236  32.388  1.00  0.00    -0.206 F 
ATOM     85  C   UNL A   1      38.025  31.506  35.827  1.00  0.00     0.006 A 
ENDBRANCH  61  78
ENDBRANCH  35  36
ENDBRANCH  27  30
ENDBRANCH  25  26
ENDBRANCH  24  25
ENDBRANCH   1  24
TORSDOF 13
ENDMDL
