MODEL 1
REMARK VINA RESULT:     -12.0      0.000      0.000
REMARK SMILES O=C(NCCCNC(=O)c1ccc(-c2c3nc(c(-c4c(F)cccc4F)c4ccc([nH]4)c(-c4c(F)cccc4F)c4nc(c(-c5c(F)cccc5F)c5ccc2[nH]5)C=C4)C=C3)cc1)C1=Cc2c(ccc(Cl)c2Cl)O[C@H]1C(F)(F)F
REMARK SMILES IDX 5 1 4 2 3 3 1 4 2 5 64 7 65 8 75 9 66 10 74 11 67 12 72 13
REMARK SMILES IDX 68 14 70 15 73 16 69 17 71 18 76 19 77 20 78 21 79 22 6 23
REMARK SMILES IDX 7 24 8 25 9 27 10 28 11 29 63 30 12 31 62 32 13 33 14 34
REMARK SMILES IDX 15 35 56 36 16 37 61 38 55 39 57 40 17 41 60 42 54 43 53 44
REMARK SMILES IDX 18 46 44 47 27 48 43 49 28 50 31 51 42 52 58 53 29 54 30 55
REMARK SMILES IDX 41 57 59 58 32 59 19 60 20 61 25 62 21 63 22 64 24 65 26 66
REMARK SMILES IDX 23 67 45 68 46 69 51 70 47 71 48 72 50 73 52 74 49 75 33 76
REMARK SMILES IDX 34 77 39 78 35 79 36 80 38 81 40 82 37 83
REMARK H PARENT 3 6 7 26 57 45 31 56
REMARK Flexibility Score: inf
ROOT
ATOM      1  C   UNL A   1      33.967  28.591  25.745  1.00  0.00     0.042 C 
ENDROOT
BRANCH   1   2
ATOM      2  C   UNL A   1      32.909  28.039  24.809  1.00  0.00     0.118 C 
BRANCH   2   3
ATOM      3  N   UNL A   1      33.381  27.188  23.733  1.00  0.00    -0.352 N 
ATOM      4  O   UNL A   1      34.049  25.254  22.783  1.00  0.00    -0.270 OA
ATOM      5  C   UNL A   1      33.607  25.836  23.768  1.00  0.00     0.251 C 
ATOM      6  H   UNL A   1      33.560  27.635  22.874  1.00  0.00     0.163 HD
BRANCH   5   7
ATOM      7  C   UNL A   1      33.365  25.070  25.022  1.00  0.00     0.067 C 
ATOM      8  C   UNL A   1      34.446  24.677  25.719  1.00  0.00     0.027 C 
ATOM      9  C   UNL A   1      32.083  24.280  25.049  1.00  0.00     0.314 C 
ATOM     10  C   UNL A   1      34.670  23.213  25.622  1.00  0.00     0.037 A 
ATOM     11  O   UNL A   1      32.278  22.850  25.274  1.00  0.00    -0.475 OA
ATOM     12  C   UNL A   1      33.569  22.388  25.340  1.00  0.00     0.129 A 
ATOM     13  C   UNL A   1      35.973  22.679  25.590  1.00  0.00     0.070 A 
ATOM     14  C   UNL A   1      33.762  21.056  24.981  1.00  0.00     0.049 A 
ATOM     15  C   UNL A   1      36.160  21.348  25.193  1.00  0.00     0.060 A 
ATOM     16  Cl  UNL A   1      37.332  23.706  25.932  1.00  0.00    -0.082 Cl
ATOM     17  C   UNL A   1      35.057  20.548  24.876  1.00  0.00     0.026 A 
ATOM     18  Cl  UNL A   1      37.729  20.650  25.002  1.00  0.00    -0.083 Cl
BRANCH   9  19
ATOM     19  C   UNL A   1      31.075  24.850  26.069  1.00  0.00     0.429 C 
ATOM     20  F   UNL A   1      30.009  25.445  25.486  1.00  0.00    -0.167 F 
ATOM     21  F   UNL A   1      30.594  23.870  26.872  1.00  0.00    -0.167 F 
ATOM     22  F   UNL A   1      31.644  25.779  26.875  1.00  0.00    -0.167 F 
ENDBRANCH   9  19
ENDBRANCH   5   7
ENDBRANCH   2   3
ENDBRANCH   1   2
BRANCH   1  23
ATOM     23  C   UNL A   1      33.481  28.786  27.173  1.00  0.00     0.118 C 
BRANCH  23  24
ATOM     24  N   UNL A   1      33.712  30.131  27.701  1.00  0.00    -0.352 N 
ATOM     25  C   UNL A   1      34.820  30.744  28.249  1.00  0.00     0.251 C 
ATOM     26  H   UNL A   1      32.920  30.714  27.657  1.00  0.00     0.163 HD
ATOM     27  O   UNL A   1      34.719  31.873  28.706  1.00  0.00    -0.269 OA
BRANCH  25  28
ATOM     28  C   UNL A   1      36.120  30.039  28.341  1.00  0.00     0.039 A 
ATOM     29  C   UNL A   1      37.001  30.081  27.252  1.00  0.00     0.014 A 
ATOM     30  C   UNL A   1      36.484  29.341  29.485  1.00  0.00     0.014 A 
ATOM     31  C   UNL A   1      38.288  29.545  27.373  1.00  0.00     0.010 A 
ATOM     32  C   UNL A   1      37.799  28.932  29.654  1.00  0.00     0.010 A 
ATOM     33  C   UNL A   1      38.724  29.037  28.604  1.00  0.00    -0.014 A 
BRANCH  33  34
ATOM     34  C   UNL A   1      40.123  28.601  28.858  1.00  0.00     0.031 A 
ATOM     35  C   UNL A   1      41.124  29.598  29.380  1.00  0.00     0.074 A 
ATOM     36  C   UNL A   1      40.532  27.372  28.481  1.00  0.00     0.049 A 
ATOM     37  N   UNL A   1      42.430  29.536  29.395  1.00  0.00    -0.248 NA
ATOM     38  C   UNL A   1      40.577  30.862  29.900  1.00  0.00     0.031 C 
ATOM     39  C   UNL A   1      39.679  26.319  27.931  1.00  0.00     0.029 A 
ATOM     40  N   UNL A   1      41.787  26.814  28.478  1.00  0.00    -0.354 N 
ATOM     41  C   UNL A   1      42.859  30.770  29.867  1.00  0.00     0.074 A 
ATOM     42  C   UNL A   1      41.676  31.576  30.080  1.00  0.00     0.031 C 
ATOM     43  C   UNL A   1      40.427  25.236  27.665  1.00  0.00     0.029 A 
ATOM     44  C   UNL A   1      41.822  25.538  27.966  1.00  0.00     0.049 A 
ATOM     45  H   UNL A   1      42.587  27.283  28.811  1.00  0.00     0.167 HD
ATOM     46  C   UNL A   1      44.122  31.189  30.119  1.00  0.00     0.037 A 
ATOM     47  C   UNL A   1      42.864  24.715  27.743  1.00  0.00     0.037 A 
ATOM     48  C   UNL A   1      45.287  30.360  29.969  1.00  0.00     0.049 A 
ATOM     49  C   UNL A   1      44.255  25.191  28.054  1.00  0.00     0.074 A 
ATOM     50  C   UNL A   1      46.606  30.662  30.260  1.00  0.00     0.029 A 
ATOM     51  N   UNL A   1      45.268  29.053  29.504  1.00  0.00    -0.354 N 
ATOM     52  N   UNL A   1      44.646  26.353  28.517  1.00  0.00    -0.248 NA
ATOM     53  C   UNL A   1      45.351  24.243  27.806  1.00  0.00     0.031 C 
ATOM     54  C   UNL A   1      47.388  29.545  29.948  1.00  0.00     0.029 A 
ATOM     55  C   UNL A   1      46.551  28.536  29.498  1.00  0.00     0.049 A 
ATOM     56  H   UNL A   1      44.461  28.566  29.220  1.00  0.00     0.167 HD
ATOM     57  C   UNL A   1      46.026  26.264  28.651  1.00  0.00     0.074 A 
ATOM     58  C   UNL A   1      46.404  24.934  28.219  1.00  0.00     0.031 C 
ATOM     59  C   UNL A   1      46.901  27.200  29.092  1.00  0.00     0.037 A 
BRANCH  46  60
ATOM     60  C   UNL A   1      44.298  32.603  30.592  1.00  0.00     0.057 A 
ATOM     61  C   UNL A   1      44.325  32.930  31.955  1.00  0.00     0.134 A 
ATOM     62  C   UNL A   1      44.445  33.652  29.675  1.00  0.00     0.134 A 
ATOM     63  F   UNL A   1      44.176  31.976  32.886  1.00  0.00    -0.206 F 
ATOM     64  C   UNL A   1      44.451  34.251  32.387  1.00  0.00     0.040 A 
ATOM     65  C   UNL A   1      44.604  34.973  30.096  1.00  0.00     0.040 A 
ATOM     66  F   UNL A   1      44.436  33.409  28.355  1.00  0.00    -0.206 F 
ATOM     67  C   UNL A   1      44.596  35.277  31.455  1.00  0.00     0.006 A 
ENDBRANCH  46  60
BRANCH  47  68
ATOM     68  C   UNL A   1      42.631  23.344  27.221  1.00  0.00     0.057 A 
ATOM     69  C   UNL A   1      42.316  22.295  28.092  1.00  0.00     0.134 A 
ATOM     70  C   UNL A   1      42.716  23.045  25.856  1.00  0.00     0.134 A 
ATOM     71  F   UNL A   1      42.238  22.517  29.413  1.00  0.00    -0.206 F 
ATOM     72  C   UNL A   1      42.109  20.995  27.630  1.00  0.00     0.040 A 
ATOM     73  C   UNL A   1      42.489  21.754  25.377  1.00  0.00     0.040 A 
ATOM     74  F   UNL A   1      43.005  24.008  24.968  1.00  0.00    -0.206 F 
ATOM     75  C   UNL A   1      42.192  20.723  26.266  1.00  0.00     0.006 A 
ENDBRANCH  47  68
BRANCH  59  76
ATOM     76  C   UNL A   1      48.343  26.802  29.190  1.00  0.00     0.057 A 
ATOM     77  C   UNL A   1      48.846  26.112  30.298  1.00  0.00     0.134 A 
ATOM     78  C   UNL A   1      49.220  27.059  28.128  1.00  0.00     0.134 A 
ATOM     79  F   UNL A   1      48.058  25.849  31.352  1.00  0.00    -0.206 F 
ATOM     80  C   UNL A   1      50.179  25.701  30.353  1.00  0.00     0.040 A 
ATOM     81  C   UNL A   1      50.548  26.633  28.162  1.00  0.00     0.040 A 
ATOM     82  F   UNL A   1      48.794  27.710  27.035  1.00  0.00    -0.206 F 
ATOM     83  C   UNL A   1      51.031  25.954  29.278  1.00  0.00     0.006 A 
ENDBRANCH  59  76
ENDBRANCH  33  34
ENDBRANCH  25  28
ENDBRANCH  23  24
ENDBRANCH   1  23
TORSDOF 11
ENDMDL
MODEL 2
REMARK VINA RESULT:     -11.8      3.580      7.070
REMARK SMILES O=C(NCCCNC(=O)c1ccc(-c2c3nc(c(-c4c(F)cccc4F)c4ccc([nH]4)c(-c4c(F)cccc4F)c4nc(c(-c5c(F)cccc5F)c5ccc2[nH]5)C=C4)C=C3)cc1)C1=Cc2c(ccc(Cl)c2Cl)O[C@H]1C(F)(F)F
REMARK SMILES IDX 5 1 4 2 3 3 1 4 2 5 64 7 65 8 75 9 66 10 74 11 67 12 72 13
REMARK SMILES IDX 68 14 70 15 73 16 69 17 71 18 76 19 77 20 78 21 79 22 6 23
REMARK SMILES IDX 7 24 8 25 9 27 10 28 11 29 63 30 12 31 62 32 13 33 14 34
REMARK SMILES IDX 15 35 56 36 16 37 61 38 55 39 57 40 17 41 60 42 54 43 53 44
REMARK SMILES IDX 18 46 44 47 27 48 43 49 28 50 31 51 42 52 58 53 29 54 30 55
REMARK SMILES IDX 41 57 59 58 32 59 19 60 20 61 25 62 21 63 22 64 24 65 26 66
REMARK SMILES IDX 23 67 45 68 46 69 51 70 47 71 48 72 50 73 52 74 49 75 33 76
REMARK SMILES IDX 34 77 39 78 35 79 36 80 38 81 40 82 37 83
REMARK H PARENT 3 6 7 26 57 45 31 56
REMARK Flexibility Score: inf
ROOT
ATOM      1  C   UNL A   1      33.579  28.984  24.030  1.00  0.00     0.042 C 
ENDROOT
BRANCH   1   2
ATOM      2  C   UNL A   1      32.621  28.683  22.894  1.00  0.00     0.118 C 
BRANCH   2   3
ATOM      3  N   UNL A   1      33.006  27.613  21.992  1.00  0.00    -0.352 N 
ATOM      4  O   UNL A   1      33.322  25.471  21.358  1.00  0.00    -0.270 OA
ATOM      5  C   UNL A   1      32.915  26.261  22.203  1.00  0.00     0.251 C 
ATOM      6  H   UNL A   1      33.377  27.892  21.124  1.00  0.00     0.163 HD
BRANCH   5   7
ATOM      7  C   UNL A   1      32.368  25.741  23.487  1.00  0.00     0.067 C 
ATOM      8  C   UNL A   1      33.254  25.331  24.410  1.00  0.00     0.027 C 
ATOM      9  C   UNL A   1      30.992  25.133  23.393  1.00  0.00     0.314 C 
ATOM     10  C   UNL A   1      33.267  23.853  24.554  1.00  0.00     0.037 A 
ATOM     11  O   UNL A   1      30.932  23.744  23.839  1.00  0.00    -0.475 OA
ATOM     12  C   UNL A   1      32.111  23.140  24.195  1.00  0.00     0.129 A 
ATOM     13  C   UNL A   1      34.463  23.161  24.825  1.00  0.00     0.070 A 
ATOM     14  C   UNL A   1      32.155  21.753  24.059  1.00  0.00     0.049 A 
ATOM     15  C   UNL A   1      34.506  21.771  24.651  1.00  0.00     0.060 A 
ATOM     16  Cl  UNL A   1      35.891  24.049  25.261  1.00  0.00    -0.082 Cl
ATOM     17  C   UNL A   1      33.359  21.076  24.254  1.00  0.00     0.026 A 
ATOM     18  Cl  UNL A   1      35.963  20.859  24.837  1.00  0.00    -0.083 Cl
BRANCH   9  19
ATOM     19  C   UNL A   1      29.935  25.980  24.131  1.00  0.00     0.429 C 
ATOM     20  F   UNL A   1      29.714  25.565  25.399  1.00  0.00    -0.167 F 
ATOM     21  F   UNL A   1      30.320  27.278  24.198  1.00  0.00    -0.167 F 
ATOM     22  F   UNL A   1      28.736  25.955  23.501  1.00  0.00    -0.167 F 
ENDBRANCH   9  19
ENDBRANCH   5   7
ENDBRANCH   2   3
ENDBRANCH   1   2
BRANCH   1  23
ATOM     23  C   UNL A   1      32.959  28.832  25.411  1.00  0.00     0.118 C 
BRANCH  23  24
ATOM     24  N   UNL A   1      32.487  30.089  25.993  1.00  0.00    -0.352 N 
ATOM     25  C   UNL A   1      33.054  30.980  26.881  1.00  0.00     0.251 C 
ATOM     26  H   UNL A   1      31.588  30.350  25.691  1.00  0.00     0.163 HD
ATOM     27  O   UNL A   1      32.396  31.928  27.284  1.00  0.00    -0.269 OA
BRANCH  25  28
ATOM     28  C   UNL A   1      34.429  30.781  27.396  1.00  0.00     0.039 A 
ATOM     29  C   UNL A   1      35.243  31.898  27.626  1.00  0.00     0.014 A 
ATOM     30  C   UNL A   1      34.925  29.510  27.657  1.00  0.00     0.014 A 
ATOM     31  C   UNL A   1      36.488  31.740  28.246  1.00  0.00     0.010 A 
ATOM     32  C   UNL A   1      36.094  29.365  28.391  1.00  0.00     0.010 A 
ATOM     33  C   UNL A   1      36.888  30.478  28.706  1.00  0.00    -0.014 A 
BRANCH  33  34
ATOM     34  C   UNL A   1      38.116  30.255  29.514  1.00  0.00     0.031 A 
ATOM     35  C   UNL A   1      39.193  29.345  28.985  1.00  0.00     0.074 A 
ATOM     36  C   UNL A   1      38.200  30.734  30.772  1.00  0.00     0.049 A 
ATOM     37  N   UNL A   1      40.186  28.775  29.616  1.00  0.00    -0.248 NA
ATOM     38  C   UNL A   1      39.099  28.981  27.561  1.00  0.00     0.031 C 
ATOM     39  C   UNL A   1      37.216  31.599  31.424  1.00  0.00     0.029 A 
ATOM     40  N   UNL A   1      39.152  30.530  31.741  1.00  0.00    -0.354 N 
ATOM     41  C   UNL A   1      40.795  27.943  28.685  1.00  0.00     0.074 A 
ATOM     42  C   UNL A   1      40.030  28.046  27.461  1.00  0.00     0.031 C 
ATOM     43  C   UNL A   1      37.625  31.871  32.674  1.00  0.00     0.029 A 
ATOM     44  C   UNL A   1      38.866  31.150  32.934  1.00  0.00     0.049 A 
ATOM     45  H   UNL A   1      39.964  29.991  31.594  1.00  0.00     0.167 HD
ATOM     46  C   UNL A   1      41.902  27.177  28.829  1.00  0.00     0.037 A 
ATOM     47  C   UNL A   1      39.518  31.121  34.112  1.00  0.00     0.037 A 
ATOM     48  C   UNL A   1      42.696  27.131  30.028  1.00  0.00     0.049 A 
ATOM     49  C   UNL A   1      40.760  30.284  34.242  1.00  0.00     0.074 A 
ATOM     50  C   UNL A   1      43.874  26.442  30.258  1.00  0.00     0.029 A 
ATOM     51  N   UNL A   1      42.401  27.823  31.193  1.00  0.00    -0.354 N 
ATOM     52  N   UNL A   1      41.337  29.517  33.350  1.00  0.00    -0.248 NA
ATOM     53  C   UNL A   1      41.439  30.305  35.546  1.00  0.00     0.031 C 
ATOM     54  C   UNL A   1      44.278  26.698  31.572  1.00  0.00     0.029 A 
ATOM     55  C   UNL A   1      43.372  27.576  32.147  1.00  0.00     0.049 A 
ATOM     56  H   UNL A   1      41.617  28.404  31.322  1.00  0.00     0.167 HD
ATOM     57  C   UNL A   1      42.464  28.993  33.970  1.00  0.00     0.074 A 
ATOM     58  C   UNL A   1      42.490  29.530  35.315  1.00  0.00     0.031 C 
ATOM     59  C   UNL A   1      43.395  28.144  33.470  1.00  0.00     0.037 A 
BRANCH  46  60
ATOM     60  C   UNL A   1      42.318  26.338  27.655  1.00  0.00     0.057 A 
ATOM     61  C   UNL A   1      43.172  26.831  26.659  1.00  0.00     0.134 A 
ATOM     62  C   UNL A   1      41.863  25.021  27.520  1.00  0.00     0.134 A 
ATOM     63  F   UNL A   1      43.633  28.090  26.720  1.00  0.00    -0.206 F 
ATOM     64  C   UNL A   1      43.524  26.059  25.551  1.00  0.00     0.040 A 
ATOM     65  C   UNL A   1      42.235  24.228  26.433  1.00  0.00     0.040 A 
ATOM     66  F   UNL A   1      41.050  24.482  28.441  1.00  0.00    -0.206 F 
ATOM     67  C   UNL A   1      43.059  24.750  25.439  1.00  0.00     0.006 A 
ENDBRANCH  46  60
BRANCH  47  68
ATOM     68  C   UNL A   1      39.027  31.930  35.255  1.00  0.00     0.057 A 
ATOM     69  C   UNL A   1      39.340  33.291  35.351  1.00  0.00     0.134 A 
ATOM     70  C   UNL A   1      38.241  31.377  36.273  1.00  0.00     0.134 A 
ATOM     71  F   UNL A   1      40.105  33.874  34.415  1.00  0.00    -0.206 F 
ATOM     72  C   UNL A   1      38.905  34.070  36.424  1.00  0.00     0.040 A 
ATOM     73  C   UNL A   1      37.780  32.149  37.341  1.00  0.00     0.040 A 
ATOM     74  F   UNL A   1      37.898  30.081  36.235  1.00  0.00    -0.206 F 
ATOM     75  C   UNL A   1      38.118  33.499  37.421  1.00  0.00     0.006 A 
ENDBRANCH  47  68
BRANCH  59  76
ATOM     76  C   UNL A   1      44.550  27.791  34.356  1.00  0.00     0.057 A 
ATOM     77  C   UNL A   1      44.533  26.660  35.179  1.00  0.00     0.134 A 
ATOM     78  C   UNL A   1      45.719  28.563  34.332  1.00  0.00     0.134 A 
ATOM     79  F   UNL A   1      43.438  25.890  35.254  1.00  0.00    -0.206 F 
ATOM     80  C   UNL A   1      45.638  26.314  35.960  1.00  0.00     0.040 A 
ATOM     81  C   UNL A   1      46.836  28.215  35.091  1.00  0.00     0.040 A 
ATOM     82  F   UNL A   1      45.799  29.656  33.557  1.00  0.00    -0.206 F 
ATOM     83  C   UNL A   1      46.797  27.088  35.910  1.00  0.00     0.006 A 
ENDBRANCH  59  76
ENDBRANCH  33  34
ENDBRANCH  25  28
ENDBRANCH  23  24
ENDBRANCH   1  23
TORSDOF 11
ENDMDL
MODEL 3
REMARK VINA RESULT:     -11.8      3.084      6.518
REMARK SMILES O=C(NCCCNC(=O)c1ccc(-c2c3nc(c(-c4c(F)cccc4F)c4ccc([nH]4)c(-c4c(F)cccc4F)c4nc(c(-c5c(F)cccc5F)c5ccc2[nH]5)C=C4)C=C3)cc1)C1=Cc2c(ccc(Cl)c2Cl)O[C@H]1C(F)(F)F
REMARK SMILES IDX 5 1 4 2 3 3 1 4 2 5 64 7 65 8 75 9 66 10 74 11 67 12 72 13
REMARK SMILES IDX 68 14 70 15 73 16 69 17 71 18 76 19 77 20 78 21 79 22 6 23
REMARK SMILES IDX 7 24 8 25 9 27 10 28 11 29 63 30 12 31 62 32 13 33 14 34
REMARK SMILES IDX 15 35 56 36 16 37 61 38 55 39 57 40 17 41 60 42 54 43 53 44
REMARK SMILES IDX 18 46 44 47 27 48 43 49 28 50 31 51 42 52 58 53 29 54 30 55
REMARK SMILES IDX 41 57 59 58 32 59 19 60 20 61 25 62 21 63 22 64 24 65 26 66
REMARK SMILES IDX 23 67 45 68 46 69 51 70 47 71 48 72 50 73 52 74 49 75 33 76
REMARK SMILES IDX 34 77 39 78 35 79 36 80 38 81 40 82 37 83
REMARK H PARENT 3 6 7 26 57 45 31 56
REMARK Flexibility Score: inf
ROOT
ATOM      1  C   UNL A   1      35.179  22.184  26.979  1.00  0.00     0.042 C 
ENDROOT
BRANCH   1   2
ATOM      2  C   UNL A   1      33.857  21.446  26.902  1.00  0.00     0.118 C 
BRANCH   2   3
ATOM      3  N   UNL A   1      32.689  22.165  27.377  1.00  0.00    -0.352 N 
ATOM      4  O   UNL A   1      31.033  23.694  27.276  1.00  0.00    -0.270 OA
ATOM      5  C   UNL A   1      31.982  23.144  26.727  1.00  0.00     0.251 C 
ATOM      6  H   UNL A   1      32.365  21.919  28.274  1.00  0.00     0.163 HD
BRANCH   5   7
ATOM      7  C   UNL A   1      32.396  23.585  25.366  1.00  0.00     0.067 C 
ATOM      8  C   UNL A   1      33.068  24.746  25.275  1.00  0.00     0.027 C 
ATOM      9  C   UNL A   1      31.518  23.095  24.243  1.00  0.00     0.314 C 
ATOM     10  C   UNL A   1      32.241  25.824  24.678  1.00  0.00     0.037 A 
ATOM     11  O   UNL A   1      30.940  24.167  23.439  1.00  0.00    -0.475 OA
ATOM     12  C   UNL A   1      31.177  25.459  23.838  1.00  0.00     0.129 A 
ATOM     13  C   UNL A   1      32.368  27.159  25.111  1.00  0.00     0.070 A 
ATOM     14  C   UNL A   1      30.219  26.401  23.467  1.00  0.00     0.049 A 
ATOM     15  C   UNL A   1      31.380  28.090  24.762  1.00  0.00     0.060 A 
ATOM     16  Cl  UNL A   1      33.682  27.603  26.157  1.00  0.00    -0.082 Cl
ATOM     17  C   UNL A   1      30.303  27.704  23.956  1.00  0.00     0.026 A 
ATOM     18  Cl  UNL A   1      31.389  29.714  25.353  1.00  0.00    -0.083 Cl
BRANCH   9  19
ATOM     19  C   UNL A   1      32.250  22.081  23.339  1.00  0.00     0.429 C 
ATOM     20  F   UNL A   1      31.476  21.611  22.334  1.00  0.00    -0.167 F 
ATOM     21  F   UNL A   1      33.344  22.645  22.771  1.00  0.00    -0.167 F 
ATOM     22  F   UNL A   1      32.678  21.000  24.036  1.00  0.00    -0.167 F 
ENDBRANCH   9  19
ENDBRANCH   5   7
ENDBRANCH   2   3
ENDBRANCH   1   2
BRANCH   1  23
ATOM     23  C   UNL A   1      35.881  22.327  25.638  1.00  0.00     0.118 C 
BRANCH  23  24
ATOM     24  N   UNL A   1      36.926  21.329  25.404  1.00  0.00    -0.352 N 
ATOM     25  C   UNL A   1      38.281  21.314  25.668  1.00  0.00     0.251 C 
ATOM     26  H   UNL A   1      36.598  20.507  24.975  1.00  0.00     0.163 HD
ATOM     27  O   UNL A   1      38.958  20.372  25.280  1.00  0.00    -0.269 OA
BRANCH  25  28
ATOM     28  C   UNL A   1      38.940  22.442  26.366  1.00  0.00     0.039 A 
ATOM     29  C   UNL A   1      40.012  22.181  27.229  1.00  0.00     0.014 A 
ATOM     30  C   UNL A   1      38.518  23.752  26.179  1.00  0.00     0.014 A 
ATOM     31  C   UNL A   1      40.737  23.242  27.784  1.00  0.00     0.010 A 
ATOM     32  C   UNL A   1      39.315  24.801  26.617  1.00  0.00     0.010 A 
ATOM     33  C   UNL A   1      40.442  24.561  27.417  1.00  0.00    -0.014 A 
BRANCH  33  34
ATOM     34  C   UNL A   1      41.265  25.729  27.833  1.00  0.00     0.031 A 
ATOM     35  C   UNL A   1      40.627  26.834  28.633  1.00  0.00     0.074 A 
ATOM     36  C   UNL A   1      42.523  25.874  27.369  1.00  0.00     0.049 A 
ATOM     37  N   UNL A   1      41.046  28.054  28.848  1.00  0.00    -0.248 NA
ATOM     38  C   UNL A   1      39.309  26.538  29.220  1.00  0.00     0.031 C 
ATOM     39  C   UNL A   1      43.253  24.900  26.557  1.00  0.00     0.029 A 
ATOM     40  N   UNL A   1      43.401  26.923  27.494  1.00  0.00    -0.354 N 
ATOM     41  C   UNL A   1      40.020  28.685  29.540  1.00  0.00     0.074 A 
ATOM     42  C   UNL A   1      38.941  27.729  29.665  1.00  0.00     0.031 C 
ATOM     43  C   UNL A   1      44.473  25.384  26.275  1.00  0.00     0.029 A 
ATOM     44  C   UNL A   1      44.591  26.728  26.832  1.00  0.00     0.049 A 
ATOM     45  H   UNL A   1      43.199  27.738  28.008  1.00  0.00     0.167 HD
ATOM     46  C   UNL A   1      39.985  29.943  30.042  1.00  0.00     0.037 A 
ATOM     47  C   UNL A   1      45.646  27.548  26.672  1.00  0.00     0.037 A 
ATOM     48  C   UNL A   1      41.086  30.865  29.973  1.00  0.00     0.049 A 
ATOM     49  C   UNL A   1      45.598  28.930  27.261  1.00  0.00     0.074 A 
ATOM     50  C   UNL A   1      41.183  32.137  30.509  1.00  0.00     0.029 A 
ATOM     51  N   UNL A   1      42.295  30.602  29.345  1.00  0.00    -0.354 N 
ATOM     52  N   UNL A   1      44.630  29.510  27.928  1.00  0.00    -0.248 NA
ATOM     53  C   UNL A   1      46.786  29.774  27.069  1.00  0.00     0.031 C 
ATOM     54  C   UNL A   1      42.441  32.653  30.182  1.00  0.00     0.029 A 
ATOM     55  C   UNL A   1      43.141  31.688  29.477  1.00  0.00     0.049 A 
ATOM     56  H   UNL A   1      42.517  29.766  28.875  1.00  0.00     0.167 HD
ATOM     57  C   UNL A   1      45.104  30.770  28.268  1.00  0.00     0.074 A 
ATOM     58  C   UNL A   1      46.447  30.871  27.732  1.00  0.00     0.031 C 
ATOM     59  C   UNL A   1      44.484  31.756  28.961  1.00  0.00     0.037 A 
BRANCH  46  60
ATOM     60  C   UNL A   1      38.718  30.381  30.718  1.00  0.00     0.057 A 
ATOM     61  C   UNL A   1      38.487  30.150  32.081  1.00  0.00     0.134 A 
ATOM     62  C   UNL A   1      37.716  31.044  29.998  1.00  0.00     0.134 A 
ATOM     63  F   UNL A   1      39.400  29.507  32.825  1.00  0.00    -0.206 F 
ATOM     64  C   UNL A   1      37.291  30.526  32.693  1.00  0.00     0.040 A 
ATOM     65  C   UNL A   1      36.529  31.454  30.608  1.00  0.00     0.040 A 
ATOM     66  F   UNL A   1      37.874  31.305  28.691  1.00  0.00    -0.206 F 
ATOM     67  C   UNL A   1      36.309  31.185  31.956  1.00  0.00     0.006 A 
ENDBRANCH  46  60
BRANCH  47  68
ATOM     68  C   UNL A   1      46.853  27.076  25.946  1.00  0.00     0.057 A 
ATOM     69  C   UNL A   1      47.026  27.369  24.588  1.00  0.00     0.134 A 
ATOM     70  C   UNL A   1      47.853  26.328  26.577  1.00  0.00     0.134 A 
ATOM     71  F   UNL A   1      46.092  28.067  23.925  1.00  0.00    -0.206 F 
ATOM     72  C   UNL A   1      48.142  26.922  23.879  1.00  0.00     0.040 A 
ATOM     73  C   UNL A   1      48.987  25.894  25.885  1.00  0.00     0.040 A 
ATOM     74  F   UNL A   1      47.752  26.022  27.879  1.00  0.00    -0.206 F 
ATOM     75  C   UNL A   1      49.129  26.186  24.530  1.00  0.00     0.006 A 
ENDBRANCH  47  68
BRANCH  59  76
ATOM     76  C   UNL A   1      45.269  33.003  29.235  1.00  0.00     0.057 A 
ATOM     77  C   UNL A   1      45.212  34.114  28.387  1.00  0.00     0.134 A 
ATOM     78  C   UNL A   1      46.040  33.110  30.399  1.00  0.00     0.134 A 
ATOM     79  F   UNL A   1      44.501  34.067  27.250  1.00  0.00    -0.206 F 
ATOM     80  C   UNL A   1      45.906  35.288  28.682  1.00  0.00     0.040 A 
ATOM     81  C   UNL A   1      46.721  34.286  30.715  1.00  0.00     0.040 A 
ATOM     82  F   UNL A   1      46.129  32.080  31.256  1.00  0.00    -0.206 F 
ATOM     83  C   UNL A   1      46.657  35.379  29.854  1.00  0.00     0.006 A 
ENDBRANCH  59  76
ENDBRANCH  33  34
ENDBRANCH  25  28
ENDBRANCH  23  24
ENDBRANCH   1  23
TORSDOF 11
ENDMDL
