MODEL 1
REMARK VINA RESULT:     -12.7      0.000      0.000
REMARK SMILES C[C@@]1(CN2C(=O)c3ccc(C(=O)NCCCNC(=O)c4ccc(-c5c6nc(c(-c7c(F)cccc7F)c7ccc([nH]7)c(-c7c(F)cccc7F)c7nc(c(-c8c(F)cccc8F)c8ccc5[nH]8)C=C7)C=C6)cc4)cc3C2=O)CCCO1
REMARK SMILES IDX 15 1 14 2 13 3 11 4 12 5 10 7 4 8 5 9 76 10 6 11 7 12 75 13
REMARK SMILES IDX 77 14 8 15 74 16 9 17 3 18 2 19 1 20 78 21 81 22 79 23 80 24
REMARK SMILES IDX 16 25 17 26 18 27 19 29 20 30 21 31 73 32 22 33 72 34 23 35
REMARK SMILES IDX 24 36 25 37 66 38 26 39 71 40 65 41 67 42 27 43 70 44 64 45
REMARK SMILES IDX 63 46 28 48 54 49 37 50 53 51 38 52 41 53 52 54 68 55 39 56
REMARK SMILES IDX 40 57 51 59 69 60 42 61 29 62 30 63 35 64 31 65 32 66 34 67
REMARK SMILES IDX 36 68 33 69 55 70 56 71 61 72 57 73 58 74 60 75 62 76 59 77
REMARK SMILES IDX 43 78 44 79 49 80 45 81 46 82 48 83 50 84 47 85
REMARK H PARENT 13 6 17 28 67 47 41 58
REMARK Flexibility Score: inf
ROOT
ATOM      1  C   UNL A   1      37.117  19.628  24.792  1.00  0.00     0.042 C 
ENDROOT
BRANCH   1   2
ATOM      2  C   UNL A   1      35.834  20.437  24.997  1.00  0.00     0.118 C 
BRANCH   2   3
ATOM      3  N   UNL A   1      34.709  19.572  25.301  1.00  0.00    -0.352 N 
ATOM      4  C   UNL A   1      33.354  19.731  25.169  1.00  0.00     0.251 C 
ATOM      5  O   UNL A   1      32.641  18.769  25.454  1.00  0.00    -0.269 OA
ATOM      6  H   UNL A   1      34.969  18.700  25.674  1.00  0.00     0.163 HD
BRANCH   4   7
ATOM      7  C   UNL A   1      32.704  20.985  24.687  1.00  0.00     0.040 A 
ATOM      8  N   UNL A   1      30.857  25.191  25.082  1.00  0.00    -0.271 N 
ATOM      9  C   UNL A   1      31.058  24.749  23.806  1.00  0.00     0.261 C 
ATOM     10  C   UNL A   1      31.281  24.272  26.007  1.00  0.00     0.261 C 
ATOM     11  O   UNL A   1      30.909  25.327  22.747  1.00  0.00    -0.269 OA
ATOM     12  C   UNL A   1      31.583  23.395  23.914  1.00  0.00     0.053 A 
ATOM     13  C   UNL A   1      31.734  23.101  25.254  1.00  0.00     0.054 A 
ATOM     14  O   UNL A   1      31.357  24.370  27.218  1.00  0.00    -0.269 OA
ATOM     15  C   UNL A   1      31.974  22.527  22.921  1.00  0.00     0.015 A 
ATOM     16  C   UNL A   1      32.292  21.907  25.672  1.00  0.00     0.028 A 
ATOM     17  C   UNL A   1      32.559  21.323  23.321  1.00  0.00     0.015 A 
BRANCH   8  18
ATOM     18  C   UNL A   1      30.392  26.528  25.409  1.00  0.00     0.164 C 
BRANCH  18  19
ATOM     19  C   UNL A   1      31.521  27.540  25.750  1.00  0.00     0.084 C 
ATOM     20  C   UNL A   1      31.636  27.824  27.248  1.00  0.00     0.044 C 
ATOM     21  C   UNL A   1      31.318  28.846  24.972  1.00  0.00     0.039 C 
ATOM     22  O   UNL A   1      32.784  27.016  25.289  1.00  0.00    -0.373 OA
ATOM     23  C   UNL A   1      32.005  28.564  23.659  1.00  0.00     0.031 C 
ATOM     24  C   UNL A   1      33.162  27.682  24.076  1.00  0.00     0.161 C 
ENDBRANCH  18  19
ENDBRANCH   8  18
ENDBRANCH   4   7
ENDBRANCH   2   3
ENDBRANCH   1   2
BRANCH   1  25
ATOM     25  C   UNL A   1      38.346  20.268  25.430  1.00  0.00     0.118 C 
BRANCH  25  26
ATOM     26  N   UNL A   1      39.427  19.309  25.602  1.00  0.00    -0.352 N 
ATOM     27  C   UNL A   1      40.735  19.503  25.963  1.00  0.00     0.251 C 
ATOM     28  H   UNL A   1      39.179  18.371  25.432  1.00  0.00     0.163 HD
ATOM     29  O   UNL A   1      41.545  18.593  25.805  1.00  0.00    -0.269 OA
BRANCH  27  30
ATOM     30  C   UNL A   1      41.183  20.792  26.535  1.00  0.00     0.039 A 
ATOM     31  C   UNL A   1      41.714  21.759  25.676  1.00  0.00     0.014 A 
ATOM     32  C   UNL A   1      41.143  21.029  27.912  1.00  0.00     0.014 A 
ATOM     33  C   UNL A   1      42.160  22.978  26.190  1.00  0.00     0.010 A 
ATOM     34  C   UNL A   1      41.519  22.272  28.415  1.00  0.00     0.010 A 
ATOM     35  C   UNL A   1      42.040  23.256  27.561  1.00  0.00    -0.014 A 
BRANCH  35  36
ATOM     36  C   UNL A   1      42.456  24.568  28.118  1.00  0.00     0.031 A 
ATOM     37  C   UNL A   1      41.435  25.648  28.357  1.00  0.00     0.074 A 
ATOM     38  C   UNL A   1      43.762  24.810  28.341  1.00  0.00     0.049 A 
ATOM     39  N   UNL A   1      41.615  26.880  28.760  1.00  0.00    -0.248 NA
ATOM     40  C   UNL A   1      40.029  25.308  28.082  1.00  0.00     0.031 C 
ATOM     41  C   UNL A   1      44.852  23.862  28.097  1.00  0.00     0.029 A 
ATOM     42  N   UNL A   1      44.400  25.934  28.804  1.00  0.00    -0.354 N 
ATOM     43  C   UNL A   1      40.355  27.467  28.759  1.00  0.00     0.074 A 
ATOM     44  C   UNL A   1      39.423  26.470  28.282  1.00  0.00     0.031 C 
ATOM     45  C   UNL A   1      46.019  24.440  28.421  1.00  0.00     0.029 A 
ATOM     46  C   UNL A   1      45.767  25.809  28.858  1.00  0.00     0.049 A 
ATOM     47  H   UNL A   1      43.922  26.751  29.074  1.00  0.00     0.167 HD
ATOM     48  C   UNL A   1      40.007  28.719  29.140  1.00  0.00     0.037 A 
ATOM     49  C   UNL A   1      46.713  26.703  29.204  1.00  0.00     0.037 A 
ATOM     50  C   UNL A   1      40.933  29.694  29.654  1.00  0.00     0.049 A 
ATOM     51  C   UNL A   1      46.293  28.080  29.640  1.00  0.00     0.074 A 
ATOM     52  C   UNL A   1      40.665  30.956  30.152  1.00  0.00     0.029 A 
ATOM     53  N   UNL A   1      42.305  29.515  29.732  1.00  0.00    -0.354 N 
ATOM     54  N   UNL A   1      45.088  28.589  29.723  1.00  0.00    -0.248 NA
ATOM     55  C   UNL A   1      47.364  29.004  30.042  1.00  0.00     0.031 C 
ATOM     56  C   UNL A   1      41.880  31.564  30.483  1.00  0.00     0.029 A 
ATOM     57  C   UNL A   1      42.900  30.657  30.243  1.00  0.00     0.049 A 
ATOM     58  H   UNL A   1      42.786  28.699  29.465  1.00  0.00     0.167 HD
ATOM     59  C   UNL A   1      45.253  29.878  30.213  1.00  0.00     0.074 A 
ATOM     60  C   UNL A   1      46.673  30.068  30.425  1.00  0.00     0.031 C 
ATOM     61  C   UNL A   1      44.313  30.824  30.461  1.00  0.00     0.037 A 
BRANCH  48  62
ATOM     62  C   UNL A   1      38.565  29.119  29.018  1.00  0.00     0.057 A 
ATOM     63  C   UNL A   1      37.685  29.058  30.106  1.00  0.00     0.134 A 
ATOM     64  C   UNL A   1      38.072  29.645  27.817  1.00  0.00     0.134 A 
ATOM     65  F   UNL A   1      38.089  28.557  31.282  1.00  0.00    -0.206 F 
ATOM     66  C   UNL A   1      36.362  29.491  29.999  1.00  0.00     0.040 A 
ATOM     67  C   UNL A   1      36.759  30.105  27.704  1.00  0.00     0.040 A 
ATOM     68  F   UNL A   1      38.865  29.738  26.738  1.00  0.00    -0.206 F 
ATOM     69  C   UNL A   1      35.899  30.026  28.798  1.00  0.00     0.006 A 
ENDBRANCH  48  62
BRANCH  49  70
ATOM     70  C   UNL A   1      48.151  26.332  29.152  1.00  0.00     0.057 A 
ATOM     71  C   UNL A   1      48.912  26.536  27.995  1.00  0.00     0.134 A 
ATOM     72  C   UNL A   1      48.790  25.733  30.245  1.00  0.00     0.134 A 
ATOM     73  F   UNL A   1      48.353  27.089  26.908  1.00  0.00    -0.206 F 
ATOM     74  C   UNL A   1      50.245  26.128  27.914  1.00  0.00     0.040 A 
ATOM     75  C   UNL A   1      50.130  25.348  30.188  1.00  0.00     0.040 A 
ATOM     76  F   UNL A   1      48.120  25.519  31.387  1.00  0.00    -0.206 F 
ATOM     77  C   UNL A   1      50.858  25.535  29.015  1.00  0.00     0.006 A 
ENDBRANCH  49  70
BRANCH  61  78
ATOM     78  C   UNL A   1      44.786  32.129  31.030  1.00  0.00     0.057 A 
ATOM     79  C   UNL A   1      45.095  33.225  30.215  1.00  0.00     0.134 A 
ATOM     80  C   UNL A   1      44.892  32.302  32.417  1.00  0.00     0.134 A 
ATOM     81  F   UNL A   1      45.026  33.120  28.880  1.00  0.00    -0.206 F 
ATOM     82  C   UNL A   1      45.517  34.439  30.758  1.00  0.00     0.040 A 
ATOM     83  C   UNL A   1      45.284  33.521  32.972  1.00  0.00     0.040 A 
ATOM     84  F   UNL A   1      44.601  31.295  33.255  1.00  0.00    -0.206 F 
ATOM     85  C   UNL A   1      45.605  34.592  32.141  1.00  0.00     0.006 A 
ENDBRANCH  61  78
ENDBRANCH  35  36
ENDBRANCH  27  30
ENDBRANCH  25  26
ENDBRANCH   1  25
TORSDOF 12
ENDMDL
MODEL 2
REMARK VINA RESULT:     -12.4      4.199      9.378
REMARK SMILES C[C@@]1(CN2C(=O)c3ccc(C(=O)NCCCNC(=O)c4ccc(-c5c6nc(c(-c7c(F)cccc7F)c7ccc([nH]7)c(-c7c(F)cccc7F)c7nc(c(-c8c(F)cccc8F)c8ccc5[nH]8)C=C7)C=C6)cc4)cc3C2=O)CCCO1
REMARK SMILES IDX 15 1 14 2 13 3 11 4 12 5 10 7 4 8 5 9 76 10 6 11 7 12 75 13
REMARK SMILES IDX 77 14 8 15 74 16 9 17 3 18 2 19 1 20 78 21 81 22 79 23 80 24
REMARK SMILES IDX 16 25 17 26 18 27 19 29 20 30 21 31 73 32 22 33 72 34 23 35
REMARK SMILES IDX 24 36 25 37 66 38 26 39 71 40 65 41 67 42 27 43 70 44 64 45
REMARK SMILES IDX 63 46 28 48 54 49 37 50 53 51 38 52 41 53 52 54 68 55 39 56
REMARK SMILES IDX 40 57 51 59 69 60 42 61 29 62 30 63 35 64 31 65 32 66 34 67
REMARK SMILES IDX 36 68 33 69 55 70 56 71 61 72 57 73 58 74 60 75 62 76 59 77
REMARK SMILES IDX 43 78 44 79 49 80 45 81 46 82 48 83 50 84 47 85
REMARK H PARENT 13 6 17 28 67 47 41 58
REMARK Flexibility Score: inf
ROOT
ATOM      1  C   UNL A   1      31.428  31.968  26.871  1.00  0.00     0.042 C 
ENDROOT
BRANCH   1   2
ATOM      2  C   UNL A   1      31.672  30.458  26.820  1.00  0.00     0.118 C 
BRANCH   2   3
ATOM      3  N   UNL A   1      32.911  30.102  27.488  1.00  0.00    -0.352 N 
ATOM      4  C   UNL A   1      33.919  29.228  27.172  1.00  0.00     0.251 C 
ATOM      5  O   UNL A   1      34.895  29.197  27.919  1.00  0.00    -0.269 OA
ATOM      6  H   UNL A   1      33.057  30.582  28.335  1.00  0.00     0.163 HD
BRANCH   4   7
ATOM      7  C   UNL A   1      33.905  28.336  25.975  1.00  0.00     0.040 A 
ATOM      8  N   UNL A   1      33.777  24.318  23.719  1.00  0.00    -0.271 N 
ATOM      9  C   UNL A   1      33.651  25.436  22.946  1.00  0.00     0.261 C 
ATOM     10  C   UNL A   1      33.896  24.633  25.048  1.00  0.00     0.261 C 
ATOM     11  O   UNL A   1      33.420  25.541  21.757  1.00  0.00    -0.269 OA
ATOM     12  C   UNL A   1      33.779  26.576  23.842  1.00  0.00     0.053 A 
ATOM     13  C   UNL A   1      33.916  26.096  25.129  1.00  0.00     0.054 A 
ATOM     14  O   UNL A   1      33.916  23.901  26.020  1.00  0.00    -0.269 OA
ATOM     15  C   UNL A   1      33.699  27.921  23.564  1.00  0.00     0.015 A 
ATOM     16  C   UNL A   1      33.980  26.949  26.216  1.00  0.00     0.028 A 
ATOM     17  C   UNL A   1      33.740  28.800  24.649  1.00  0.00     0.015 A 
BRANCH   8  18
ATOM     18  C   UNL A   1      33.650  22.963  23.207  1.00  0.00     0.164 C 
BRANCH  18  19
ATOM     19  C   UNL A   1      32.234  22.342  23.369  1.00  0.00     0.084 C 
ATOM     20  C   UNL A   1      31.121  23.390  23.386  1.00  0.00     0.044 C 
ATOM     21  C   UNL A   1      32.175  21.477  24.634  1.00  0.00     0.039 C 
ATOM     22  O   UNL A   1      31.985  21.433  22.276  1.00  0.00    -0.373 OA
ATOM     23  C   UNL A   1      32.676  20.140  24.150  1.00  0.00     0.031 C 
ATOM     24  C   UNL A   1      32.145  20.083  22.734  1.00  0.00     0.161 C 
ENDBRANCH  18  19
ENDBRANCH   8  18
ENDBRANCH   4   7
ENDBRANCH   2   3
ENDBRANCH   1   2
BRANCH   1  25
ATOM     25  C   UNL A   1      32.714  32.790  26.878  1.00  0.00     0.118 C 
BRANCH  25  26
ATOM     26  N   UNL A   1      32.522  34.086  27.512  1.00  0.00    -0.352 N 
ATOM     27  C   UNL A   1      33.110  34.621  28.629  1.00  0.00     0.251 C 
ATOM     28  H   UNL A   1      31.866  34.671  27.068  1.00  0.00     0.163 HD
ATOM     29  O   UNL A   1      32.626  35.628  29.139  1.00  0.00    -0.269 OA
BRANCH  27  30
ATOM     30  C   UNL A   1      34.313  34.003  29.226  1.00  0.00     0.039 A 
ATOM     31  C   UNL A   1      34.148  33.069  30.253  1.00  0.00     0.014 A 
ATOM     32  C   UNL A   1      35.599  34.381  28.828  1.00  0.00     0.014 A 
ATOM     33  C   UNL A   1      35.267  32.481  30.847  1.00  0.00     0.010 A 
ATOM     34  C   UNL A   1      36.711  33.741  29.368  1.00  0.00     0.010 A 
ATOM     35  C   UNL A   1      36.558  32.792  30.390  1.00  0.00    -0.014 A 
BRANCH  35  36
ATOM     36  C   UNL A   1      37.756  32.134  30.970  1.00  0.00     0.031 A 
ATOM     37  C   UNL A   1      38.451  31.029  30.221  1.00  0.00     0.074 A 
ATOM     38  C   UNL A   1      38.175  32.486  32.201  1.00  0.00     0.049 A 
ATOM     39  N   UNL A   1      39.458  30.283  30.597  1.00  0.00    -0.248 NA
ATOM     40  C   UNL A   1      37.928  30.698  28.885  1.00  0.00     0.031 C 
ATOM     41  C   UNL A   1      37.551  33.506  33.047  1.00  0.00     0.029 A 
ATOM     42  N   UNL A   1      39.212  32.012  32.965  1.00  0.00    -0.354 N 
ATOM     43  C   UNL A   1      39.671  29.381  29.561  1.00  0.00     0.074 A 
ATOM     44  C   UNL A   1      38.666  29.647  28.556  1.00  0.00     0.031 C 
ATOM     45  C   UNL A   1      38.223  33.586  34.207  1.00  0.00     0.029 A 
ATOM     46  C   UNL A   1      39.298  32.600  34.203  1.00  0.00     0.049 A 
ATOM     47  H   UNL A   1      39.836  31.317  32.654  1.00  0.00     0.167 HD
ATOM     48  C   UNL A   1      40.629  28.430  29.453  1.00  0.00     0.037 A 
ATOM     49  C   UNL A   1      40.139  32.360  35.228  1.00  0.00     0.037 A 
ATOM     50  C   UNL A   1      41.653  28.199  30.438  1.00  0.00     0.049 A 
ATOM     51  C   UNL A   1      41.204  31.311  35.069  1.00  0.00     0.074 A 
ATOM     52  C   UNL A   1      42.722  27.323  30.378  1.00  0.00     0.029 A 
ATOM     53  N   UNL A   1      41.731  28.844  31.662  1.00  0.00    -0.354 N 
ATOM     54  N   UNL A   1      41.450  30.531  34.045  1.00  0.00    -0.248 NA
ATOM     55  C   UNL A   1      42.117  31.115  36.205  1.00  0.00     0.031 C 
ATOM     56  C   UNL A   1      43.418  27.399  31.588  1.00  0.00     0.029 A 
ATOM     57  C   UNL A   1      42.815  28.364  32.379  1.00  0.00     0.049 A 
ATOM     58  H   UNL A   1      41.110  29.541  31.975  1.00  0.00     0.167 HD
ATOM     59  C   UNL A   1      42.560  29.775  34.400  1.00  0.00     0.074 A 
ATOM     60  C   UNL A   1      42.951  30.202  35.727  1.00  0.00     0.031 C 
ATOM     61  C   UNL A   1      43.198  28.810  33.692  1.00  0.00     0.037 A 
BRANCH  48  62
ATOM     62  C   UNL A   1      40.626  27.561  28.229  1.00  0.00     0.057 A 
ATOM     63  C   UNL A   1      41.343  27.902  27.076  1.00  0.00     0.134 A 
ATOM     64  C   UNL A   1      39.957  26.330  28.233  1.00  0.00     0.134 A 
ATOM     65  F   UNL A   1      41.998  29.070  27.001  1.00  0.00    -0.206 F 
ATOM     66  C   UNL A   1      41.385  27.056  25.965  1.00  0.00     0.040 A 
ATOM     67  C   UNL A   1      40.012  25.464  27.140  1.00  0.00     0.040 A 
ATOM     68  F   UNL A   1      39.257  25.939  29.309  1.00  0.00    -0.206 F 
ATOM     69  C   UNL A   1      40.726  25.829  26.000  1.00  0.00     0.006 A 
ENDBRANCH  48  62
BRANCH  49  70
ATOM     70  C   UNL A   1      40.010  33.122  36.497  1.00  0.00     0.057 A 
ATOM     71  C   UNL A   1      39.096  32.738  37.486  1.00  0.00     0.134 A 
ATOM     72  C   UNL A   1      40.774  34.271  36.739  1.00  0.00     0.134 A 
ATOM     73  F   UNL A   1      38.323  31.656  37.306  1.00  0.00    -0.206 F 
ATOM     74  C   UNL A   1      38.920  33.486  38.651  1.00  0.00     0.040 A 
ATOM     75  C   UNL A   1      40.630  35.011  37.913  1.00  0.00     0.040 A 
ATOM     76  F   UNL A   1      41.676  34.687  35.837  1.00  0.00    -0.206 F 
ATOM     77  C   UNL A   1      39.692  34.626  38.869  1.00  0.00     0.006 A 
ENDBRANCH  49  70
BRANCH  61  78
ATOM     78  C   UNL A   1      44.407  28.184  34.321  1.00  0.00     0.057 A 
ATOM     79  C   UNL A   1      44.324  27.012  35.083  1.00  0.00     0.134 A 
ATOM     80  C   UNL A   1      45.678  28.740  34.124  1.00  0.00     0.134 A 
ATOM     81  F   UNL A   1      43.136  26.436  35.319  1.00  0.00    -0.206 F 
ATOM     82  C   UNL A   1      45.460  26.429  35.648  1.00  0.00     0.040 A 
ATOM     83  C   UNL A   1      46.824  28.149  34.659  1.00  0.00     0.040 A 
ATOM     84  F   UNL A   1      45.829  29.857  33.396  1.00  0.00    -0.206 F 
ATOM     85  C   UNL A   1      46.715  26.994  35.429  1.00  0.00     0.006 A 
ENDBRANCH  61  78
ENDBRANCH  35  36
ENDBRANCH  27  30
ENDBRANCH  25  26
ENDBRANCH   1  25
TORSDOF 12
ENDMDL
MODEL 3
REMARK VINA RESULT:     -12.3      3.389      8.909
REMARK SMILES C[C@@]1(CN2C(=O)c3ccc(C(=O)NCCCNC(=O)c4ccc(-c5c6nc(c(-c7c(F)cccc7F)c7ccc([nH]7)c(-c7c(F)cccc7F)c7nc(c(-c8c(F)cccc8F)c8ccc5[nH]8)C=C7)C=C6)cc4)cc3C2=O)CCCO1
REMARK SMILES IDX 15 1 14 2 13 3 11 4 12 5 10 7 4 8 5 9 76 10 6 11 7 12 75 13
REMARK SMILES IDX 77 14 8 15 74 16 9 17 3 18 2 19 1 20 78 21 81 22 79 23 80 24
REMARK SMILES IDX 16 25 17 26 18 27 19 29 20 30 21 31 73 32 22 33 72 34 23 35
REMARK SMILES IDX 24 36 25 37 66 38 26 39 71 40 65 41 67 42 27 43 70 44 64 45
REMARK SMILES IDX 63 46 28 48 54 49 37 50 53 51 38 52 41 53 52 54 68 55 39 56
REMARK SMILES IDX 40 57 51 59 69 60 42 61 29 62 30 63 35 64 31 65 32 66 34 67
REMARK SMILES IDX 36 68 33 69 55 70 56 71 61 72 57 73 58 74 60 75 62 76 59 77
REMARK SMILES IDX 43 78 44 79 49 80 45 81 46 82 48 83 50 84 47 85
REMARK H PARENT 13 6 17 28 67 47 41 58
REMARK Flexibility Score: inf
ROOT
ATOM      1  C   UNL A   1      31.076  31.436  26.013  1.00  0.00     0.042 C 
ENDROOT
BRANCH   1   2
ATOM      2  C   UNL A   1      31.346  30.133  25.257  1.00  0.00     0.118 C 
BRANCH   2   3
ATOM      3  N   UNL A   1      30.766  30.166  23.927  1.00  0.00    -0.352 N 
ATOM      4  C   UNL A   1      30.379  29.179  23.059  1.00  0.00     0.251 C 
ATOM      5  O   UNL A   1      29.843  29.528  22.008  1.00  0.00    -0.269 OA
ATOM      6  H   UNL A   1      30.620  31.075  23.581  1.00  0.00     0.163 HD
BRANCH   4   7
ATOM      7  C   UNL A   1      30.553  27.720  23.323  1.00  0.00     0.040 A 
ATOM      8  N   UNL A   1      32.716  23.650  23.216  1.00  0.00    -0.271 N 
ATOM      9  C   UNL A   1      31.590  23.703  23.986  1.00  0.00     0.261 C 
ATOM     10  C   UNL A   1      32.988  24.862  22.635  1.00  0.00     0.261 C 
ATOM     11  O   UNL A   1      31.111  22.866  24.726  1.00  0.00    -0.269 OA
ATOM     12  C   UNL A   1      31.042  25.043  23.828  1.00  0.00     0.053 A 
ATOM     13  C   UNL A   1      31.896  25.761  23.015  1.00  0.00     0.054 A 
ATOM     14  O   UNL A   1      33.955  25.209  21.983  1.00  0.00    -0.269 OA
ATOM     15  C   UNL A   1      29.934  25.609  24.414  1.00  0.00     0.015 A 
ATOM     16  C   UNL A   1      31.680  27.100  22.745  1.00  0.00     0.028 A 
ATOM     17  C   UNL A   1      29.708  26.967  24.171  1.00  0.00     0.015 A 
BRANCH   8  18
ATOM     18  C   UNL A   1      33.592  22.493  23.145  1.00  0.00     0.164 C 
BRANCH  18  19
ATOM     19  C   UNL A   1      34.836  22.566  24.074  1.00  0.00     0.084 C 
ATOM     20  C   UNL A   1      36.119  22.930  23.325  1.00  0.00     0.044 C 
ATOM     21  C   UNL A   1      35.014  21.244  24.830  1.00  0.00     0.039 C 
ATOM     22  O   UNL A   1      34.610  23.561  25.095  1.00  0.00    -0.373 OA
ATOM     23  C   UNL A   1      34.134  21.430  26.041  1.00  0.00     0.031 C 
ATOM     24  C   UNL A   1      34.279  22.909  26.329  1.00  0.00     0.161 C 
ENDBRANCH  18  19
ENDBRANCH   8  18
ENDBRANCH   4   7
ENDBRANCH   2   3
ENDBRANCH   1   2
BRANCH   1  25
ATOM     25  C   UNL A   1      32.249  31.892  26.875  1.00  0.00     0.118 C 
BRANCH  25  26
ATOM     26  N   UNL A   1      32.133  33.294  27.248  1.00  0.00    -0.352 N 
ATOM     27  C   UNL A   1      32.893  34.049  28.104  1.00  0.00     0.251 C 
ATOM     28  H   UNL A   1      31.390  33.776  26.819  1.00  0.00     0.163 HD
ATOM     29  O   UNL A   1      32.475  35.144  28.473  1.00  0.00    -0.269 OA
BRANCH  27  30
ATOM     30  C   UNL A   1      34.202  33.562  28.589  1.00  0.00     0.039 A 
ATOM     31  C   UNL A   1      34.240  32.768  29.739  1.00  0.00     0.014 A 
ATOM     32  C   UNL A   1      35.394  33.933  27.959  1.00  0.00     0.014 A 
ATOM     33  C   UNL A   1      35.464  32.308  30.229  1.00  0.00     0.010 A 
ATOM     34  C   UNL A   1      36.607  33.414  28.405  1.00  0.00     0.010 A 
ATOM     35  C   UNL A   1      36.656  32.605  29.550  1.00  0.00    -0.014 A 
BRANCH  35  36
ATOM     36  C   UNL A   1      37.961  32.077  30.023  1.00  0.00     0.031 A 
ATOM     37  C   UNL A   1      38.501  30.785  29.472  1.00  0.00     0.074 A 
ATOM     38  C   UNL A   1      38.624  32.727  30.999  1.00  0.00     0.049 A 
ATOM     39  N   UNL A   1      39.577  30.126  29.818  1.00  0.00    -0.248 NA
ATOM     40  C   UNL A   1      37.713  30.132  28.413  1.00  0.00     0.031 C 
ATOM     41  C   UNL A   1      38.175  33.960  31.651  1.00  0.00     0.029 A 
ATOM     42  N   UNL A   1      39.806  32.431  31.630  1.00  0.00    -0.354 N 
ATOM     43  C   UNL A   1      39.582  28.973  29.041  1.00  0.00     0.074 A 
ATOM     44  C   UNL A   1      38.383  29.002  28.233  1.00  0.00     0.031 C 
ATOM     45  C   UNL A   1      39.075  34.319  32.581  1.00  0.00     0.029 A 
ATOM     46  C   UNL A   1      40.142  33.324  32.619  1.00  0.00     0.049 A 
ATOM     47  H   UNL A   1      40.362  31.654  31.395  1.00  0.00     0.167 HD
ATOM     48  C   UNL A   1      40.512  27.989  28.996  1.00  0.00     0.037 A 
ATOM     49  C   UNL A   1      41.183  33.332  33.473  1.00  0.00     0.037 A 
ATOM     50  C   UNL A   1      41.724  27.987  29.773  1.00  0.00     0.049 A 
ATOM     51  C   UNL A   1      42.209  32.236  33.385  1.00  0.00     0.074 A 
ATOM     52  C   UNL A   1      42.771  27.084  29.730  1.00  0.00     0.029 A 
ATOM     53  N   UNL A   1      42.048  28.931  30.734  1.00  0.00    -0.354 N 
ATOM     54  N   UNL A   1      42.247  31.201  32.580  1.00  0.00    -0.248 NA
ATOM     55  C   UNL A   1      43.344  32.313  34.316  1.00  0.00     0.031 C 
ATOM     56  C   UNL A   1      43.705  27.451  30.703  1.00  0.00     0.029 A 
ATOM     57  C   UNL A   1      43.266  28.616  31.312  1.00  0.00     0.049 A 
ATOM     58  H   UNL A   1      41.495  29.711  30.970  1.00  0.00     0.167 HD
ATOM     59  C   UNL A   1      43.419  30.523  32.887  1.00  0.00     0.074 A 
ATOM     60  C   UNL A   1      44.074  31.272  33.939  1.00  0.00     0.031 C 
ATOM     61  C   UNL A   1      43.910  29.380  32.348  1.00  0.00     0.037 A 
BRANCH  48  62
ATOM     62  C   UNL A   1      40.265  26.826  28.080  1.00  0.00     0.057 A 
ATOM     63  C   UNL A   1      40.847  26.749  26.808  1.00  0.00     0.134 A 
ATOM     64  C   UNL A   1      39.498  25.735  28.506  1.00  0.00     0.134 A 
ATOM     65  F   UNL A   1      41.586  27.762  26.334  1.00  0.00    -0.206 F 
ATOM     66  C   UNL A   1      40.662  25.634  25.988  1.00  0.00     0.040 A 
ATOM     67  C   UNL A   1      39.327  24.604  27.707  1.00  0.00     0.040 A 
ATOM     68  F   UNL A   1      38.918  25.742  29.716  1.00  0.00    -0.206 F 
ATOM     69  C   UNL A   1      39.908  24.553  26.441  1.00  0.00     0.006 A 
ENDBRANCH  48  62
BRANCH  49  70
ATOM     70  C   UNL A   1      41.312  34.409  34.489  1.00  0.00     0.057 A 
ATOM     71  C   UNL A   1      40.790  34.257  35.779  1.00  0.00     0.134 A 
ATOM     72  C   UNL A   1      41.931  35.628  34.184  1.00  0.00     0.134 A 
ATOM     73  F   UNL A   1      40.171  33.119  36.126  1.00  0.00    -0.206 F 
ATOM     74  C   UNL A   1      40.847  35.288  36.717  1.00  0.00     0.040 A 
ATOM     75  C   UNL A   1      42.021  36.657  35.123  1.00  0.00     0.040 A 
ATOM     76  F   UNL A   1      42.461  35.834  32.970  1.00  0.00    -0.206 F 
ATOM     77  C   UNL A   1      41.467  36.492  36.391  1.00  0.00     0.006 A 
ENDBRANCH  49  70
BRANCH  61  78
ATOM     78  C   UNL A   1      45.235  28.894  32.857  1.00  0.00     0.057 A 
ATOM     79  C   UNL A   1      45.335  27.987  33.919  1.00  0.00     0.134 A 
ATOM     80  C   UNL A   1      46.425  29.310  32.246  1.00  0.00     0.134 A 
ATOM     81  F   UNL A   1      44.233  27.560  34.555  1.00  0.00    -0.206 F 
ATOM     82  C   UNL A   1      46.573  27.530  34.371  1.00  0.00     0.040 A 
ATOM     83  C   UNL A   1      47.668  28.837  32.671  1.00  0.00     0.040 A 
ATOM     84  F   UNL A   1      46.400  30.171  31.217  1.00  0.00    -0.206 F 
ATOM     85  C   UNL A   1      47.744  27.949  33.741  1.00  0.00     0.006 A 
ENDBRANCH  61  78
ENDBRANCH  35  36
ENDBRANCH  27  30
ENDBRANCH  25  26
ENDBRANCH   1  25
TORSDOF 12
ENDMDL
