MODEL 1
REMARK VINA RESULT:     -12.3      0.000      0.000
REMARK SMILES O=C(NCCCNC(=O)c1sccc1S(=O)(=O)Nc1ccccc1N1CCCCC1)c1ccc(-c2c3nc(c(-c4c(F)cccc4F)c4ccc([nH]4)c(-c4c(F)cccc4F)c4nc(c(-c5c(F)cccc5F)c5ccc2[nH]5)C=C4)C=C3)cc1
REMARK SMILES IDX 6 1 5 2 4 3 3 4 1 5 2 6 31 8 32 9 84 10 33 11 83 12 34 13
REMARK SMILES IDX 35 14 36 15 77 16 37 17 82 18 76 19 78 20 38 21 81 22 75 23
REMARK SMILES IDX 74 24 39 26 65 27 48 28 64 29 49 30 52 31 63 32 79 33 50 34
REMARK SMILES IDX 51 35 62 37 80 38 53 39 40 40 41 41 46 42 42 43 43 44 45 45
REMARK SMILES IDX 47 46 44 47 66 48 67 49 72 50 68 51 69 52 71 53 73 54 70 55
REMARK SMILES IDX 54 56 55 57 60 58 56 59 57 60 59 61 61 62 58 63 7 64 8 65
REMARK SMILES IDX 9 67 10 68 11 69 14 70 12 71 13 72 15 73 16 74 17 75 18 76
REMARK SMILES IDX 19 78 20 79 24 80 21 81 23 82 22 83 25 84 26 85 30 86 27 87
REMARK SMILES IDX 29 88 28 89
REMARK H PARENT 3 7 78 25 52 36 7 66 18 77
REMARK Flexibility Score: inf
ROOT
ATOM      1  C   UNL A   1      36.314  21.851  25.330  1.00  0.00     0.118 C 
ENDROOT
BRANCH   1   2
ATOM      2  C   UNL A   1      37.349  20.799  24.985  1.00  0.00     0.042 C 
BRANCH   2   3
ATOM      3  C   UNL A   1      38.653  21.022  25.740  1.00  0.00     0.118 C 
BRANCH   3   4
ATOM      4  N   UNL A   1      39.577  19.897  25.633  1.00  0.00    -0.352 N 
ATOM      5  O   UNL A   1      41.550  18.798  25.739  1.00  0.00    -0.269 OA
ATOM      6  C   UNL A   1      40.904  19.809  25.977  1.00  0.00     0.251 C 
ATOM      7  H   UNL A   1      39.189  19.074  25.256  1.00  0.00     0.163 HD
BRANCH   6   8
ATOM      8  C   UNL A   1      41.547  20.988  26.579  1.00  0.00     0.039 A 
ATOM      9  C   UNL A   1      41.533  21.159  27.964  1.00  0.00     0.014 A 
ATOM     10  C   UNL A   1      42.049  21.979  25.734  1.00  0.00     0.014 A 
ATOM     11  C   UNL A   1      41.825  22.406  28.491  1.00  0.00     0.010 A 
ATOM     12  C   UNL A   1      42.451  23.194  26.282  1.00  0.00     0.010 A 
ATOM     13  C   UNL A   1      42.292  23.434  27.657  1.00  0.00    -0.014 A 
BRANCH  13  14
ATOM     14  C   UNL A   1      42.646  24.749  28.235  1.00  0.00     0.031 A 
ATOM     15  C   UNL A   1      41.594  25.792  28.477  1.00  0.00     0.074 A 
ATOM     16  C   UNL A   1      43.937  24.997  28.521  1.00  0.00     0.049 A 
ATOM     17  N   UNL A   1      41.740  27.038  28.848  1.00  0.00    -0.248 NA
ATOM     18  C   UNL A   1      40.195  25.390  28.262  1.00  0.00     0.031 C 
ATOM     19  C   UNL A   1      45.037  24.048  28.335  1.00  0.00     0.029 A 
ATOM     20  N   UNL A   1      44.544  26.119  29.016  1.00  0.00    -0.354 N 
ATOM     21  C   UNL A   1      40.461  27.580  28.871  1.00  0.00     0.074 A 
ATOM     22  C   UNL A   1      39.550  26.530  28.469  1.00  0.00     0.031 C 
ATOM     23  C   UNL A   1      46.182  24.621  28.727  1.00  0.00     0.029 A 
ATOM     24  C   UNL A   1      45.907  25.999  29.110  1.00  0.00     0.049 A 
ATOM     25  H   UNL A   1      44.052  26.931  29.278  1.00  0.00     0.167 HD
ATOM     26  C   UNL A   1      40.090  28.843  29.194  1.00  0.00     0.037 A 
ATOM     27  C   UNL A   1      46.843  26.911  29.424  1.00  0.00     0.037 A 
ATOM     28  C   UNL A   1      41.011  29.868  29.615  1.00  0.00     0.049 A 
ATOM     29  C   UNL A   1      46.413  28.306  29.754  1.00  0.00     0.074 A 
ATOM     30  C   UNL A   1      40.738  31.167  30.004  1.00  0.00     0.029 A 
ATOM     31  N   UNL A   1      42.387  29.706  29.700  1.00  0.00    -0.354 N 
ATOM     32  N   UNL A   1      45.201  28.808  29.775  1.00  0.00    -0.248 NA
ATOM     33  C   UNL A   1      47.472  29.262  30.096  1.00  0.00     0.031 C 
ATOM     34  C   UNL A   1      41.953  31.803  30.285  1.00  0.00     0.029 A 
ATOM     35  C   UNL A   1      42.979  30.887  30.114  1.00  0.00     0.049 A 
ATOM     36  H   UNL A   1      42.871  28.873  29.495  1.00  0.00     0.167 HD
ATOM     37  C   UNL A   1      45.349  30.135  30.149  1.00  0.00     0.074 A 
ATOM     38  C   UNL A   1      46.767  30.357  30.351  1.00  0.00     0.031 C 
ATOM     39  C   UNL A   1      44.393  31.082  30.312  1.00  0.00     0.037 A 
BRANCH  26  40
ATOM     40  C   UNL A   1      38.636  29.193  29.070  1.00  0.00     0.057 A 
ATOM     41  C   UNL A   1      37.755  29.128  30.157  1.00  0.00     0.134 A 
ATOM     42  C   UNL A   1      38.114  29.626  27.843  1.00  0.00     0.134 A 
ATOM     43  F   UNL A   1      38.185  28.710  31.356  1.00  0.00    -0.206 F 
ATOM     44  C   UNL A   1      36.403  29.455  30.022  1.00  0.00     0.040 A 
ATOM     45  C   UNL A   1      36.770  29.978  27.701  1.00  0.00     0.040 A 
ATOM     46  F   UNL A   1      38.903  29.719  26.761  1.00  0.00    -0.206 F 
ATOM     47  C   UNL A   1      35.909  29.885  28.792  1.00  0.00     0.006 A 
ENDBRANCH  26  40
BRANCH  27  48
ATOM     48  C   UNL A   1      48.268  26.510  29.405  1.00  0.00     0.057 A 
ATOM     49  C   UNL A   1      49.070  26.747  28.286  1.00  0.00     0.134 A 
ATOM     50  C   UNL A   1      48.882  25.962  30.540  1.00  0.00     0.134 A 
ATOM     51  F   UNL A   1      48.535  27.264  27.170  1.00  0.00    -0.206 F 
ATOM     52  C   UNL A   1      50.436  26.460  28.295  1.00  0.00     0.040 A 
ATOM     53  C   UNL A   1      50.250  25.691  30.572  1.00  0.00     0.040 A 
ATOM     54  F   UNL A   1      48.166  25.730  31.650  1.00  0.00    -0.206 F 
ATOM     55  C   UNL A   1      51.031  25.940  29.445  1.00  0.00     0.006 A 
ENDBRANCH  27  48
BRANCH  39  56
ATOM     56  C   UNL A   1      44.849  32.434  30.767  1.00  0.00     0.057 A 
ATOM     57  C   UNL A   1      45.145  33.456  29.857  1.00  0.00     0.134 A 
ATOM     58  C   UNL A   1      44.943  32.730  32.132  1.00  0.00     0.134 A 
ATOM     59  F   UNL A   1      45.089  33.228  28.536  1.00  0.00    -0.206 F 
ATOM     60  C   UNL A   1      45.530  34.724  30.291  1.00  0.00     0.040 A 
ATOM     61  C   UNL A   1      45.306  33.999  32.578  1.00  0.00     0.040 A 
ATOM     62  F   UNL A   1      44.668  31.792  33.052  1.00  0.00    -0.206 F 
ATOM     63  C   UNL A   1      45.602  35.001  31.655  1.00  0.00     0.006 A 
ENDBRANCH  39  56
ENDBRANCH  13  14
ENDBRANCH   6   8
ENDBRANCH   3   4
ENDBRANCH   2   3
ENDBRANCH   1   2
BRANCH   1  64
ATOM     64  N   UNL A   1      35.489  21.453  26.447  1.00  0.00    -0.351 N 
ATOM     65  C   UNL A   1      34.132  21.488  26.583  1.00  0.00     0.262 C 
ATOM     66  H   UNL A   1      35.979  21.105  27.226  1.00  0.00     0.163 HD
ATOM     67  O   UNL A   1      33.697  21.225  27.707  1.00  0.00    -0.268 OA
BRANCH  65  68
ATOM     68  C   UNL A   1      33.292  21.914  25.489  1.00  0.00     0.112 A 
ATOM     69  S   UNL A   1      33.142  20.732  24.229  1.00  0.00    -0.137 S 
ATOM     70  C   UNL A   1      32.609  23.078  25.169  1.00  0.00     0.111 A 
ATOM     71  C   UNL A   1      32.135  21.728  23.296  1.00  0.00     0.067 A 
ATOM     72  C   UNL A   1      31.919  22.937  23.906  1.00  0.00     0.035 A 
BRANCH  70  73
ATOM     73  S   UNL A   1      32.398  24.551  26.066  1.00  0.00     0.263 S 
ATOM     74  O   UNL A   1      31.738  24.116  27.283  1.00  0.00    -0.201 OA
ATOM     75  O   UNL A   1      33.761  25.035  26.185  1.00  0.00    -0.201 OA
BRANCH  73  76
ATOM     76  N   UNL A   1      31.509  25.847  25.507  1.00  0.00    -0.277 N 
ATOM     77  H   UNL A   1      30.720  25.647  24.953  1.00  0.00     0.180 HD
BRANCH  76  78
ATOM     78  C   UNL A   1      31.792  27.218  25.763  1.00  0.00     0.072 A 
ATOM     79  C   UNL A   1      31.502  27.689  27.054  1.00  0.00     0.029 A 
ATOM     80  C   UNL A   1      32.281  28.093  24.769  1.00  0.00     0.061 A 
ATOM     81  C   UNL A   1      31.786  29.003  27.413  1.00  0.00     0.002 A 
ATOM     82  C   UNL A   1      32.571  29.411  25.166  1.00  0.00     0.028 A 
ATOM     83  C   UNL A   1      32.340  29.859  26.471  1.00  0.00     0.002 A 
BRANCH  80  84
ATOM     84  N   UNL A   1      32.424  27.712  23.444  1.00  0.00    -0.370 N 
ATOM     85  C   UNL A   1      31.274  27.573  22.555  1.00  0.00     0.116 C 
ATOM     86  C   UNL A   1      33.731  27.243  22.974  1.00  0.00     0.116 C 
ATOM     87  C   UNL A   1      31.182  26.162  21.986  1.00  0.00     0.021 C 
ATOM     88  C   UNL A   1      33.618  25.820  22.430  1.00  0.00     0.021 C 
ATOM     89  C   UNL A   1      32.514  25.728  21.383  1.00  0.00     0.004 C 
ENDBRANCH  80  84
ENDBRANCH  76  78
ENDBRANCH  73  76
ENDBRANCH  70  73
ENDBRANCH  65  68
ENDBRANCH   1  64
TORSDOF 14
ENDMDL
MODEL 2
REMARK VINA RESULT:     -12.1      0.517      6.214
REMARK SMILES O=C(NCCCNC(=O)c1sccc1S(=O)(=O)Nc1ccccc1N1CCCCC1)c1ccc(-c2c3nc(c(-c4c(F)cccc4F)c4ccc([nH]4)c(-c4c(F)cccc4F)c4nc(c(-c5c(F)cccc5F)c5ccc2[nH]5)C=C4)C=C3)cc1
REMARK SMILES IDX 6 1 5 2 4 3 3 4 1 5 2 6 31 8 32 9 84 10 33 11 83 12 34 13
REMARK SMILES IDX 35 14 36 15 77 16 37 17 82 18 76 19 78 20 38 21 81 22 75 23
REMARK SMILES IDX 74 24 39 26 65 27 48 28 64 29 49 30 52 31 63 32 79 33 50 34
REMARK SMILES IDX 51 35 62 37 80 38 53 39 40 40 41 41 46 42 42 43 43 44 45 45
REMARK SMILES IDX 47 46 44 47 66 48 67 49 72 50 68 51 69 52 71 53 73 54 70 55
REMARK SMILES IDX 54 56 55 57 60 58 56 59 57 60 59 61 61 62 58 63 7 64 8 65
REMARK SMILES IDX 9 67 10 68 11 69 14 70 12 71 13 72 15 73 16 74 17 75 18 76
REMARK SMILES IDX 19 78 20 79 24 80 21 81 23 82 22 83 25 84 26 85 30 86 27 87
REMARK SMILES IDX 29 88 28 89
REMARK H PARENT 3 7 78 25 52 36 7 66 18 77
REMARK Flexibility Score: inf
ROOT
ATOM      1  C   UNL A   1      36.312  21.763  25.238  1.00  0.00     0.118 C 
ENDROOT
BRANCH   1   2
ATOM      2  C   UNL A   1      37.358  20.703  24.955  1.00  0.00     0.042 C 
BRANCH   2   3
ATOM      3  C   UNL A   1      38.654  20.975  25.710  1.00  0.00     0.118 C 
BRANCH   3   4
ATOM      4  N   UNL A   1      39.590  19.855  25.661  1.00  0.00    -0.352 N 
ATOM      5  O   UNL A   1      41.573  18.784  25.837  1.00  0.00    -0.269 OA
ATOM      6  C   UNL A   1      40.913  19.797  26.024  1.00  0.00     0.251 C 
ATOM      7  H   UNL A   1      39.215  19.013  25.315  1.00  0.00     0.163 HD
BRANCH   6   8
ATOM      8  C   UNL A   1      41.537  21.007  26.582  1.00  0.00     0.039 A 
ATOM      9  C   UNL A   1      41.476  21.253  27.955  1.00  0.00     0.014 A 
ATOM     10  C   UNL A   1      42.070  21.950  25.703  1.00  0.00     0.014 A 
ATOM     11  C   UNL A   1      41.751  22.527  28.423  1.00  0.00     0.010 A 
ATOM     12  C   UNL A   1      42.455  23.194  26.197  1.00  0.00     0.010 A 
ATOM     13  C   UNL A   1      42.249  23.508  27.550  1.00  0.00    -0.014 A 
BRANCH  13  14
ATOM     14  C   UNL A   1      42.585  24.853  28.068  1.00  0.00     0.031 A 
ATOM     15  C   UNL A   1      43.987  25.187  28.488  1.00  0.00     0.074 A 
ATOM     16  C   UNL A   1      41.601  25.764  28.173  1.00  0.00     0.049 A 
ATOM     17  N   UNL A   1      44.432  26.263  29.086  1.00  0.00    -0.248 NA
ATOM     18  C   UNL A   1      45.023  24.180  28.216  1.00  0.00     0.031 C 
ATOM     19  C   UNL A   1      40.207  25.545  27.782  1.00  0.00     0.029 A 
ATOM     20  N   UNL A   1      41.617  27.048  28.647  1.00  0.00    -0.354 N 
ATOM     21  C   UNL A   1      45.788  26.045  29.298  1.00  0.00     0.074 A 
ATOM     22  C   UNL A   1      46.092  24.732  28.772  1.00  0.00     0.031 C 
ATOM     23  C   UNL A   1      39.505  26.661  28.016  1.00  0.00     0.029 A 
ATOM     24  C   UNL A   1      40.380  27.639  28.648  1.00  0.00     0.049 A 
ATOM     25  H   UNL A   1      42.435  27.501  28.957  1.00  0.00     0.167 HD
ATOM     26  C   UNL A   1      46.689  26.870  29.885  1.00  0.00     0.037 A 
ATOM     27  C   UNL A   1      39.978  28.821  29.147  1.00  0.00     0.037 A 
ATOM     28  C   UNL A   1      46.371  28.185  30.381  1.00  0.00     0.049 A 
ATOM     29  C   UNL A   1      40.986  29.705  29.811  1.00  0.00     0.074 A 
ATOM     30  C   UNL A   1      47.214  29.119  30.956  1.00  0.00     0.029 A 
ATOM     31  N   UNL A   1      45.103  28.750  30.361  1.00  0.00    -0.354 N 
ATOM     32  N   UNL A   1      42.265  29.492  30.005  1.00  0.00    -0.248 NA
ATOM     33  C   UNL A   1      40.499  30.988  30.333  1.00  0.00     0.031 C 
ATOM     34  C   UNL A   1      46.449  30.232  31.321  1.00  0.00     0.029 A 
ATOM     35  C   UNL A   1      45.137  30.011  30.933  1.00  0.00     0.049 A 
ATOM     36  H   UNL A   1      44.298  28.317  29.995  1.00  0.00     0.167 HD
ATOM     37  C   UNL A   1      42.742  30.620  30.656  1.00  0.00     0.074 A 
ATOM     38  C   UNL A   1      41.614  31.517  30.818  1.00  0.00     0.031 C 
ATOM     39  C   UNL A   1      44.002  30.887  31.078  1.00  0.00     0.037 A 
BRANCH  26  40
ATOM     40  C   UNL A   1      48.091  26.361  30.053  1.00  0.00     0.057 A 
ATOM     41  C   UNL A   1      49.065  26.508  29.058  1.00  0.00     0.134 A 
ATOM     42  C   UNL A   1      48.478  25.732  31.245  1.00  0.00     0.134 A 
ATOM     43  F   UNL A   1      48.760  27.090  27.889  1.00  0.00    -0.206 F 
ATOM     44  C   UNL A   1      50.365  26.025  29.230  1.00  0.00     0.040 A 
ATOM     45  C   UNL A   1      49.780  25.265  31.438  1.00  0.00     0.040 A 
ATOM     46  F   UNL A   1      47.598  25.563  32.243  1.00  0.00    -0.206 F 
ATOM     47  C   UNL A   1      50.726  25.405  30.425  1.00  0.00     0.006 A 
ENDBRANCH  26  40
BRANCH  27  48
ATOM     48  C   UNL A   1      38.548  29.193  29.044  1.00  0.00     0.057 A 
ATOM     49  C   UNL A   1      37.704  29.127  30.154  1.00  0.00     0.134 A 
ATOM     50  C   UNL A   1      38.017  29.708  27.853  1.00  0.00     0.134 A 
ATOM     51  F   UNL A   1      38.157  28.637  31.318  1.00  0.00    -0.206 F 
ATOM     52  C   UNL A   1      36.381  29.567  30.090  1.00  0.00     0.040 A 
ATOM     53  C   UNL A   1      36.705  30.172  27.780  1.00  0.00     0.040 A 
ATOM     54  F   UNL A   1      38.787  29.813  26.759  1.00  0.00    -0.206 F 
ATOM     55  C   UNL A   1      35.882  30.101  28.902  1.00  0.00     0.006 A 
ENDBRANCH  27  48
BRANCH  39  56
ATOM     56  C   UNL A   1      44.233  32.219  31.722  1.00  0.00     0.057 A 
ATOM     57  C   UNL A   1      44.135  32.395  33.108  1.00  0.00     0.134 A 
ATOM     58  C   UNL A   1      44.608  33.325  30.949  1.00  0.00     0.134 A 
ATOM     59  F   UNL A   1      43.764  31.376  33.898  1.00  0.00    -0.206 F 
ATOM     60  C   UNL A   1      44.392  33.630  33.702  1.00  0.00     0.040 A 
ATOM     61  C   UNL A   1      44.887  34.559  31.534  1.00  0.00     0.040 A 
ATOM     62  F   UNL A   1      44.723  33.217  29.617  1.00  0.00    -0.206 F 
ATOM     63  C   UNL A   1      44.778  34.714  32.915  1.00  0.00     0.006 A 
ENDBRANCH  39  56
ENDBRANCH  13  14
ENDBRANCH   6   8
ENDBRANCH   3   4
ENDBRANCH   2   3
ENDBRANCH   1   2
BRANCH   1  64
ATOM     64  N   UNL A   1      35.510  21.439  26.394  1.00  0.00    -0.351 N 
ATOM     65  C   UNL A   1      34.159  21.523  26.568  1.00  0.00     0.262 C 
ATOM     66  H   UNL A   1      36.012  21.106  27.172  1.00  0.00     0.163 HD
ATOM     67  O   UNL A   1      33.750  21.321  27.714  1.00  0.00    -0.268 OA
BRANCH  65  68
ATOM     68  C   UNL A   1      33.301  21.933  25.482  1.00  0.00     0.112 A 
ATOM     69  S   UNL A   1      33.158  20.747  24.226  1.00  0.00    -0.137 S 
ATOM     70  C   UNL A   1      32.593  23.084  25.169  1.00  0.00     0.111 A 
ATOM     71  C   UNL A   1      32.124  21.724  23.302  1.00  0.00     0.067 A 
ATOM     72  C   UNL A   1      31.892  22.930  23.913  1.00  0.00     0.035 A 
BRANCH  70  73
ATOM     73  S   UNL A   1      32.365  24.554  26.066  1.00  0.00     0.263 S 
ATOM     74  O   UNL A   1      31.668  24.117  27.262  1.00  0.00    -0.201 OA
ATOM     75  O   UNL A   1      33.726  25.030  26.227  1.00  0.00    -0.201 OA
BRANCH  73  76
ATOM     76  N   UNL A   1      31.499  25.858  25.489  1.00  0.00    -0.277 N 
ATOM     77  H   UNL A   1      30.727  25.665  24.910  1.00  0.00     0.180 HD
BRANCH  76  78
ATOM     78  C   UNL A   1      31.781  27.226  25.761  1.00  0.00     0.072 A 
ATOM     79  C   UNL A   1      31.479  27.685  27.054  1.00  0.00     0.029 A 
ATOM     80  C   UNL A   1      32.281  28.111  24.781  1.00  0.00     0.061 A 
ATOM     81  C   UNL A   1      31.761  28.995  27.429  1.00  0.00     0.002 A 
ATOM     82  C   UNL A   1      32.569  29.424  25.194  1.00  0.00     0.028 A 
ATOM     83  C   UNL A   1      32.325  29.860  26.501  1.00  0.00     0.002 A 
BRANCH  80  84
ATOM     84  N   UNL A   1      32.437  27.743  23.454  1.00  0.00    -0.370 N 
ATOM     85  C   UNL A   1      31.297  27.640  22.545  1.00  0.00     0.116 C 
ATOM     86  C   UNL A   1      33.739  27.250  22.998  1.00  0.00     0.116 C 
ATOM     87  C   UNL A   1      31.184  26.239  21.957  1.00  0.00     0.021 C 
ATOM     88  C   UNL A   1      33.604  25.837  22.435  1.00  0.00     0.021 C 
ATOM     89  C   UNL A   1      32.515  25.783  21.369  1.00  0.00     0.004 C 
ENDBRANCH  80  84
ENDBRANCH  76  78
ENDBRANCH  73  76
ENDBRANCH  70  73
ENDBRANCH  65  68
ENDBRANCH   1  64
TORSDOF 14
ENDMDL
MODEL 3
REMARK VINA RESULT:     -12.0      3.373      8.609
REMARK SMILES O=C(NCCCNC(=O)c1sccc1S(=O)(=O)Nc1ccccc1N1CCCCC1)c1ccc(-c2c3nc(c(-c4c(F)cccc4F)c4ccc([nH]4)c(-c4c(F)cccc4F)c4nc(c(-c5c(F)cccc5F)c5ccc2[nH]5)C=C4)C=C3)cc1
REMARK SMILES IDX 6 1 5 2 4 3 3 4 1 5 2 6 31 8 32 9 84 10 33 11 83 12 34 13
REMARK SMILES IDX 35 14 36 15 77 16 37 17 82 18 76 19 78 20 38 21 81 22 75 23
REMARK SMILES IDX 74 24 39 26 65 27 48 28 64 29 49 30 52 31 63 32 79 33 50 34
REMARK SMILES IDX 51 35 62 37 80 38 53 39 40 40 41 41 46 42 42 43 43 44 45 45
REMARK SMILES IDX 47 46 44 47 66 48 67 49 72 50 68 51 69 52 71 53 73 54 70 55
REMARK SMILES IDX 54 56 55 57 60 58 56 59 57 60 59 61 61 62 58 63 7 64 8 65
REMARK SMILES IDX 9 67 10 68 11 69 14 70 12 71 13 72 15 73 16 74 17 75 18 76
REMARK SMILES IDX 19 78 20 79 24 80 21 81 23 82 22 83 25 84 26 85 30 86 27 87
REMARK SMILES IDX 29 88 28 89
REMARK H PARENT 3 7 78 25 52 36 7 66 18 77
REMARK Flexibility Score: inf
ROOT
ATOM      1  C   UNL A   1      32.439  29.476  25.926  1.00  0.00     0.118 C 
ENDROOT
BRANCH   1   2
ATOM      2  C   UNL A   1      31.858  30.745  26.519  1.00  0.00     0.042 C 
BRANCH   2   3
ATOM      3  C   UNL A   1      32.932  31.601  27.179  1.00  0.00     0.118 C 
BRANCH   3   4
ATOM      4  N   UNL A   1      32.476  32.953  27.490  1.00  0.00    -0.352 N 
ATOM      5  O   UNL A   1      32.505  34.994  28.461  1.00  0.00    -0.269 OA
ATOM      6  C   UNL A   1      33.077  33.936  28.237  1.00  0.00     0.251 C 
ATOM      7  H   UNL A   1      31.604  33.197  27.104  1.00  0.00     0.163 HD
BRANCH   6   8
ATOM      8  C   UNL A   1      34.399  33.659  28.820  1.00  0.00     0.039 A 
ATOM      9  C   UNL A   1      35.556  34.027  28.131  1.00  0.00     0.014 A 
ATOM     10  C   UNL A   1      34.468  32.914  29.998  1.00  0.00     0.014 A 
ATOM     11  C   UNL A   1      36.768  33.471  28.505  1.00  0.00     0.010 A 
ATOM     12  C   UNL A   1      35.706  32.452  30.435  1.00  0.00     0.010 A 
ATOM     13  C   UNL A   1      36.856  32.683  29.663  1.00  0.00    -0.014 A 
BRANCH  13  14
ATOM     14  C   UNL A   1      38.164  32.131  30.081  1.00  0.00     0.031 A 
ATOM     15  C   UNL A   1      38.674  30.841  29.506  1.00  0.00     0.074 A 
ATOM     16  C   UNL A   1      38.877  32.801  31.004  1.00  0.00     0.049 A 
ATOM     17  N   UNL A   1      39.727  30.146  29.852  1.00  0.00    -0.248 NA
ATOM     18  C   UNL A   1      37.896  30.246  28.409  1.00  0.00     0.031 C 
ATOM     19  C   UNL A   1      38.477  34.069  31.618  1.00  0.00     0.029 A 
ATOM     20  N   UNL A   1      40.077  32.508  31.593  1.00  0.00    -0.354 N 
ATOM     21  C   UNL A   1      39.715  29.013  29.048  1.00  0.00     0.074 A 
ATOM     22  C   UNL A   1      38.547  29.110  28.199  1.00  0.00     0.031 C 
ATOM     23  C   UNL A   1      39.422  34.454  32.485  1.00  0.00     0.029 A 
ATOM     24  C   UNL A   1      40.448  33.421  32.547  1.00  0.00     0.049 A 
ATOM     25  H   UNL A   1      40.619  31.720  31.357  1.00  0.00     0.167 HD
ATOM     26  C   UNL A   1      40.601  27.988  29.028  1.00  0.00     0.037 A 
ATOM     27  C   UNL A   1      41.475  33.409  33.414  1.00  0.00     0.037 A 
ATOM     28  C   UNL A   1      41.772  27.922  29.865  1.00  0.00     0.049 A 
ATOM     29  C   UNL A   1      42.427  32.255  33.391  1.00  0.00     0.074 A 
ATOM     30  C   UNL A   1      42.756  26.950  29.898  1.00  0.00     0.029 A 
ATOM     31  N   UNL A   1      42.115  28.870  30.818  1.00  0.00    -0.354 N 
ATOM     32  N   UNL A   1      42.409  31.190  32.625  1.00  0.00    -0.248 NA
ATOM     33  C   UNL A   1      43.535  32.291  34.353  1.00  0.00     0.031 C 
ATOM     34  C   UNL A   1      43.672  27.290  30.901  1.00  0.00     0.029 A 
ATOM     35  C   UNL A   1      43.283  28.496  31.461  1.00  0.00     0.049 A 
ATOM     36  H   UNL A   1      41.602  29.688  31.011  1.00  0.00     0.167 HD
ATOM     37  C   UNL A   1      43.511  30.437  32.999  1.00  0.00     0.074 A 
ATOM     38  C   UNL A   1      44.179  31.171  34.056  1.00  0.00     0.031 C 
ATOM     39  C   UNL A   1      43.932  29.246  32.507  1.00  0.00     0.037 A 
BRANCH  26  40
ATOM     40  C   UNL A   1      40.317  26.841  28.101  1.00  0.00     0.057 A 
ATOM     41  C   UNL A   1      40.876  26.760  26.820  1.00  0.00     0.134 A 
ATOM     42  C   UNL A   1      39.486  25.789  28.510  1.00  0.00     0.134 A 
ATOM     43  F   UNL A   1      41.670  27.738  26.361  1.00  0.00    -0.206 F 
ATOM     44  C   UNL A   1      40.598  25.687  25.968  1.00  0.00     0.040 A 
ATOM     45  C   UNL A   1      39.220  24.700  27.677  1.00  0.00     0.040 A 
ATOM     46  F   UNL A   1      38.922  25.799  29.727  1.00  0.00    -0.206 F 
ATOM     47  C   UNL A   1      39.771  24.651  26.399  1.00  0.00     0.006 A 
ENDBRANCH  26  40
BRANCH  27  48
ATOM     48  C   UNL A   1      41.611  34.525  34.378  1.00  0.00     0.057 A 
ATOM     49  C   UNL A   1      42.221  35.726  34.010  1.00  0.00     0.134 A 
ATOM     50  C   UNL A   1      41.052  34.446  35.661  1.00  0.00     0.134 A 
ATOM     51  F   UNL A   1      42.778  35.856  32.796  1.00  0.00    -0.206 F 
ATOM     52  C   UNL A   1      42.268  36.815  34.881  1.00  0.00     0.040 A 
ATOM     53  C   UNL A   1      41.071  35.533  36.534  1.00  0.00     0.040 A 
ATOM     54  F   UNL A   1      40.436  33.324  36.063  1.00  0.00    -0.206 F 
ATOM     55  C   UNL A   1      41.682  36.723  36.144  1.00  0.00     0.006 A 
ENDBRANCH  27  48
BRANCH  39  56
ATOM     56  C   UNL A   1      45.194  28.682  33.083  1.00  0.00     0.057 A 
ATOM     57  C   UNL A   1      46.453  29.029  32.578  1.00  0.00     0.134 A 
ATOM     58  C   UNL A   1      45.148  27.823  34.188  1.00  0.00     0.134 A 
ATOM     59  F   UNL A   1      46.560  29.835  31.511  1.00  0.00    -0.206 F 
ATOM     60  C   UNL A   1      47.625  28.530  33.147  1.00  0.00     0.040 A 
ATOM     61  C   UNL A   1      46.313  27.336  34.778  1.00  0.00     0.040 A 
ATOM     62  F   UNL A   1      43.971  27.459  34.718  1.00  0.00    -0.206 F 
ATOM     63  C   UNL A   1      47.556  27.688  34.256  1.00  0.00     0.006 A 
ENDBRANCH  39  56
ENDBRANCH  13  14
ENDBRANCH   6   8
ENDBRANCH   3   4
ENDBRANCH   2   3
ENDBRANCH   1   2
BRANCH   1  64
ATOM     64  N   UNL A   1      32.880  29.668  24.564  1.00  0.00    -0.351 N 
ATOM     65  C   UNL A   1      32.659  28.898  23.460  1.00  0.00     0.262 C 
ATOM     66  H   UNL A   1      33.421  30.475  24.409  1.00  0.00     0.163 HD
ATOM     67  O   UNL A   1      33.281  29.219  22.445  1.00  0.00    -0.268 OA
BRANCH  65  68
ATOM     68  C   UNL A   1      31.824  27.722  23.538  1.00  0.00     0.112 A 
ATOM     69  S   UNL A   1      30.135  28.080  23.695  1.00  0.00    -0.137 S 
ATOM     70  C   UNL A   1      32.053  26.354  23.571  1.00  0.00     0.111 A 
ATOM     71  C   UNL A   1      29.704  26.440  23.750  1.00  0.00     0.067 A 
ATOM     72  C   UNL A   1      30.806  25.628  23.664  1.00  0.00     0.035 A 
BRANCH  70  73
ATOM     73  S   UNL A   1      33.528  25.448  23.426  1.00  0.00     0.263 S 
ATOM     74  O   UNL A   1      34.015  25.802  22.106  1.00  0.00    -0.201 OA
ATOM     75  O   UNL A   1      34.292  25.920  24.565  1.00  0.00    -0.201 OA
BRANCH  73  76
ATOM     76  N   UNL A   1      33.594  23.783  23.502  1.00  0.00    -0.277 N 
ATOM     77  H   UNL A   1      32.829  23.284  23.132  1.00  0.00     0.180 HD
BRANCH  76  78
ATOM     78  C   UNL A   1      34.661  23.020  24.054  1.00  0.00     0.072 A 
ATOM     79  C   UNL A   1      35.841  22.949  23.295  1.00  0.00     0.029 A 
ATOM     80  C   UNL A   1      34.542  22.312  25.269  1.00  0.00     0.061 A 
ATOM     81  C   UNL A   1      36.954  22.265  23.772  1.00  0.00     0.002 A 
ATOM     82  C   UNL A   1      35.688  21.641  25.731  1.00  0.00     0.028 A 
ATOM     83  C   UNL A   1      36.883  21.626  25.002  1.00  0.00     0.002 A 
BRANCH  80  84
ATOM     84  N   UNL A   1      33.347  22.219  25.964  1.00  0.00    -0.370 N 
ATOM     85  C   UNL A   1      32.242  21.390  25.489  1.00  0.00     0.116 C 
ATOM     86  C   UNL A   1      33.105  23.124  27.092  1.00  0.00     0.116 C 
ATOM     87  C   UNL A   1      30.982  22.219  25.272  1.00  0.00     0.021 C 
ATOM     88  C   UNL A   1      31.852  23.960  26.841  1.00  0.00     0.021 C 
ATOM     89  C   UNL A   1      30.665  23.065  26.501  1.00  0.00     0.004 C 
ENDBRANCH  80  84
ENDBRANCH  76  78
ENDBRANCH  73  76
ENDBRANCH  70  73
ENDBRANCH  65  68
ENDBRANCH   1  64
TORSDOF 14
ENDMDL
