MODEL 1
REMARK VINA RESULT:     -11.9      0.000      0.000
REMARK SMILES O=C1C[N@@H+](Cc2ccc(C(=O)NCCCNC(=O)c3ccc(-c4c5nc(c(-c6c(F)cccc6F)c6ccc([nH]6)c(-c6c(F)cccc6F)c6nc(c(-c7c(F)cccc7F)c7ccc4[nH]7)C=C6)C=C5)cc3)cc2)CCN1
REMARK SMILES IDX 14 1 13 2 12 3 10 4 11 5 9 7 6 8 7 9 74 10 8 11 73 12 5 13
REMARK SMILES IDX 4 14 1 15 2 16 3 17 77 18 76 19 75 21 15 23 16 24 17 25
REMARK SMILES IDX 18 27 19 28 20 29 72 30 21 31 71 32 22 33 23 34 24 35 65 36
REMARK SMILES IDX 25 37 70 38 64 39 66 40 26 41 69 42 63 43 62 44 27 46 53 47
REMARK SMILES IDX 36 48 52 49 37 50 40 51 51 52 67 53 38 54 39 55 50 57 68 58
REMARK SMILES IDX 41 59 28 60 29 61 34 62 30 63 31 64 33 65 35 66 32 67 54 68
REMARK SMILES IDX 55 69 60 70 56 71 57 72 59 73 61 74 58 75 42 76 43 77 48 78
REMARK SMILES IDX 44 79 45 80 47 81 49 82 46 83
REMARK H PARENT 12 6 77 20 4 22 16 26 66 45 40 56
REMARK Flexibility Score: inf
ROOT
ATOM      1  C   UNL A   1      31.334  31.797  26.541  1.00  0.00     0.042 C 
ENDROOT
BRANCH   1   2
ATOM      2  C   UNL A   1      31.498  30.375  26.008  1.00  0.00     0.118 C 
BRANCH   2   3
ATOM      3  N   UNL A   1      31.048  30.263  24.630  1.00  0.00    -0.352 N 
ATOM      4  C   UNL A   1      30.898  29.157  23.830  1.00  0.00     0.251 C 
ATOM      5  O   UNL A   1      30.392  29.280  22.718  1.00  0.00    -0.269 OA
ATOM      6  H   UNL A   1      30.811  31.118  24.203  1.00  0.00     0.163 HD
BRANCH   4   7
ATOM      7  C   UNL A   1      31.276  27.815  24.320  1.00  0.00     0.039 A 
ATOM      8  C   UNL A   1      31.882  25.345  25.494  1.00  0.00     0.006 A 
ATOM      9  C   UNL A   1      30.551  25.691  25.217  1.00  0.00     0.010 A 
ATOM     10  C   UNL A   1      32.909  26.199  25.067  1.00  0.00     0.010 A 
ATOM     11  C   UNL A   1      30.249  26.922  24.635  1.00  0.00     0.014 A 
ATOM     12  C   UNL A   1      32.607  27.426  24.475  1.00  0.00     0.014 A 
BRANCH   8  13
ATOM     13  C   UNL A   1      32.208  24.091  26.266  1.00  0.00     0.299 C 
BRANCH  13  14
ATOM     14  N   UNL A   1      33.345  23.296  25.793  1.00  0.00    -0.322 N 
ATOM     15  O   UNL A   1      32.056  19.965  25.048  1.00  0.00    -0.269 OA
ATOM     16  C   UNL A   1      32.740  20.844  25.573  1.00  0.00     0.275 C 
ATOM     17  C   UNL A   1      33.005  22.186  24.887  1.00  0.00     0.363 C 
ATOM     18  N   UNL A   1      33.384  20.583  26.751  1.00  0.00    -0.346 N 
ATOM     19  C   UNL A   1      34.041  21.594  27.545  1.00  0.00     0.177 C 
ATOM     20  H   UNL A   1      33.399  19.654  27.076  1.00  0.00     0.163 HD
ATOM     21  C   UNL A   1      34.340  22.899  26.791  1.00  0.00     0.284 C 
ATOM     22  H   UNL A   1      33.820  23.998  25.227  1.00  0.00     0.348 HD
ENDBRANCH  13  14
ENDBRANCH   8  13
ENDBRANCH   4   7
ENDBRANCH   2   3
ENDBRANCH   1   2
BRANCH   1  23
ATOM     23  C   UNL A   1      32.652  32.473  26.913  1.00  0.00     0.118 C 
BRANCH  23  24
ATOM     24  N   UNL A   1      32.459  33.825  27.413  1.00  0.00    -0.352 N 
ATOM     25  C   UNL A   1      33.083  34.486  28.442  1.00  0.00     0.251 C 
ATOM     26  H   UNL A   1      31.775  34.349  26.939  1.00  0.00     0.163 HD
ATOM     27  O   UNL A   1      32.638  35.566  28.821  1.00  0.00    -0.269 OA
BRANCH  25  28
ATOM     28  C   UNL A   1      34.269  33.908  29.116  1.00  0.00     0.039 A 
ATOM     29  C   UNL A   1      34.068  32.937  30.103  1.00  0.00     0.014 A 
ATOM     30  C   UNL A   1      35.566  34.339  28.823  1.00  0.00     0.014 A 
ATOM     31  C   UNL A   1      35.162  32.359  30.751  1.00  0.00     0.010 A 
ATOM     32  C   UNL A   1      36.661  33.712  29.417  1.00  0.00     0.010 A 
ATOM     33  C   UNL A   1      36.472  32.718  30.391  1.00  0.00    -0.014 A 
BRANCH  33  34
ATOM     34  C   UNL A   1      37.645  32.053  31.012  1.00  0.00     0.031 A 
ATOM     35  C   UNL A   1      38.391  30.971  30.281  1.00  0.00     0.074 A 
ATOM     36  C   UNL A   1      37.999  32.377  32.271  1.00  0.00     0.049 A 
ATOM     37  N   UNL A   1      39.406  30.250  30.684  1.00  0.00    -0.248 NA
ATOM     38  C   UNL A   1      37.915  30.636  28.930  1.00  0.00     0.031 C 
ATOM     39  C   UNL A   1      37.320  33.364  33.111  1.00  0.00     0.029 A 
ATOM     40  N   UNL A   1      39.010  31.901  33.067  1.00  0.00    -0.354 N 
ATOM     41  C   UNL A   1      39.677  29.363  29.649  1.00  0.00     0.074 A 
ATOM     42  C   UNL A   1      38.690  29.608  28.618  1.00  0.00     0.031 C 
ATOM     43  C   UNL A   1      37.939  33.430  34.300  1.00  0.00     0.029 A 
ATOM     44  C   UNL A   1      39.039  32.470  34.318  1.00  0.00     0.049 A 
ATOM     45  H   UNL A   1      39.654  31.218  32.772  1.00  0.00     0.167 HD
ATOM     46  C   UNL A   1      40.666  28.443  29.558  1.00  0.00     0.037 A 
ATOM     47  C   UNL A   1      39.852  32.239  35.365  1.00  0.00     0.037 A 
ATOM     48  C   UNL A   1      41.663  28.221  30.573  1.00  0.00     0.049 A 
ATOM     49  C   UNL A   1      40.958  31.233  35.234  1.00  0.00     0.074 A 
ATOM     50  C   UNL A   1      42.760  27.378  30.535  1.00  0.00     0.029 A 
ATOM     51  N   UNL A   1      41.679  28.839  31.815  1.00  0.00    -0.354 N 
ATOM     52  N   UNL A   1      41.260  30.467  34.213  1.00  0.00    -0.248 NA
ATOM     53  C   UNL A   1      41.844  31.065  36.394  1.00  0.00     0.031 C 
ATOM     54  C   UNL A   1      43.411  27.448  31.772  1.00  0.00     0.029 A 
ATOM     55  C   UNL A   1      42.748  28.373  32.563  1.00  0.00     0.049 A 
ATOM     56  H   UNL A   1      41.026  29.510  32.119  1.00  0.00     0.167 HD
ATOM     57  C   UNL A   1      42.378  29.739  34.599  1.00  0.00     0.074 A 
ATOM     58  C   UNL A   1      42.711  30.169  35.941  1.00  0.00     0.031 C 
ATOM     59  C   UNL A   1      43.064  28.799  33.904  1.00  0.00     0.037 A 
BRANCH  46  60
ATOM     60  C   UNL A   1      40.713  27.600  28.316  1.00  0.00     0.057 A 
ATOM     61  C   UNL A   1      41.443  27.985  27.183  1.00  0.00     0.134 A 
ATOM     62  C   UNL A   1      40.036  26.375  28.259  1.00  0.00     0.134 A 
ATOM     63  F   UNL A   1      42.107  29.151  27.166  1.00  0.00    -0.206 F 
ATOM     64  C   UNL A   1      41.468  27.201  26.028  1.00  0.00     0.040 A 
ATOM     65  C   UNL A   1      40.077  25.568  27.121  1.00  0.00     0.040 A 
ATOM     66  F   UNL A   1      39.324  25.940  29.311  1.00  0.00    -0.206 F 
ATOM     67  C   UNL A   1      40.787  25.985  25.997  1.00  0.00     0.006 A 
ENDBRANCH  46  60
BRANCH  47  68
ATOM     68  C   UNL A   1      39.654  32.998  36.625  1.00  0.00     0.057 A 
ATOM     69  C   UNL A   1      40.364  34.177  36.878  1.00  0.00     0.134 A 
ATOM     70  C   UNL A   1      38.732  32.578  37.591  1.00  0.00     0.134 A 
ATOM     71  F   UNL A   1      41.273  34.620  35.997  1.00  0.00    -0.206 F 
ATOM     72  C   UNL A   1      40.172  34.907  38.051  1.00  0.00     0.040 A 
ATOM     73  C   UNL A   1      38.513  33.311  38.758  1.00  0.00     0.040 A 
ATOM     74  F   UNL A   1      38.015  31.462  37.402  1.00  0.00    -0.206 F 
ATOM     75  C   UNL A   1      39.237  34.478  38.993  1.00  0.00     0.006 A 
ENDBRANCH  47  68
BRANCH  59  76
ATOM     76  C   UNL A   1      44.254  28.181  34.578  1.00  0.00     0.057 A 
ATOM     77  C   UNL A   1      44.149  26.995  35.315  1.00  0.00     0.134 A 
ATOM     78  C   UNL A   1      45.523  28.761  34.461  1.00  0.00     0.134 A 
ATOM     79  F   UNL A   1      42.960  26.397  35.477  1.00  0.00    -0.206 F 
ATOM     80  C   UNL A   1      45.262  26.420  35.932  1.00  0.00     0.040 A 
ATOM     81  C   UNL A   1      46.647  28.182  35.051  1.00  0.00     0.040 A 
ATOM     82  F   UNL A   1      45.693  29.894  33.762  1.00  0.00    -0.206 F 
ATOM     83  C   UNL A   1      46.517  27.011  35.794  1.00  0.00     0.006 A 
ENDBRANCH  59  76
ENDBRANCH  33  34
ENDBRANCH  25  28
ENDBRANCH  23  24
ENDBRANCH   1  23
TORSDOF 12
ENDMDL
MODEL 2
REMARK VINA RESULT:     -11.8      4.349      9.651
REMARK SMILES O=C1C[N@@H+](Cc2ccc(C(=O)NCCCNC(=O)c3ccc(-c4c5nc(c(-c6c(F)cccc6F)c6ccc([nH]6)c(-c6c(F)cccc6F)c6nc(c(-c7c(F)cccc7F)c7ccc4[nH]7)C=C6)C=C5)cc3)cc2)CCN1
REMARK SMILES IDX 14 1 13 2 12 3 10 4 11 5 9 7 6 8 7 9 74 10 8 11 73 12 5 13
REMARK SMILES IDX 4 14 1 15 2 16 3 17 77 18 76 19 75 21 15 23 16 24 17 25
REMARK SMILES IDX 18 27 19 28 20 29 72 30 21 31 71 32 22 33 23 34 24 35 65 36
REMARK SMILES IDX 25 37 70 38 64 39 66 40 26 41 69 42 63 43 62 44 27 46 53 47
REMARK SMILES IDX 36 48 52 49 37 50 40 51 51 52 67 53 38 54 39 55 50 57 68 58
REMARK SMILES IDX 41 59 28 60 29 61 34 62 30 63 31 64 33 65 35 66 32 67 54 68
REMARK SMILES IDX 55 69 60 70 56 71 57 72 59 73 61 74 58 75 42 76 43 77 48 78
REMARK SMILES IDX 44 79 45 80 47 81 49 82 46 83
REMARK H PARENT 12 6 77 20 4 22 16 26 66 45 40 56
REMARK Flexibility Score: inf
ROOT
ATOM      1  C   UNL A   1      37.485  19.742  24.950  1.00  0.00     0.042 C 
ENDROOT
BRANCH   1   2
ATOM      2  C   UNL A   1      36.278  20.677  24.938  1.00  0.00     0.118 C 
BRANCH   2   3
ATOM      3  N   UNL A   1      35.044  19.964  25.223  1.00  0.00    -0.352 N 
ATOM      4  C   UNL A   1      33.735  20.348  25.058  1.00  0.00     0.251 C 
ATOM      5  O   UNL A   1      32.837  19.537  25.262  1.00  0.00    -0.269 OA
ATOM      6  H   UNL A   1      35.165  19.059  25.591  1.00  0.00     0.163 HD
BRANCH   4   7
ATOM      7  C   UNL A   1      33.403  21.704  24.573  1.00  0.00     0.039 A 
ATOM      8  C   UNL A   1      32.995  24.253  23.486  1.00  0.00     0.006 A 
ATOM      9  C   UNL A   1      32.773  23.107  22.709  1.00  0.00     0.010 A 
ATOM     10  C   UNL A   1      33.308  24.103  24.846  1.00  0.00     0.010 A 
ATOM     11  C   UNL A   1      32.979  21.838  23.248  1.00  0.00     0.014 A 
ATOM     12  C   UNL A   1      33.504  22.832  25.388  1.00  0.00     0.014 A 
BRANCH   8  13
ATOM     13  C   UNL A   1      32.932  25.628  22.869  1.00  0.00     0.299 C 
BRANCH  13  14
ATOM     14  N   UNL A   1      32.522  26.731  23.743  1.00  0.00    -0.322 N 
ATOM     15  O   UNL A   1      29.956  28.596  21.942  1.00  0.00    -0.269 OA
ATOM     16  C   UNL A   1      31.012  28.368  22.532  1.00  0.00     0.275 C 
ATOM     17  C   UNL A   1      31.148  27.222  23.537  1.00  0.00     0.363 C 
ATOM     18  N   UNL A   1      32.066  29.225  22.383  1.00  0.00    -0.346 N 
ATOM     19  C   UNL A   1      33.399  28.947  22.865  1.00  0.00     0.177 C 
ATOM     20  H   UNL A   1      31.909  30.079  21.921  1.00  0.00     0.163 HD
ATOM     21  C   UNL A   1      33.473  27.830  23.918  1.00  0.00     0.284 C 
ATOM     22  H   UNL A   1      32.526  26.247  24.641  1.00  0.00     0.348 HD
ENDBRANCH  13  14
ENDBRANCH   8  13
ENDBRANCH   4   7
ENDBRANCH   2   3
ENDBRANCH   1   2
BRANCH   1  23
ATOM     23  C   UNL A   1      38.717  20.332  25.633  1.00  0.00     0.118 C 
BRANCH  23  24
ATOM     24  N   UNL A   1      39.814  19.381  25.716  1.00  0.00    -0.352 N 
ATOM     25  C   UNL A   1      41.129  19.572  26.064  1.00  0.00     0.251 C 
ATOM     26  H   UNL A   1      39.578  18.453  25.486  1.00  0.00     0.163 HD
ATOM     27  O   UNL A   1      41.936  18.665  25.887  1.00  0.00    -0.269 OA
BRANCH  25  28
ATOM     28  C   UNL A   1      41.591  20.862  26.627  1.00  0.00     0.039 A 
ATOM     29  C   UNL A   1      42.070  21.840  25.749  1.00  0.00     0.014 A 
ATOM     30  C   UNL A   1      41.601  21.103  28.004  1.00  0.00     0.014 A 
ATOM     31  C   UNL A   1      42.502  23.074  26.243  1.00  0.00     0.010 A 
ATOM     32  C   UNL A   1      41.964  22.359  28.491  1.00  0.00     0.010 A 
ATOM     33  C   UNL A   1      42.422  23.356  27.616  1.00  0.00    -0.014 A 
BRANCH  33  34
ATOM     34  C   UNL A   1      42.800  24.692  28.144  1.00  0.00     0.031 A 
ATOM     35  C   UNL A   1      41.756  25.750  28.375  1.00  0.00     0.074 A 
ATOM     36  C   UNL A   1      44.100  24.977  28.353  1.00  0.00     0.049 A 
ATOM     37  N   UNL A   1      41.907  26.984  28.787  1.00  0.00    -0.248 NA
ATOM     38  C   UNL A   1      40.364  25.381  28.078  1.00  0.00     0.031 C 
ATOM     39  C   UNL A   1      45.215  24.061  28.108  1.00  0.00     0.029 A 
ATOM     40  N   UNL A   1      44.704  26.123  28.804  1.00  0.00    -0.354 N 
ATOM     41  C   UNL A   1      40.635  27.544  28.777  1.00  0.00     0.074 A 
ATOM     42  C   UNL A   1      39.733  26.529  28.276  1.00  0.00     0.031 C 
ATOM     43  C   UNL A   1      46.366  24.676  28.424  1.00  0.00     0.029 A 
ATOM     44  C   UNL A   1      46.074  26.037  28.863  1.00  0.00     0.049 A 
ATOM     45  H   UNL A   1      44.204  26.931  29.062  1.00  0.00     0.167 HD
ATOM     46  C   UNL A   1      40.253  28.785  29.165  1.00  0.00     0.037 A 
ATOM     47  C   UNL A   1      46.993  26.952  29.222  1.00  0.00     0.037 A 
ATOM     48  C   UNL A   1      41.149  29.782  29.689  1.00  0.00     0.049 A 
ATOM     49  C   UNL A   1      46.546  28.312  29.674  1.00  0.00     0.074 A 
ATOM     50  C   UNL A   1      40.845  31.033  30.196  1.00  0.00     0.029 A 
ATOM     51  N   UNL A   1      42.528  29.647  29.764  1.00  0.00    -0.354 N 
ATOM     52  N   UNL A   1      45.330  28.798  29.747  1.00  0.00    -0.248 NA
ATOM     53  C   UNL A   1      47.595  29.248  30.101  1.00  0.00     0.031 C 
ATOM     54  C   UNL A   1      42.043  31.675  30.530  1.00  0.00     0.029 A 
ATOM     55  C   UNL A   1      43.091  30.803  30.279  1.00  0.00     0.049 A 
ATOM     56  H   UNL A   1      43.031  28.847  29.490  1.00  0.00     0.167 HD
ATOM     57  C   UNL A   1      45.464  30.087  30.245  1.00  0.00     0.074 A 
ATOM     58  C   UNL A   1      46.879  30.301  30.472  1.00  0.00     0.031 C 
ATOM     59  C   UNL A   1      44.502  31.010  30.490  1.00  0.00     0.037 A 
BRANCH  46  60
ATOM     60  C   UNL A   1      38.798  29.132  29.031  1.00  0.00     0.057 A 
ATOM     61  C   UNL A   1      38.243  29.550  27.814  1.00  0.00     0.134 A 
ATOM     62  C   UNL A   1      37.935  29.025  30.129  1.00  0.00     0.134 A 
ATOM     63  F   UNL A   1      39.015  29.682  26.724  1.00  0.00    -0.206 F 
ATOM     64  C   UNL A   1      36.892  29.884  27.703  1.00  0.00     0.040 A 
ATOM     65  C   UNL A   1      36.577  29.329  30.024  1.00  0.00     0.040 A 
ATOM     66  F   UNL A   1      38.397  28.623  31.323  1.00  0.00    -0.206 F 
ATOM     67  C   UNL A   1      36.053  29.768  28.810  1.00  0.00     0.006 A 
ENDBRANCH  46  60
BRANCH  47  68
ATOM     68  C   UNL A   1      48.433  26.594  29.184  1.00  0.00     0.057 A 
ATOM     69  C   UNL A   1      49.043  25.933  30.256  1.00  0.00     0.134 A 
ATOM     70  C   UNL A   1      49.225  26.879  28.065  1.00  0.00     0.134 A 
ATOM     71  F   UNL A   1      48.339  25.649  31.362  1.00  0.00    -0.206 F 
ATOM     72  C   UNL A   1      50.391  25.577  30.222  1.00  0.00     0.040 A 
ATOM     73  C   UNL A   1      50.569  26.508  28.009  1.00  0.00     0.040 A 
ATOM     74  F   UNL A   1      48.696  27.502  27.002  1.00  0.00    -0.206 F 
ATOM     75  C   UNL A   1      51.157  25.857  29.092  1.00  0.00     0.006 A 
ENDBRANCH  47  68
BRANCH  59  76
ATOM     76  C   UNL A   1      44.945  32.332  31.045  1.00  0.00     0.057 A 
ATOM     77  C   UNL A   1      45.250  33.417  30.213  1.00  0.00     0.134 A 
ATOM     78  C   UNL A   1      45.039  32.531  32.428  1.00  0.00     0.134 A 
ATOM     79  F   UNL A   1      45.194  33.286  28.879  1.00  0.00    -0.206 F 
ATOM     80  C   UNL A   1      45.652  34.646  30.736  1.00  0.00     0.040 A 
ATOM     81  C   UNL A   1      45.415  33.764  32.964  1.00  0.00     0.040 A 
ATOM     82  F   UNL A   1      44.754  31.535  33.281  1.00  0.00    -0.206 F 
ATOM     83  C   UNL A   1      45.728  34.823  32.117  1.00  0.00     0.006 A 
ENDBRANCH  59  76
ENDBRANCH  33  34
ENDBRANCH  25  28
ENDBRANCH  23  24
ENDBRANCH   1  23
TORSDOF 12
ENDMDL
MODEL 3
REMARK VINA RESULT:     -11.8      3.837      7.784
REMARK SMILES O=C1C[N@@H+](Cc2ccc(C(=O)NCCCNC(=O)c3ccc(-c4c5nc(c(-c6c(F)cccc6F)c6ccc([nH]6)c(-c6c(F)cccc6F)c6nc(c(-c7c(F)cccc7F)c7ccc4[nH]7)C=C6)C=C5)cc3)cc2)CCN1
REMARK SMILES IDX 14 1 13 2 12 3 10 4 11 5 9 7 6 8 7 9 74 10 8 11 73 12 5 13
REMARK SMILES IDX 4 14 1 15 2 16 3 17 77 18 76 19 75 21 15 23 16 24 17 25
REMARK SMILES IDX 18 27 19 28 20 29 72 30 21 31 71 32 22 33 23 34 24 35 65 36
REMARK SMILES IDX 25 37 70 38 64 39 66 40 26 41 69 42 63 43 62 44 27 46 53 47
REMARK SMILES IDX 36 48 52 49 37 50 40 51 51 52 67 53 38 54 39 55 50 57 68 58
REMARK SMILES IDX 41 59 28 60 29 61 34 62 30 63 31 64 33 65 35 66 32 67 54 68
REMARK SMILES IDX 55 69 60 70 56 71 57 72 59 73 61 74 58 75 42 76 43 77 48 78
REMARK SMILES IDX 44 79 45 80 47 81 49 82 46 83
REMARK H PARENT 12 6 77 20 4 22 16 26 66 45 40 56
REMARK Flexibility Score: inf
ROOT
ATOM      1  C   UNL A   1      33.837  27.931  25.788  1.00  0.00     0.042 C 
ENDROOT
BRANCH   1   2
ATOM      2  C   UNL A   1      33.614  26.459  25.452  1.00  0.00     0.118 C 
BRANCH   2   3
ATOM      3  N   UNL A   1      32.467  25.914  26.161  1.00  0.00    -0.352 N 
ATOM      4  C   UNL A   1      32.136  24.614  26.453  1.00  0.00     0.251 C 
ATOM      5  O   UNL A   1      31.165  24.383  27.168  1.00  0.00    -0.269 OA
ATOM      6  H   UNL A   1      31.824  26.586  26.484  1.00  0.00     0.163 HD
BRANCH   4   7
ATOM      7  C   UNL A   1      32.977  23.496  25.975  1.00  0.00     0.039 A 
ATOM      8  C   UNL A   1      34.341  21.224  25.066  1.00  0.00     0.006 A 
ATOM      9  C   UNL A   1      33.445  21.899  24.223  1.00  0.00     0.010 A 
ATOM     10  C   UNL A   1      34.633  21.772  26.324  1.00  0.00     0.010 A 
ATOM     11  C   UNL A   1      32.764  23.028  24.676  1.00  0.00     0.014 A 
ATOM     12  C   UNL A   1      33.959  22.908  26.774  1.00  0.00     0.014 A 
BRANCH   8  13
ATOM     13  C   UNL A   1      34.959  19.914  24.645  1.00  0.00     0.299 C 
BRANCH  13  14
ATOM     14  N   UNL A   1      34.347  18.692  25.171  1.00  0.00    -0.322 N 
ATOM     15  O   UNL A   1      34.438  16.233  22.477  1.00  0.00    -0.269 OA
ATOM     16  C   UNL A   1      33.974  16.975  23.342  1.00  0.00     0.275 C 
ATOM     17  C   UNL A   1      34.801  17.438  24.544  1.00  0.00     0.363 C 
ATOM     18  N   UNL A   1      32.649  17.309  23.303  1.00  0.00    -0.346 N 
ATOM     19  C   UNL A   1      32.053  18.322  24.143  1.00  0.00     0.177 C 
ATOM     20  H   UNL A   1      32.068  16.834  22.667  1.00  0.00     0.163 HD
ATOM     21  C   UNL A   1      32.897  18.707  25.369  1.00  0.00     0.284 C 
ATOM     22  H   UNL A   1      34.732  18.700  26.115  1.00  0.00     0.348 HD
ENDBRANCH  13  14
ENDBRANCH   8  13
ENDBRANCH   4   7
ENDBRANCH   2   3
ENDBRANCH   1   2
BRANCH   1  23
ATOM     23  C   UNL A   1      33.586  28.275  27.254  1.00  0.00     0.118 C 
BRANCH  23  24
ATOM     24  N   UNL A   1      33.545  29.710  27.488  1.00  0.00    -0.352 N 
ATOM     25  C   UNL A   1      34.488  30.547  28.032  1.00  0.00     0.251 C 
ATOM     26  H   UNL A   1      32.709  30.152  27.213  1.00  0.00     0.163 HD
ATOM     27  O   UNL A   1      34.178  31.701  28.312  1.00  0.00    -0.269 OA
BRANCH  25  28
ATOM     28  C   UNL A   1      35.864  30.073  28.306  1.00  0.00     0.039 A 
ATOM     29  C   UNL A   1      36.813  30.151  27.281  1.00  0.00     0.014 A 
ATOM     30  C   UNL A   1      36.220  29.514  29.537  1.00  0.00     0.014 A 
ATOM     31  C   UNL A   1      38.125  29.726  27.507  1.00  0.00     0.010 A 
ATOM     32  C   UNL A   1      37.545  29.157  29.785  1.00  0.00     0.010 A 
ATOM     33  C   UNL A   1      38.511  29.255  28.772  1.00  0.00    -0.014 A 
BRANCH  33  34
ATOM     34  C   UNL A   1      39.920  28.877  29.050  1.00  0.00     0.031 A 
ATOM     35  C   UNL A   1      40.866  29.857  29.688  1.00  0.00     0.074 A 
ATOM     36  C   UNL A   1      40.370  27.668  28.662  1.00  0.00     0.049 A 
ATOM     37  N   UNL A   1      42.139  29.718  29.962  1.00  0.00    -0.248 NA
ATOM     38  C   UNL A   1      40.316  31.175  30.038  1.00  0.00     0.031 C 
ATOM     39  C   UNL A   1      39.572  26.651  27.976  1.00  0.00     0.029 A 
ATOM     40  N   UNL A   1      41.611  27.096  28.776  1.00  0.00    -0.354 N 
ATOM     41  C   UNL A   1      42.546  30.935  30.496  1.00  0.00     0.074 A 
ATOM     42  C   UNL A   1      41.396  31.813  30.465  1.00  0.00     0.031 C 
ATOM     43  C   UNL A   1      40.339  25.575  27.742  1.00  0.00     0.029 A 
ATOM     44  C   UNL A   1      41.689  25.836  28.231  1.00  0.00     0.049 A 
ATOM     45  H   UNL A   1      42.375  27.544  29.207  1.00  0.00     0.167 HD
ATOM     46  C   UNL A   1      43.762  31.282  30.983  1.00  0.00     0.037 A 
ATOM     47  C   UNL A   1      42.730  24.990  28.130  1.00  0.00     0.037 A 
ATOM     48  C   UNL A   1      44.896  30.397  31.037  1.00  0.00     0.049 A 
ATOM     49  C   UNL A   1      44.062  25.385  28.699  1.00  0.00     0.074 A 
ATOM     50  C   UNL A   1      46.141  30.626  31.597  1.00  0.00     0.029 A 
ATOM     51  N   UNL A   1      44.928  29.117  30.505  1.00  0.00    -0.354 N 
ATOM     52  N   UNL A   1      44.409  26.506  29.285  1.00  0.00    -0.248 NA
ATOM     53  C   UNL A   1      45.145  24.397  28.602  1.00  0.00     0.031 C 
ATOM     54  C   UNL A   1      46.942  29.503  31.358  1.00  0.00     0.029 A 
ATOM     55  C   UNL A   1      46.180  28.554  30.694  1.00  0.00     0.049 A 
ATOM     56  H   UNL A   1      44.171  28.673  30.058  1.00  0.00     0.167 HD
ATOM     57  C   UNL A   1      45.742  26.353  29.643  1.00  0.00     0.074 A 
ATOM     58  C   UNL A   1      46.136  25.023  29.223  1.00  0.00     0.031 C 
ATOM     59  C   UNL A   1      46.565  27.234  30.262  1.00  0.00     0.037 A 
BRANCH  46  60
ATOM     60  C   UNL A   1      43.927  32.686  31.490  1.00  0.00     0.057 A 
ATOM     61  C   UNL A   1      44.320  33.738  30.651  1.00  0.00     0.134 A 
ATOM     62  C   UNL A   1      43.667  32.995  32.832  1.00  0.00     0.134 A 
ATOM     63  F   UNL A   1      44.593  33.511  29.357  1.00  0.00    -0.206 F 
ATOM     64  C   UNL A   1      44.483  35.037  31.136  1.00  0.00     0.040 A 
ATOM     65  C   UNL A   1      43.799  34.295  33.322  1.00  0.00     0.040 A 
ATOM     66  F   UNL A   1      43.279  32.038  33.689  1.00  0.00    -0.206 F 
ATOM     67  C   UNL A   1      44.217  35.319  32.475  1.00  0.00     0.006 A 
ENDBRANCH  46  60
BRANCH  47  68
ATOM     68  C   UNL A   1      42.539  23.673  27.474  1.00  0.00     0.057 A 
ATOM     69  C   UNL A   1      42.189  22.540  28.217  1.00  0.00     0.134 A 
ATOM     70  C   UNL A   1      42.675  23.522  26.089  1.00  0.00     0.134 A 
ATOM     71  F   UNL A   1      42.061  22.619  29.549  1.00  0.00    -0.206 F 
ATOM     72  C   UNL A   1      41.989  21.300  27.607  1.00  0.00     0.040 A 
ATOM     73  C   UNL A   1      42.456  22.293  25.464  1.00  0.00     0.040 A 
ATOM     74  F   UNL A   1      42.999  24.572  25.322  1.00  0.00    -0.206 F 
ATOM     75  C   UNL A   1      42.115  21.176  26.224  1.00  0.00     0.006 A 
ENDBRANCH  47  68
BRANCH  59  76
ATOM     76  C   UNL A   1      47.970  26.785  30.535  1.00  0.00     0.057 A 
ATOM     77  C   UNL A   1      48.297  26.044  31.679  1.00  0.00     0.134 A 
ATOM     78  C   UNL A   1      49.000  27.067  29.631  1.00  0.00     0.134 A 
ATOM     79  F   UNL A   1      47.359  25.753  32.592  1.00  0.00    -0.206 F 
ATOM     80  C   UNL A   1      49.605  25.620  31.922  1.00  0.00     0.040 A 
ATOM     81  C   UNL A   1      50.306  26.626  29.850  1.00  0.00     0.040 A 
ATOM     82  F   UNL A   1      48.752  27.766  28.512  1.00  0.00    -0.206 F 
ATOM     83  C   UNL A   1      50.612  25.906  31.002  1.00  0.00     0.006 A 
ENDBRANCH  59  76
ENDBRANCH  33  34
ENDBRANCH  25  28
ENDBRANCH  23  24
ENDBRANCH   1  23
TORSDOF 12
ENDMDL
