MODEL 1
REMARK VINA RESULT:     -12.5      0.000      0.000
REMARK SMILES CC(C)CN(C)c1cc2c(cc1Cl)C=C(C(=O)NCCCNC(=O)c1ccc(-c3c4nc(c(-c5c(F)cccc5F)c5ccc([nH]5)c(-c5c(F)cccc5F)c5nc(c(-c6c(F)cccc6F)c6ccc3[nH]6)C=C5)C=C4)cc1)[C@H](C(F)(F)F)O2
REMARK SMILES IDX 19 1 18 2 16 3 17 4 15 6 7 7 8 8 12 9 9 10 11 11 13 12 10 13
REMARK SMILES IDX 84 14 14 15 79 16 5 17 6 18 4 19 2 20 1 21 3 22 80 23 81 24
REMARK SMILES IDX 82 25 83 26 20 27 21 28 22 29 23 30 24 32 25 33 26 34 78 35
REMARK SMILES IDX 27 36 77 37 28 38 29 39 30 40 71 41 31 42 76 43 70 44 72 45
REMARK SMILES IDX 32 46 75 47 69 48 68 49 33 51 59 52 42 53 58 54 43 55 46 56
REMARK SMILES IDX 57 57 73 58 44 59 45 60 56 62 74 63 47 64 34 65 35 66 40 67
REMARK SMILES IDX 36 68 37 69 39 70 41 71 38 72 60 73 61 74 66 75 62 76 63 77
REMARK SMILES IDX 65 78 67 79 64 80 48 81 49 82 54 83 50 84 51 85 53 86 55 87
REMARK SMILES IDX 52 88
REMARK H PARENT 18 5 22 31 72 50 46 61
REMARK Flexibility Score: inf
ROOT
ATOM      1  C   UNL A   1      31.595  30.802  26.248  1.00  0.00     0.118 C 
ENDROOT
BRANCH   1   2
ATOM      2  N   UNL A   1      31.030  30.445  24.956  1.00  0.00    -0.352 N 
ATOM      3  C   UNL A   1      30.998  29.336  24.183  1.00  0.00     0.251 C 
ATOM      4  O   UNL A   1      30.362  29.428  23.130  1.00  0.00    -0.270 OA
ATOM      5  H   UNL A   1      30.551  31.198  24.541  1.00  0.00     0.163 HD
BRANCH   3   6
ATOM      6  C   UNL A   1      31.640  28.046  24.547  1.00  0.00     0.067 C 
ATOM      7  C   UNL A   1      32.288  23.250  26.035  1.00  0.00     0.059 A 
ATOM      8  C   UNL A   1      33.122  24.253  25.509  1.00  0.00     0.074 A 
ATOM      9  C   UNL A   1      30.957  23.614  26.333  1.00  0.00     0.065 A 
ATOM     10  C   UNL A   1      32.638  25.532  25.230  1.00  0.00     0.130 A 
ATOM     11  C   UNL A   1      30.454  24.873  25.982  1.00  0.00     0.034 A 
ATOM     12  Cl  UNL A   1      29.881  22.569  27.199  1.00  0.00    -0.082 Cl
ATOM     13  C   UNL A   1      31.295  25.832  25.422  1.00  0.00     0.019 A 
ATOM     14  O   UNL A   1      33.558  26.443  24.804  1.00  0.00    -0.475 OA
ATOM     15  C   UNL A   1      30.792  27.148  25.072  1.00  0.00     0.025 C 
ATOM     16  C   UNL A   1      33.082  27.711  24.272  1.00  0.00     0.314 C 
BRANCH   7  17
ATOM     17  N   UNL A   1      32.779  21.946  26.220  1.00  0.00    -0.373 N 
ATOM     18  C   UNL A   1      33.485  21.717  27.480  1.00  0.00     0.143 C 
BRANCH  17  19
ATOM     19  C   UNL A   1      33.352  21.283  25.024  1.00  0.00     0.119 C 
BRANCH  19  20
ATOM     20  C   UNL A   1      32.276  20.738  24.061  1.00  0.00     0.002 C 
ATOM     21  C   UNL A   1      32.183  21.559  22.770  1.00  0.00     0.009 C 
ATOM     22  C   UNL A   1      32.538  19.275  23.693  1.00  0.00     0.009 C 
ENDBRANCH  19  20
ENDBRANCH  17  19
ENDBRANCH   7  17
BRANCH  16  23
ATOM     23  C   UNL A   1      33.471  27.762  22.788  1.00  0.00     0.429 C 
ATOM     24  F   UNL A   1      33.900  28.986  22.407  1.00  0.00    -0.167 F 
ATOM     25  F   UNL A   1      34.441  26.879  22.466  1.00  0.00    -0.167 F 
ATOM     26  F   UNL A   1      32.395  27.452  22.018  1.00  0.00    -0.167 F 
ENDBRANCH  16  23
ENDBRANCH   3   6
ENDBRANCH   1   2
BRANCH   1  27
ATOM     27  C   UNL A   1      31.420  32.291  26.525  1.00  0.00     0.042 C 
BRANCH  27  28
ATOM     28  C   UNL A   1      32.612  32.885  27.269  1.00  0.00     0.118 C 
BRANCH  28  29
ATOM     29  N   UNL A   1      32.390  34.283  27.623  1.00  0.00    -0.352 N 
ATOM     30  C   UNL A   1      32.973  35.044  28.608  1.00  0.00     0.251 C 
ATOM     31  H   UNL A   1      31.721  34.753  27.073  1.00  0.00     0.163 HD
ATOM     32  O   UNL A   1      32.478  36.127  28.919  1.00  0.00    -0.269 OA
BRANCH  30  33
ATOM     33  C   UNL A   1      34.176  34.553  29.311  1.00  0.00     0.039 A 
ATOM     34  C   UNL A   1      35.432  34.654  28.714  1.00  0.00     0.014 A 
ATOM     35  C   UNL A   1      34.054  33.976  30.579  1.00  0.00     0.014 A 
ATOM     36  C   UNL A   1      36.517  33.992  29.274  1.00  0.00     0.010 A 
ATOM     37  C   UNL A   1      35.177  33.422  31.201  1.00  0.00     0.010 A 
ATOM     38  C   UNL A   1      36.409  33.376  30.530  1.00  0.00    -0.014 A 
BRANCH  38  39
ATOM     39  C   UNL A   1      37.600  32.698  31.109  1.00  0.00     0.031 A 
ATOM     40  C   UNL A   1      38.189  33.150  32.420  1.00  0.00     0.074 A 
ATOM     41  C   UNL A   1      38.117  31.625  30.476  1.00  0.00     0.049 A 
ATOM     42  N   UNL A   1      39.227  32.679  33.066  1.00  0.00    -0.248 NA
ATOM     43  C   UNL A   1      37.533  34.282  33.092  1.00  0.00     0.031 C 
ATOM     44  C   UNL A   1      37.628  31.074  29.209  1.00  0.00     0.029 A 
ATOM     45  N   UNL A   1      39.146  30.787  30.823  1.00  0.00    -0.354 N 
ATOM     46  C   UNL A   1      39.359  33.465  34.205  1.00  0.00     0.074 A 
ATOM     47  C   UNL A   1      38.319  34.468  34.144  1.00  0.00     0.031 C 
ATOM     48  C   UNL A   1      38.315  29.961  28.917  1.00  0.00     0.029 A 
ATOM     49  C   UNL A   1      39.348  29.766  29.926  1.00  0.00     0.049 A 
ATOM     50  H   UNL A   1      39.689  30.907  31.636  1.00  0.00     0.167 HD
ATOM     51  C   UNL A   1      40.256  33.353  35.216  1.00  0.00     0.037 A 
ATOM     52  C   UNL A   1      40.281  28.797  29.899  1.00  0.00     0.037 A 
ATOM     53  C   UNL A   1      41.283  32.345  35.281  1.00  0.00     0.049 A 
ATOM     54  C   UNL A   1      41.309  28.749  30.992  1.00  0.00     0.074 A 
ATOM     55  C   UNL A   1      42.233  32.141  36.267  1.00  0.00     0.029 A 
ATOM     56  N   UNL A   1      41.498  31.372  34.316  1.00  0.00    -0.354 N 
ATOM     57  N   UNL A   1      41.416  29.496  32.064  1.00  0.00    -0.248 NA
ATOM     58  C   UNL A   1      42.357  27.728  30.862  1.00  0.00     0.031 C 
ATOM     59  C   UNL A   1      43.055  31.080  35.874  1.00  0.00     0.029 A 
ATOM     60  C   UNL A   1      42.582  30.583  34.670  1.00  0.00     0.049 A 
ATOM     61  H   UNL A   1      40.959  31.258  33.499  1.00  0.00     0.167 HD
ATOM     62  C   UNL A   1      42.530  29.024  32.745  1.00  0.00     0.074 A 
ATOM     63  C   UNL A   1      43.044  27.906  31.979  1.00  0.00     0.031 C 
ATOM     64  C   UNL A   1      43.084  29.478  33.896  1.00  0.00     0.037 A 
BRANCH  51  65
ATOM     65  C   UNL A   1      40.178  34.362  36.328  1.00  0.00     0.057 A 
ATOM     66  C   UNL A   1      39.377  34.124  37.453  1.00  0.00     0.134 A 
ATOM     67  C   UNL A   1      40.869  35.581  36.276  1.00  0.00     0.134 A 
ATOM     68  F   UNL A   1      38.680  32.983  37.565  1.00  0.00    -0.206 F 
ATOM     69  C   UNL A   1      39.267  35.059  38.485  1.00  0.00     0.040 A 
ATOM     70  C   UNL A   1      40.790  36.511  37.316  1.00  0.00     0.040 A 
ATOM     71  F   UNL A   1      41.663  35.869  35.234  1.00  0.00    -0.206 F 
ATOM     72  C   UNL A   1      39.981  36.253  38.422  1.00  0.00     0.006 A 
ENDBRANCH  51  65
BRANCH  52  73
ATOM     73  C   UNL A   1      40.316  27.817  28.783  1.00  0.00     0.057 A 
ATOM     74  C   UNL A   1      39.608  26.611  28.848  1.00  0.00     0.134 A 
ATOM     75  C   UNL A   1      41.025  28.085  27.606  1.00  0.00     0.134 A 
ATOM     76  F   UNL A   1      38.914  26.290  29.950  1.00  0.00    -0.206 F 
ATOM     77  C   UNL A   1      39.605  25.705  27.787  1.00  0.00     0.040 A 
ATOM     78  C   UNL A   1      41.002  27.204  26.523  1.00  0.00     0.040 A 
ATOM     79  F   UNL A   1      41.707  29.233  27.474  1.00  0.00    -0.206 F 
ATOM     80  C   UNL A   1      40.293  26.009  26.613  1.00  0.00     0.006 A 
ENDBRANCH  52  73
BRANCH  64  81
ATOM     81  C   UNL A   1      44.289  28.739  34.403  1.00  0.00     0.057 A 
ATOM     82  C   UNL A   1      44.143  27.621  35.233  1.00  0.00     0.134 A 
ATOM     83  C   UNL A   1      45.592  29.130  34.069  1.00  0.00     0.134 A 
ATOM     84  F   UNL A   1      42.924  27.195  35.598  1.00  0.00    -0.206 F 
ATOM     85  C   UNL A   1      45.250  26.916  35.709  1.00  0.00     0.040 A 
ATOM     86  C   UNL A   1      46.705  28.414  34.511  1.00  0.00     0.040 A 
ATOM     87  F   UNL A   1      45.800  30.183  33.262  1.00  0.00    -0.206 F 
ATOM     88  C   UNL A   1      46.535  27.306  35.338  1.00  0.00     0.006 A 
ENDBRANCH  64  81
ENDBRANCH  38  39
ENDBRANCH  30  33
ENDBRANCH  28  29
ENDBRANCH  27  28
ENDBRANCH   1  27
TORSDOF 14
ENDMDL
MODEL 2
REMARK VINA RESULT:     -12.5      0.556      6.225
REMARK SMILES CC(C)CN(C)c1cc2c(cc1Cl)C=C(C(=O)NCCCNC(=O)c1ccc(-c3c4nc(c(-c5c(F)cccc5F)c5ccc([nH]5)c(-c5c(F)cccc5F)c5nc(c(-c6c(F)cccc6F)c6ccc3[nH]6)C=C5)C=C4)cc1)[C@H](C(F)(F)F)O2
REMARK SMILES IDX 19 1 18 2 16 3 17 4 15 6 7 7 8 8 12 9 9 10 11 11 13 12 10 13
REMARK SMILES IDX 84 14 14 15 79 16 5 17 6 18 4 19 2 20 1 21 3 22 80 23 81 24
REMARK SMILES IDX 82 25 83 26 20 27 21 28 22 29 23 30 24 32 25 33 26 34 78 35
REMARK SMILES IDX 27 36 77 37 28 38 29 39 30 40 71 41 31 42 76 43 70 44 72 45
REMARK SMILES IDX 32 46 75 47 69 48 68 49 33 51 59 52 42 53 58 54 43 55 46 56
REMARK SMILES IDX 57 57 73 58 44 59 45 60 56 62 74 63 47 64 34 65 35 66 40 67
REMARK SMILES IDX 36 68 37 69 39 70 41 71 38 72 60 73 61 74 66 75 62 76 63 77
REMARK SMILES IDX 65 78 67 79 64 80 48 81 49 82 54 83 50 84 51 85 53 86 55 87
REMARK SMILES IDX 52 88
REMARK H PARENT 18 5 22 31 72 50 46 61
REMARK Flexibility Score: inf
ROOT
ATOM      1  C   UNL A   1      31.712  30.776  26.190  1.00  0.00     0.118 C 
ENDROOT
BRANCH   1   2
ATOM      2  N   UNL A   1      31.033  30.458  24.945  1.00  0.00    -0.352 N 
ATOM      3  C   UNL A   1      30.890  29.360  24.169  1.00  0.00     0.251 C 
ATOM      4  O   UNL A   1      30.179  29.492  23.170  1.00  0.00    -0.270 OA
ATOM      5  H   UNL A   1      30.557  31.236  24.574  1.00  0.00     0.163 HD
BRANCH   3   6
ATOM      6  C   UNL A   1      31.500  28.039  24.472  1.00  0.00     0.067 C 
ATOM      7  C   UNL A   1      32.050  23.211  25.895  1.00  0.00     0.059 A 
ATOM      8  C   UNL A   1      32.879  24.174  25.294  1.00  0.00     0.074 A 
ATOM      9  C   UNL A   1      30.771  23.638  26.316  1.00  0.00     0.065 A 
ATOM     10  C   UNL A   1      32.433  25.477  25.060  1.00  0.00     0.130 A 
ATOM     11  C   UNL A   1      30.300  24.921  26.013  1.00  0.00     0.034 A 
ATOM     12  Cl  UNL A   1      29.732  22.643  27.279  1.00  0.00    -0.082 Cl
ATOM     13  C   UNL A   1      31.131  25.841  25.376  1.00  0.00     0.019 A 
ATOM     14  O   UNL A   1      33.353  26.344  24.550  1.00  0.00    -0.475 OA
ATOM     15  C   UNL A   1      30.662  27.181  25.074  1.00  0.00     0.025 C 
ATOM     16  C   UNL A   1      32.892  27.636  24.064  1.00  0.00     0.314 C 
BRANCH   7  17
ATOM     17  N   UNL A   1      32.492  21.884  26.034  1.00  0.00    -0.373 N 
ATOM     18  C   UNL A   1      33.931  21.723  26.240  1.00  0.00     0.143 C 
BRANCH  17  19
ATOM     19  C   UNL A   1      31.844  20.880  25.157  1.00  0.00     0.119 C 
BRANCH  19  20
ATOM     20  C   UNL A   1      32.653  20.585  23.876  1.00  0.00     0.002 C 
ATOM     21  C   UNL A   1      32.551  19.116  23.449  1.00  0.00     0.009 C 
ATOM     22  C   UNL A   1      32.202  21.467  22.708  1.00  0.00     0.009 C 
ENDBRANCH  19  20
ENDBRANCH  17  19
ENDBRANCH   7  17
BRANCH  16  23
ATOM     23  C   UNL A   1      33.143  27.674  22.550  1.00  0.00     0.429 C 
ATOM     24  F   UNL A   1      33.455  28.912  22.108  1.00  0.00    -0.167 F 
ATOM     25  F   UNL A   1      34.136  26.847  22.159  1.00  0.00    -0.167 F 
ATOM     26  F   UNL A   1      32.025  27.276  21.887  1.00  0.00    -0.167 F 
ENDBRANCH  16  23
ENDBRANCH   3   6
ENDBRANCH   1   2
BRANCH   1  27
ATOM     27  C   UNL A   1      31.460  32.225  26.593  1.00  0.00     0.042 C 
BRANCH  27  28
ATOM     28  C   UNL A   1      32.638  32.826  27.355  1.00  0.00     0.118 C 
BRANCH  28  29
ATOM     29  N   UNL A   1      32.443  34.248  27.623  1.00  0.00    -0.352 N 
ATOM     30  C   UNL A   1      32.998  35.043  28.596  1.00  0.00     0.251 C 
ATOM     31  H   UNL A   1      31.818  34.706  27.014  1.00  0.00     0.163 HD
ATOM     32  O   UNL A   1      32.522  36.155  28.823  1.00  0.00    -0.269 OA
BRANCH  30  33
ATOM     33  C   UNL A   1      34.147  34.556  29.387  1.00  0.00     0.039 A 
ATOM     34  C   UNL A   1      35.435  34.590  28.854  1.00  0.00     0.014 A 
ATOM     35  C   UNL A   1      33.941  34.049  30.674  1.00  0.00     0.014 A 
ATOM     36  C   UNL A   1      36.468  33.929  29.504  1.00  0.00     0.010 A 
ATOM     37  C   UNL A   1      35.012  33.497  31.383  1.00  0.00     0.010 A 
ATOM     38  C   UNL A   1      36.276  33.382  30.783  1.00  0.00    -0.014 A 
BRANCH  38  39
ATOM     39  C   UNL A   1      37.414  32.702  31.458  1.00  0.00     0.031 A 
ATOM     40  C   UNL A   1      38.115  31.536  30.810  1.00  0.00     0.074 A 
ATOM     41  C   UNL A   1      37.857  33.179  32.639  1.00  0.00     0.049 A 
ATOM     42  N   UNL A   1      39.117  30.822  31.259  1.00  0.00    -0.248 NA
ATOM     43  C   UNL A   1      37.625  31.111  29.490  1.00  0.00     0.031 C 
ATOM     44  C   UNL A   1      37.277  34.314  33.364  1.00  0.00     0.029 A 
ATOM     45  N   UNL A   1      38.913  32.793  33.424  1.00  0.00    -0.354 N 
ATOM     46  C   UNL A   1      39.364  29.856  30.290  1.00  0.00     0.074 A 
ATOM     47  C   UNL A   1      38.383  30.051  29.245  1.00  0.00     0.031 C 
ATOM     48  C   UNL A   1      38.018  34.567  34.452  1.00  0.00     0.029 A 
ATOM     49  C   UNL A   1      39.070  33.565  34.550  1.00  0.00     0.049 A 
ATOM     50  H   UNL A   1      39.501  32.034  33.204  1.00  0.00     0.167 HD
ATOM     51  C   UNL A   1      40.330  28.904  30.265  1.00  0.00     0.037 A 
ATOM     52  C   UNL A   1      39.944  33.460  35.567  1.00  0.00     0.037 A 
ATOM     53  C   UNL A   1      41.314  28.720  31.300  1.00  0.00     0.049 A 
ATOM     54  C   UNL A   1      40.949  32.345  35.549  1.00  0.00     0.074 A 
ATOM     55  C   UNL A   1      42.339  27.792  31.363  1.00  0.00     0.029 A 
ATOM     56  N   UNL A   1      41.395  29.480  32.459  1.00  0.00    -0.354 N 
ATOM     57  N   UNL A   1      41.173  31.445  34.622  1.00  0.00    -0.248 NA
ATOM     58  C   UNL A   1      41.816  32.224  36.729  1.00  0.00     0.031 C 
ATOM     59  C   UNL A   1      43.005  27.954  32.582  1.00  0.00     0.029 A 
ATOM     60  C   UNL A   1      42.434  29.022  33.254  1.00  0.00     0.049 A 
ATOM     61  H   UNL A   1      40.801  30.233  32.682  1.00  0.00     0.167 HD
ATOM     62  C   UNL A   1      42.217  30.664  35.098  1.00  0.00     0.074 A 
ATOM     63  C   UNL A   1      42.602  31.217  36.381  1.00  0.00     0.031 C 
ATOM     64  C   UNL A   1      42.801  29.581  34.530  1.00  0.00     0.037 A 
BRANCH  51  65
ATOM     65  C   UNL A   1      40.354  27.972  29.086  1.00  0.00     0.057 A 
ATOM     66  C   UNL A   1      41.127  28.269  27.955  1.00  0.00     0.134 A 
ATOM     67  C   UNL A   1      39.593  26.795  29.052  1.00  0.00     0.134 A 
ATOM     68  F   UNL A   1      41.873  29.384  27.914  1.00  0.00    -0.206 F 
ATOM     69  C   UNL A   1      41.144  27.433  26.838  1.00  0.00     0.040 A 
ATOM     70  C   UNL A   1      39.624  25.934  27.951  1.00  0.00     0.040 A 
ATOM     71  F   UNL A   1      38.839  26.442  30.104  1.00  0.00    -0.206 F 
ATOM     72  C   UNL A   1      40.397  26.257  26.837  1.00  0.00     0.006 A 
ENDBRANCH  51  65
BRANCH  52  73
ATOM     73  C   UNL A   1      39.886  34.408  36.710  1.00  0.00     0.057 A 
ATOM     74  C   UNL A   1      40.563  35.633  36.676  1.00  0.00     0.134 A 
ATOM     75  C   UNL A   1      39.116  34.129  37.844  1.00  0.00     0.134 A 
ATOM     76  F   UNL A   1      41.324  35.960  35.621  1.00  0.00    -0.206 F 
ATOM     77  C   UNL A   1      40.480  36.545  37.729  1.00  0.00     0.040 A 
ATOM     78  C   UNL A   1      38.996  35.047  38.890  1.00  0.00     0.040 A 
ATOM     79  F   UNL A   1      38.427  32.981  37.929  1.00  0.00    -0.206 F 
ATOM     80  C   UNL A   1      39.682  36.258  38.835  1.00  0.00     0.006 A 
ENDBRANCH  52  73
BRANCH  64  81
ATOM     81  C   UNL A   1      43.936  28.951  35.285  1.00  0.00     0.057 A 
ATOM     82  C   UNL A   1      45.257  29.355  35.056  1.00  0.00     0.134 A 
ATOM     83  C   UNL A   1      43.723  27.948  36.240  1.00  0.00     0.134 A 
ATOM     84  F   UNL A   1      45.533  30.306  34.151  1.00  0.00    -0.206 F 
ATOM     85  C   UNL A   1      46.325  28.788  35.753  1.00  0.00     0.040 A 
ATOM     86  C   UNL A   1      44.779  27.396  36.967  1.00  0.00     0.040 A 
ATOM     87  F   UNL A   1      42.479  27.527  36.520  1.00  0.00    -0.206 F 
ATOM     88  C   UNL A   1      46.085  27.814  36.720  1.00  0.00     0.006 A 
ENDBRANCH  64  81
ENDBRANCH  38  39
ENDBRANCH  30  33
ENDBRANCH  28  29
ENDBRANCH  27  28
ENDBRANCH   1  27
TORSDOF 14
ENDMDL
MODEL 3
REMARK VINA RESULT:     -12.5      4.391      9.247
REMARK SMILES CC(C)CN(C)c1cc2c(cc1Cl)C=C(C(=O)NCCCNC(=O)c1ccc(-c3c4nc(c(-c5c(F)cccc5F)c5ccc([nH]5)c(-c5c(F)cccc5F)c5nc(c(-c6c(F)cccc6F)c6ccc3[nH]6)C=C5)C=C4)cc1)[C@H](C(F)(F)F)O2
REMARK SMILES IDX 19 1 18 2 16 3 17 4 15 6 7 7 8 8 12 9 9 10 11 11 13 12 10 13
REMARK SMILES IDX 84 14 14 15 79 16 5 17 6 18 4 19 2 20 1 21 3 22 80 23 81 24
REMARK SMILES IDX 82 25 83 26 20 27 21 28 22 29 23 30 24 32 25 33 26 34 78 35
REMARK SMILES IDX 27 36 77 37 28 38 29 39 30 40 71 41 31 42 76 43 70 44 72 45
REMARK SMILES IDX 32 46 75 47 69 48 68 49 33 51 59 52 42 53 58 54 43 55 46 56
REMARK SMILES IDX 57 57 73 58 44 59 45 60 56 62 74 63 47 64 34 65 35 66 40 67
REMARK SMILES IDX 36 68 37 69 39 70 41 71 38 72 60 73 61 74 66 75 62 76 63 77
REMARK SMILES IDX 65 78 67 79 64 80 48 81 49 82 54 83 50 84 51 85 53 86 55 87
REMARK SMILES IDX 52 88
REMARK H PARENT 18 5 22 31 72 50 46 61
REMARK Flexibility Score: inf
ROOT
ATOM      1  C   UNL A   1      36.259  21.227  24.965  1.00  0.00     0.118 C 
ENDROOT
BRANCH   1   2
ATOM      2  N   UNL A   1      35.348  21.007  26.077  1.00  0.00    -0.352 N 
ATOM      3  C   UNL A   1      34.189  21.555  26.506  1.00  0.00     0.251 C 
ATOM      4  O   UNL A   1      33.689  21.045  27.511  1.00  0.00    -0.270 OA
ATOM      5  H   UNL A   1      35.649  20.275  26.663  1.00  0.00     0.163 HD
BRANCH   3   6
ATOM      6  C   UNL A   1      33.497  22.681  25.827  1.00  0.00     0.067 C 
ATOM      7  C   UNL A   1      32.345  27.335  24.196  1.00  0.00     0.059 A 
ATOM      8  C   UNL A   1      31.867  26.039  23.934  1.00  0.00     0.074 A 
ATOM      9  C   UNL A   1      33.320  27.466  25.210  1.00  0.00     0.065 A 
ATOM     10  C   UNL A   1      32.380  24.923  24.599  1.00  0.00     0.130 A 
ATOM     11  C   UNL A   1      33.887  26.340  25.819  1.00  0.00     0.034 A 
ATOM     12  Cl  UNL A   1      33.833  29.006  25.810  1.00  0.00    -0.082 Cl
ATOM     13  C   UNL A   1      33.420  25.064  25.507  1.00  0.00     0.019 A 
ATOM     14  O   UNL A   1      31.779  23.731  24.323  1.00  0.00    -0.475 OA
ATOM     15  C   UNL A   1      33.985  23.890  26.147  1.00  0.00     0.025 C 
ATOM     16  C   UNL A   1      32.415  22.510  24.793  1.00  0.00     0.314 C 
BRANCH   7  17
ATOM     17  N   UNL A   1      31.876  28.428  23.448  1.00  0.00    -0.373 N 
ATOM     18  C   UNL A   1      32.891  29.127  22.660  1.00  0.00     0.143 C 
BRANCH  17  19
ATOM     19  C   UNL A   1      30.857  29.284  24.101  1.00  0.00     0.119 C 
BRANCH  19  20
ATOM     20  C   UNL A   1      29.688  29.653  23.164  1.00  0.00     0.002 C 
ATOM     21  C   UNL A   1      28.658  28.523  23.047  1.00  0.00     0.009 C 
ATOM     22  C   UNL A   1      28.970  30.923  23.632  1.00  0.00     0.009 C 
ENDBRANCH  19  20
ENDBRANCH  17  19
ENDBRANCH   7  17
BRANCH  16  23
ATOM     23  C   UNL A   1      32.845  21.709  23.555  1.00  0.00     0.429 C 
ATOM     24  F   UNL A   1      33.118  20.418  23.844  1.00  0.00    -0.167 F 
ATOM     25  F   UNL A   1      31.915  21.713  22.577  1.00  0.00    -0.167 F 
ATOM     26  F   UNL A   1      33.970  22.253  23.022  1.00  0.00    -0.167 F 
ENDBRANCH  16  23
ENDBRANCH   3   6
ENDBRANCH   1   2
BRANCH   1  27
ATOM     27  C   UNL A   1      37.358  20.170  24.946  1.00  0.00     0.042 C 
BRANCH  27  28
ATOM     28  C   UNL A   1      38.655  20.674  25.572  1.00  0.00     0.118 C 
BRANCH  28  29
ATOM     29  N   UNL A   1      39.643  19.609  25.708  1.00  0.00    -0.352 N 
ATOM     30  C   UNL A   1      40.980  19.683  26.018  1.00  0.00     0.251 C 
ATOM     31  H   UNL A   1      39.300  18.698  25.555  1.00  0.00     0.163 HD
ATOM     32  O   UNL A   1      41.705  18.705  25.839  1.00  0.00    -0.269 OA
BRANCH  30  33
ATOM     33  C   UNL A   1      41.552  20.942  26.540  1.00  0.00     0.039 A 
ATOM     34  C   UNL A   1      41.536  21.208  27.908  1.00  0.00     0.014 A 
ATOM     35  C   UNL A   1      42.105  21.874  25.656  1.00  0.00     0.014 A 
ATOM     36  C   UNL A   1      41.865  22.477  28.367  1.00  0.00     0.010 A 
ATOM     37  C   UNL A   1      42.555  23.106  26.140  1.00  0.00     0.010 A 
ATOM     38  C   UNL A   1      42.390  23.441  27.492  1.00  0.00    -0.014 A 
BRANCH  38  39
ATOM     39  C   UNL A   1      42.752  24.782  28.026  1.00  0.00     0.031 A 
ATOM     40  C   UNL A   1      41.698  25.830  28.270  1.00  0.00     0.074 A 
ATOM     41  C   UNL A   1      44.037  25.035  28.350  1.00  0.00     0.049 A 
ATOM     42  N   UNL A   1      41.836  27.052  28.723  1.00  0.00    -0.248 NA
ATOM     43  C   UNL A   1      40.307  25.464  27.961  1.00  0.00     0.031 C 
ATOM     44  C   UNL A   1      45.152  24.098  28.179  1.00  0.00     0.029 A 
ATOM     45  N   UNL A   1      44.620  26.139  28.916  1.00  0.00    -0.354 N 
ATOM     46  C   UNL A   1      40.561  27.603  28.735  1.00  0.00     0.074 A 
ATOM     47  C   UNL A   1      39.665  26.597  28.208  1.00  0.00     0.031 C 
ATOM     48  C   UNL A   1      46.268  24.643  28.684  1.00  0.00     0.029 A 
ATOM     49  C   UNL A   1      45.969  25.996  29.134  1.00  0.00     0.049 A 
ATOM     50  H   UNL A   1      44.120  26.957  29.143  1.00  0.00     0.167 HD
ATOM     51  C   UNL A   1      40.169  28.830  29.160  1.00  0.00     0.037 A 
ATOM     52  C   UNL A   1      46.874  26.868  29.613  1.00  0.00     0.037 A 
ATOM     53  C   UNL A   1      41.061  29.826  29.696  1.00  0.00     0.049 A 
ATOM     54  C   UNL A   1      46.422  28.247  29.999  1.00  0.00     0.074 A 
ATOM     55  C   UNL A   1      40.760  31.094  30.162  1.00  0.00     0.029 A 
ATOM     56  N   UNL A   1      42.433  29.667  29.834  1.00  0.00    -0.354 N 
ATOM     57  N   UNL A   1      45.211  28.749  30.010  1.00  0.00    -0.248 NA
ATOM     58  C   UNL A   1      47.468  29.184  30.428  1.00  0.00     0.031 C 
ATOM     59  C   UNL A   1      41.955  31.721  30.532  1.00  0.00     0.029 A 
ATOM     60  C   UNL A   1      42.995  30.823  30.352  1.00  0.00     0.049 A 
ATOM     61  H   UNL A   1      42.932  28.851  29.599  1.00  0.00     0.167 HD
ATOM     62  C   UNL A   1      45.348  30.054  30.463  1.00  0.00     0.074 A 
ATOM     63  C   UNL A   1      46.755  30.253  30.746  1.00  0.00     0.031 C 
ATOM     64  C   UNL A   1      44.397  31.006  30.624  1.00  0.00     0.037 A 
BRANCH  51  65
ATOM     65  C   UNL A   1      38.709  29.172  29.041  1.00  0.00     0.057 A 
ATOM     66  C   UNL A   1      38.171  29.586  27.815  1.00  0.00     0.134 A 
ATOM     67  C   UNL A   1      37.841  29.120  30.140  1.00  0.00     0.134 A 
ATOM     68  F   UNL A   1      38.946  29.668  26.723  1.00  0.00    -0.206 F 
ATOM     69  C   UNL A   1      36.825  29.936  27.687  1.00  0.00     0.040 A 
ATOM     70  C   UNL A   1      36.486  29.439  30.018  1.00  0.00     0.040 A 
ATOM     71  F   UNL A   1      38.287  28.721  31.340  1.00  0.00    -0.206 F 
ATOM     72  C   UNL A   1      35.977  29.854  28.788  1.00  0.00     0.006 A 
ENDBRANCH  51  65
BRANCH  52  73
ATOM     73  C   UNL A   1      48.307  26.484  29.718  1.00  0.00     0.057 A 
ATOM     74  C   UNL A   1      49.216  26.772  28.693  1.00  0.00     0.134 A 
ATOM     75  C   UNL A   1      48.806  25.859  30.866  1.00  0.00     0.134 A 
ATOM     76  F   UNL A   1      48.801  27.364  27.563  1.00  0.00    -0.206 F 
ATOM     77  C   UNL A   1      50.569  26.450  28.803  1.00  0.00     0.040 A 
ATOM     78  C   UNL A   1      50.164  25.563  31.003  1.00  0.00     0.040 A 
ATOM     79  F   UNL A   1      47.990  25.575  31.891  1.00  0.00    -0.206 F 
ATOM     80  C   UNL A   1      51.049  25.856  29.968  1.00  0.00     0.006 A 
ENDBRANCH  52  73
BRANCH  64  81
ATOM     81  C   UNL A   1      44.854  32.334  31.159  1.00  0.00     0.057 A 
ATOM     82  C   UNL A   1      45.239  33.359  30.287  1.00  0.00     0.134 A 
ATOM     83  C   UNL A   1      44.910  32.598  32.533  1.00  0.00     0.134 A 
ATOM     84  F   UNL A   1      45.216  33.172  28.959  1.00  0.00    -0.206 F 
ATOM     85  C   UNL A   1      45.659  34.602  30.763  1.00  0.00     0.040 A 
ATOM     86  C   UNL A   1      45.296  33.847  33.021  1.00  0.00     0.040 A 
ATOM     87  F   UNL A   1      44.537  31.663  33.422  1.00  0.00    -0.206 F 
ATOM     88  C   UNL A   1      45.677  34.852  32.134  1.00  0.00     0.006 A 
ENDBRANCH  64  81
ENDBRANCH  38  39
ENDBRANCH  30  33
ENDBRANCH  28  29
ENDBRANCH  27  28
ENDBRANCH   1  27
TORSDOF 14
ENDMDL
