MODEL 1
REMARK VINA RESULT:     -12.7      0.000      0.000
REMARK SMILES Cc1ccc(NC(=O)C[NH+]2CCC(C(=O)NCCCNC(=O)c3ccc(-c4c5nc(c(-c6c(F)cccc6F)c6ccc([nH]6)c(-c6c(F)cccc6F)c6nc(c(-c7c(F)cccc7F)c7ccc4[nH]7)C=C6)C=C5)cc3)CC2)cc1Cl
REMARK SMILES IDX 17 1 16 2 14 3 15 4 13 6 10 7 11 8 78 9 12 11 77 12 9 13
REMARK SMILES IDX 7 14 6 15 8 17 5 18 1 19 2 20 3 21 80 22 4 23 79 24 81 25
REMARK SMILES IDX 18 26 19 27 20 28 21 29 22 31 23 32 24 33 76 34 25 35 75 36
REMARK SMILES IDX 26 37 27 38 28 39 69 40 29 41 74 42 68 43 70 44 30 45 73 46
REMARK SMILES IDX 67 47 66 48 31 50 57 51 40 52 56 53 41 54 44 55 55 56 71 57
REMARK SMILES IDX 42 58 43 59 54 61 72 62 45 63 32 64 33 65 38 66 34 67 35 68
REMARK SMILES IDX 37 69 39 70 36 71 58 72 59 73 64 74 60 75 61 76 63 77 65 78
REMARK SMILES IDX 62 79 46 80 47 81 52 82 48 83 49 84 51 85 53 86 50 87
REMARK H PARENT 16 5 10 10 6 16 20 30 70 49 44 60
REMARK Flexibility Score: inf
ROOT
ATOM      1  C   UNL A   1      31.934  30.426  26.414  1.00  0.00     0.117 C 
ENDROOT
BRANCH   1   2
ATOM      2  N   UNL A   1      32.005  30.126  24.990  1.00  0.00    -0.356 N 
ATOM      3  C   UNL A   1      31.827  28.957  24.315  1.00  0.00     0.223 C 
ATOM      4  O   UNL A   1      32.013  28.959  23.096  1.00  0.00    -0.275 OA
ATOM      5  H   UNL A   1      32.219  30.898  24.419  1.00  0.00     0.163 HD
BRANCH   3   6
ATOM      6  C   UNL A   1      31.347  27.707  25.025  1.00  0.00     0.089 C 
ATOM      7  N   UNL A   1      31.195  24.802  24.763  1.00  0.00    -0.327 N 
ATOM      8  C   UNL A   1      29.957  25.575  24.834  1.00  0.00     0.263 C 
ATOM      9  C   UNL A   1      32.227  25.403  25.597  1.00  0.00     0.263 C 
ATOM     10  H   UNL A   1      31.505  24.834  23.791  1.00  0.00     0.348 HD
ATOM     11  C   UNL A   1      30.214  26.984  24.287  1.00  0.00     0.075 C 
ATOM     12  C   UNL A   1      32.562  26.851  25.356  1.00  0.00     0.075 C 
BRANCH   7  13
ATOM     13  C   UNL A   1      31.010  23.351  25.067  1.00  0.00     0.363 C 
BRANCH  13  14
ATOM     14  C   UNL A   1      31.344  22.912  26.506  1.00  0.00     0.279 C 
ATOM     15  N   UNL A   1      32.537  22.323  26.867  1.00  0.00    -0.321 N 
ATOM     16  H   UNL A   1      32.585  22.036  27.807  1.00  0.00     0.170 HD
ATOM     17  O   UNL A   1      30.546  23.153  27.423  1.00  0.00    -0.268 OA
BRANCH  15  18
ATOM     18  C   UNL A   1      33.700  22.064  26.115  1.00  0.00     0.042 A 
ATOM     19  C   UNL A   1      37.479  20.419  24.849  1.00  0.00     0.046 C 
ATOM     20  C   UNL A   1      36.158  21.074  25.145  1.00  0.00    -0.032 A 
ATOM     21  C   UNL A   1      34.980  20.328  25.001  1.00  0.00     0.007 A 
ATOM     22  C   UNL A   1      36.060  22.372  25.672  1.00  0.00     0.046 A 
ATOM     23  C   UNL A   1      33.754  20.831  25.455  1.00  0.00     0.026 A 
ATOM     24  C   UNL A   1      34.834  22.874  26.131  1.00  0.00     0.047 A 
ATOM     25  Cl  UNL A   1      37.463  23.354  25.910  1.00  0.00    -0.084 Cl
ENDBRANCH  15  18
ENDBRANCH  13  14
ENDBRANCH   7  13
ENDBRANCH   3   6
ENDBRANCH   1   2
BRANCH   1  26
ATOM     26  C   UNL A   1      31.640  31.894  26.658  1.00  0.00     0.042 C 
BRANCH  26  27
ATOM     27  C   UNL A   1      32.773  32.616  27.369  1.00  0.00     0.118 C 
BRANCH  27  28
ATOM     28  N   UNL A   1      32.470  34.019  27.626  1.00  0.00    -0.352 N 
ATOM     29  C   UNL A   1      33.021  34.877  28.545  1.00  0.00     0.251 C 
ATOM     30  H   UNL A   1      31.768  34.408  27.057  1.00  0.00     0.163 HD
ATOM     31  O   UNL A   1      32.509  35.975  28.747  1.00  0.00    -0.269 OA
BRANCH  29  32
ATOM     32  C   UNL A   1      34.209  34.458  29.316  1.00  0.00     0.039 A 
ATOM     33  C   UNL A   1      34.028  33.899  30.582  1.00  0.00     0.014 A 
ATOM     34  C   UNL A   1      35.491  34.577  28.773  1.00  0.00     0.014 A 
ATOM     35  C   UNL A   1      35.126  33.369  31.261  1.00  0.00     0.010 A 
ATOM     36  C   UNL A   1      36.565  33.961  29.405  1.00  0.00     0.010 A 
ATOM     37  C   UNL A   1      36.392  33.343  30.651  1.00  0.00    -0.014 A 
BRANCH  37  38
ATOM     38  C   UNL A   1      37.535  32.638  31.283  1.00  0.00     0.031 A 
ATOM     39  C   UNL A   1      38.186  31.474  30.591  1.00  0.00     0.074 A 
ATOM     40  C   UNL A   1      37.933  33.003  32.518  1.00  0.00     0.049 A 
ATOM     41  N   UNL A   1      39.147  30.694  31.018  1.00  0.00    -0.248 NA
ATOM     42  C   UNL A   1      37.679  31.122  29.254  1.00  0.00     0.031 C 
ATOM     43  C   UNL A   1      37.339  34.078  33.317  1.00  0.00     0.029 A 
ATOM     44  N   UNL A   1      38.922  32.502  33.327  1.00  0.00    -0.354 N 
ATOM     45  C   UNL A   1      39.349  29.757  30.013  1.00  0.00     0.074 A 
ATOM     46  C   UNL A   1      38.381  30.033  28.975  1.00  0.00     0.031 C 
ATOM     47  C   UNL A   1      37.989  34.169  34.489  1.00  0.00     0.029 A 
ATOM     48  C   UNL A   1      39.011  33.131  34.546  1.00  0.00     0.049 A 
ATOM     49  H   UNL A   1      39.513  31.761  33.059  1.00  0.00     0.167 HD
ATOM     50  C   UNL A   1      40.271  28.768  29.955  1.00  0.00     0.037 A 
ATOM     51  C   UNL A   1      39.813  32.886  35.600  1.00  0.00     0.037 A 
ATOM     52  C   UNL A   1      41.250  28.515  30.979  1.00  0.00     0.049 A 
ATOM     53  C   UNL A   1      40.818  31.770  35.509  1.00  0.00     0.074 A 
ATOM     54  C   UNL A   1      42.279  27.589  30.974  1.00  0.00     0.029 A 
ATOM     55  N   UNL A   1      41.316  29.181  32.193  1.00  0.00    -0.354 N 
ATOM     56  N   UNL A   1      41.059  30.954  34.512  1.00  0.00    -0.248 NA
ATOM     57  C   UNL A   1      41.663  31.541  36.690  1.00  0.00     0.031 C 
ATOM     58  C   UNL A   1      42.930  27.653  32.209  1.00  0.00     0.029 A 
ATOM     59  C   UNL A   1      42.345  28.659  32.960  1.00  0.00     0.049 A 
ATOM     60  H   UNL A   1      40.721  29.916  32.468  1.00  0.00     0.167 HD
ATOM     61  C   UNL A   1      42.096  30.132  34.937  1.00  0.00     0.074 A 
ATOM     62  C   UNL A   1      42.455  30.567  36.269  1.00  0.00     0.031 C 
ATOM     63  C   UNL A   1      42.692  29.105  34.285  1.00  0.00     0.037 A 
BRANCH  50  64
ATOM     64  C   UNL A   1      40.281  27.884  28.743  1.00  0.00     0.057 A 
ATOM     65  C   UNL A   1      41.013  28.211  27.595  1.00  0.00     0.134 A 
ATOM     66  C   UNL A   1      39.619  26.649  28.758  1.00  0.00     0.134 A 
ATOM     67  F   UNL A   1      41.662  29.382  27.513  1.00  0.00    -0.206 F 
ATOM     68  C   UNL A   1      41.079  27.346  26.501  1.00  0.00     0.040 A 
ATOM     69  C   UNL A   1      39.699  25.765  27.682  1.00  0.00     0.040 A 
ATOM     70  F   UNL A   1      38.903  26.273  29.829  1.00  0.00    -0.206 F 
ATOM     71  C   UNL A   1      40.430  26.113  26.548  1.00  0.00     0.006 A 
ENDBRANCH  50  64
BRANCH  51  72
ATOM     72  C   UNL A   1      39.699  33.698  36.840  1.00  0.00     0.057 A 
ATOM     73  C   UNL A   1      38.833  33.326  37.875  1.00  0.00     0.134 A 
ATOM     74  C   UNL A   1      40.418  34.889  37.001  1.00  0.00     0.134 A 
ATOM     75  F   UNL A   1      38.101  32.206  37.773  1.00  0.00    -0.206 F 
ATOM     76  C   UNL A   1      38.658  34.123  39.007  1.00  0.00     0.040 A 
ATOM     77  C   UNL A   1      40.278  35.681  38.142  1.00  0.00     0.040 A 
ATOM     78  F   UNL A   1      41.271  35.300  36.051  1.00  0.00    -0.206 F 
ATOM     79  C   UNL A   1      39.384  35.304  39.144  1.00  0.00     0.006 A 
ENDBRANCH  51  72
BRANCH  63  80
ATOM     80  C   UNL A   1      43.808  28.397  34.995  1.00  0.00     0.057 A 
ATOM     81  C   UNL A   1      45.133  28.847  34.919  1.00  0.00     0.134 A 
ATOM     82  C   UNL A   1      43.552  27.274  35.791  1.00  0.00     0.134 A 
ATOM     83  F   UNL A   1      45.449  29.908  34.162  1.00  0.00    -0.206 F 
ATOM     84  C   UNL A   1      46.165  28.189  35.589  1.00  0.00     0.040 A 
ATOM     85  C   UNL A   1      44.570  26.627  36.491  1.00  0.00     0.040 A 
ATOM     86  F   UNL A   1      42.304  26.797  35.917  1.00  0.00    -0.206 F 
ATOM     87  C   UNL A   1      45.884  27.080  36.385  1.00  0.00     0.006 A 
ENDBRANCH  63  80
ENDBRANCH  37  38
ENDBRANCH  29  32
ENDBRANCH  27  28
ENDBRANCH  26  27
ENDBRANCH   1  26
TORSDOF 13
ENDMDL
MODEL 2
REMARK VINA RESULT:     -12.7      0.496      6.245
REMARK SMILES Cc1ccc(NC(=O)C[NH+]2CCC(C(=O)NCCCNC(=O)c3ccc(-c4c5nc(c(-c6c(F)cccc6F)c6ccc([nH]6)c(-c6c(F)cccc6F)c6nc(c(-c7c(F)cccc7F)c7ccc4[nH]7)C=C6)C=C5)cc3)CC2)cc1Cl
REMARK SMILES IDX 17 1 16 2 14 3 15 4 13 6 10 7 11 8 78 9 12 11 77 12 9 13
REMARK SMILES IDX 7 14 6 15 8 17 5 18 1 19 2 20 3 21 80 22 4 23 79 24 81 25
REMARK SMILES IDX 18 26 19 27 20 28 21 29 22 31 23 32 24 33 76 34 25 35 75 36
REMARK SMILES IDX 26 37 27 38 28 39 69 40 29 41 74 42 68 43 70 44 30 45 73 46
REMARK SMILES IDX 67 47 66 48 31 50 57 51 40 52 56 53 41 54 44 55 55 56 71 57
REMARK SMILES IDX 42 58 43 59 54 61 72 62 45 63 32 64 33 65 38 66 34 67 35 68
REMARK SMILES IDX 37 69 39 70 36 71 58 72 59 73 64 74 60 75 61 76 63 77 65 78
REMARK SMILES IDX 62 79 46 80 47 81 52 82 48 83 49 84 51 85 53 86 50 87
REMARK H PARENT 16 5 10 10 6 16 20 30 70 49 44 60
REMARK Flexibility Score: inf
ROOT
ATOM      1  C   UNL A   1      31.791  30.483  26.487  1.00  0.00     0.117 C 
ENDROOT
BRANCH   1   2
ATOM      2  N   UNL A   1      31.847  30.187  25.061  1.00  0.00    -0.356 N 
ATOM      3  C   UNL A   1      31.685  29.016  24.386  1.00  0.00     0.223 C 
ATOM      4  O   UNL A   1      31.852  29.025  23.165  1.00  0.00    -0.275 OA
ATOM      5  H   UNL A   1      32.035  30.965  24.489  1.00  0.00     0.163 HD
BRANCH   3   6
ATOM      6  C   UNL A   1      31.244  27.754  25.101  1.00  0.00     0.089 C 
ATOM      7  N   UNL A   1      31.157  24.846  24.835  1.00  0.00    -0.327 N 
ATOM      8  C   UNL A   1      29.903  25.590  24.924  1.00  0.00     0.263 C 
ATOM      9  C   UNL A   1      32.185  25.470  25.656  1.00  0.00     0.263 C 
ATOM     10  H   UNL A   1      31.453  24.888  23.859  1.00  0.00     0.348 HD
ATOM     11  C   UNL A   1      30.119  27.006  24.376  1.00  0.00     0.075 C 
ATOM     12  C   UNL A   1      32.483  26.927  25.413  1.00  0.00     0.075 C 
BRANCH   7  13
ATOM     13  C   UNL A   1      31.010  23.391  25.139  1.00  0.00     0.363 C 
BRANCH  13  14
ATOM     14  C   UNL A   1      31.363  22.960  26.576  1.00  0.00     0.279 C 
ATOM     15  N   UNL A   1      32.562  22.375  26.925  1.00  0.00    -0.321 N 
ATOM     16  H   UNL A   1      32.622  22.093  27.866  1.00  0.00     0.170 HD
ATOM     17  O   UNL A   1      30.577  23.204  27.502  1.00  0.00    -0.268 OA
BRANCH  15  18
ATOM     18  C   UNL A   1      33.717  22.115  26.160  1.00  0.00     0.042 A 
ATOM     19  C   UNL A   1      37.498  20.494  24.871  1.00  0.00     0.046 C 
ATOM     20  C   UNL A   1      36.172  21.137  25.173  1.00  0.00    -0.032 A 
ATOM     21  C   UNL A   1      35.003  20.370  25.067  1.00  0.00     0.007 A 
ATOM     22  C   UNL A   1      36.064  22.446  25.669  1.00  0.00     0.046 A 
ATOM     23  C   UNL A   1      33.778  20.866  25.529  1.00  0.00     0.026 A 
ATOM     24  C   UNL A   1      34.838  22.941  26.137  1.00  0.00     0.047 A 
ATOM     25  Cl  UNL A   1      37.455  23.455  25.859  1.00  0.00    -0.084 Cl
ENDBRANCH  15  18
ENDBRANCH  13  14
ENDBRANCH   7  13
ENDBRANCH   3   6
ENDBRANCH   1   2
BRANCH   1  26
ATOM     26  C   UNL A   1      31.522  31.954  26.739  1.00  0.00     0.042 C 
BRANCH  26  27
ATOM     27  C   UNL A   1      32.721  32.686  27.319  1.00  0.00     0.118 C 
BRANCH  27  28
ATOM     28  N   UNL A   1      32.438  34.086  27.609  1.00  0.00    -0.352 N 
ATOM     29  C   UNL A   1      33.008  34.919  28.539  1.00  0.00     0.251 C 
ATOM     30  H   UNL A   1      31.734  34.495  27.056  1.00  0.00     0.163 HD
ATOM     31  O   UNL A   1      32.512  36.018  28.770  1.00  0.00    -0.269 OA
BRANCH  29  32
ATOM     32  C   UNL A   1      34.200  34.470  29.287  1.00  0.00     0.039 A 
ATOM     33  C   UNL A   1      34.027  33.885  30.543  1.00  0.00     0.014 A 
ATOM     34  C   UNL A   1      35.477  34.587  28.733  1.00  0.00     0.014 A 
ATOM     35  C   UNL A   1      35.127  33.329  31.198  1.00  0.00     0.010 A 
ATOM     36  C   UNL A   1      36.551  33.946  29.339  1.00  0.00     0.010 A 
ATOM     37  C   UNL A   1      36.386  33.302  30.574  1.00  0.00    -0.014 A 
BRANCH  37  38
ATOM     38  C   UNL A   1      37.527  32.571  31.177  1.00  0.00     0.031 A 
ATOM     39  C   UNL A   1      38.142  33.048  32.462  1.00  0.00     0.074 A 
ATOM     40  C   UNL A   1      38.056  31.519  30.521  1.00  0.00     0.049 A 
ATOM     41  N   UNL A   1      39.185  32.582  33.100  1.00  0.00    -0.248 NA
ATOM     42  C   UNL A   1      37.521  34.219  33.107  1.00  0.00     0.031 C 
ATOM     43  C   UNL A   1      37.585  30.997  29.235  1.00  0.00     0.029 A 
ATOM     44  N   UNL A   1      39.116  30.705  30.836  1.00  0.00    -0.354 N 
ATOM     45  C   UNL A   1      39.352  33.404  34.207  1.00  0.00     0.074 A 
ATOM     46  C   UNL A   1      38.334  34.428  34.132  1.00  0.00     0.031 C 
ATOM     47  C   UNL A   1      38.337  29.942  28.884  1.00  0.00     0.029 A 
ATOM     48  C   UNL A   1      39.372  29.740  29.891  1.00  0.00     0.049 A 
ATOM     49  H   UNL A   1      39.644  30.804  31.661  1.00  0.00     0.167 HD
ATOM     50  C   UNL A   1      40.261  33.301  35.205  1.00  0.00     0.037 A 
ATOM     51  C   UNL A   1      40.343  28.809  29.833  1.00  0.00     0.037 A 
ATOM     52  C   UNL A   1      41.254  32.263  35.289  1.00  0.00     0.049 A 
ATOM     53  C   UNL A   1      41.347  28.730  30.951  1.00  0.00     0.074 A 
ATOM     54  C   UNL A   1      42.166  32.027  36.303  1.00  0.00     0.029 A 
ATOM     55  N   UNL A   1      41.474  31.297  34.319  1.00  0.00    -0.354 N 
ATOM     56  N   UNL A   1      41.432  29.457  32.039  1.00  0.00    -0.248 NA
ATOM     57  C   UNL A   1      42.391  27.702  30.834  1.00  0.00     0.031 C 
ATOM     58  C   UNL A   1      42.976  30.954  35.921  1.00  0.00     0.029 A 
ATOM     59  C   UNL A   1      42.532  30.486  34.695  1.00  0.00     0.049 A 
ATOM     60  H   UNL A   1      40.955  31.201  33.489  1.00  0.00     0.167 HD
ATOM     61  C   UNL A   1      42.521  28.960  32.744  1.00  0.00     0.074 A 
ATOM     62  C   UNL A   1      43.047  27.853  31.975  1.00  0.00     0.031 C 
ATOM     63  C   UNL A   1      43.043  29.386  33.919  1.00  0.00     0.037 A 
BRANCH  50  64
ATOM     64  C   UNL A   1      40.226  34.328  36.297  1.00  0.00     0.057 A 
ATOM     65  C   UNL A   1      40.967  35.514  36.221  1.00  0.00     0.134 A 
ATOM     66  C   UNL A   1      39.373  34.168  37.398  1.00  0.00     0.134 A 
ATOM     67  F   UNL A   1      41.810  35.725  35.199  1.00  0.00    -0.206 F 
ATOM     68  C   UNL A   1      40.870  36.500  37.205  1.00  0.00     0.040 A 
ATOM     69  C   UNL A   1      39.248  35.157  38.374  1.00  0.00     0.040 A 
ATOM     70  F   UNL A   1      38.632  33.058  37.529  1.00  0.00    -0.206 F 
ATOM     71  C   UNL A   1      39.999  36.327  38.279  1.00  0.00     0.006 A 
ENDBRANCH  50  64
BRANCH  51  72
ATOM     72  C   UNL A   1      40.431  27.881  28.675  1.00  0.00     0.057 A 
ATOM     73  C   UNL A   1      41.165  28.215  27.531  1.00  0.00     0.134 A 
ATOM     74  C   UNL A   1      39.747  26.660  28.666  1.00  0.00     0.134 A 
ATOM     75  F   UNL A   1      41.826  29.381  27.469  1.00  0.00    -0.206 F 
ATOM     76  C   UNL A   1      41.187  27.387  26.407  1.00  0.00     0.040 A 
ATOM     77  C   UNL A   1      39.786  25.806  27.561  1.00  0.00     0.040 A 
ATOM     78  F   UNL A   1      39.031  26.275  29.733  1.00  0.00    -0.206 F 
ATOM     79  C   UNL A   1      40.498  26.177  26.422  1.00  0.00     0.006 A 
ENDBRANCH  51  72
BRANCH  63  80
ATOM     80  C   UNL A   1      44.228  28.638  34.455  1.00  0.00     0.057 A 
ATOM     81  C   UNL A   1      44.081  27.500  35.258  1.00  0.00     0.134 A 
ATOM     82  C   UNL A   1      45.532  29.039  34.135  1.00  0.00     0.134 A 
ATOM     83  F   UNL A   1      42.861  27.071  35.613  1.00  0.00    -0.206 F 
ATOM     84  C   UNL A   1      45.188  26.804  35.746  1.00  0.00     0.040 A 
ATOM     85  C   UNL A   1      46.645  28.333  34.589  1.00  0.00     0.040 A 
ATOM     86  F   UNL A   1      45.744  30.114  33.360  1.00  0.00    -0.206 F 
ATOM     87  C   UNL A   1      46.475  27.216  35.404  1.00  0.00     0.006 A 
ENDBRANCH  63  80
ENDBRANCH  37  38
ENDBRANCH  29  32
ENDBRANCH  27  28
ENDBRANCH  26  27
ENDBRANCH   1  26
TORSDOF 13
ENDMDL
MODEL 3
REMARK VINA RESULT:     -12.7      5.122      9.927
REMARK SMILES Cc1ccc(NC(=O)C[NH+]2CCC(C(=O)NCCCNC(=O)c3ccc(-c4c5nc(c(-c6c(F)cccc6F)c6ccc([nH]6)c(-c6c(F)cccc6F)c6nc(c(-c7c(F)cccc7F)c7ccc4[nH]7)C=C6)C=C5)cc3)CC2)cc1Cl
REMARK SMILES IDX 17 1 16 2 14 3 15 4 13 6 10 7 11 8 78 9 12 11 77 12 9 13
REMARK SMILES IDX 7 14 6 15 8 17 5 18 1 19 2 20 3 21 80 22 4 23 79 24 81 25
REMARK SMILES IDX 18 26 19 27 20 28 21 29 22 31 23 32 24 33 76 34 25 35 75 36
REMARK SMILES IDX 26 37 27 38 28 39 69 40 29 41 74 42 68 43 70 44 30 45 73 46
REMARK SMILES IDX 67 47 66 48 31 50 57 51 40 52 56 53 41 54 44 55 55 56 71 57
REMARK SMILES IDX 42 58 43 59 54 61 72 62 45 63 32 64 33 65 38 66 34 67 35 68
REMARK SMILES IDX 37 69 39 70 36 71 58 72 59 73 64 74 60 75 61 76 63 77 65 78
REMARK SMILES IDX 62 79 46 80 47 81 52 82 48 83 49 84 51 85 53 86 50 87
REMARK H PARENT 16 5 10 10 6 16 20 30 70 49 44 60
REMARK Flexibility Score: inf
ROOT
ATOM      1  C   UNL A   1      37.082  20.905  24.811  1.00  0.00     0.117 C 
ENDROOT
BRANCH   1   2
ATOM      2  N   UNL A   1      35.847  20.683  25.552  1.00  0.00    -0.356 N 
ATOM      3  C   UNL A   1      34.607  21.223  25.399  1.00  0.00     0.223 C 
ATOM      4  O   UNL A   1      33.736  20.911  26.214  1.00  0.00    -0.275 OA
ATOM      5  H   UNL A   1      35.922  20.034  26.287  1.00  0.00     0.163 HD
BRANCH   3   6
ATOM      6  C   UNL A   1      34.282  22.124  24.223  1.00  0.00     0.089 C 
ATOM      7  N   UNL A   1      32.350  24.100  23.277  1.00  0.00    -0.327 N 
ATOM      8  C   UNL A   1      32.498  22.843  22.547  1.00  0.00     0.263 C 
ATOM      9  C   UNL A   1      33.631  24.536  23.816  1.00  0.00     0.263 C 
ATOM     10  H   UNL A   1      31.719  23.913  24.057  1.00  0.00     0.348 HD
ATOM     11  C   UNL A   1      32.974  21.753  23.515  1.00  0.00     0.075 C 
ATOM     12  C   UNL A   1      34.387  23.569  24.690  1.00  0.00     0.075 C 
BRANCH   7  13
ATOM     13  C   UNL A   1      31.686  25.176  22.483  1.00  0.00     0.363 C 
BRANCH  13  14
ATOM     14  C   UNL A   1      32.623  26.180  21.782  1.00  0.00     0.279 C 
ATOM     15  N   UNL A   1      32.916  27.430  22.285  1.00  0.00    -0.321 N 
ATOM     16  H   UNL A   1      33.477  27.986  21.698  1.00  0.00     0.170 HD
ATOM     17  O   UNL A   1      33.217  25.846  20.748  1.00  0.00    -0.268 OA
BRANCH  15  18
ATOM     18  C   UNL A   1      32.547  28.044  23.498  1.00  0.00     0.042 A 
ATOM     19  C   UNL A   1      31.706  31.036  26.486  1.00  0.00     0.046 C 
ATOM     20  C   UNL A   1      31.942  29.880  25.554  1.00  0.00    -0.032 A 
ATOM     21  C   UNL A   1      31.031  29.645  24.514  1.00  0.00     0.007 A 
ATOM     22  C   UNL A   1      33.103  29.091  25.609  1.00  0.00     0.046 A 
ATOM     23  C   UNL A   1      31.316  28.712  23.510  1.00  0.00     0.026 A 
ATOM     24  C   UNL A   1      33.391  28.160  24.600  1.00  0.00     0.047 A 
ATOM     25  Cl  UNL A   1      34.294  29.328  26.838  1.00  0.00    -0.084 Cl
ENDBRANCH  15  18
ENDBRANCH  13  14
ENDBRANCH   7  13
ENDBRANCH   3   6
ENDBRANCH   1   2
BRANCH   1  26
ATOM     26  C   UNL A   1      38.057  19.758  25.000  1.00  0.00     0.042 C 
BRANCH  26  27
ATOM     27  C   UNL A   1      39.290  20.153  25.795  1.00  0.00     0.118 C 
BRANCH  27  28
ATOM     28  N   UNL A   1      40.263  19.071  25.895  1.00  0.00    -0.352 N 
ATOM     29  C   UNL A   1      41.617  19.131  26.111  1.00  0.00     0.251 C 
ATOM     30  H   UNL A   1      39.895  18.165  25.792  1.00  0.00     0.163 HD
ATOM     31  O   UNL A   1      42.309  18.126  25.977  1.00  0.00    -0.269 OA
BRANCH  29  32
ATOM     32  C   UNL A   1      42.243  20.420  26.469  1.00  0.00     0.039 A 
ATOM     33  C   UNL A   1      42.802  21.203  25.457  1.00  0.00     0.014 A 
ATOM     34  C   UNL A   1      42.239  20.874  27.790  1.00  0.00     0.014 A 
ATOM     35  C   UNL A   1      43.268  22.483  25.758  1.00  0.00     0.010 A 
ATOM     36  C   UNL A   1      42.611  22.183  28.070  1.00  0.00     0.010 A 
ATOM     37  C   UNL A   1      43.121  23.005  27.054  1.00  0.00    -0.014 A 
BRANCH  37  38
ATOM     38  C   UNL A   1      43.456  24.419  27.356  1.00  0.00     0.031 A 
ATOM     39  C   UNL A   1      44.885  24.883  27.335  1.00  0.00     0.074 A 
ATOM     40  C   UNL A   1      42.473  25.265  27.724  1.00  0.00     0.049 A 
ATOM     41  N   UNL A   1      45.374  26.058  27.639  1.00  0.00    -0.248 NA
ATOM     42  C   UNL A   1      45.904  23.893  26.945  1.00  0.00     0.031 C 
ATOM     43  C   UNL A   1      41.054  24.917  27.841  1.00  0.00     0.029 A 
ATOM     44  N   UNL A   1      42.516  26.589  28.083  1.00  0.00    -0.354 N 
ATOM     45  C   UNL A   1      46.751  25.946  27.490  1.00  0.00     0.074 A 
ATOM     46  C   UNL A   1      47.026  24.577  27.115  1.00  0.00     0.031 C 
ATOM     47  C   UNL A   1      40.363  26.003  28.221  1.00  0.00     0.029 A 
ATOM     48  C   UNL A   1      41.289  27.110  28.422  1.00  0.00     0.049 A 
ATOM     49  H   UNL A   1      43.347  27.117  28.097  1.00  0.00     0.167 HD
ATOM     50  C   UNL A   1      47.695  26.904  27.635  1.00  0.00     0.037 A 
ATOM     51  C   UNL A   1      40.953  28.337  28.865  1.00  0.00     0.037 A 
ATOM     52  C   UNL A   1      47.413  28.272  27.981  1.00  0.00     0.049 A 
ATOM     53  C   UNL A   1      42.028  29.374  29.029  1.00  0.00     0.074 A 
ATOM     54  C   UNL A   1      48.295  29.335  28.071  1.00  0.00     0.029 A 
ATOM     55  N   UNL A   1      46.158  28.764  28.305  1.00  0.00    -0.354 N 
ATOM     56  N   UNL A   1      43.315  29.277  28.792  1.00  0.00    -0.248 NA
ATOM     57  C   UNL A   1      41.608  30.694  29.522  1.00  0.00     0.031 C 
ATOM     58  C   UNL A   1      47.584  30.457  28.506  1.00  0.00     0.029 A 
ATOM     59  C   UNL A   1      46.249  30.106  28.632  1.00  0.00     0.049 A 
ATOM     60  H   UNL A   1      45.326  28.237  28.302  1.00  0.00     0.167 HD
ATOM     61  C   UNL A   1      43.850  30.525  29.085  1.00  0.00     0.074 A 
ATOM     62  C   UNL A   1      42.747  31.370  29.489  1.00  0.00     0.031 C 
ATOM     63  C   UNL A   1      45.140  30.934  29.031  1.00  0.00     0.037 A 
BRANCH  50  64
ATOM     64  C   UNL A   1      49.128  26.519  27.412  1.00  0.00     0.057 A 
ATOM     65  C   UNL A   1      49.949  26.084  28.460  1.00  0.00     0.134 A 
ATOM     66  C   UNL A   1      49.668  26.501  26.118  1.00  0.00     0.134 A 
ATOM     67  F   UNL A   1      49.497  26.087  29.723  1.00  0.00    -0.206 F 
ATOM     68  C   UNL A   1      51.257  25.654  28.233  1.00  0.00     0.040 A 
ATOM     69  C   UNL A   1      50.964  26.049  25.875  1.00  0.00     0.040 A 
ATOM     70  F   UNL A   1      48.934  26.900  25.069  1.00  0.00    -0.206 F 
ATOM     71  C   UNL A   1      51.764  25.624  26.935  1.00  0.00     0.006 A 
ENDBRANCH  50  64
BRANCH  51  72
ATOM     72  C   UNL A   1      39.540  28.656  29.199  1.00  0.00     0.057 A 
ATOM     73  C   UNL A   1      38.683  29.233  28.254  1.00  0.00     0.134 A 
ATOM     74  C   UNL A   1      39.026  28.435  30.482  1.00  0.00     0.134 A 
ATOM     75  F   UNL A   1      39.121  29.488  27.012  1.00  0.00    -0.206 F 
ATOM     76  C   UNL A   1      37.379  29.610  28.581  1.00  0.00     0.040 A 
ATOM     77  C   UNL A   1      37.714  28.778  30.815  1.00  0.00     0.040 A 
ATOM     78  F   UNL A   1      39.791  27.878  31.433  1.00  0.00    -0.206 F 
ATOM     79  C   UNL A   1      36.891  29.380  29.866  1.00  0.00     0.006 A 
ENDBRANCH  51  72
BRANCH  63  80
ATOM     80  C   UNL A   1      45.424  32.362  29.396  1.00  0.00     0.057 A 
ATOM     81  C   UNL A   1      45.784  32.732  30.698  1.00  0.00     0.134 A 
ATOM     82  C   UNL A   1      45.371  33.372  28.427  1.00  0.00     0.134 A 
ATOM     83  F   UNL A   1      45.839  31.815  31.675  1.00  0.00    -0.206 F 
ATOM     84  C   UNL A   1      46.056  34.061  31.029  1.00  0.00     0.040 A 
ATOM     85  C   UNL A   1      45.672  34.698  28.739  1.00  0.00     0.040 A 
ATOM     86  F   UNL A   1      45.044  33.084  27.158  1.00  0.00    -0.206 F 
ATOM     87  C   UNL A   1      46.008  35.047  30.045  1.00  0.00     0.006 A 
ENDBRANCH  63  80
ENDBRANCH  37  38
ENDBRANCH  29  32
ENDBRANCH  27  28
ENDBRANCH  26  27
ENDBRANCH   1  26
TORSDOF 13
ENDMDL
