MODEL 1
REMARK VINA RESULT:     -12.7      0.000      0.000
REMARK SMILES O=C(NCCCNC(=O)c1cc(Cl)ncc1-c1cccc(C(F)(F)F)c1)c1ccc(-c2c3nc(c(-c4c(F)cccc4F)c4ccc([nH]4)c(-c4c(F)cccc4F)c4nc(c(-c5c(F)cccc5F)c5ccc2[nH]5)C=C4)C=C3)cc1
REMARK SMILES IDX 5 1 4 2 3 3 1 4 2 5 27 7 28 8 80 9 29 10 79 11 30 12 31 13
REMARK SMILES IDX 32 14 73 15 33 16 78 17 72 18 74 19 34 20 77 21 71 22 70 23
REMARK SMILES IDX 35 25 61 26 44 27 60 28 45 29 48 30 59 31 75 32 46 33 47 34
REMARK SMILES IDX 58 36 76 37 49 38 36 39 37 40 42 41 38 42 39 43 41 44 43 45
REMARK SMILES IDX 40 46 62 47 63 48 68 49 64 50 65 51 67 52 69 53 66 54 50 55
REMARK SMILES IDX 51 56 56 57 52 58 53 59 55 60 57 61 54 62 6 63 7 64 8 65
REMARK SMILES IDX 9 67 10 68 11 69 16 70 12 71 15 72 13 73 14 74 17 75 18 76
REMARK SMILES IDX 26 77 19 78 21 79 20 80 22 81 23 82 24 83 25 84
REMARK H PARENT 3 6 74 24 48 35 7 66
REMARK Flexibility Score: inf
ROOT
ATOM      1  C   UNL A   1      32.512  29.938  25.388  1.00  0.00     0.042 C 
ENDROOT
BRANCH   1   2
ATOM      2  C   UNL A   1      31.950  30.407  26.723  1.00  0.00     0.118 C 
BRANCH   2   3
ATOM      3  N   UNL A   1      31.946  31.858  26.867  1.00  0.00    -0.352 N 
ATOM      4  O   UNL A   1      32.551  33.898  27.597  1.00  0.00    -0.269 OA
ATOM      5  C   UNL A   1      32.845  32.713  27.462  1.00  0.00     0.251 C 
ATOM      6  H   UNL A   1      31.163  32.304  26.468  1.00  0.00     0.163 HD
BRANCH   5   7
ATOM      7  C   UNL A   1      34.141  32.216  27.975  1.00  0.00     0.039 A 
ATOM      8  C   UNL A   1      34.306  30.883  28.341  1.00  0.00     0.014 A 
ATOM      9  C   UNL A   1      35.220  33.101  28.079  1.00  0.00     0.014 A 
ATOM     10  C   UNL A   1      35.457  30.488  29.011  1.00  0.00     0.010 A 
ATOM     11  C   UNL A   1      36.426  32.668  28.642  1.00  0.00     0.010 A 
ATOM     12  C   UNL A   1      36.536  31.372  29.167  1.00  0.00    -0.014 A 
BRANCH  12  13
ATOM     13  C   UNL A   1      37.762  30.900  29.864  1.00  0.00     0.031 A 
ATOM     14  C   UNL A   1      38.016  31.231  31.310  1.00  0.00     0.074 A 
ATOM     15  C   UNL A   1      38.626  30.109  29.196  1.00  0.00     0.049 A 
ATOM     16  N   UNL A   1      38.999  30.843  32.085  1.00  0.00    -0.248 NA
ATOM     17  C   UNL A   1      37.050  32.120  31.974  1.00  0.00     0.031 C 
ATOM     18  C   UNL A   1      38.500  29.725  27.787  1.00  0.00     0.029 A 
ATOM     19  N   UNL A   1      39.759  29.459  29.615  1.00  0.00    -0.354 N 
ATOM     20  C   UNL A   1      38.785  31.458  33.313  1.00  0.00     0.074 A 
ATOM     21  C   UNL A   1      37.594  32.268  33.174  1.00  0.00     0.031 C 
ATOM     22  C   UNL A   1      39.473  28.855  27.479  1.00  0.00     0.029 A 
ATOM     23  C   UNL A   1      40.331  28.673  28.644  1.00  0.00     0.049 A 
ATOM     24  H   UNL A   1      40.127  29.548  30.523  1.00  0.00     0.167 HD
ATOM     25  C   UNL A   1      39.509  31.350  34.453  1.00  0.00     0.037 A 
ATOM     26  C   UNL A   1      41.426  27.894  28.682  1.00  0.00     0.037 A 
ATOM     27  C   UNL A   1      40.680  30.523  34.597  1.00  0.00     0.049 A 
ATOM     28  C   UNL A   1      42.213  27.800  29.956  1.00  0.00     0.074 A 
ATOM     29  C   UNL A   1      41.457  30.316  35.725  1.00  0.00     0.029 A 
ATOM     30  N   UNL A   1      41.245  29.767  33.581  1.00  0.00    -0.354 N 
ATOM     31  N   UNL A   1      41.975  28.358  31.118  1.00  0.00    -0.248 NA
ATOM     32  C   UNL A   1      43.422  26.967  29.923  1.00  0.00     0.031 C 
ATOM     33  C   UNL A   1      42.518  29.472  35.378  1.00  0.00     0.029 A 
ATOM     34  C   UNL A   1      42.372  29.110  34.049  1.00  0.00     0.049 A 
ATOM     35  H   UNL A   1      40.897  29.705  32.662  1.00  0.00     0.167 HD
ATOM     36  C   UNL A   1      42.987  27.923  31.961  1.00  0.00     0.074 A 
ATOM     37  C   UNL A   1      43.832  27.042  31.181  1.00  0.00     0.031 C 
ATOM     38  C   UNL A   1      43.199  28.229  33.265  1.00  0.00     0.037 A 
BRANCH  25  39
ATOM     39  C   UNL A   1      39.069  32.165  35.638  1.00  0.00     0.057 A 
ATOM     40  C   UNL A   1      39.435  33.507  35.796  1.00  0.00     0.134 A 
ATOM     41  C   UNL A   1      38.230  31.607  36.612  1.00  0.00     0.134 A 
ATOM     42  F   UNL A   1      40.245  34.101  34.907  1.00  0.00    -0.206 F 
ATOM     43  C   UNL A   1      39.003  34.259  36.892  1.00  0.00     0.040 A 
ATOM     44  C   UNL A   1      37.770  32.355  37.697  1.00  0.00     0.040 A 
ATOM     45  F   UNL A   1      37.834  30.329  36.519  1.00  0.00    -0.206 F 
ATOM     46  C   UNL A   1      38.161  33.684  37.843  1.00  0.00     0.006 A 
ENDBRANCH  25  39
BRANCH  26  47
ATOM     47  C   UNL A   1      41.838  27.136  27.473  1.00  0.00     0.057 A 
ATOM     48  C   UNL A   1      42.627  27.729  26.481  1.00  0.00     0.134 A 
ATOM     49  C   UNL A   1      41.456  25.803  27.283  1.00  0.00     0.134 A 
ATOM     50  F   UNL A   1      43.011  29.009  26.599  1.00  0.00    -0.206 F 
ATOM     51  C   UNL A   1      43.005  27.032  25.334  1.00  0.00     0.040 A 
ATOM     52  C   UNL A   1      41.851  25.083  26.155  1.00  0.00     0.040 A 
ATOM     53  F   UNL A   1      40.707  25.174  28.202  1.00  0.00    -0.206 F 
ATOM     54  C   UNL A   1      42.622  25.701  25.172  1.00  0.00     0.006 A 
ENDBRANCH  26  47
BRANCH  38  55
ATOM     55  C   UNL A   1      44.365  27.566  33.938  1.00  0.00     0.057 A 
ATOM     56  C   UNL A   1      45.632  28.162  33.988  1.00  0.00     0.134 A 
ATOM     57  C   UNL A   1      44.212  26.318  34.555  1.00  0.00     0.134 A 
ATOM     58  F   UNL A   1      45.849  29.350  33.403  1.00  0.00    -0.206 F 
ATOM     59  C   UNL A   1      46.713  27.526  34.601  1.00  0.00     0.040 A 
ATOM     60  C   UNL A   1      45.279  25.685  35.196  1.00  0.00     0.040 A 
ATOM     61  F   UNL A   1      43.024  25.696  34.551  1.00  0.00    -0.206 F 
ATOM     62  C   UNL A   1      46.536  26.286  35.212  1.00  0.00     0.006 A 
ENDBRANCH  38  55
ENDBRANCH  12  13
ENDBRANCH   5   7
ENDBRANCH   2   3
ENDBRANCH   1   2
BRANCH   1  63
ATOM     63  C   UNL A   1      33.296  28.638  25.469  1.00  0.00     0.118 C 
BRANCH  63  64
ATOM     64  N   UNL A   1      32.645  27.636  26.304  1.00  0.00    -0.352 N 
ATOM     65  C   UNL A   1      32.328  26.326  26.044  1.00  0.00     0.252 C 
ATOM     66  H   UNL A   1      32.389  27.951  27.201  1.00  0.00     0.163 HD
ATOM     67  O   UNL A   1      31.718  25.666  26.881  1.00  0.00    -0.269 OA
BRANCH  65  68
ATOM     68  C   UNL A   1      32.743  25.711  24.768  1.00  0.00     0.052 A 
ATOM     69  C   UNL A   1      33.887  24.904  24.787  1.00  0.00     0.055 A 
ATOM     70  C   UNL A   1      31.997  25.873  23.588  1.00  0.00     0.013 A 
ATOM     71  C   UNL A   1      34.317  24.374  23.593  1.00  0.00     0.129 A 
ATOM     72  C   UNL A   1      32.541  25.270  22.452  1.00  0.00     0.122 A 
ATOM     73  Cl  UNL A   1      35.761  23.457  23.509  1.00  0.00    -0.062 Cl
ATOM     74  N   UNL A   1      33.686  24.549  22.420  1.00  0.00    -0.244 NA
BRANCH  70  75
ATOM     75  C   UNL A   1      30.712  26.586  23.488  1.00  0.00    -0.015 A 
ATOM     76  C   UNL A   1      29.539  25.989  23.986  1.00  0.00     0.009 A 
ATOM     77  C   UNL A   1      30.603  27.852  22.890  1.00  0.00     0.021 A 
ATOM     78  C   UNL A   1      28.302  26.626  23.887  1.00  0.00     0.001 A 
ATOM     79  C   UNL A   1      29.362  28.511  22.794  1.00  0.00     0.056 A 
ATOM     80  C   UNL A   1      28.213  27.880  23.293  1.00  0.00     0.013 A 
BRANCH  79  81
ATOM     81  C   UNL A   1      29.248  29.876  22.162  1.00  0.00     0.416 C 
ATOM     82  F   UNL A   1      30.291  30.152  21.330  1.00  0.00    -0.166 F 
ATOM     83  F   UNL A   1      28.122  30.014  21.409  1.00  0.00    -0.166 F 
ATOM     84  F   UNL A   1      29.216  30.894  23.068  1.00  0.00    -0.166 F 
ENDBRANCH  79  81
ENDBRANCH  70  75
ENDBRANCH  65  68
ENDBRANCH  63  64
ENDBRANCH   1  63
TORSDOF 12
ENDMDL
MODEL 2
REMARK VINA RESULT:     -12.4      4.895      9.332
REMARK SMILES O=C(NCCCNC(=O)c1cc(Cl)ncc1-c1cccc(C(F)(F)F)c1)c1ccc(-c2c3nc(c(-c4c(F)cccc4F)c4ccc([nH]4)c(-c4c(F)cccc4F)c4nc(c(-c5c(F)cccc5F)c5ccc2[nH]5)C=C4)C=C3)cc1
REMARK SMILES IDX 5 1 4 2 3 3 1 4 2 5 27 7 28 8 80 9 29 10 79 11 30 12 31 13
REMARK SMILES IDX 32 14 73 15 33 16 78 17 72 18 74 19 34 20 77 21 71 22 70 23
REMARK SMILES IDX 35 25 61 26 44 27 60 28 45 29 48 30 59 31 75 32 46 33 47 34
REMARK SMILES IDX 58 36 76 37 49 38 36 39 37 40 42 41 38 42 39 43 41 44 43 45
REMARK SMILES IDX 40 46 62 47 63 48 68 49 64 50 65 51 67 52 69 53 66 54 50 55
REMARK SMILES IDX 51 56 56 57 52 58 53 59 55 60 57 61 54 62 6 63 7 64 8 65
REMARK SMILES IDX 9 67 10 68 11 69 16 70 12 71 15 72 13 73 14 74 17 75 18 76
REMARK SMILES IDX 26 77 19 78 21 79 20 80 22 81 23 82 24 83 25 84
REMARK H PARENT 3 6 74 24 48 35 7 66
REMARK Flexibility Score: inf
ROOT
ATOM      1  C   UNL A   1      36.988  20.317  25.044  1.00  0.00     0.042 C 
ENDROOT
BRANCH   1   2
ATOM      2  C   UNL A   1      38.382  20.851  25.344  1.00  0.00     0.118 C 
BRANCH   2   3
ATOM      3  N   UNL A   1      39.382  19.799  25.488  1.00  0.00    -0.352 N 
ATOM      4  O   UNL A   1      41.385  18.841  25.844  1.00  0.00    -0.269 OA
ATOM      5  C   UNL A   1      40.673  19.834  25.963  1.00  0.00     0.251 C 
ATOM      6  H   UNL A   1      39.080  18.908  25.195  1.00  0.00     0.163 HD
BRANCH   5   7
ATOM      7  C   UNL A   1      41.224  21.062  26.577  1.00  0.00     0.039 A 
ATOM      8  C   UNL A   1      41.158  21.271  27.952  1.00  0.00     0.014 A 
ATOM      9  C   UNL A   1      41.831  22.022  25.760  1.00  0.00     0.014 A 
ATOM     10  C   UNL A   1      41.490  22.512  28.479  1.00  0.00     0.010 A 
ATOM     11  C   UNL A   1      42.280  23.227  26.313  1.00  0.00     0.010 A 
ATOM     12  C   UNL A   1      42.060  23.507  27.670  1.00  0.00    -0.014 A 
BRANCH  12  13
ATOM     13  C   UNL A   1      42.428  24.813  28.281  1.00  0.00     0.031 A 
ATOM     14  C   UNL A   1      43.859  25.146  28.610  1.00  0.00     0.074 A 
ATOM     15  C   UNL A   1      41.463  25.732  28.481  1.00  0.00     0.049 A 
ATOM     16  N   UNL A   1      44.358  26.262  29.082  1.00  0.00    -0.248 NA
ATOM     17  C   UNL A   1      44.860  24.091  28.393  1.00  0.00     0.031 C 
ATOM     18  C   UNL A   1      40.036  25.528  28.214  1.00  0.00     0.029 A 
ATOM     19  N   UNL A   1      41.533  27.029  28.922  1.00  0.00    -0.354 N 
ATOM     20  C   UNL A   1      45.720  26.035  29.242  1.00  0.00     0.074 A 
ATOM     21  C   UNL A   1      45.967  24.666  28.843  1.00  0.00     0.031 C 
ATOM     22  C   UNL A   1      39.379  26.676  28.431  1.00  0.00     0.029 A 
ATOM     23  C   UNL A   1      40.321  27.676  28.916  1.00  0.00     0.049 A 
ATOM     24  H   UNL A   1      42.371  27.454  29.215  1.00  0.00     0.167 HD
ATOM     25  C   UNL A   1      46.677  26.892  29.673  1.00  0.00     0.037 A 
ATOM     26  C   UNL A   1      40.000  28.935  29.266  1.00  0.00     0.037 A 
ATOM     27  C   UNL A   1      46.434  28.263  30.045  1.00  0.00     0.049 A 
ATOM     28  C   UNL A   1      41.080  29.858  29.746  1.00  0.00     0.074 A 
ATOM     29  C   UNL A   1      47.347  29.220  30.454  1.00  0.00     0.029 A 
ATOM     30  N   UNL A   1      45.187  28.871  30.055  1.00  0.00    -0.354 N 
ATOM     31  N   UNL A   1      42.368  29.639  29.855  1.00  0.00    -0.248 NA
ATOM     32  C   UNL A   1      40.660  31.206  30.154  1.00  0.00     0.031 C 
ATOM     33  C   UNL A   1      46.646  30.393  30.757  1.00  0.00     0.029 A 
ATOM     34  C   UNL A   1      45.304  30.184  30.485  1.00  0.00     0.049 A 
ATOM     35  H   UNL A   1      44.344  28.435  29.796  1.00  0.00     0.167 HD
ATOM     36  C   UNL A   1      42.916  30.827  30.317  1.00  0.00     0.074 A 
ATOM     37  C   UNL A   1      41.822  31.768  30.451  1.00  0.00     0.031 C 
ATOM     38  C   UNL A   1      44.209  31.112  30.605  1.00  0.00     0.037 A 
BRANCH  25  39
ATOM     39  C   UNL A   1      48.081  26.367  29.787  1.00  0.00     0.057 A 
ATOM     40  C   UNL A   1      48.561  25.771  30.960  1.00  0.00     0.134 A 
ATOM     41  C   UNL A   1      48.952  26.420  28.690  1.00  0.00     0.134 A 
ATOM     42  F   UNL A   1      47.785  25.696  32.052  1.00  0.00    -0.206 F 
ATOM     43  C   UNL A   1      49.862  25.269  31.047  1.00  0.00     0.040 A 
ATOM     44  C   UNL A   1      50.245  25.899  28.756  1.00  0.00     0.040 A 
ATOM     45  F   UNL A   1      48.555  26.970  27.533  1.00  0.00    -0.206 F 
ATOM     46  C   UNL A   1      50.706  25.326  29.939  1.00  0.00     0.006 A 
ENDBRANCH  25  39
BRANCH  26  47
ATOM     47  C   UNL A   1      38.591  29.393  29.167  1.00  0.00     0.057 A 
ATOM     48  C   UNL A   1      38.043  29.787  27.941  1.00  0.00     0.134 A 
ATOM     49  C   UNL A   1      37.760  29.446  30.293  1.00  0.00     0.134 A 
ATOM     50  F   UNL A   1      38.794  29.774  26.830  1.00  0.00    -0.206 F 
ATOM     51  C   UNL A   1      36.725  30.235  27.841  1.00  0.00     0.040 A 
ATOM     52  C   UNL A   1      36.432  29.864  30.202  1.00  0.00     0.040 A 
ATOM     53  F   UNL A   1      38.224  29.073  31.495  1.00  0.00    -0.206 F 
ATOM     54  C   UNL A   1      35.914  30.268  28.974  1.00  0.00     0.006 A 
ENDBRANCH  26  47
BRANCH  38  55
ATOM     55  C   UNL A   1      44.514  32.512  31.050  1.00  0.00     0.057 A 
ATOM     56  C   UNL A   1      44.525  32.878  32.402  1.00  0.00     0.134 A 
ATOM     57  C   UNL A   1      44.814  33.506  30.109  1.00  0.00     0.134 A 
ATOM     58  F   UNL A   1      44.231  31.977  33.353  1.00  0.00    -0.206 F 
ATOM     59  C   UNL A   1      44.792  34.188  32.802  1.00  0.00     0.040 A 
ATOM     60  C   UNL A   1      45.110  34.813  30.498  1.00  0.00     0.040 A 
ATOM     61  F   UNL A   1      44.830  33.222  28.799  1.00  0.00    -0.206 F 
ATOM     62  C   UNL A   1      45.091  35.159  31.848  1.00  0.00     0.006 A 
ENDBRANCH  38  55
ENDBRANCH  12  13
ENDBRANCH   5   7
ENDBRANCH   2   3
ENDBRANCH   1   2
BRANCH   1  63
ATOM     63  C   UNL A   1      35.886  21.355  25.177  1.00  0.00     0.118 C 
BRANCH  63  64
ATOM     64  N   UNL A   1      35.626  22.067  23.932  1.00  0.00    -0.352 N 
ATOM     65  C   UNL A   1      34.499  22.715  23.491  1.00  0.00     0.252 C 
ATOM     66  H   UNL A   1      36.383  22.084  23.302  1.00  0.00     0.163 HD
ATOM     67  O   UNL A   1      34.475  23.206  22.367  1.00  0.00    -0.269 OA
BRANCH  65  68
ATOM     68  C   UNL A   1      33.329  22.838  24.383  1.00  0.00     0.052 A 
ATOM     69  C   UNL A   1      33.075  24.097  24.938  1.00  0.00     0.055 A 
ATOM     70  C   UNL A   1      32.464  21.757  24.627  1.00  0.00     0.013 A 
ATOM     71  C   UNL A   1      32.022  24.210  25.817  1.00  0.00     0.129 A 
ATOM     72  C   UNL A   1      31.429  22.013  25.529  1.00  0.00     0.122 A 
ATOM     73  Cl  UNL A   1      31.701  25.690  26.617  1.00  0.00    -0.062 Cl
ATOM     74  N   UNL A   1      31.202  23.198  26.144  1.00  0.00    -0.244 NA
BRANCH  70  75
ATOM     75  C   UNL A   1      32.562  20.432  23.991  1.00  0.00    -0.015 A 
ATOM     76  C   UNL A   1      32.133  20.260  22.661  1.00  0.00     0.009 A 
ATOM     77  C   UNL A   1      33.057  19.309  24.673  1.00  0.00     0.021 A 
ATOM     78  C   UNL A   1      32.191  19.014  22.036  1.00  0.00     0.001 A 
ATOM     79  C   UNL A   1      33.131  18.048  24.050  1.00  0.00     0.056 A 
ATOM     80  C   UNL A   1      32.685  17.913  22.726  1.00  0.00     0.013 A 
BRANCH  79  81
ATOM     81  C   UNL A   1      33.674  16.845  24.779  1.00  0.00     0.416 C 
ATOM     82  F   UNL A   1      35.036  16.812  24.782  1.00  0.00    -0.166 F 
ATOM     83  F   UNL A   1      33.296  16.807  26.086  1.00  0.00    -0.166 F 
ATOM     84  F   UNL A   1      33.275  15.657  24.242  1.00  0.00    -0.166 F 
ENDBRANCH  79  81
ENDBRANCH  70  75
ENDBRANCH  65  68
ENDBRANCH  63  64
ENDBRANCH   1  63
TORSDOF 12
ENDMDL
MODEL 3
REMARK VINA RESULT:     -12.4      4.576      8.865
REMARK SMILES O=C(NCCCNC(=O)c1cc(Cl)ncc1-c1cccc(C(F)(F)F)c1)c1ccc(-c2c3nc(c(-c4c(F)cccc4F)c4ccc([nH]4)c(-c4c(F)cccc4F)c4nc(c(-c5c(F)cccc5F)c5ccc2[nH]5)C=C4)C=C3)cc1
REMARK SMILES IDX 5 1 4 2 3 3 1 4 2 5 27 7 28 8 80 9 29 10 79 11 30 12 31 13
REMARK SMILES IDX 32 14 73 15 33 16 78 17 72 18 74 19 34 20 77 21 71 22 70 23
REMARK SMILES IDX 35 25 61 26 44 27 60 28 45 29 48 30 59 31 75 32 46 33 47 34
REMARK SMILES IDX 58 36 76 37 49 38 36 39 37 40 42 41 38 42 39 43 41 44 43 45
REMARK SMILES IDX 40 46 62 47 63 48 68 49 64 50 65 51 67 52 69 53 66 54 50 55
REMARK SMILES IDX 51 56 56 57 52 58 53 59 55 60 57 61 54 62 6 63 7 64 8 65
REMARK SMILES IDX 9 67 10 68 11 69 16 70 12 71 15 72 13 73 14 74 17 75 18 76
REMARK SMILES IDX 26 77 19 78 21 79 20 80 22 81 23 82 24 83 25 84
REMARK H PARENT 3 6 74 24 48 35 7 66
REMARK Flexibility Score: inf
ROOT
ATOM      1  C   UNL A   1      37.574  19.948  24.991  1.00  0.00     0.042 C 
ENDROOT
BRANCH   1   2
ATOM      2  C   UNL A   1      38.795  20.438  25.758  1.00  0.00     0.118 C 
BRANCH   2   3
ATOM      3  N   UNL A   1      39.886  19.470  25.781  1.00  0.00    -0.352 N 
ATOM      4  O   UNL A   1      41.987  18.677  25.887  1.00  0.00    -0.269 OA
ATOM      5  C   UNL A   1      41.219  19.613  26.088  1.00  0.00     0.251 C 
ATOM      6  H   UNL A   1      39.621  18.553  25.534  1.00  0.00     0.163 HD
BRANCH   5   7
ATOM      7  C   UNL A   1      41.743  20.890  26.620  1.00  0.00     0.039 A 
ATOM      8  C   UNL A   1      41.804  21.128  27.991  1.00  0.00     0.014 A 
ATOM      9  C   UNL A   1      42.196  21.868  25.728  1.00  0.00     0.014 A 
ATOM     10  C   UNL A   1      42.101  22.402  28.459  1.00  0.00     0.010 A 
ATOM     11  C   UNL A   1      42.614  23.114  26.210  1.00  0.00     0.010 A 
ATOM     12  C   UNL A   1      42.515  23.412  27.577  1.00  0.00    -0.014 A 
BRANCH  12  13
ATOM     13  C   UNL A   1      42.852  24.754  28.123  1.00  0.00     0.031 A 
ATOM     14  C   UNL A   1      44.283  25.180  28.323  1.00  0.00     0.074 A 
ATOM     15  C   UNL A   1      41.853  25.621  28.381  1.00  0.00     0.049 A 
ATOM     16  N   UNL A   1      44.750  26.336  28.724  1.00  0.00    -0.248 NA
ATOM     17  C   UNL A   1      45.325  24.180  28.047  1.00  0.00     0.031 C 
ATOM     18  C   UNL A   1      40.424  25.325  28.241  1.00  0.00     0.029 A 
ATOM     19  N   UNL A   1      41.880  26.932  28.784  1.00  0.00    -0.354 N 
ATOM     20  C   UNL A   1      46.132  26.195  28.774  1.00  0.00     0.074 A 
ATOM     21  C   UNL A   1      46.428  24.832  28.389  1.00  0.00     0.031 C 
ATOM     22  C   UNL A   1      39.718  26.439  28.484  1.00  0.00     0.029 A 
ATOM     23  C   UNL A   1      40.635  27.507  28.864  1.00  0.00     0.049 A 
ATOM     24  H   UNL A   1      42.712  27.414  28.994  1.00  0.00     0.167 HD
ATOM     25  C   UNL A   1      47.068  27.118  29.102  1.00  0.00     0.037 A 
ATOM     26  C   UNL A   1      40.267  28.754  29.209  1.00  0.00     0.037 A 
ATOM     27  C   UNL A   1      46.773  28.483  29.460  1.00  0.00     0.049 A 
ATOM     28  C   UNL A   1      41.325  29.753  29.575  1.00  0.00     0.074 A 
ATOM     29  C   UNL A   1      47.657  29.504  29.768  1.00  0.00     0.029 A 
ATOM     30  N   UNL A   1      45.497  29.017  29.560  1.00  0.00    -0.354 N 
ATOM     31  N   UNL A   1      42.629  29.613  29.580  1.00  0.00    -0.248 NA
ATOM     32  C   UNL A   1      40.860  31.085  29.984  1.00  0.00     0.031 C 
ATOM     33  C   UNL A   1      46.913  30.642  30.100  1.00  0.00     0.029 A 
ATOM     34  C   UNL A   1      45.569  30.346  29.947  1.00  0.00     0.049 A 
ATOM     35  H   UNL A   1      44.663  28.525  29.384  1.00  0.00     0.167 HD
ATOM     36  C   UNL A   1      43.140  30.844  29.965  1.00  0.00     0.074 A 
ATOM     37  C   UNL A   1      42.006  31.722  30.169  1.00  0.00     0.031 C 
ATOM     38  C   UNL A   1      44.433  31.212  30.137  1.00  0.00     0.037 A 
BRANCH  25  39
ATOM     39  C   UNL A   1      48.506  26.680  29.110  1.00  0.00     0.057 A 
ATOM     40  C   UNL A   1      49.316  26.759  27.971  1.00  0.00     0.134 A 
ATOM     41  C   UNL A   1      49.099  26.213  30.291  1.00  0.00     0.134 A 
ATOM     42  F   UNL A   1      48.809  27.186  26.805  1.00  0.00    -0.206 F 
ATOM     43  C   UNL A   1      50.657  26.366  27.998  1.00  0.00     0.040 A 
ATOM     44  C   UNL A   1      50.445  25.842  30.337  1.00  0.00     0.040 A 
ATOM     45  F   UNL A   1      48.384  26.119  31.422  1.00  0.00    -0.206 F 
ATOM     46  C   UNL A   1      51.226  25.913  29.187  1.00  0.00     0.006 A 
ENDBRANCH  25  39
BRANCH  26  47
ATOM     47  C   UNL A   1      38.830  29.126  29.218  1.00  0.00     0.057 A 
ATOM     48  C   UNL A   1      38.066  29.034  30.387  1.00  0.00     0.134 A 
ATOM     49  C   UNL A   1      38.188  29.584  28.062  1.00  0.00     0.134 A 
ATOM     50  F   UNL A   1      38.622  28.587  31.523  1.00  0.00    -0.206 F 
ATOM     51  C   UNL A   1      36.712  29.366  30.403  1.00  0.00     0.040 A 
ATOM     52  C   UNL A   1      36.841  29.948  28.069  1.00  0.00     0.040 A 
ATOM     53  F   UNL A   1      38.867  29.703  26.911  1.00  0.00    -0.206 F 
ATOM     54  C   UNL A   1      36.097  29.831  29.241  1.00  0.00     0.006 A 
ENDBRANCH  26  47
BRANCH  38  55
ATOM     55  C   UNL A   1      44.688  32.640  30.520  1.00  0.00     0.057 A 
ATOM     56  C   UNL A   1      44.836  33.652  29.563  1.00  0.00     0.134 A 
ATOM     57  C   UNL A   1      44.775  33.008  31.869  1.00  0.00     0.134 A 
ATOM     58  F   UNL A   1      44.777  33.364  28.253  1.00  0.00    -0.206 F 
ATOM     59  C   UNL A   1      45.091  34.974  29.932  1.00  0.00     0.040 A 
ATOM     60  C   UNL A   1      45.002  34.331  32.251  1.00  0.00     0.040 A 
ATOM     61  F   UNL A   1      44.636  32.090  32.836  1.00  0.00    -0.206 F 
ATOM     62  C   UNL A   1      45.169  35.317  31.281  1.00  0.00     0.006 A 
ENDBRANCH  38  55
ENDBRANCH  12  13
ENDBRANCH   5   7
ENDBRANCH   2   3
ENDBRANCH   1   2
BRANCH   1  63
ATOM     63  C   UNL A   1      36.479  20.992  24.840  1.00  0.00     0.118 C 
BRANCH  63  64
ATOM     64  N   UNL A   1      35.588  21.048  25.992  1.00  0.00    -0.352 N 
ATOM     65  C   UNL A   1      34.217  21.091  26.060  1.00  0.00     0.252 C 
ATOM     66  H   UNL A   1      36.044  21.059  26.864  1.00  0.00     0.163 HD
ATOM     67  O   UNL A   1      33.662  21.196  27.150  1.00  0.00    -0.269 OA
BRANCH  65  68
ATOM     68  C   UNL A   1      33.418  20.986  24.823  1.00  0.00     0.052 A 
ATOM     69  C   UNL A   1      33.140  19.700  24.346  1.00  0.00     0.055 A 
ATOM     70  C   UNL A   1      32.904  22.121  24.174  1.00  0.00     0.013 A 
ATOM     71  C   UNL A   1      32.447  19.591  23.163  1.00  0.00     0.129 A 
ATOM     72  C   UNL A   1      32.208  21.866  22.990  1.00  0.00     0.122 A 
ATOM     73  Cl  UNL A   1      32.149  18.060  22.458  1.00  0.00    -0.062 Cl
ATOM     74  N   UNL A   1      31.988  20.640  22.459  1.00  0.00    -0.244 NA
BRANCH  70  75
ATOM     75  C   UNL A   1      33.022  23.506  24.662  1.00  0.00    -0.015 A 
ATOM     76  C   UNL A   1      34.290  24.107  24.761  1.00  0.00     0.009 A 
ATOM     77  C   UNL A   1      31.904  24.258  25.057  1.00  0.00     0.021 A 
ATOM     78  C   UNL A   1      34.441  25.409  25.241  1.00  0.00     0.001 A 
ATOM     79  C   UNL A   1      32.041  25.577  25.532  1.00  0.00     0.056 A 
ATOM     80  C   UNL A   1      33.323  26.140  25.626  1.00  0.00     0.013 A 
BRANCH  79  81
ATOM     81  C   UNL A   1      30.839  26.389  25.944  1.00  0.00     0.416 C 
ATOM     82  F   UNL A   1      31.098  27.193  27.013  1.00  0.00    -0.166 F 
ATOM     83  F   UNL A   1      30.398  27.214  24.955  1.00  0.00    -0.166 F 
ATOM     84  F   UNL A   1      29.765  25.630  26.302  1.00  0.00    -0.166 F 
ENDBRANCH  79  81
ENDBRANCH  70  75
ENDBRANCH  65  68
ENDBRANCH  63  64
ENDBRANCH   1  63
TORSDOF 12
ENDMDL
