MODEL 1
REMARK VINA RESULT:     -10.2      0.000      0.000
REMARK SMILES COc1cccc2cc(/C=C/c3cc(C(=O)NCCCNC(=O)c4ccc(-c5c6nc(c(-c7c(F)cccc7F)c7ccc([nH]7)c(-c7c(F)cccc7F)c7nc(c(-c8c(F)cccc8F)c8ccc5[nH]8)C=C7)C=C6)cc4)ncn3)oc12
REMARK SMILES IDX 18 1 17 2 15 3 16 4 14 6 12 7 13 8 80 9 79 10 78 11 11 12
REMARK SMILES IDX 10 13 9 14 3 15 4 16 82 17 5 18 7 19 81 20 6 21 8 22 2 23
REMARK SMILES IDX 1 24 19 25 20 26 21 27 22 28 23 30 24 31 25 32 77 33 26 34
REMARK SMILES IDX 76 35 27 36 28 37 29 38 70 39 30 40 75 41 69 42 71 43 31 44
REMARK SMILES IDX 74 45 68 46 67 47 32 49 58 50 41 51 57 52 42 53 45 54 56 55
REMARK SMILES IDX 72 56 43 57 44 58 55 60 73 61 46 62 33 63 34 64 39 65 35 66
REMARK SMILES IDX 36 67 38 68 40 69 37 70 59 71 60 72 65 73 61 74 62 75 64 76
REMARK SMILES IDX 66 77 63 78 47 79 48 80 53 81 49 82 50 83 52 84 54 85 51 86
REMARK H PARENT 17 5 21 29 71 48 45 59
REMARK Flexibility Score: inf
ROOT
ATOM      1  C   UNL A   1      35.059  32.418  31.093  1.00  0.00     0.118 C 
ENDROOT
BRANCH   1   2
ATOM      2  N   UNL A   1      34.710  32.896  32.420  1.00  0.00    -0.351 N 
ATOM      3  C   UNL A   1      35.452  33.112  33.563  1.00  0.00     0.270 C 
ATOM      4  O   UNL A   1      34.848  33.566  34.536  1.00  0.00    -0.268 OA
ATOM      5  H   UNL A   1      33.754  33.109  32.525  1.00  0.00     0.163 HD
BRANCH   3   6
ATOM      6  C   UNL A   1      36.929  32.854  33.650  1.00  0.00     0.132 A 
ATOM      7  C   UNL A   1      38.824  31.499  33.837  1.00  0.00     0.067 A 
ATOM      8  C   UNL A   1      37.455  31.619  33.932  1.00  0.00     0.062 A 
ATOM      9  N   UNL A   1      39.638  32.547  33.640  1.00  0.00    -0.237 NA
ATOM     10  C   UNL A   1      39.032  33.728  33.459  1.00  0.00     0.223 A 
ATOM     11  N   UNL A   1      37.711  33.935  33.427  1.00  0.00    -0.231 NA
BRANCH   7  12
ATOM     12  C   UNL A   1      39.466  30.187  33.941  1.00  0.00     0.032 C 
ATOM     13  C   UNL A   1      40.802  30.072  34.017  1.00  0.00     0.049 C 
BRANCH  13  14
ATOM     14  C   UNL A   1      41.482  28.825  34.057  1.00  0.00     0.128 A 
ATOM     15  C   UNL A   1      41.720  25.482  35.337  1.00  0.00     0.162 A 
ATOM     16  C   UNL A   1      42.753  24.562  35.102  1.00  0.00     0.050 A 
ATOM     17  C   UNL A   1      41.859  26.725  34.706  1.00  0.00     0.176 A 
ATOM     18  C   UNL A   1      43.853  24.889  34.300  1.00  0.00     0.005 A 
ATOM     19  C   UNL A   1      42.930  27.079  33.902  1.00  0.00     0.025 A 
ATOM     20  O   UNL A   1      40.991  27.772  34.798  1.00  0.00    -0.453 OA
ATOM     21  C   UNL A   1      43.957  26.146  33.692  1.00  0.00     0.012 A 
ATOM     22  C   UNL A   1      42.674  28.409  33.480  1.00  0.00     0.059 A 
BRANCH  15  23
ATOM     23  O   UNL A   1      40.600  25.232  36.080  1.00  0.00    -0.493 OA
ATOM     24  C   UNL A   1      40.726  25.469  37.478  1.00  0.00     0.278 C 
ENDBRANCH  15  23
ENDBRANCH  13  14
ENDBRANCH   7  12
ENDBRANCH   3   6
ENDBRANCH   1   2
BRANCH   1  25
ATOM     25  C   UNL A   1      34.623  33.417  30.019  1.00  0.00     0.042 C 
BRANCH  25  26
ATOM     26  C   UNL A   1      34.958  32.957  28.603  1.00  0.00     0.118 C 
BRANCH  26  27
ATOM     27  N   UNL A   1      34.155  31.809  28.203  1.00  0.00    -0.352 N 
ATOM     28  C   UNL A   1      34.538  30.525  27.910  1.00  0.00     0.251 C 
ATOM     29  H   UNL A   1      33.189  31.982  28.131  1.00  0.00     0.163 HD
ATOM     30  O   UNL A   1      33.738  29.760  27.382  1.00  0.00    -0.269 OA
BRANCH  28  31
ATOM     31  C   UNL A   1      35.907  30.058  28.219  1.00  0.00     0.039 A 
ATOM     32  C   UNL A   1      36.887  30.147  27.226  1.00  0.00     0.014 A 
ATOM     33  C   UNL A   1      36.218  29.493  29.459  1.00  0.00     0.014 A 
ATOM     34  C   UNL A   1      38.189  29.718  27.493  1.00  0.00     0.010 A 
ATOM     35  C   UNL A   1      37.532  29.132  29.748  1.00  0.00     0.010 A 
ATOM     36  C   UNL A   1      38.528  29.235  28.767  1.00  0.00    -0.014 A 
BRANCH  36  37
ATOM     37  C   UNL A   1      39.920  28.833  29.092  1.00  0.00     0.031 A 
ATOM     38  C   UNL A   1      40.840  29.792  29.797  1.00  0.00     0.074 A 
ATOM     39  C   UNL A   1      40.375  27.631  28.690  1.00  0.00     0.049 A 
ATOM     40  N   UNL A   1      42.107  29.655  30.093  1.00  0.00    -0.248 NA
ATOM     41  C   UNL A   1      40.265  31.086  30.199  1.00  0.00     0.031 C 
ATOM     42  C   UNL A   1      39.594  26.630  27.960  1.00  0.00     0.029 A 
ATOM     43  N   UNL A   1      41.610  27.049  28.828  1.00  0.00    -0.354 N 
ATOM     44  C   UNL A   1      42.485  30.848  30.697  1.00  0.00     0.074 A 
ATOM     45  C   UNL A   1      41.327  31.713  30.683  1.00  0.00     0.031 C 
ATOM     46  C   UNL A   1      40.361  25.554  27.730  1.00  0.00     0.029 A 
ATOM     47  C   UNL A   1      41.698  25.801  28.261  1.00  0.00     0.049 A 
ATOM     48  H   UNL A   1      42.363  27.486  29.288  1.00  0.00     0.167 HD
ATOM     49  C   UNL A   1      43.682  31.181  31.235  1.00  0.00     0.037 A 
ATOM     50  C   UNL A   1      42.741  24.955  28.169  1.00  0.00     0.037 A 
ATOM     51  C   UNL A   1      44.825  30.305  31.270  1.00  0.00     0.049 A 
ATOM     52  C   UNL A   1      44.061  25.351  28.770  1.00  0.00     0.074 A 
ATOM     53  C   UNL A   1      46.064  30.527  31.845  1.00  0.00     0.029 A 
ATOM     54  N   UNL A   1      44.867  29.039  30.705  1.00  0.00    -0.354 N 
ATOM     55  N   UNL A   1      44.386  26.456  29.397  1.00  0.00    -0.248 NA
ATOM     56  C   UNL A   1      45.160  24.381  28.656  1.00  0.00     0.031 C 
ATOM     57  C   UNL A   1      46.869  29.413  31.591  1.00  0.00     0.029 A 
ATOM     58  C   UNL A   1      46.116  28.477  30.900  1.00  0.00     0.049 A 
ATOM     59  H   UNL A   1      44.118  28.606  30.235  1.00  0.00     0.167 HD
ATOM     60  C   UNL A   1      45.712  26.302  29.779  1.00  0.00     0.074 A 
ATOM     61  C   UNL A   1      46.129  24.993  29.321  1.00  0.00     0.031 C 
ATOM     62  C   UNL A   1      46.511  27.166  30.450  1.00  0.00     0.037 A 
BRANCH  49  63
ATOM     63  C   UNL A   1      43.818  32.552  31.832  1.00  0.00     0.057 A 
ATOM     64  C   UNL A   1      43.690  32.774  33.209  1.00  0.00     0.134 A 
ATOM     65  C   UNL A   1      44.117  33.659  31.026  1.00  0.00     0.134 A 
ATOM     66  F   UNL A   1      43.393  31.761  34.037  1.00  0.00    -0.206 F 
ATOM     67  C   UNL A   1      43.828  34.049  33.761  1.00  0.00     0.040 A 
ATOM     68  C   UNL A   1      44.285  34.934  31.568  1.00  0.00     0.040 A 
ATOM     69  F   UNL A   1      44.262  33.517  29.699  1.00  0.00    -0.206 F 
ATOM     70  C   UNL A   1      44.133  35.133  32.939  1.00  0.00     0.006 A 
ENDBRANCH  49  63
BRANCH  50  71
ATOM     71  C   UNL A   1      42.574  23.640  27.501  1.00  0.00     0.057 A 
ATOM     72  C   UNL A   1      42.737  23.508  26.118  1.00  0.00     0.134 A 
ATOM     73  C   UNL A   1      42.245  22.488  28.224  1.00  0.00     0.134 A 
ATOM     74  F   UNL A   1      43.037  24.580  25.369  1.00  0.00    -0.206 F 
ATOM     75  C   UNL A   1      42.562  22.283  25.474  1.00  0.00     0.040 A 
ATOM     76  C   UNL A   1      42.090  21.250  27.597  1.00  0.00     0.040 A 
ATOM     77  F   UNL A   1      42.084  22.545  29.554  1.00  0.00    -0.206 F 
ATOM     78  C   UNL A   1      42.242  21.148  26.215  1.00  0.00     0.006 A 
ENDBRANCH  50  71
BRANCH  62  79
ATOM     79  C   UNL A   1      47.905  26.711  30.767  1.00  0.00     0.057 A 
ATOM     80  C   UNL A   1      48.197  25.962  31.913  1.00  0.00     0.134 A 
ATOM     81  C   UNL A   1      48.959  26.984  29.884  1.00  0.00     0.134 A 
ATOM     82  F   UNL A   1      47.235  25.680  32.804  1.00  0.00    -0.206 F 
ATOM     83  C   UNL A   1      49.492  25.516  32.180  1.00  0.00     0.040 A 
ATOM     84  C   UNL A   1      50.252  26.521  30.127  1.00  0.00     0.040 A 
ATOM     85  F   UNL A   1      48.742  27.690  28.764  1.00  0.00    -0.206 F 
ATOM     86  C   UNL A   1      50.523  25.789  31.281  1.00  0.00     0.006 A 
ENDBRANCH  62  79
ENDBRANCH  36  37
ENDBRANCH  28  31
ENDBRANCH  26  27
ENDBRANCH  25  26
ENDBRANCH   1  25
TORSDOF 13
ENDMDL
MODEL 2
REMARK VINA RESULT:      -9.8      4.511     10.012
REMARK SMILES COc1cccc2cc(/C=C/c3cc(C(=O)NCCCNC(=O)c4ccc(-c5c6nc(c(-c7c(F)cccc7F)c7ccc([nH]7)c(-c7c(F)cccc7F)c7nc(c(-c8c(F)cccc8F)c8ccc5[nH]8)C=C7)C=C6)cc4)ncn3)oc12
REMARK SMILES IDX 18 1 17 2 15 3 16 4 14 6 12 7 13 8 80 9 79 10 78 11 11 12
REMARK SMILES IDX 10 13 9 14 3 15 4 16 82 17 5 18 7 19 81 20 6 21 8 22 2 23
REMARK SMILES IDX 1 24 19 25 20 26 21 27 22 28 23 30 24 31 25 32 77 33 26 34
REMARK SMILES IDX 76 35 27 36 28 37 29 38 70 39 30 40 75 41 69 42 71 43 31 44
REMARK SMILES IDX 74 45 68 46 67 47 32 49 58 50 41 51 57 52 42 53 45 54 56 55
REMARK SMILES IDX 72 56 43 57 44 58 55 60 73 61 46 62 33 63 34 64 39 65 35 66
REMARK SMILES IDX 36 67 38 68 40 69 37 70 59 71 60 72 65 73 61 74 62 75 64 76
REMARK SMILES IDX 66 77 63 78 47 79 48 80 53 81 49 82 50 83 52 84 54 85 51 86
REMARK H PARENT 17 5 21 29 71 48 45 59
REMARK Flexibility Score: inf
ROOT
ATOM      1  C   UNL A   1      31.097  30.704  25.451  1.00  0.00     0.118 C 
ENDROOT
BRANCH   1   2
ATOM      2  N   UNL A   1      30.297  30.896  24.253  1.00  0.00    -0.351 N 
ATOM      3  C   UNL A   1      29.727  30.016  23.356  1.00  0.00     0.270 C 
ATOM      4  O   UNL A   1      29.064  30.511  22.443  1.00  0.00    -0.268 OA
ATOM      5  H   UNL A   1      30.127  31.842  24.039  1.00  0.00     0.163 HD
BRANCH   3   6
ATOM      6  C   UNL A   1      29.852  28.524  23.470  1.00  0.00     0.132 A 
ATOM      7  C   UNL A   1      31.035  26.519  23.672  1.00  0.00     0.067 A 
ATOM      8  C   UNL A   1      31.057  27.870  23.408  1.00  0.00     0.062 A 
ATOM      9  N   UNL A   1      29.900  25.821  23.826  1.00  0.00    -0.237 NA
ATOM     10  C   UNL A   1      28.768  26.537  23.785  1.00  0.00     0.223 A 
ATOM     11  N   UNL A   1      28.684  27.864  23.641  1.00  0.00    -0.231 NA
BRANCH   7  12
ATOM     12  C   UNL A   1      32.284  25.766  23.810  1.00  0.00     0.032 C 
ATOM     13  C   UNL A   1      32.313  24.434  23.644  1.00  0.00     0.049 C 
BRANCH  13  14
ATOM     14  C   UNL A   1      33.482  23.645  23.825  1.00  0.00     0.128 A 
ATOM     15  C   UNL A   1      35.001  20.594  24.944  1.00  0.00     0.162 A 
ATOM     16  C   UNL A   1      36.373  20.303  24.988  1.00  0.00     0.050 A 
ATOM     17  C   UNL A   1      34.665  21.861  24.450  1.00  0.00     0.176 A 
ATOM     18  C   UNL A   1      37.331  21.238  24.576  1.00  0.00     0.005 A 
ATOM     19  C   UNL A   1      35.586  22.806  24.028  1.00  0.00     0.025 A 
ATOM     20  O   UNL A   1      33.404  22.364  24.327  1.00  0.00    -0.453 OA
ATOM     21  C   UNL A   1      36.953  22.496  24.092  1.00  0.00     0.012 A 
ATOM     22  C   UNL A   1      34.825  23.930  23.617  1.00  0.00     0.059 A 
BRANCH  15  23
ATOM     23  O   UNL A   1      34.003  19.729  25.299  1.00  0.00    -0.493 OA
ATOM     24  C   UNL A   1      33.619  18.794  24.297  1.00  0.00     0.278 C 
ENDBRANCH  15  23
ENDBRANCH  13  14
ENDBRANCH   7  12
ENDBRANCH   3   6
ENDBRANCH   1   2
BRANCH   1  25
ATOM     25  C   UNL A   1      31.023  31.932  26.361  1.00  0.00     0.042 C 
BRANCH  25  26
ATOM     26  C   UNL A   1      32.391  32.395  26.853  1.00  0.00     0.118 C 
BRANCH  26  27
ATOM     27  N   UNL A   1      32.363  33.778  27.308  1.00  0.00    -0.352 N 
ATOM     28  C   UNL A   1      33.099  34.400  28.284  1.00  0.00     0.251 C 
ATOM     29  H   UNL A   1      31.715  34.355  26.843  1.00  0.00     0.163 HD
ATOM     30  O   UNL A   1      32.775  35.519  28.667  1.00  0.00    -0.269 OA
BRANCH  28  31
ATOM     31  C   UNL A   1      34.275  33.730  28.884  1.00  0.00     0.039 A 
ATOM     32  C   UNL A   1      35.546  34.260  28.642  1.00  0.00     0.014 A 
ATOM     33  C   UNL A   1      34.136  32.563  29.641  1.00  0.00     0.014 A 
ATOM     34  C   UNL A   1      36.671  33.650  29.201  1.00  0.00     0.010 A 
ATOM     35  C   UNL A   1      35.251  31.998  30.255  1.00  0.00     0.010 A 
ATOM     36  C   UNL A   1      36.528  32.532  30.037  1.00  0.00    -0.014 A 
BRANCH  36  37
ATOM     37  C   UNL A   1      37.705  31.906  30.692  1.00  0.00     0.031 A 
ATOM     38  C   UNL A   1      38.475  30.821  29.990  1.00  0.00     0.074 A 
ATOM     39  C   UNL A   1      38.036  32.268  31.946  1.00  0.00     0.049 A 
ATOM     40  N   UNL A   1      39.476  30.102  30.429  1.00  0.00    -0.248 NA
ATOM     41  C   UNL A   1      38.047  30.484  28.623  1.00  0.00     0.031 C 
ATOM     42  C   UNL A   1      37.341  33.276  32.749  1.00  0.00     0.029 A 
ATOM     43  N   UNL A   1      39.035  31.819  32.773  1.00  0.00    -0.354 N 
ATOM     44  C   UNL A   1      39.783  29.216  29.404  1.00  0.00     0.074 A 
ATOM     45  C   UNL A   1      38.834  29.457  28.340  1.00  0.00     0.031 C 
ATOM     46  C   UNL A   1      37.943  33.382  33.943  1.00  0.00     0.029 A 
ATOM     47  C   UNL A   1      39.043  32.424  34.006  1.00  0.00     0.049 A 
ATOM     48  H   UNL A   1      39.685  31.128  32.508  1.00  0.00     0.167 HD
ATOM     49  C   UNL A   1      40.780  28.302  29.346  1.00  0.00     0.037 A 
ATOM     50  C   UNL A   1      39.840  32.222  35.073  1.00  0.00     0.037 A 
ATOM     51  C   UNL A   1      41.740  28.085  30.398  1.00  0.00     0.049 A 
ATOM     52  C   UNL A   1      40.937  31.198  34.985  1.00  0.00     0.074 A 
ATOM     53  C   UNL A   1      42.824  27.225  30.412  1.00  0.00     0.029 A 
ATOM     54  N   UNL A   1      41.727  28.734  31.624  1.00  0.00    -0.354 N 
ATOM     55  N   UNL A   1      41.258  30.415  33.984  1.00  0.00    -0.248 NA
ATOM     56  C   UNL A   1      41.787  31.033  36.173  1.00  0.00     0.031 C 
ATOM     57  C   UNL A   1      43.442  27.322  31.662  1.00  0.00     0.029 A 
ATOM     58  C   UNL A   1      42.773  28.279  32.409  1.00  0.00     0.049 A 
ATOM     59  H   UNL A   1      41.073  29.417  31.894  1.00  0.00     0.167 HD
ATOM     60  C   UNL A   1      42.362  29.688  34.408  1.00  0.00     0.074 A 
ATOM     61  C   UNL A   1      42.663  30.131  35.754  1.00  0.00     0.031 C 
ATOM     62  C   UNL A   1      43.066  28.741  33.742  1.00  0.00     0.037 A 
BRANCH  49  63
ATOM     63  C   UNL A   1      40.888  27.468  28.102  1.00  0.00     0.057 A 
ATOM     64  C   UNL A   1      40.229  26.237  27.979  1.00  0.00     0.134 A 
ATOM     65  C   UNL A   1      41.629  27.916  27.001  1.00  0.00     0.134 A 
ATOM     66  F   UNL A   1      39.513  25.744  29.000  1.00  0.00    -0.206 F 
ATOM     67  C   UNL A   1      40.324  25.471  26.816  1.00  0.00     0.040 A 
ATOM     68  C   UNL A   1      41.708  27.173  25.822  1.00  0.00     0.040 A 
ATOM     69  F   UNL A   1      42.277  29.090  27.047  1.00  0.00    -0.206 F 
ATOM     70  C   UNL A   1      41.060  25.942  25.730  1.00  0.00     0.006 A 
ENDBRANCH  49  63
BRANCH  50  71
ATOM     71  C   UNL A   1      39.644  33.023  36.308  1.00  0.00     0.057 A 
ATOM     72  C   UNL A   1      40.345  34.216  36.512  1.00  0.00     0.134 A 
ATOM     73  C   UNL A   1      38.759  32.615  37.313  1.00  0.00     0.134 A 
ATOM     74  F   UNL A   1      41.220  34.650  35.592  1.00  0.00    -0.206 F 
ATOM     75  C   UNL A   1      40.188  34.968  37.677  1.00  0.00     0.040 A 
ATOM     76  C   UNL A   1      38.573  33.369  38.473  1.00  0.00     0.040 A 
ATOM     77  F   UNL A   1      38.051  31.485  37.175  1.00  0.00    -0.206 F 
ATOM     78  C   UNL A   1      39.296  34.546  38.660  1.00  0.00     0.006 A 
ENDBRANCH  50  71
BRANCH  62  79
ATOM     79  C   UNL A   1      44.254  28.147  34.440  1.00  0.00     0.057 A 
ATOM     80  C   UNL A   1      45.523  28.732  34.370  1.00  0.00     0.134 A 
ATOM     81  C   UNL A   1      44.111  27.001  35.234  1.00  0.00     0.134 A 
ATOM     82  F   UNL A   1      45.729  29.822  33.615  1.00  0.00    -0.206 F 
ATOM     83  C   UNL A   1      46.614  28.189  35.050  1.00  0.00     0.040 A 
ATOM     84  C   UNL A   1      45.187  26.464  35.940  1.00  0.00     0.040 A 
ATOM     85  F   UNL A   1      42.918  26.397  35.349  1.00  0.00    -0.206 F 
ATOM     86  C   UNL A   1      46.446  27.056  35.845  1.00  0.00     0.006 A 
ENDBRANCH  62  79
ENDBRANCH  36  37
ENDBRANCH  28  31
ENDBRANCH  26  27
ENDBRANCH  25  26
ENDBRANCH   1  25
TORSDOF 13
ENDMDL
MODEL 3
REMARK VINA RESULT:      -9.8      2.152      3.530
REMARK SMILES COc1cccc2cc(/C=C/c3cc(C(=O)NCCCNC(=O)c4ccc(-c5c6nc(c(-c7c(F)cccc7F)c7ccc([nH]7)c(-c7c(F)cccc7F)c7nc(c(-c8c(F)cccc8F)c8ccc5[nH]8)C=C7)C=C6)cc4)ncn3)oc12
REMARK SMILES IDX 18 1 17 2 15 3 16 4 14 6 12 7 13 8 80 9 79 10 78 11 11 12
REMARK SMILES IDX 10 13 9 14 3 15 4 16 82 17 5 18 7 19 81 20 6 21 8 22 2 23
REMARK SMILES IDX 1 24 19 25 20 26 21 27 22 28 23 30 24 31 25 32 77 33 26 34
REMARK SMILES IDX 76 35 27 36 28 37 29 38 70 39 30 40 75 41 69 42 71 43 31 44
REMARK SMILES IDX 74 45 68 46 67 47 32 49 58 50 41 51 57 52 42 53 45 54 56 55
REMARK SMILES IDX 72 56 43 57 44 58 55 60 73 61 46 62 33 63 34 64 39 65 35 66
REMARK SMILES IDX 36 67 38 68 40 69 37 70 59 71 60 72 65 73 61 74 62 75 64 76
REMARK SMILES IDX 66 77 63 78 47 79 48 80 53 81 49 82 50 83 52 84 54 85 51 86
REMARK H PARENT 17 5 21 29 71 48 45 59
REMARK Flexibility Score: inf
ROOT
ATOM      1  C   UNL A   1      35.113  34.926  28.210  1.00  0.00     0.118 C 
ENDROOT
BRANCH   1   2
ATOM      2  N   UNL A   1      33.773  35.487  28.180  1.00  0.00    -0.351 N 
ATOM      3  C   UNL A   1      32.983  36.076  29.146  1.00  0.00     0.270 C 
ATOM      4  O   UNL A   1      31.880  36.489  28.781  1.00  0.00    -0.268 OA
ATOM      5  H   UNL A   1      33.343  35.438  27.296  1.00  0.00     0.163 HD
BRANCH   3   6
ATOM      6  C   UNL A   1      33.419  36.260  30.571  1.00  0.00     0.132 A 
ATOM      7  C   UNL A   1      34.567  35.662  32.517  1.00  0.00     0.067 A 
ATOM      8  C   UNL A   1      34.107  35.301  31.270  1.00  0.00     0.062 A 
ATOM      9  N   UNL A   1      34.240  36.820  33.110  1.00  0.00    -0.237 NA
ATOM     10  C   UNL A   1      33.492  37.657  32.378  1.00  0.00     0.223 A 
ATOM     11  N   UNL A   1      33.082  37.448  31.123  1.00  0.00    -0.231 NA
BRANCH   7  12
ATOM     12  C   UNL A   1      35.463  34.778  33.265  1.00  0.00     0.032 C 
ATOM     13  C   UNL A   1      36.444  34.100  32.646  1.00  0.00     0.049 C 
BRANCH  13  14
ATOM     14  C   UNL A   1      37.304  33.183  33.309  1.00  0.00     0.128 A 
ATOM     15  C   UNL A   1      38.239  31.447  36.306  1.00  0.00     0.162 A 
ATOM     16  C   UNL A   1      39.352  30.611  36.483  1.00  0.00     0.050 A 
ATOM     17  C   UNL A   1      38.090  31.997  35.027  1.00  0.00     0.176 A 
ATOM     18  C   UNL A   1      40.254  30.368  35.440  1.00  0.00     0.005 A 
ATOM     19  C   UNL A   1      38.960  31.772  33.972  1.00  0.00     0.025 A 
ATOM     20  O   UNL A   1      37.097  32.842  34.628  1.00  0.00    -0.453 OA
ATOM     21  C   UNL A   1      40.072  30.941  34.177  1.00  0.00     0.012 A 
ATOM     22  C   UNL A   1      38.444  32.515  32.880  1.00  0.00     0.059 A 
BRANCH  15  23
ATOM     23  O   UNL A   1      37.297  31.712  37.261  1.00  0.00    -0.493 OA
ATOM     24  C   UNL A   1      37.794  32.253  38.480  1.00  0.00     0.278 C 
ENDBRANCH  15  23
ENDBRANCH  13  14
ENDBRANCH   7  12
ENDBRANCH   3   6
ENDBRANCH   1   2
BRANCH   1  25
ATOM     25  C   UNL A   1      35.098  33.451  27.806  1.00  0.00     0.042 C 
BRANCH  25  26
ATOM     26  C   UNL A   1      34.680  32.523  28.943  1.00  0.00     0.118 C 
BRANCH  26  27
ATOM     27  N   UNL A   1      34.025  31.321  28.447  1.00  0.00    -0.352 N 
ATOM     28  C   UNL A   1      34.564  30.122  28.054  1.00  0.00     0.251 C 
ATOM     29  H   UNL A   1      33.045  31.377  28.383  1.00  0.00     0.163 HD
ATOM     30  O   UNL A   1      33.865  29.308  27.461  1.00  0.00    -0.269 OA
BRANCH  28  31
ATOM     31  C   UNL A   1      35.983  29.806  28.332  1.00  0.00     0.039 A 
ATOM     32  C   UNL A   1      36.328  29.322  29.598  1.00  0.00     0.014 A 
ATOM     33  C   UNL A   1      36.976  30.027  27.374  1.00  0.00     0.014 A 
ATOM     34  C   UNL A   1      37.659  29.011  29.884  1.00  0.00     0.010 A 
ATOM     35  C   UNL A   1      38.291  29.650  27.637  1.00  0.00     0.010 A 
ATOM     36  C   UNL A   1      38.646  29.144  28.895  1.00  0.00    -0.014 A 
BRANCH  36  37
ATOM     37  C   UNL A   1      40.056  28.760  29.158  1.00  0.00     0.031 A 
ATOM     38  C   UNL A   1      40.990  29.723  29.838  1.00  0.00     0.074 A 
ATOM     39  C   UNL A   1      40.511  27.569  28.723  1.00  0.00     0.049 A 
ATOM     40  N   UNL A   1      42.269  29.602  30.080  1.00  0.00    -0.248 NA
ATOM     41  C   UNL A   1      40.413  31.003  30.280  1.00  0.00     0.031 C 
ATOM     42  C   UNL A   1      39.715  26.566  28.012  1.00  0.00     0.029 A 
ATOM     43  N   UNL A   1      41.759  27.005  28.802  1.00  0.00    -0.354 N 
ATOM     44  C   UNL A   1      42.654  30.792  30.684  1.00  0.00     0.074 A 
ATOM     45  C   UNL A   1      41.484  31.641  30.728  1.00  0.00     0.031 C 
ATOM     46  C   UNL A   1      40.488  25.505  27.737  1.00  0.00     0.029 A 
ATOM     47  C   UNL A   1      41.842  25.765  28.216  1.00  0.00     0.049 A 
ATOM     48  H   UNL A   1      42.524  27.447  29.238  1.00  0.00     0.167 HD
ATOM     49  C   UNL A   1      43.868  31.137  31.177  1.00  0.00     0.037 A 
ATOM     50  C   UNL A   1      42.893  24.936  28.071  1.00  0.00     0.037 A 
ATOM     51  C   UNL A   1      45.023  30.278  31.155  1.00  0.00     0.049 A 
ATOM     52  C   UNL A   1      44.230  25.344  28.624  1.00  0.00     0.074 A 
ATOM     53  C   UNL A   1      46.282  30.511  31.682  1.00  0.00     0.029 A 
ATOM     54  N   UNL A   1      45.060  29.020  30.572  1.00  0.00    -0.354 N 
ATOM     55  N   UNL A   1      44.564  26.446  29.251  1.00  0.00    -0.248 NA
ATOM     56  C   UNL A   1      45.337  24.392  28.452  1.00  0.00     0.031 C 
ATOM     57  C   UNL A   1      47.091  29.413  31.381  1.00  0.00     0.029 A 
ATOM     58  C   UNL A   1      46.325  28.474  30.709  1.00  0.00     0.049 A 
ATOM     59  H   UNL A   1      44.299  28.581  30.127  1.00  0.00     0.167 HD
ATOM     60  C   UNL A   1      45.907  26.307  29.577  1.00  0.00     0.074 A 
ATOM     61  C   UNL A   1      46.324  25.010  29.086  1.00  0.00     0.031 C 
ATOM     62  C   UNL A   1      46.720  27.175  30.226  1.00  0.00     0.037 A 
BRANCH  49  63
ATOM     63  C   UNL A   1      44.008  32.503  31.786  1.00  0.00     0.057 A 
ATOM     64  C   UNL A   1      44.391  33.615  31.026  1.00  0.00     0.134 A 
ATOM     65  C   UNL A   1      43.722  32.715  33.142  1.00  0.00     0.134 A 
ATOM     66  F   UNL A   1      44.690  33.480  29.725  1.00  0.00    -0.206 F 
ATOM     67  C   UNL A   1      44.509  34.884  31.595  1.00  0.00     0.040 A 
ATOM     68  C   UNL A   1      43.810  33.984  33.717  1.00  0.00     0.040 A 
ATOM     69  F   UNL A   1      43.341  31.695  33.926  1.00  0.00    -0.206 F 
ATOM     70  C   UNL A   1      44.211  35.072  32.944  1.00  0.00     0.006 A 
ENDBRANCH  49  63
BRANCH  50  71
ATOM     71  C   UNL A   1      42.718  23.627  27.394  1.00  0.00     0.057 A 
ATOM     72  C   UNL A   1      42.861  23.508  26.007  1.00  0.00     0.134 A 
ATOM     73  C   UNL A   1      42.400  22.468  28.111  1.00  0.00     0.134 A 
ATOM     74  F   UNL A   1      43.148  24.587  25.264  1.00  0.00    -0.206 F 
ATOM     75  C   UNL A   1      42.678  22.288  25.355  1.00  0.00     0.040 A 
ATOM     76  C   UNL A   1      42.238  21.236  27.475  1.00  0.00     0.040 A 
ATOM     77  F   UNL A   1      42.258  22.512  29.444  1.00  0.00    -0.206 F 
ATOM     78  C   UNL A   1      42.370  21.146  26.090  1.00  0.00     0.006 A 
ENDBRANCH  50  71
BRANCH  62  79
ATOM     79  C   UNL A   1      48.132  26.737  30.480  1.00  0.00     0.057 A 
ATOM     80  C   UNL A   1      48.491  26.028  31.632  1.00  0.00     0.134 A 
ATOM     81  C   UNL A   1      49.134  26.986  29.532  1.00  0.00     0.134 A 
ATOM     82  F   UNL A   1      47.582  25.770  32.584  1.00  0.00    -0.206 F 
ATOM     83  C   UNL A   1      49.802  25.597  31.842  1.00  0.00     0.040 A 
ATOM     84  C   UNL A   1      50.441  26.537  29.718  1.00  0.00     0.040 A 
ATOM     85  F   UNL A   1      48.852  27.653  28.403  1.00  0.00    -0.206 F 
ATOM     86  C   UNL A   1      50.780  25.844  30.879  1.00  0.00     0.006 A 
ENDBRANCH  62  79
ENDBRANCH  36  37
ENDBRANCH  28  31
ENDBRANCH  26  27
ENDBRANCH  25  26
ENDBRANCH   1  25
TORSDOF 13
ENDMDL
