MODEL 1
REMARK VINA RESULT:     -10.7      0.000      0.000
REMARK SMILES O=C(C[C@@H]1CCC[N@@H+](Cc2nccs2)C1)NCCCNC(=O)c1ccc(-c2c3nc(c(-c4c(F)cccc4F)c4ccc([nH]4)c(-c4c(F)cccc4F)c4nc(c(-c5c(F)cccc5F)c5ccc2[nH]5)C=C4)C=C3)cc1
REMARK SMILES IDX 17 1 16 2 1 3 2 4 3 6 4 7 5 8 15 9 6 10 8 11 7 12 9 14 10 15
REMARK SMILES IDX 11 16 14 17 12 18 13 19 18 20 19 21 20 22 21 23 22 25 23 26
REMARK SMILES IDX 24 27 76 28 25 29 75 30 26 31 27 32 28 33 69 34 29 35 74 36
REMARK SMILES IDX 68 37 70 38 30 39 73 40 67 41 66 42 31 44 57 45 40 46 56 47
REMARK SMILES IDX 41 48 44 49 55 50 71 51 42 52 43 53 54 55 72 56 45 57 32 58
REMARK SMILES IDX 33 59 38 60 34 61 35 62 37 63 39 64 36 65 58 66 59 67 64 68
REMARK SMILES IDX 60 69 61 70 63 71 65 72 62 73 46 74 47 75 52 76 48 77 49 78
REMARK SMILES IDX 51 79 53 80 50 81
REMARK H PARENT 16 5 8 13 20 24 70 43 44 54
REMARK Flexibility Score: inf
ROOT
ATOM      1  C   UNL A   1      36.578  20.300  25.003  1.00  0.00     0.117 C 
ENDROOT
BRANCH   1   2
ATOM      2  N   UNL A   1      36.502  21.727  24.780  1.00  0.00    -0.356 N 
ATOM      3  O   UNL A   1      35.208  22.269  26.580  1.00  0.00    -0.275 OA
ATOM      4  C   UNL A   1      35.846  22.613  25.588  1.00  0.00     0.220 C 
ATOM      5  H   UNL A   1      36.959  22.087  23.986  1.00  0.00     0.163 HD
BRANCH   4   6
ATOM      6  C   UNL A   1      35.842  24.066  25.106  1.00  0.00     0.109 C 
BRANCH   6   7
ATOM      7  C   UNL A   1      34.607  24.710  24.429  1.00  0.00     0.054 C 
ATOM      8  C   UNL A   1      33.726  25.530  25.391  1.00  0.00     0.016 C 
ATOM      9  C   UNL A   1      33.733  23.773  23.588  1.00  0.00     0.266 C 
ATOM     10  C   UNL A   1      32.743  24.676  26.182  1.00  0.00     0.062 C 
ATOM     11  N   UNL A   1      32.891  22.916  24.439  1.00  0.00    -0.329 N 
ATOM     12  C   UNL A   1      31.976  23.704  25.280  1.00  0.00     0.262 C 
ATOM     13  H   UNL A   1      33.501  22.417  25.084  1.00  0.00     0.348 HD
BRANCH  11  14
ATOM     14  C   UNL A   1      32.184  21.893  23.621  1.00  0.00     0.331 C 
BRANCH  14  15
ATOM     15  C   UNL A   1      32.459  20.455  23.992  1.00  0.00     0.147 A 
ATOM     16  N   UNL A   1      32.374  19.430  23.166  1.00  0.00    -0.244 NA
ATOM     17  S   UNL A   1      32.843  20.053  25.624  1.00  0.00    -0.122 S 
ATOM     18  C   UNL A   1      32.557  18.253  23.862  1.00  0.00     0.123 A 
ATOM     19  C   UNL A   1      32.812  18.393  25.209  1.00  0.00     0.087 A 
ENDBRANCH  14  15
ENDBRANCH  11  14
ENDBRANCH   6   7
ENDBRANCH   4   6
ENDBRANCH   1   2
BRANCH   1  20
ATOM     20  C   UNL A   1      37.966  19.730  24.724  1.00  0.00     0.042 C 
BRANCH  20  21
ATOM     21  C   UNL A   1      39.035  20.001  25.783  1.00  0.00     0.118 C 
BRANCH  21  22
ATOM     22  N   UNL A   1      40.135  19.051  25.783  1.00  0.00    -0.352 N 
ATOM     23  C   UNL A   1      41.464  19.222  26.097  1.00  0.00     0.251 C 
ATOM     24  H   UNL A   1      39.890  18.136  25.514  1.00  0.00     0.163 HD
ATOM     25  O   UNL A   1      42.236  18.277  25.960  1.00  0.00    -0.269 OA
BRANCH  23  26
ATOM     26  C   UNL A   1      41.993  20.532  26.559  1.00  0.00     0.039 A 
ATOM     27  C   UNL A   1      42.420  21.449  25.592  1.00  0.00     0.014 A 
ATOM     28  C   UNL A   1      42.106  20.863  27.912  1.00  0.00     0.014 A 
ATOM     29  C   UNL A   1      42.884  22.712  25.975  1.00  0.00     0.010 A 
ATOM     30  C   UNL A   1      42.499  22.153  28.291  1.00  0.00     0.010 A 
ATOM     31  C   UNL A   1      42.888  23.095  27.328  1.00  0.00    -0.014 A 
BRANCH  31  32
ATOM     32  C   UNL A   1      43.260  24.487  27.715  1.00  0.00     0.031 A 
ATOM     33  C   UNL A   1      44.691  24.951  27.694  1.00  0.00     0.074 A 
ATOM     34  C   UNL A   1      42.293  25.341  28.111  1.00  0.00     0.049 A 
ATOM     35  N   UNL A   1      45.178  26.141  27.955  1.00  0.00    -0.248 NA
ATOM     36  C   UNL A   1      45.713  23.949  27.360  1.00  0.00     0.031 C 
ATOM     37  C   UNL A   1      40.873  25.008  28.242  1.00  0.00     0.029 A 
ATOM     38  N   UNL A   1      42.356  26.665  28.470  1.00  0.00    -0.354 N 
ATOM     39  C   UNL A   1      46.556  26.030  27.817  1.00  0.00     0.074 A 
ATOM     40  C   UNL A   1      46.833  24.642  27.507  1.00  0.00     0.031 C 
ATOM     41  C   UNL A   1      40.195  26.107  28.609  1.00  0.00     0.029 A 
ATOM     42  C   UNL A   1      41.132  27.213  28.774  1.00  0.00     0.049 A 
ATOM     43  H   UNL A   1      43.197  27.175  28.509  1.00  0.00     0.167 HD
ATOM     44  C   UNL A   1      47.504  26.996  27.913  1.00  0.00     0.037 A 
ATOM     45  C   UNL A   1      40.796  28.466  29.137  1.00  0.00     0.037 A 
ATOM     46  C   UNL A   1      47.232  28.379  28.216  1.00  0.00     0.049 A 
ATOM     47  C   UNL A   1      41.865  29.519  29.232  1.00  0.00     0.074 A 
ATOM     48  C   UNL A   1      48.121  29.439  28.282  1.00  0.00     0.029 A 
ATOM     49  N   UNL A   1      45.978  28.894  28.510  1.00  0.00    -0.354 N 
ATOM     50  N   UNL A   1      43.152  29.415  29.014  1.00  0.00    -0.248 NA
ATOM     51  C   UNL A   1      41.427  30.871  29.610  1.00  0.00     0.031 C 
ATOM     52  C   UNL A   1      47.415  30.583  28.668  1.00  0.00     0.029 A 
ATOM     53  C   UNL A   1      46.074  30.252  28.782  1.00  0.00     0.049 A 
ATOM     54  H   UNL A   1      45.143  28.374  28.525  1.00  0.00     0.167 HD
ATOM     55  C   UNL A   1      43.674  30.690  29.198  1.00  0.00     0.074 A 
ATOM     56  C   UNL A   1      42.558  31.554  29.522  1.00  0.00     0.031 C 
ATOM     57  C   UNL A   1      44.961  31.107  29.107  1.00  0.00     0.037 A 
BRANCH  44  58
ATOM     58  C   UNL A   1      48.934  26.589  27.684  1.00  0.00     0.057 A 
ATOM     59  C   UNL A   1      49.769  26.196  28.740  1.00  0.00     0.134 A 
ATOM     60  C   UNL A   1      49.470  26.546  26.391  1.00  0.00     0.134 A 
ATOM     61  F   UNL A   1      49.323  26.220  30.005  1.00  0.00    -0.206 F 
ATOM     62  C   UNL A   1      51.091  25.804  28.520  1.00  0.00     0.040 A 
ATOM     63  C   UNL A   1      50.782  26.127  26.155  1.00  0.00     0.040 A 
ATOM     64  F   UNL A   1      48.725  26.897  25.331  1.00  0.00    -0.206 F 
ATOM     65  C   UNL A   1      51.598  25.762  27.223  1.00  0.00     0.006 A 
ENDBRANCH  44  58
BRANCH  45  66
ATOM     66  C   UNL A   1      39.374  28.808  29.405  1.00  0.00     0.057 A 
ATOM     67  C   UNL A   1      38.544  29.303  28.391  1.00  0.00     0.134 A 
ATOM     68  C   UNL A   1      38.817  28.666  30.681  1.00  0.00     0.134 A 
ATOM     69  F   UNL A   1      39.025  29.481  27.152  1.00  0.00    -0.206 F 
ATOM     70  C   UNL A   1      37.221  29.670  28.642  1.00  0.00     0.040 A 
ATOM     71  C   UNL A   1      37.487  29.000  30.940  1.00  0.00     0.040 A 
ATOM     72  F   UNL A   1      39.556  28.189  31.693  1.00  0.00    -0.206 F 
ATOM     73  C   UNL A   1      36.687  29.513  29.920  1.00  0.00     0.006 A 
ENDBRANCH  45  66
BRANCH  57  74
ATOM     74  C   UNL A   1      45.222  32.572  29.325  1.00  0.00     0.057 A 
ATOM     75  C   UNL A   1      45.536  33.094  30.587  1.00  0.00     0.134 A 
ATOM     76  C   UNL A   1      45.152  33.473  28.255  1.00  0.00     0.134 A 
ATOM     77  F   UNL A   1      45.608  32.289  31.658  1.00  0.00    -0.206 F 
ATOM     78  C   UNL A   1      45.725  34.464  30.785  1.00  0.00     0.040 A 
ATOM     79  C   UNL A   1      45.373  34.840  28.435  1.00  0.00     0.040 A 
ATOM     80  F   UNL A   1      44.868  33.043  27.017  1.00  0.00    -0.206 F 
ATOM     81  C   UNL A   1      45.646  35.341  29.705  1.00  0.00     0.006 A 
ENDBRANCH  57  74
ENDBRANCH  31  32
ENDBRANCH  23  26
ENDBRANCH  21  22
ENDBRANCH  20  21
ENDBRANCH   1  20
TORSDOF 13
ENDMDL
MODEL 2
REMARK VINA RESULT:     -10.7      5.356     10.166
REMARK SMILES O=C(C[C@@H]1CCC[N@@H+](Cc2nccs2)C1)NCCCNC(=O)c1ccc(-c2c3nc(c(-c4c(F)cccc4F)c4ccc([nH]4)c(-c4c(F)cccc4F)c4nc(c(-c5c(F)cccc5F)c5ccc2[nH]5)C=C4)C=C3)cc1
REMARK SMILES IDX 17 1 16 2 1 3 2 4 3 6 4 7 5 8 15 9 6 10 8 11 7 12 9 14 10 15
REMARK SMILES IDX 11 16 14 17 12 18 13 19 18 20 19 21 20 22 21 23 22 25 23 26
REMARK SMILES IDX 24 27 76 28 25 29 75 30 26 31 27 32 28 33 69 34 29 35 74 36
REMARK SMILES IDX 68 37 70 38 30 39 73 40 67 41 66 42 31 44 57 45 40 46 56 47
REMARK SMILES IDX 41 48 44 49 55 50 71 51 42 52 43 53 54 55 72 56 45 57 32 58
REMARK SMILES IDX 33 59 38 60 34 61 35 62 37 63 39 64 36 65 58 66 59 67 64 68
REMARK SMILES IDX 60 69 61 70 63 71 65 72 62 73 46 74 47 75 52 76 48 77 49 78
REMARK SMILES IDX 51 79 53 80 50 81
REMARK H PARENT 16 5 8 13 20 24 70 43 44 54
REMARK Flexibility Score: inf
ROOT
ATOM      1  C   UNL A   1      31.526  30.501  25.611  1.00  0.00     0.117 C 
ENDROOT
BRANCH   1   2
ATOM      2  N   UNL A   1      32.098  29.308  26.198  1.00  0.00    -0.356 N 
ATOM      3  O   UNL A   1      33.496  28.742  24.486  1.00  0.00    -0.275 OA
ATOM      4  C   UNL A   1      33.053  28.525  25.611  1.00  0.00     0.220 C 
ATOM      5  H   UNL A   1      31.775  29.041  27.088  1.00  0.00     0.163 HD
BRANCH   4   6
ATOM      6  C   UNL A   1      33.449  27.271  26.394  1.00  0.00     0.109 C 
BRANCH   6   7
ATOM      7  C   UNL A   1      32.913  25.865  26.030  1.00  0.00     0.054 C 
ATOM      8  C   UNL A   1      34.019  24.833  25.738  1.00  0.00     0.016 C 
ATOM      9  C   UNL A   1      31.845  25.812  24.932  1.00  0.00     0.266 C 
ATOM     10  C   UNL A   1      34.550  24.907  24.313  1.00  0.00     0.062 C 
ATOM     11  N   UNL A   1      32.438  25.994  23.597  1.00  0.00    -0.329 N 
ATOM     12  C   UNL A   1      33.418  24.942  23.282  1.00  0.00     0.262 C 
ATOM     13  H   UNL A   1      32.961  26.869  23.602  1.00  0.00     0.348 HD
BRANCH  11  14
ATOM     14  C   UNL A   1      31.377  26.121  22.561  1.00  0.00     0.331 C 
BRANCH  14  15
ATOM     15  C   UNL A   1      30.611  27.423  22.564  1.00  0.00     0.147 A 
ATOM     16  N   UNL A   1      31.022  28.544  22.003  1.00  0.00    -0.244 NA
ATOM     17  S   UNL A   1      29.116  27.532  23.415  1.00  0.00    -0.122 S 
ATOM     18  C   UNL A   1      30.149  29.566  22.311  1.00  0.00     0.123 A 
ATOM     19  C   UNL A   1      29.061  29.209  23.076  1.00  0.00     0.087 A 
ENDBRANCH  14  15
ENDBRANCH  11  14
ENDBRANCH   6   7
ENDBRANCH   4   6
ENDBRANCH   1   2
BRANCH   1  20
ATOM     20  C   UNL A   1      31.377  31.641  26.614  1.00  0.00     0.042 C 
BRANCH  20  21
ATOM     21  C   UNL A   1      32.650  32.417  26.951  1.00  0.00     0.118 C 
BRANCH  21  22
ATOM     22  N   UNL A   1      32.417  33.747  27.491  1.00  0.00    -0.352 N 
ATOM     23  C   UNL A   1      33.109  34.459  28.444  1.00  0.00     0.251 C 
ATOM     24  H   UNL A   1      31.638  34.215  27.112  1.00  0.00     0.163 HD
ATOM     25  O   UNL A   1      32.685  35.557  28.794  1.00  0.00    -0.269 OA
BRANCH  23  26
ATOM     26  C   UNL A   1      34.332  33.914  29.088  1.00  0.00     0.039 A 
ATOM     27  C   UNL A   1      34.182  32.899  30.039  1.00  0.00     0.014 A 
ATOM     28  C   UNL A   1      35.612  34.397  28.801  1.00  0.00     0.014 A 
ATOM     29  C   UNL A   1      35.307  32.323  30.639  1.00  0.00     0.010 A 
ATOM     30  C   UNL A   1      36.740  33.771  29.345  1.00  0.00     0.010 A 
ATOM     31  C   UNL A   1      36.602  32.723  30.267  1.00  0.00    -0.014 A 
BRANCH  31  32
ATOM     32  C   UNL A   1      37.795  32.014  30.815  1.00  0.00     0.031 A 
ATOM     33  C   UNL A   1      38.332  32.326  32.186  1.00  0.00     0.074 A 
ATOM     34  C   UNL A   1      38.417  31.087  30.056  1.00  0.00     0.049 A 
ATOM     35  N   UNL A   1      39.330  31.769  32.830  1.00  0.00    -0.248 NA
ATOM     36  C   UNL A   1      37.683  33.419  32.924  1.00  0.00     0.031 C 
ATOM     37  C   UNL A   1      38.046  30.730  28.686  1.00  0.00     0.029 A 
ATOM     38  N   UNL A   1      39.488  30.272  30.331  1.00  0.00    -0.354 N 
ATOM     39  C   UNL A   1      39.427  32.440  34.042  1.00  0.00     0.074 A 
ATOM     40  C   UNL A   1      38.425  33.486  34.020  1.00  0.00     0.031 C 
ATOM     41  C   UNL A   1      38.844  29.741  28.257  1.00  0.00     0.029 A 
ATOM     42  C   UNL A   1      39.806  29.415  29.304  1.00  0.00     0.049 A 
ATOM     43  H   UNL A   1      39.982  30.298  31.182  1.00  0.00     0.167 HD
ATOM     44  C   UNL A   1      40.255  32.196  35.089  1.00  0.00     0.037 A 
ATOM     45  C   UNL A   1      40.760  28.468  29.215  1.00  0.00     0.037 A 
ATOM     46  C   UNL A   1      41.249  31.152  35.116  1.00  0.00     0.049 A 
ATOM     47  C   UNL A   1      41.661  28.214  30.391  1.00  0.00     0.074 A 
ATOM     48  C   UNL A   1      42.098  30.795  36.152  1.00  0.00     0.029 A 
ATOM     49  N   UNL A   1      41.536  30.303  34.058  1.00  0.00    -0.354 N 
ATOM     50  N   UNL A   1      41.682  28.802  31.561  1.00  0.00    -0.248 NA
ATOM     51  C   UNL A   1      42.664  27.150  30.234  1.00  0.00     0.031 C 
ATOM     52  C   UNL A   1      42.932  29.767  35.703  1.00  0.00     0.029 A 
ATOM     53  C   UNL A   1      42.564  29.438  34.408  1.00  0.00     0.049 A 
ATOM     54  H   UNL A   1      41.079  30.311  33.187  1.00  0.00     0.167 HD
ATOM     55  C   UNL A   1      42.676  28.161  32.291  1.00  0.00     0.074 A 
ATOM     56  C   UNL A   1      43.218  27.124  31.438  1.00  0.00     0.031 C 
ATOM     57  C   UNL A   1      43.102  28.410  33.555  1.00  0.00     0.037 A 
BRANCH  44  58
ATOM     58  C   UNL A   1      40.117  33.076  36.301  1.00  0.00     0.057 A 
ATOM     59  C   UNL A   1      40.891  34.234  36.465  1.00  0.00     0.134 A 
ATOM     60  C   UNL A   1      39.171  32.789  37.293  1.00  0.00     0.134 A 
ATOM     61  F   UNL A   1      41.821  34.565  35.557  1.00  0.00    -0.206 F 
ATOM     62  C   UNL A   1      40.749  35.055  37.586  1.00  0.00     0.040 A 
ATOM     63  C   UNL A   1      38.999  33.619  38.403  1.00  0.00     0.040 A 
ATOM     64  F   UNL A   1      38.388  31.703  37.196  1.00  0.00    -0.206 F 
ATOM     65  C   UNL A   1      39.794  34.753  38.554  1.00  0.00     0.006 A 
ENDBRANCH  44  58
BRANCH  45  66
ATOM     66  C   UNL A   1      40.891  27.659  27.974  1.00  0.00     0.057 A 
ATOM     67  C   UNL A   1      40.243  26.424  27.842  1.00  0.00     0.134 A 
ATOM     68  C   UNL A   1      41.680  28.089  26.901  1.00  0.00     0.134 A 
ATOM     69  F   UNL A   1      39.489  25.947  28.843  1.00  0.00    -0.206 F 
ATOM     70  C   UNL A   1      40.396  25.635  26.701  1.00  0.00     0.040 A 
ATOM     71  C   UNL A   1      41.818  27.325  25.741  1.00  0.00     0.040 A 
ATOM     72  F   UNL A   1      42.321  29.266  26.961  1.00  0.00    -0.206 F 
ATOM     73  C   UNL A   1      41.182  26.089  25.644  1.00  0.00     0.006 A 
ENDBRANCH  45  66
BRANCH  57  74
ATOM     74  C   UNL A   1      44.183  27.517  34.099  1.00  0.00     0.057 A 
ATOM     75  C   UNL A   1      45.540  27.855  34.018  1.00  0.00     0.134 A 
ATOM     76  C   UNL A   1      43.858  26.299  34.710  1.00  0.00     0.134 A 
ATOM     77  F   UNL A   1      45.923  29.002  33.436  1.00  0.00    -0.206 F 
ATOM     78  C   UNL A   1      46.537  26.993  34.482  1.00  0.00     0.040 A 
ATOM     79  C   UNL A   1      44.844  25.445  35.208  1.00  0.00     0.040 A 
ATOM     80  F   UNL A   1      42.578  25.917  34.833  1.00  0.00    -0.206 F 
ATOM     81  C   UNL A   1      46.189  25.785  35.082  1.00  0.00     0.006 A 
ENDBRANCH  57  74
ENDBRANCH  31  32
ENDBRANCH  23  26
ENDBRANCH  21  22
ENDBRANCH  20  21
ENDBRANCH   1  20
TORSDOF 13
ENDMDL
MODEL 3
REMARK VINA RESULT:     -10.6      1.492      2.223
REMARK SMILES O=C(C[C@@H]1CCC[N@@H+](Cc2nccs2)C1)NCCCNC(=O)c1ccc(-c2c3nc(c(-c4c(F)cccc4F)c4ccc([nH]4)c(-c4c(F)cccc4F)c4nc(c(-c5c(F)cccc5F)c5ccc2[nH]5)C=C4)C=C3)cc1
REMARK SMILES IDX 17 1 16 2 1 3 2 4 3 6 4 7 5 8 15 9 6 10 8 11 7 12 9 14 10 15
REMARK SMILES IDX 11 16 14 17 12 18 13 19 18 20 19 21 20 22 21 23 22 25 23 26
REMARK SMILES IDX 24 27 76 28 25 29 75 30 26 31 27 32 28 33 69 34 29 35 74 36
REMARK SMILES IDX 68 37 70 38 30 39 73 40 67 41 66 42 31 44 57 45 40 46 56 47
REMARK SMILES IDX 41 48 44 49 55 50 71 51 42 52 43 53 54 55 72 56 45 57 32 58
REMARK SMILES IDX 33 59 38 60 34 61 35 62 37 63 39 64 36 65 58 66 59 67 64 68
REMARK SMILES IDX 60 69 61 70 63 71 65 72 62 73 46 74 47 75 52 76 48 77 49 78
REMARK SMILES IDX 51 79 53 80 50 81
REMARK H PARENT 16 5 8 13 20 24 70 43 44 54
REMARK Flexibility Score: inf
ROOT
ATOM      1  C   UNL A   1      38.840  21.524  25.835  1.00  0.00     0.117 C 
ENDROOT
BRANCH   1   2
ATOM      2  N   UNL A   1      38.039  22.252  24.874  1.00  0.00    -0.356 N 
ATOM      3  O   UNL A   1      36.194  20.910  24.910  1.00  0.00    -0.275 OA
ATOM      4  C   UNL A   1      36.771  21.911  24.494  1.00  0.00     0.220 C 
ATOM      5  H   UNL A   1      38.437  23.053  24.465  1.00  0.00     0.163 HD
BRANCH   4   6
ATOM      6  C   UNL A   1      36.151  22.791  23.406  1.00  0.00     0.109 C 
BRANCH   6   7
ATOM      7  C   UNL A   1      34.861  23.615  23.642  1.00  0.00     0.054 C 
ATOM      8  C   UNL A   1      34.894  24.469  24.925  1.00  0.00     0.016 C 
ATOM      9  C   UNL A   1      33.541  22.840  23.563  1.00  0.00     0.266 C 
ATOM     10  C   UNL A   1      34.525  23.687  26.178  1.00  0.00     0.062 C 
ATOM     11  N   UNL A   1      33.317  22.035  24.775  1.00  0.00    -0.329 N 
ATOM     12  C   UNL A   1      33.244  22.869  25.985  1.00  0.00     0.262 C 
ATOM     13  H   UNL A   1      34.127  21.429  24.903  1.00  0.00     0.348 HD
BRANCH  11  14
ATOM     14  C   UNL A   1      32.129  21.153  24.611  1.00  0.00     0.331 C 
BRANCH  14  15
ATOM     15  C   UNL A   1      32.404  19.669  24.659  1.00  0.00     0.147 A 
ATOM     16  N   UNL A   1      32.601  18.971  25.761  1.00  0.00    -0.244 NA
ATOM     17  S   UNL A   1      32.558  18.780  23.190  1.00  0.00    -0.122 S 
ATOM     18  C   UNL A   1      32.958  17.678  25.437  1.00  0.00     0.123 A 
ATOM     19  C   UNL A   1      32.997  17.393  24.090  1.00  0.00     0.087 A 
ENDBRANCH  14  15
ENDBRANCH  11  14
ENDBRANCH   6   7
ENDBRANCH   4   6
ENDBRANCH   1   2
BRANCH   1  20
ATOM     20  C   UNL A   1      39.234  20.134  25.344  1.00  0.00     0.042 C 
BRANCH  20  21
ATOM     21  C   UNL A   1      40.029  19.271  26.324  1.00  0.00     0.118 C 
BRANCH  21  22
ATOM     22  N   UNL A   1      41.364  18.918  25.868  1.00  0.00    -0.352 N 
ATOM     23  C   UNL A   1      42.526  19.655  25.849  1.00  0.00     0.251 C 
ATOM     24  H   UNL A   1      41.450  18.004  25.514  1.00  0.00     0.163 HD
ATOM     25  O   UNL A   1      43.535  19.166  25.349  1.00  0.00    -0.269 OA
BRANCH  23  26
ATOM     26  C   UNL A   1      42.579  21.042  26.382  1.00  0.00     0.039 A 
ATOM     27  C   UNL A   1      42.417  21.226  27.759  1.00  0.00     0.014 A 
ATOM     28  C   UNL A   1      42.752  22.158  25.558  1.00  0.00     0.014 A 
ATOM     29  C   UNL A   1      42.504  22.508  28.313  1.00  0.00     0.010 A 
ATOM     30  C   UNL A   1      42.913  23.430  26.121  1.00  0.00     0.010 A 
ATOM     31  C   UNL A   1      42.796  23.620  27.505  1.00  0.00    -0.014 A 
BRANCH  31  32
ATOM     32  C   UNL A   1      43.016  24.961  28.122  1.00  0.00     0.031 A 
ATOM     33  C   UNL A   1      44.385  25.410  28.556  1.00  0.00     0.074 A 
ATOM     34  C   UNL A   1      41.960  25.780  28.313  1.00  0.00     0.049 A 
ATOM     35  N   UNL A   1      44.756  26.562  29.064  1.00  0.00    -0.248 NA
ATOM     36  C   UNL A   1      45.480  24.438  28.425  1.00  0.00     0.031 C 
ATOM     37  C   UNL A   1      40.568  25.450  28.001  1.00  0.00     0.029 A 
ATOM     38  N   UNL A   1      41.893  27.059  28.808  1.00  0.00    -0.354 N 
ATOM     39  C   UNL A   1      46.118  26.451  29.312  1.00  0.00     0.074 A 
ATOM     40  C   UNL A   1      46.498  25.100  28.954  1.00  0.00     0.031 C 
ATOM     41  C   UNL A   1      39.793  26.511  28.270  1.00  0.00     0.029 A 
ATOM     42  C   UNL A   1      40.622  27.585  28.806  1.00  0.00     0.049 A 
ATOM     43  H   UNL A   1      42.679  27.553  29.135  1.00  0.00     0.167 HD
ATOM     44  C   UNL A   1      46.981  27.392  29.770  1.00  0.00     0.037 A 
ATOM     45  C   UNL A   1      40.173  28.797  29.185  1.00  0.00     0.037 A 
ATOM     46  C   UNL A   1      46.607  28.740  30.123  1.00  0.00     0.049 A 
ATOM     47  C   UNL A   1      41.151  29.824  29.686  1.00  0.00     0.074 A 
ATOM     48  C   UNL A   1      47.420  29.778  30.546  1.00  0.00     0.029 A 
ATOM     49  N   UNL A   1      45.311  29.234  30.101  1.00  0.00    -0.354 N 
ATOM     50  N   UNL A   1      42.449  29.729  29.832  1.00  0.00    -0.248 NA
ATOM     51  C   UNL A   1      40.597  31.133  30.060  1.00  0.00     0.031 C 
ATOM     52  C   UNL A   1      46.611  30.883  30.831  1.00  0.00     0.029 A 
ATOM     53  C   UNL A   1      45.300  30.555  30.525  1.00  0.00     0.049 A 
ATOM     54  H   UNL A   1      44.516  28.724  29.825  1.00  0.00     0.167 HD
ATOM     55  C   UNL A   1      42.872  30.973  30.286  1.00  0.00     0.074 A 
ATOM     56  C   UNL A   1      41.694  31.810  30.366  1.00  0.00     0.031 C 
ATOM     57  C   UNL A   1      44.124  31.384  30.607  1.00  0.00     0.037 A 
BRANCH  44  58
ATOM     58  C   UNL A   1      48.424  26.997  29.916  1.00  0.00     0.057 A 
ATOM     59  C   UNL A   1      49.355  27.203  28.888  1.00  0.00     0.134 A 
ATOM     60  C   UNL A   1      48.901  26.446  31.112  1.00  0.00     0.134 A 
ATOM     61  F   UNL A   1      48.967  27.720  27.712  1.00  0.00    -0.206 F 
ATOM     62  C   UNL A   1      50.698  26.848  29.034  1.00  0.00     0.040 A 
ATOM     63  C   UNL A   1      50.247  26.114  31.281  1.00  0.00     0.040 A 
ATOM     64  F   UNL A   1      48.069  26.230  32.143  1.00  0.00    -0.206 F 
ATOM     65  C   UNL A   1      51.148  26.309  30.237  1.00  0.00     0.006 A 
ENDBRANCH  44  58
BRANCH  45  66
ATOM     66  C   UNL A   1      38.727  29.124  29.072  1.00  0.00     0.057 A 
ATOM     67  C   UNL A   1      38.174  29.558  27.860  1.00  0.00     0.134 A 
ATOM     68  C   UNL A   1      37.869  29.029  30.173  1.00  0.00     0.134 A 
ATOM     69  F   UNL A   1      38.949  29.688  26.774  1.00  0.00    -0.206 F 
ATOM     70  C   UNL A   1      36.828  29.910  27.754  1.00  0.00     0.040 A 
ATOM     71  C   UNL A   1      36.514  29.349  30.075  1.00  0.00     0.040 A 
ATOM     72  F   UNL A   1      38.334  28.612  31.360  1.00  0.00    -0.206 F 
ATOM     73  C   UNL A   1      35.993  29.801  28.864  1.00  0.00     0.006 A 
ENDBRANCH  45  66
BRANCH  57  74
ATOM     74  C   UNL A   1      44.284  32.816  31.038  1.00  0.00     0.057 A 
ATOM     75  C   UNL A   1      44.525  33.847  30.121  1.00  0.00     0.134 A 
ATOM     76  C   UNL A   1      44.198  33.165  32.392  1.00  0.00     0.134 A 
ATOM     77  F   UNL A   1      44.629  33.583  28.809  1.00  0.00    -0.206 F 
ATOM     78  C   UNL A   1      44.721  35.166  30.539  1.00  0.00     0.040 A 
ATOM     79  C   UNL A   1      44.360  34.485  32.818  1.00  0.00     0.040 A 
ATOM     80  F   UNL A   1      43.958  32.231  33.324  1.00  0.00    -0.206 F 
ATOM     81  C   UNL A   1      44.636  35.487  31.892  1.00  0.00     0.006 A 
ENDBRANCH  57  74
ENDBRANCH  31  32
ENDBRANCH  23  26
ENDBRANCH  21  22
ENDBRANCH  20  21
ENDBRANCH   1  20
TORSDOF 13
ENDMDL
