MODEL 1
REMARK VINA RESULT:     -11.1      0.000      0.000
REMARK SMILES Cc1cc(S[C@@H](C)c2ccc(C(=O)NCCCNC(=O)c3ccc(-c4c5nc(c(-c6c(F)cccc6F)c6ccc([nH]6)c(-c6c(F)cccc6F)c6nc(c(-c7c(F)cccc7F)c7ccc4[nH]7)C=C6)C=C5)cc3)o2)n(C)n1
REMARK SMILES IDX 15 1 14 2 12 3 13 4 11 6 8 7 9 8 75 9 10 10 6 11 7 12 5 13
REMARK SMILES IDX 4 14 1 15 2 16 3 17 78 18 76 19 77 20 16 21 17 22 18 23
REMARK SMILES IDX 19 24 20 26 21 27 22 28 74 29 23 30 73 31 24 32 25 33 26 34
REMARK SMILES IDX 67 35 27 36 72 37 66 38 68 39 28 40 71 41 65 42 64 43 29 45
REMARK SMILES IDX 55 46 38 47 54 48 39 49 42 50 53 51 69 52 40 53 41 54 52 56
REMARK SMILES IDX 70 57 43 58 30 59 31 60 36 61 32 62 33 63 35 64 37 65 34 66
REMARK SMILES IDX 56 67 57 68 62 69 58 70 59 71 61 72 63 73 60 74 44 75 45 76
REMARK SMILES IDX 50 77 46 78 47 79 49 80 51 81 48 82
REMARK H PARENT 14 5 18 25 68 44 42 55
REMARK Flexibility Score: inf
ROOT
ATOM      1  C   UNL A   1      35.768  20.332  24.983  1.00  0.00     0.118 C 
ENDROOT
BRANCH   1   2
ATOM      2  N   UNL A   1      34.622  19.493  25.257  1.00  0.00    -0.349 N 
ATOM      3  C   UNL A   1      33.293  19.637  24.939  1.00  0.00     0.286 C 
ATOM      4  O   UNL A   1      32.569  18.696  25.270  1.00  0.00    -0.266 OA
ATOM      5  H   UNL A   1      34.832  18.673  25.760  1.00  0.00     0.163 HD
BRANCH   3   6
ATOM      6  C   UNL A   1      32.792  20.816  24.258  1.00  0.00     0.191 A 
ATOM      7  C   UNL A   1      31.718  22.765  24.268  1.00  0.00     0.118 A 
ATOM      8  C   UNL A   1      32.163  22.567  22.978  1.00  0.00     0.047 A 
ATOM      9  O   UNL A   1      32.086  21.701  25.031  1.00  0.00    -0.455 OA
ATOM     10  C   UNL A   1      32.868  21.335  22.977  1.00  0.00     0.056 A 
BRANCH   7  11
ATOM     11  C   UNL A   1      30.970  23.892  24.917  1.00  0.00     0.116 C 
ATOM     12  C   UNL A   1      30.271  24.786  23.893  1.00  0.00     0.028 C 
BRANCH  11  13
ATOM     13  S   UNL A   1      31.884  24.846  26.171  1.00  0.00    -0.096 SA
BRANCH  13  14
ATOM     14  C   UNL A   1      33.548  24.343  26.114  1.00  0.00     0.095 A 
ATOM     15  C   UNL A   1      37.058  23.843  25.163  1.00  0.00     0.069 C 
ATOM     16  C   UNL A   1      35.690  23.891  25.729  1.00  0.00     0.061 A 
ATOM     17  C   UNL A   1      34.617  24.718  25.334  1.00  0.00     0.060 A 
ATOM     18  N   UNL A   1      35.340  23.077  26.729  1.00  0.00    -0.178 NA
ATOM     19  N   UNL A   1      34.026  23.336  26.921  1.00  0.00    -0.262 N 
ATOM     20  C   UNL A   1      33.334  22.527  27.896  1.00  0.00     0.175 C 
ENDBRANCH  13  14
ENDBRANCH  11  13
ENDBRANCH   7  11
ENDBRANCH   3   6
ENDBRANCH   1   2
BRANCH   1  21
ATOM     21  C   UNL A   1      37.045  19.508  24.840  1.00  0.00     0.042 C 
BRANCH  21  22
ATOM     22  C   UNL A   1      38.275  20.183  25.451  1.00  0.00     0.118 C 
BRANCH  22  23
ATOM     23  N   UNL A   1      39.371  19.244  25.649  1.00  0.00    -0.352 N 
ATOM     24  C   UNL A   1      40.676  19.462  26.010  1.00  0.00     0.251 C 
ATOM     25  H   UNL A   1      39.136  18.299  25.501  1.00  0.00     0.163 HD
ATOM     26  O   UNL A   1      41.489  18.548  25.899  1.00  0.00    -0.269 OA
BRANCH  24  27
ATOM     27  C   UNL A   1      41.119  20.775  26.526  1.00  0.00     0.039 A 
ATOM     28  C   UNL A   1      41.072  21.002  27.906  1.00  0.00     0.014 A 
ATOM     29  C   UNL A   1      41.506  21.805  25.664  1.00  0.00     0.014 A 
ATOM     30  C   UNL A   1      41.459  22.242  28.423  1.00  0.00     0.010 A 
ATOM     31  C   UNL A   1      41.945  23.022  26.185  1.00  0.00     0.010 A 
ATOM     32  C   UNL A   1      41.921  23.253  27.569  1.00  0.00    -0.014 A 
BRANCH  32  33
ATOM     33  C   UNL A   1      42.373  24.563  28.101  1.00  0.00     0.031 A 
ATOM     34  C   UNL A   1      41.380  25.668  28.337  1.00  0.00     0.074 A 
ATOM     35  C   UNL A   1      43.684  24.776  28.325  1.00  0.00     0.049 A 
ATOM     36  N   UNL A   1      41.592  26.907  28.701  1.00  0.00    -0.248 NA
ATOM     37  C   UNL A   1      39.962  25.340  28.118  1.00  0.00     0.031 C 
ATOM     38  C   UNL A   1      44.750  23.796  28.113  1.00  0.00     0.029 A 
ATOM     39  N   UNL A   1      44.345  25.895  28.768  1.00  0.00    -0.354 N 
ATOM     40  C   UNL A   1      40.341  27.508  28.744  1.00  0.00     0.074 A 
ATOM     41  C   UNL A   1      39.377  26.511  28.329  1.00  0.00     0.031 C 
ATOM     42  C   UNL A   1      45.929  24.351  28.438  1.00  0.00     0.029 A 
ATOM     43  C   UNL A   1      45.708  25.734  28.846  1.00  0.00     0.049 A 
ATOM     44  H   UNL A   1      43.886  26.731  29.009  1.00  0.00     0.167 HD
ATOM     45  C   UNL A   1      40.020  28.771  29.115  1.00  0.00     0.037 A 
ATOM     46  C   UNL A   1      46.669  26.609  29.195  1.00  0.00     0.037 A 
ATOM     47  C   UNL A   1      40.973  29.759  29.547  1.00  0.00     0.049 A 
ATOM     48  C   UNL A   1      46.285  28.007  29.593  1.00  0.00     0.074 A 
ATOM     49  C   UNL A   1      40.743  31.062  29.954  1.00  0.00     0.029 A 
ATOM     50  N   UNL A   1      42.340  29.547  29.638  1.00  0.00    -0.354 N 
ATOM     51  N   UNL A   1      45.096  28.553  29.650  1.00  0.00    -0.248 NA
ATOM     52  C   UNL A   1      47.380  28.910  29.979  1.00  0.00     0.031 C 
ATOM     53  C   UNL A   1      41.973  31.646  30.274  1.00  0.00     0.029 A 
ATOM     54  C   UNL A   1      42.965  30.695  30.095  1.00  0.00     0.049 A 
ATOM     55  H   UNL A   1      42.798  28.706  29.411  1.00  0.00     0.167 HD
ATOM     56  C   UNL A   1      45.294  29.849  30.105  1.00  0.00     0.074 A 
ATOM     57  C   UNL A   1      46.717  30.005  30.319  1.00  0.00     0.031 C 
ATOM     58  C   UNL A   1      44.380  30.825  30.323  1.00  0.00     0.037 A 
BRANCH  45  59
ATOM     59  C   UNL A   1      38.570  29.153  29.085  1.00  0.00     0.057 A 
ATOM     60  C   UNL A   1      37.768  29.065  30.230  1.00  0.00     0.134 A 
ATOM     61  C   UNL A   1      37.982  29.656  27.919  1.00  0.00     0.134 A 
ATOM     62  F   UNL A   1      38.270  28.579  31.375  1.00  0.00    -0.206 F 
ATOM     63  C   UNL A   1      36.426  29.449  30.212  1.00  0.00     0.040 A 
ATOM     64  C   UNL A   1      36.646  30.063  27.894  1.00  0.00     0.040 A 
ATOM     65  F   UNL A   1      38.696  29.771  26.789  1.00  0.00    -0.206 F 
ATOM     66  C   UNL A   1      35.864  29.957  29.043  1.00  0.00     0.006 A 
ENDBRANCH  45  59
BRANCH  46  67
ATOM     67  C   UNL A   1      48.094  26.192  29.201  1.00  0.00     0.057 A 
ATOM     68  C   UNL A   1      48.872  26.269  28.041  1.00  0.00     0.134 A 
ATOM     69  C   UNL A   1      48.699  25.679  30.353  1.00  0.00     0.134 A 
ATOM     70  F   UNL A   1      48.338  26.734  26.901  1.00  0.00    -0.206 F 
ATOM     71  C   UNL A   1      50.195  25.829  28.018  1.00  0.00     0.040 A 
ATOM     72  C   UNL A   1      50.030  25.255  30.351  1.00  0.00     0.040 A 
ATOM     73  F   UNL A   1      48.009  25.586  31.499  1.00  0.00    -0.206 F 
ATOM     74  C   UNL A   1      50.779  25.322  29.177  1.00  0.00     0.006 A 
ENDBRANCH  46  67
BRANCH  58  75
ATOM     75  C   UNL A   1      44.887  32.128  30.862  1.00  0.00     0.057 A 
ATOM     76  C   UNL A   1      44.990  32.366  32.238  1.00  0.00     0.134 A 
ATOM     77  C   UNL A   1      45.304  33.143  29.992  1.00  0.00     0.134 A 
ATOM     78  F   UNL A   1      44.593  31.438  33.121  1.00  0.00    -0.206 F 
ATOM     79  C   UNL A   1      45.474  33.579  32.731  1.00  0.00     0.040 A 
ATOM     80  C   UNL A   1      45.808  34.352  30.473  1.00  0.00     0.040 A 
ATOM     81  F   UNL A   1      45.234  32.972  28.664  1.00  0.00    -0.206 F 
ATOM     82  C   UNL A   1      45.890  34.574  31.846  1.00  0.00     0.006 A 
ENDBRANCH  58  75
ENDBRANCH  32  33
ENDBRANCH  24  27
ENDBRANCH  22  23
ENDBRANCH  21  22
ENDBRANCH   1  21
TORSDOF 13
ENDMDL
MODEL 2
REMARK VINA RESULT:     -11.0      4.855      8.567
REMARK SMILES Cc1cc(S[C@@H](C)c2ccc(C(=O)NCCCNC(=O)c3ccc(-c4c5nc(c(-c6c(F)cccc6F)c6ccc([nH]6)c(-c6c(F)cccc6F)c6nc(c(-c7c(F)cccc7F)c7ccc4[nH]7)C=C6)C=C5)cc3)o2)n(C)n1
REMARK SMILES IDX 15 1 14 2 12 3 13 4 11 6 8 7 9 8 75 9 10 10 6 11 7 12 5 13
REMARK SMILES IDX 4 14 1 15 2 16 3 17 78 18 76 19 77 20 16 21 17 22 18 23
REMARK SMILES IDX 19 24 20 26 21 27 22 28 74 29 23 30 73 31 24 32 25 33 26 34
REMARK SMILES IDX 67 35 27 36 72 37 66 38 68 39 28 40 71 41 65 42 64 43 29 45
REMARK SMILES IDX 55 46 38 47 54 48 39 49 42 50 53 51 69 52 40 53 41 54 52 56
REMARK SMILES IDX 70 57 43 58 30 59 31 60 36 61 32 62 33 63 35 64 37 65 34 66
REMARK SMILES IDX 56 67 57 68 62 69 58 70 59 71 61 72 63 73 60 74 44 75 45 76
REMARK SMILES IDX 50 77 46 78 47 79 49 80 51 81 48 82
REMARK H PARENT 14 5 18 25 68 44 42 55
REMARK Flexibility Score: inf
ROOT
ATOM      1  C   UNL A   1      30.946  30.186  24.884  1.00  0.00     0.118 C 
ENDROOT
BRANCH   1   2
ATOM      2  N   UNL A   1      30.420  30.258  23.539  1.00  0.00    -0.349 N 
ATOM      3  C   UNL A   1      29.909  29.289  22.709  1.00  0.00     0.286 C 
ATOM      4  O   UNL A   1      29.480  29.696  21.627  1.00  0.00    -0.266 OA
ATOM      5  H   UNL A   1      30.429  31.162  23.148  1.00  0.00     0.163 HD
BRANCH   3   6
ATOM      6  C   UNL A   1      29.879  27.890  23.093  1.00  0.00     0.191 A 
ATOM      7  C   UNL A   1      30.767  25.850  23.098  1.00  0.00     0.118 A 
ATOM      8  C   UNL A   1      29.619  25.781  23.859  1.00  0.00     0.047 A 
ATOM      9  O   UNL A   1      30.911  27.118  22.627  1.00  0.00    -0.455 OA
ATOM     10  C   UNL A   1      29.066  27.088  23.875  1.00  0.00     0.056 A 
BRANCH   7  11
ATOM     11  C   UNL A   1      31.813  24.831  22.753  1.00  0.00     0.116 C 
ATOM     12  C   UNL A   1      31.598  23.510  23.492  1.00  0.00     0.028 C 
BRANCH  11  13
ATOM     13  S   UNL A   1      33.542  25.399  22.824  1.00  0.00    -0.096 SA
BRANCH  13  14
ATOM     14  C   UNL A   1      33.653  26.614  24.064  1.00  0.00     0.095 A 
ATOM     15  C   UNL A   1      33.530  28.432  27.251  1.00  0.00     0.069 C 
ATOM     16  C   UNL A   1      33.653  27.909  25.870  1.00  0.00     0.061 A 
ATOM     17  C   UNL A   1      33.512  26.576  25.432  1.00  0.00     0.060 A 
ATOM     18  N   UNL A   1      33.917  28.735  24.853  1.00  0.00    -0.178 NA
ATOM     19  N   UNL A   1      33.871  27.938  23.762  1.00  0.00    -0.262 N 
ATOM     20  C   UNL A   1      34.028  28.576  22.476  1.00  0.00     0.175 C 
ENDBRANCH  13  14
ENDBRANCH  11  13
ENDBRANCH   7  11
ENDBRANCH   3   6
ENDBRANCH   1   2
BRANCH   1  21
ATOM     21  C   UNL A   1      30.813  31.522  25.611  1.00  0.00     0.042 C 
BRANCH  21  22
ATOM     22  C   UNL A   1      31.966  31.807  26.574  1.00  0.00     0.118 C 
BRANCH  22  23
ATOM     23  N   UNL A   1      32.087  33.227  26.876  1.00  0.00    -0.352 N 
ATOM     24  C   UNL A   1      32.909  33.884  27.755  1.00  0.00     0.251 C 
ATOM     25  H   UNL A   1      31.480  33.810  26.365  1.00  0.00     0.163 HD
ATOM     26  O   UNL A   1      32.688  35.064  28.017  1.00  0.00    -0.269 OA
BRANCH  24  27
ATOM     27  C   UNL A   1      34.051  33.196  28.396  1.00  0.00     0.039 A 
ATOM     28  C   UNL A   1      35.258  33.891  28.536  1.00  0.00     0.014 A 
ATOM     29  C   UNL A   1      33.970  31.857  28.789  1.00  0.00     0.014 A 
ATOM     30  C   UNL A   1      36.364  33.262  29.112  1.00  0.00     0.010 A 
ATOM     31  C   UNL A   1      35.057  31.248  29.414  1.00  0.00     0.010 A 
ATOM     32  C   UNL A   1      36.265  31.942  29.578  1.00  0.00    -0.014 A 
BRANCH  32  33
ATOM     33  C   UNL A   1      37.417  31.268  30.229  1.00  0.00     0.031 A 
ATOM     34  C   UNL A   1      37.754  31.563  31.665  1.00  0.00     0.074 A 
ATOM     35  C   UNL A   1      38.190  30.429  29.514  1.00  0.00     0.049 A 
ATOM     36  N   UNL A   1      38.774  31.154  32.376  1.00  0.00    -0.248 NA
ATOM     37  C   UNL A   1      36.832  32.450  32.391  1.00  0.00     0.031 C 
ATOM     38  C   UNL A   1      37.984  30.078  28.107  1.00  0.00     0.029 A 
ATOM     39  N   UNL A   1      39.315  29.727  29.869  1.00  0.00    -0.354 N 
ATOM     40  C   UNL A   1      38.623  31.739  33.626  1.00  0.00     0.074 A 
ATOM     41  C   UNL A   1      37.437  32.567  33.566  1.00  0.00     0.031 C 
ATOM     42  C   UNL A   1      38.942  29.219  27.723  1.00  0.00     0.029 A 
ATOM     43  C   UNL A   1      39.849  28.986  28.843  1.00  0.00     0.049 A 
ATOM     44  H   UNL A   1      39.701  29.752  30.774  1.00  0.00     0.167 HD
ATOM     45  C   UNL A   1      39.392  31.587  34.731  1.00  0.00     0.037 A 
ATOM     46  C   UNL A   1      40.952  28.216  28.807  1.00  0.00     0.037 A 
ATOM     47  C   UNL A   1      40.561  30.750  34.800  1.00  0.00     0.049 A 
ATOM     48  C   UNL A   1      41.792  28.072  30.045  1.00  0.00     0.074 A 
ATOM     49  C   UNL A   1      41.397  30.521  35.879  1.00  0.00     0.029 A 
ATOM     50  N   UNL A   1      41.051  29.994  33.746  1.00  0.00    -0.354 N 
ATOM     51  N   UNL A   1      41.623  28.615  31.226  1.00  0.00    -0.248 NA
ATOM     52  C   UNL A   1      42.975  27.205  29.947  1.00  0.00     0.031 C 
ATOM     53  C   UNL A   1      42.406  29.641  35.473  1.00  0.00     0.029 A 
ATOM     54  C   UNL A   1      42.178  29.299  34.150  1.00  0.00     0.049 A 
ATOM     55  H   UNL A   1      40.656  29.958  32.846  1.00  0.00     0.167 HD
ATOM     56  C   UNL A   1      42.657  28.133  32.017  1.00  0.00     0.074 A 
ATOM     57  C   UNL A   1      43.443  27.246  31.185  1.00  0.00     0.031 C 
ATOM     58  C   UNL A   1      42.934  28.403  33.315  1.00  0.00     0.037 A 
BRANCH  45  59
ATOM     59  C   UNL A   1      38.982  32.332  35.966  1.00  0.00     0.057 A 
ATOM     60  C   UNL A   1      39.352  33.667  36.171  1.00  0.00     0.134 A 
ATOM     61  C   UNL A   1      38.172  31.728  36.936  1.00  0.00     0.134 A 
ATOM     62  F   UNL A   1      40.138  34.298  35.285  1.00  0.00    -0.206 F 
ATOM     63  C   UNL A   1      38.945  34.372  37.305  1.00  0.00     0.040 A 
ATOM     64  C   UNL A   1      37.741  32.429  38.064  1.00  0.00     0.040 A 
ATOM     65  F   UNL A   1      37.778  30.454  36.798  1.00  0.00    -0.206 F 
ATOM     66  C   UNL A   1      38.131  33.754  38.252  1.00  0.00     0.006 A 
ENDBRANCH  45  59
BRANCH  46  67
ATOM     67  C   UNL A   1      41.327  27.504  27.560  1.00  0.00     0.057 A 
ATOM     68  C   UNL A   1      42.104  28.130  26.579  1.00  0.00     0.134 A 
ATOM     69  C   UNL A   1      40.895  26.198  27.306  1.00  0.00     0.134 A 
ATOM     70  F   UNL A   1      42.530  29.390  26.758  1.00  0.00    -0.206 F 
ATOM     71  C   UNL A   1      42.417  27.493  25.378  1.00  0.00     0.040 A 
ATOM     72  C   UNL A   1      41.220  25.540  26.118  1.00  0.00     0.040 A 
ATOM     73  F   UNL A   1      40.154  25.541  28.210  1.00  0.00    -0.206 F 
ATOM     74  C   UNL A   1      41.976  26.192  25.146  1.00  0.00     0.006 A 
ENDBRANCH  46  67
BRANCH  58  75
ATOM     75  C   UNL A   1      44.106  27.696  33.926  1.00  0.00     0.057 A 
ATOM     76  C   UNL A   1      45.387  28.260  33.928  1.00  0.00     0.134 A 
ATOM     77  C   UNL A   1      43.941  26.450  34.543  1.00  0.00     0.134 A 
ATOM     78  F   UNL A   1      45.611  29.444  33.338  1.00  0.00    -0.206 F 
ATOM     79  C   UNL A   1      46.471  27.599  34.508  1.00  0.00     0.040 A 
ATOM     80  C   UNL A   1      45.013  25.789  35.145  1.00  0.00     0.040 A 
ATOM     81  F   UNL A   1      42.737  25.862  34.578  1.00  0.00    -0.206 F 
ATOM     82  C   UNL A   1      46.283  26.362  35.124  1.00  0.00     0.006 A 
ENDBRANCH  58  75
ENDBRANCH  32  33
ENDBRANCH  24  27
ENDBRANCH  22  23
ENDBRANCH  21  22
ENDBRANCH   1  21
TORSDOF 13
ENDMDL
MODEL 3
REMARK VINA RESULT:     -10.9      1.459      2.334
REMARK SMILES Cc1cc(S[C@@H](C)c2ccc(C(=O)NCCCNC(=O)c3ccc(-c4c5nc(c(-c6c(F)cccc6F)c6ccc([nH]6)c(-c6c(F)cccc6F)c6nc(c(-c7c(F)cccc7F)c7ccc4[nH]7)C=C6)C=C5)cc3)o2)n(C)n1
REMARK SMILES IDX 15 1 14 2 12 3 13 4 11 6 8 7 9 8 75 9 10 10 6 11 7 12 5 13
REMARK SMILES IDX 4 14 1 15 2 16 3 17 78 18 76 19 77 20 16 21 17 22 18 23
REMARK SMILES IDX 19 24 20 26 21 27 22 28 74 29 23 30 73 31 24 32 25 33 26 34
REMARK SMILES IDX 67 35 27 36 72 37 66 38 68 39 28 40 71 41 65 42 64 43 29 45
REMARK SMILES IDX 55 46 38 47 54 48 39 49 42 50 53 51 69 52 40 53 41 54 52 56
REMARK SMILES IDX 70 57 43 58 30 59 31 60 36 61 32 62 33 63 35 64 37 65 34 66
REMARK SMILES IDX 56 67 57 68 62 69 58 70 59 71 61 72 63 73 60 74 44 75 45 76
REMARK SMILES IDX 50 77 46 78 47 79 49 80 51 81 48 82
REMARK H PARENT 14 5 18 25 68 44 42 55
REMARK Flexibility Score: inf
ROOT
ATOM      1  C   UNL A   1      35.951  20.434  24.976  1.00  0.00     0.118 C 
ENDROOT
BRANCH   1   2
ATOM      2  N   UNL A   1      34.775  19.663  25.316  1.00  0.00    -0.349 N 
ATOM      3  C   UNL A   1      33.439  19.898  25.095  1.00  0.00     0.286 C 
ATOM      4  O   UNL A   1      32.680  18.998  25.460  1.00  0.00    -0.266 OA
ATOM      5  H   UNL A   1      34.965  18.821  25.789  1.00  0.00     0.163 HD
BRANCH   3   6
ATOM      6  C   UNL A   1      32.970  21.121  24.470  1.00  0.00     0.191 A 
ATOM      7  C   UNL A   1      32.592  23.313  24.517  1.00  0.00     0.118 A 
ATOM      8  C   UNL A   1      32.225  22.877  23.262  1.00  0.00     0.047 A 
ATOM      9  O   UNL A   1      33.025  22.250  25.246  1.00  0.00    -0.455 OA
ATOM     10  C   UNL A   1      32.488  21.483  23.225  1.00  0.00     0.056 A 
BRANCH   7  11
ATOM     11  C   UNL A   1      32.608  24.674  25.150  1.00  0.00     0.116 C 
ATOM     12  C   UNL A   1      31.231  25.336  25.127  1.00  0.00     0.028 C 
BRANCH  11  13
ATOM     13  S   UNL A   1      33.934  25.797  24.605  1.00  0.00    -0.096 SA
BRANCH  13  14
ATOM     14  C   UNL A   1      33.520  27.403  25.129  1.00  0.00     0.095 A 
ATOM     15  C   UNL A   1      32.759  30.378  27.140  1.00  0.00     0.069 C 
ATOM     16  C   UNL A   1      33.016  29.319  26.138  1.00  0.00     0.061 A 
ATOM     17  C   UNL A   1      33.529  28.023  26.357  1.00  0.00     0.060 A 
ATOM     18  N   UNL A   1      32.745  29.527  24.846  1.00  0.00    -0.178 NA
ATOM     19  N   UNL A   1      33.018  28.341  24.257  1.00  0.00    -0.262 N 
ATOM     20  C   UNL A   1      32.728  28.227  22.846  1.00  0.00     0.175 C 
ENDBRANCH  13  14
ENDBRANCH  11  13
ENDBRANCH   7  11
ENDBRANCH   3   6
ENDBRANCH   1   2
BRANCH   1  21
ATOM     21  C   UNL A   1      37.203  19.560  24.942  1.00  0.00     0.042 C 
BRANCH  21  22
ATOM     22  C   UNL A   1      38.447  20.260  25.492  1.00  0.00     0.118 C 
BRANCH  22  23
ATOM     23  N   UNL A   1      39.562  19.338  25.661  1.00  0.00    -0.352 N 
ATOM     24  C   UNL A   1      40.867  19.574  26.010  1.00  0.00     0.251 C 
ATOM     25  H   UNL A   1      39.342  18.392  25.500  1.00  0.00     0.163 HD
ATOM     26  O   UNL A   1      41.696  18.678  25.873  1.00  0.00    -0.269 OA
BRANCH  24  27
ATOM     27  C   UNL A   1      41.293  20.887  26.542  1.00  0.00     0.039 A 
ATOM     28  C   UNL A   1      41.124  21.142  27.907  1.00  0.00     0.014 A 
ATOM     29  C   UNL A   1      41.784  21.890  25.702  1.00  0.00     0.014 A 
ATOM     30  C   UNL A   1      41.491  22.382  28.437  1.00  0.00     0.010 A 
ATOM     31  C   UNL A   1      42.203  23.106  26.240  1.00  0.00     0.010 A 
ATOM     32  C   UNL A   1      42.057  23.366  27.611  1.00  0.00    -0.014 A 
BRANCH  32  33
ATOM     33  C   UNL A   1      42.490  24.675  28.161  1.00  0.00     0.031 A 
ATOM     34  C   UNL A   1      41.486  25.776  28.373  1.00  0.00     0.074 A 
ATOM     35  C   UNL A   1      43.792  24.892  28.421  1.00  0.00     0.049 A 
ATOM     36  N   UNL A   1      41.684  27.015  28.747  1.00  0.00    -0.248 NA
ATOM     37  C   UNL A   1      40.076  25.444  28.114  1.00  0.00     0.031 C 
ATOM     38  C   UNL A   1      44.868  23.915  28.235  1.00  0.00     0.029 A 
ATOM     39  N   UNL A   1      44.438  26.010  28.887  1.00  0.00    -0.354 N 
ATOM     40  C   UNL A   1      40.430  27.611  28.758  1.00  0.00     0.074 A 
ATOM     41  C   UNL A   1      39.482  26.612  28.313  1.00  0.00     0.031 C 
ATOM     42  C   UNL A   1      46.035  24.473  28.595  1.00  0.00     0.029 A 
ATOM     43  C   UNL A   1      45.798  25.854  29.002  1.00  0.00     0.049 A 
ATOM     44  H   UNL A   1      43.970  26.845  29.117  1.00  0.00     0.167 HD
ATOM     45  C   UNL A   1      40.096  28.872  29.124  1.00  0.00     0.037 A 
ATOM     46  C   UNL A   1      46.747  26.730  29.380  1.00  0.00     0.037 A 
ATOM     47  C   UNL A   1      41.034  29.862  29.586  1.00  0.00     0.049 A 
ATOM     48  C   UNL A   1      46.348  28.126  29.772  1.00  0.00     0.074 A 
ATOM     49  C   UNL A   1      40.788  31.162  29.992  1.00  0.00     0.029 A 
ATOM     50  N   UNL A   1      42.398  29.654  29.714  1.00  0.00    -0.354 N 
ATOM     51  N   UNL A   1      45.155  28.668  29.798  1.00  0.00    -0.248 NA
ATOM     52  C   UNL A   1      47.428  29.031  30.191  1.00  0.00     0.031 C 
ATOM     53  C   UNL A   1      42.007  31.748  30.347  1.00  0.00     0.029 A 
ATOM     54  C   UNL A   1      43.006  30.802  30.192  1.00  0.00     0.049 A 
ATOM     55  H   UNL A   1      42.864  28.814  29.497  1.00  0.00     0.167 HD
ATOM     56  C   UNL A   1      45.337  29.963  30.263  1.00  0.00     0.074 A 
ATOM     57  C   UNL A   1      46.753  30.123  30.517  1.00  0.00     0.031 C 
ATOM     58  C   UNL A   1      44.414  30.935  30.460  1.00  0.00     0.037 A 
BRANCH  45  59
ATOM     59  C   UNL A   1      38.646  29.250  29.056  1.00  0.00     0.057 A 
ATOM     60  C   UNL A   1      38.054  29.662  27.855  1.00  0.00     0.134 A 
ATOM     61  C   UNL A   1      37.824  29.157  30.185  1.00  0.00     0.134 A 
ATOM     62  F   UNL A   1      38.791  29.783  26.740  1.00  0.00    -0.206 F 
ATOM     63  C   UNL A   1      36.697  29.983  27.782  1.00  0.00     0.040 A 
ATOM     64  C   UNL A   1      36.461  29.456  30.119  1.00  0.00     0.040 A 
ATOM     65  F   UNL A   1      38.326  28.764  31.364  1.00  0.00    -0.206 F 
ATOM     66  C   UNL A   1      35.896  29.873  28.916  1.00  0.00     0.006 A 
ENDBRANCH  45  59
BRANCH  46  67
ATOM     67  C   UNL A   1      48.172  26.317  29.424  1.00  0.00     0.057 A 
ATOM     68  C   UNL A   1      49.001  26.470  28.306  1.00  0.00     0.134 A 
ATOM     69  C   UNL A   1      48.728  25.735  30.567  1.00  0.00     0.134 A 
ATOM     70  F   UNL A   1      48.516  27.003  27.175  1.00  0.00    -0.206 F 
ATOM     71  C   UNL A   1      50.326  26.035  28.315  1.00  0.00     0.040 A 
ATOM     72  C   UNL A   1      50.061  25.316  30.598  1.00  0.00     0.040 A 
ATOM     73  F   UNL A   1      47.989  25.568  31.673  1.00  0.00    -0.206 F 
ATOM     74  C   UNL A   1      50.860  25.458  29.465  1.00  0.00     0.006 A 
ENDBRANCH  46  67
BRANCH  58  75
ATOM     75  C   UNL A   1      44.902  32.238  31.018  1.00  0.00     0.057 A 
ATOM     76  C   UNL A   1      45.312  33.287  30.187  1.00  0.00     0.134 A 
ATOM     77  C   UNL A   1      44.932  32.452  32.401  1.00  0.00     0.134 A 
ATOM     78  F   UNL A   1      45.320  33.137  28.854  1.00  0.00    -0.206 F 
ATOM     79  C   UNL A   1      45.755  34.501  30.715  1.00  0.00     0.040 A 
ATOM     80  C   UNL A   1      45.353  33.668  32.940  1.00  0.00     0.040 A 
ATOM     81  F   UNL A   1      44.546  31.486  33.248  1.00  0.00    -0.206 F 
ATOM     82  C   UNL A   1      45.770  34.695  32.096  1.00  0.00     0.006 A 
ENDBRANCH  58  75
ENDBRANCH  32  33
ENDBRANCH  24  27
ENDBRANCH  22  23
ENDBRANCH  21  22
ENDBRANCH   1  21
TORSDOF 13
ENDMDL
