MODEL 1
REMARK VINA RESULT:     -12.6      0.000      0.000
REMARK SMILES Cc1c(/C=C/C(=O)NCCCNC(=O)c2ccc(-c3c4nc(c(-c5c(F)cccc5F)c5ccc([nH]5)c(-c5c(F)cccc5F)c5nc(c(-c6c(F)cccc6F)c6ccc3[nH]6)C=C5)C=C4)cc2)cccc1C(=O)N1C[C@@H](C)[C@@H](C)C1
REMARK SMILES IDX 9 1 8 2 6 3 7 4 5 6 4 7 3 8 1 9 2 10 72 11 69 12 71 13 70 14
REMARK SMILES IDX 73 15 74 16 75 17 76 18 81 19 77 20 79 21 78 22 80 23 10 24
REMARK SMILES IDX 11 25 12 26 13 27 14 29 15 30 16 31 68 32 17 33 67 34 18 35
REMARK SMILES IDX 19 36 20 37 61 38 21 39 66 40 60 41 62 42 22 43 65 44 59 45
REMARK SMILES IDX 58 46 23 48 49 49 32 50 48 51 33 52 36 53 47 54 63 55 34 56
REMARK SMILES IDX 35 57 46 59 64 60 37 61 24 62 25 63 30 64 26 65 27 66 29 67
REMARK SMILES IDX 31 68 28 69 50 70 51 71 56 72 52 73 53 74 55 75 57 76 54 77
REMARK SMILES IDX 38 78 39 79 44 80 40 81 41 82 43 83 45 84 42 85
REMARK H PARENT 8 5 12 28 62 47 36 58
REMARK Flexibility Score: inf
ROOT
ATOM      1  C   UNL A   1      36.114  21.305  25.843  1.00  0.00     0.118 C 
ENDROOT
BRANCH   1   2
ATOM      2  N   UNL A   1      35.373  20.170  25.305  1.00  0.00    -0.352 N 
ATOM      3  C   UNL A   1      34.122  20.154  24.753  1.00  0.00     0.244 C 
ATOM      4  O   UNL A   1      33.669  19.140  24.235  1.00  0.00    -0.270 OA
ATOM      5  H   UNL A   1      35.835  19.301  25.345  1.00  0.00     0.163 HD
BRANCH   3   6
ATOM      6  C   UNL A   1      33.357  21.418  24.737  1.00  0.00     0.072 C 
ATOM      7  C   UNL A   1      33.396  22.207  23.654  1.00  0.00     0.014 C 
BRANCH   7   8
ATOM      8  C   UNL A   1      32.573  23.418  23.478  1.00  0.00    -0.022 A 
ATOM      9  C   UNL A   1      34.633  24.881  23.697  1.00  0.00     0.046 C 
ATOM     10  C   UNL A   1      33.151  24.718  23.497  1.00  0.00    -0.031 A 
ATOM     11  C   UNL A   1      32.311  25.846  23.325  1.00  0.00     0.043 A 
ATOM     12  C   UNL A   1      31.181  23.275  23.370  1.00  0.00     0.008 A 
ATOM     13  C   UNL A   1      30.921  25.667  23.207  1.00  0.00     0.014 A 
ATOM     14  C   UNL A   1      30.361  24.391  23.235  1.00  0.00     0.001 A 
BRANCH  11  15
ATOM     15  C   UNL A   1      32.765  27.243  23.576  1.00  0.00     0.254 C 
ATOM     16  O   UNL A   1      32.964  27.945  22.583  1.00  0.00    -0.269 OA
BRANCH  15  17
ATOM     17  N   UNL A   1      32.849  27.760  24.857  1.00  0.00    -0.338 N 
ATOM     18  C   UNL A   1      33.104  29.177  25.024  1.00  0.00     0.123 C 
ATOM     19  C   UNL A   1      32.891  27.052  26.129  1.00  0.00     0.123 C 
ATOM     20  C   UNL A   1      33.581  29.346  26.460  1.00  0.00     0.010 C 
ATOM     21  C   UNL A   1      32.941  28.154  27.206  1.00  0.00     0.010 C 
ATOM     22  C   UNL A   1      33.272  30.739  26.993  1.00  0.00     0.010 C 
ATOM     23  C   UNL A   1      31.563  28.434  27.806  1.00  0.00     0.010 C 
ENDBRANCH  15  17
ENDBRANCH  11  15
ENDBRANCH   7   8
ENDBRANCH   3   6
ENDBRANCH   1   2
BRANCH   1  24
ATOM     24  C   UNL A   1      37.414  21.551  25.083  1.00  0.00     0.042 C 
BRANCH  24  25
ATOM     25  C   UNL A   1      38.159  22.794  25.529  1.00  0.00     0.118 C 
BRANCH  25  26
ATOM     26  N   UNL A   1      39.459  22.521  26.135  1.00  0.00    -0.352 N 
ATOM     27  C   UNL A   1      40.356  23.391  26.735  1.00  0.00     0.251 C 
ATOM     28  H   UNL A   1      39.741  21.577  26.114  1.00  0.00     0.163 HD
ATOM     29  O   UNL A   1      41.426  22.979  27.145  1.00  0.00    -0.269 OA
BRANCH  27  30
ATOM     30  C   UNL A   1      39.946  24.794  26.991  1.00  0.00     0.039 A 
ATOM     31  C   UNL A   1      40.486  25.804  26.182  1.00  0.00     0.014 A 
ATOM     32  C   UNL A   1      39.226  25.126  28.130  1.00  0.00     0.014 A 
ATOM     33  C   UNL A   1      40.523  27.116  26.655  1.00  0.00     0.010 A 
ATOM     34  C   UNL A   1      39.382  26.384  28.659  1.00  0.00     0.010 A 
ATOM     35  C   UNL A   1      40.071  27.373  27.944  1.00  0.00    -0.014 A 
BRANCH  35  36
ATOM     36  C   UNL A   1      40.302  28.601  28.695  1.00  0.00     0.031 A 
ATOM     37  C   UNL A   1      39.237  29.627  28.763  1.00  0.00     0.074 A 
ATOM     38  C   UNL A   1      41.357  28.661  29.536  1.00  0.00     0.049 A 
ATOM     39  N   UNL A   1      39.351  30.768  29.349  1.00  0.00    -0.248 NA
ATOM     40  C   UNL A   1      37.940  29.445  28.123  1.00  0.00     0.031 C 
ATOM     41  C   UNL A   1      41.501  29.513  30.714  1.00  0.00     0.029 A 
ATOM     42  N   UNL A   1      42.624  28.084  29.370  1.00  0.00    -0.354 N 
ATOM     43  C   UNL A   1      38.106  31.355  29.400  1.00  0.00     0.074 A 
ATOM     44  C   UNL A   1      37.279  30.518  28.566  1.00  0.00     0.031 C 
ATOM     45  C   UNL A   1      42.804  29.640  31.002  1.00  0.00     0.029 A 
ATOM     46  C   UNL A   1      43.538  29.024  29.912  1.00  0.00     0.049 A 
ATOM     47  H   UNL A   1      42.834  27.212  28.964  1.00  0.00     0.167 HD
ATOM     48  C   UNL A   1      37.920  32.427  30.226  1.00  0.00     0.037 A 
ATOM     49  C   UNL A   1      44.431  29.679  29.111  1.00  0.00     0.037 A 
ATOM     50  C   UNL A   1      39.200  32.889  30.769  1.00  0.00     0.049 A 
ATOM     51  C   UNL A   1      44.294  31.187  29.086  1.00  0.00     0.074 A 
ATOM     52  C   UNL A   1      39.875  32.730  31.968  1.00  0.00     0.029 A 
ATOM     53  N   UNL A   1      40.113  33.439  29.889  1.00  0.00    -0.354 N 
ATOM     54  N   UNL A   1      43.342  31.851  29.681  1.00  0.00    -0.248 NA
ATOM     55  C   UNL A   1      45.168  32.060  28.299  1.00  0.00     0.031 C 
ATOM     56  C   UNL A   1      41.220  33.169  31.780  1.00  0.00     0.029 A 
ATOM     57  C   UNL A   1      41.352  33.598  30.470  1.00  0.00     0.049 A 
ATOM     58  H   UNL A   1      39.902  33.689  28.961  1.00  0.00     0.167 HD
ATOM     59  C   UNL A   1      43.402  33.164  29.300  1.00  0.00     0.074 A 
ATOM     60  C   UNL A   1      44.577  33.256  28.457  1.00  0.00     0.031 C 
ATOM     61  C   UNL A   1      42.449  34.073  29.646  1.00  0.00     0.037 A 
BRANCH  48  62
ATOM     62  C   UNL A   1      36.591  32.990  30.691  1.00  0.00     0.057 A 
ATOM     63  C   UNL A   1      35.762  33.684  29.783  1.00  0.00     0.134 A 
ATOM     64  C   UNL A   1      36.078  32.947  32.000  1.00  0.00     0.134 A 
ATOM     65  F   UNL A   1      36.051  33.758  28.477  1.00  0.00    -0.206 F 
ATOM     66  C   UNL A   1      34.585  34.344  30.163  1.00  0.00     0.040 A 
ATOM     67  C   UNL A   1      34.918  33.626  32.401  1.00  0.00     0.040 A 
ATOM     68  F   UNL A   1      36.625  32.207  32.964  1.00  0.00    -0.206 F 
ATOM     69  C   UNL A   1      34.170  34.341  31.483  1.00  0.00     0.006 A 
ENDBRANCH  48  62
BRANCH  49  70
ATOM     70  C   UNL A   1      44.855  28.859  27.947  1.00  0.00     0.057 A 
ATOM     71  C   UNL A   1      45.835  27.869  28.140  1.00  0.00     0.134 A 
ATOM     72  C   UNL A   1      44.054  28.757  26.806  1.00  0.00     0.134 A 
ATOM     73  F   UNL A   1      46.631  27.909  29.220  1.00  0.00    -0.206 F 
ATOM     74  C   UNL A   1      45.932  26.761  27.297  1.00  0.00     0.040 A 
ATOM     75  C   UNL A   1      44.153  27.657  25.948  1.00  0.00     0.040 A 
ATOM     76  F   UNL A   1      43.084  29.652  26.571  1.00  0.00    -0.206 F 
ATOM     77  C   UNL A   1      45.064  26.636  26.216  1.00  0.00     0.006 A 
ENDBRANCH  49  70
BRANCH  61  78
ATOM     78  C   UNL A   1      42.476  35.498  29.194  1.00  0.00     0.057 A 
ATOM     79  C   UNL A   1      41.810  35.925  28.040  1.00  0.00     0.134 A 
ATOM     80  C   UNL A   1      43.287  36.454  29.834  1.00  0.00     0.134 A 
ATOM     81  F   UNL A   1      41.024  35.082  27.352  1.00  0.00    -0.206 F 
ATOM     82  C   UNL A   1      41.946  37.227  27.548  1.00  0.00     0.040 A 
ATOM     83  C   UNL A   1      43.465  37.743  29.328  1.00  0.00     0.040 A 
ATOM     84  F   UNL A   1      43.919  36.177  30.984  1.00  0.00    -0.206 F 
ATOM     85  C   UNL A   1      42.791  38.135  28.180  1.00  0.00     0.006 A 
ENDBRANCH  61  78
ENDBRANCH  35  36
ENDBRANCH  27  30
ENDBRANCH  25  26
ENDBRANCH  24  25
ENDBRANCH   1  24
TORSDOF 13
ENDMDL
MODEL 2
REMARK VINA RESULT:     -12.6      3.590      9.085
REMARK SMILES Cc1c(/C=C/C(=O)NCCCNC(=O)c2ccc(-c3c4nc(c(-c5c(F)cccc5F)c5ccc([nH]5)c(-c5c(F)cccc5F)c5nc(c(-c6c(F)cccc6F)c6ccc3[nH]6)C=C5)C=C4)cc2)cccc1C(=O)N1C[C@@H](C)[C@@H](C)C1
REMARK SMILES IDX 9 1 8 2 6 3 7 4 5 6 4 7 3 8 1 9 2 10 72 11 69 12 71 13 70 14
REMARK SMILES IDX 73 15 74 16 75 17 76 18 81 19 77 20 79 21 78 22 80 23 10 24
REMARK SMILES IDX 11 25 12 26 13 27 14 29 15 30 16 31 68 32 17 33 67 34 18 35
REMARK SMILES IDX 19 36 20 37 61 38 21 39 66 40 60 41 62 42 22 43 65 44 59 45
REMARK SMILES IDX 58 46 23 48 49 49 32 50 48 51 33 52 36 53 47 54 63 55 34 56
REMARK SMILES IDX 35 57 46 59 64 60 37 61 24 62 25 63 30 64 26 65 27 66 29 67
REMARK SMILES IDX 31 68 28 69 50 70 51 71 56 72 52 73 53 74 55 75 57 76 54 77
REMARK SMILES IDX 38 78 39 79 44 80 40 81 41 82 43 83 45 84 42 85
REMARK H PARENT 8 5 12 28 62 47 36 58
REMARK Flexibility Score: inf
ROOT
ATOM      1  C   UNL A   1      31.642  29.829  25.965  1.00  0.00     0.118 C 
ENDROOT
BRANCH   1   2
ATOM      2  N   UNL A   1      31.166  30.157  24.626  1.00  0.00    -0.352 N 
ATOM      3  C   UNL A   1      30.612  29.326  23.692  1.00  0.00     0.244 C 
ATOM      4  O   UNL A   1      30.150  29.764  22.646  1.00  0.00    -0.270 OA
ATOM      5  H   UNL A   1      31.253  31.102  24.362  1.00  0.00     0.163 HD
BRANCH   3   6
ATOM      6  C   UNL A   1      30.527  27.886  24.011  1.00  0.00     0.072 C 
ATOM      7  C   UNL A   1      31.498  27.055  23.603  1.00  0.00     0.014 C 
BRANCH   7   8
ATOM      8  C   UNL A   1      31.582  25.631  23.976  1.00  0.00    -0.022 A 
ATOM      9  C   UNL A   1      33.264  26.178  25.793  1.00  0.00     0.046 C 
ATOM     10  C   UNL A   1      32.429  25.187  25.030  1.00  0.00    -0.031 A 
ATOM     11  C   UNL A   1      32.470  23.806  25.343  1.00  0.00     0.043 A 
ATOM     12  C   UNL A   1      30.865  24.694  23.216  1.00  0.00     0.008 A 
ATOM     13  C   UNL A   1      31.730  22.895  24.569  1.00  0.00     0.014 A 
ATOM     14  C   UNL A   1      30.939  23.336  23.510  1.00  0.00     0.001 A 
BRANCH  11  15
ATOM     15  C   UNL A   1      33.496  23.207  26.244  1.00  0.00     0.254 C 
ATOM     16  O   UNL A   1      33.138  22.954  27.395  1.00  0.00    -0.269 OA
BRANCH  15  17
ATOM     17  N   UNL A   1      34.750  22.850  25.781  1.00  0.00    -0.338 N 
ATOM     18  C   UNL A   1      35.119  21.448  25.774  1.00  0.00     0.123 C 
ATOM     19  C   UNL A   1      35.876  23.705  25.436  1.00  0.00     0.123 C 
ATOM     20  C   UNL A   1      36.637  21.421  25.659  1.00  0.00     0.010 C 
ATOM     21  C   UNL A   1      36.979  22.746  24.943  1.00  0.00     0.010 C 
ATOM     22  C   UNL A   1      37.125  20.137  25.001  1.00  0.00     0.010 C 
ATOM     23  C   UNL A   1      37.027  22.663  23.418  1.00  0.00     0.010 C 
ENDBRANCH  15  17
ENDBRANCH  11  15
ENDBRANCH   7   8
ENDBRANCH   3   6
ENDBRANCH   1   2
BRANCH   1  24
ATOM     24  C   UNL A   1      33.156  29.973  26.084  1.00  0.00     0.042 C 
BRANCH  24  25
ATOM     25  C   UNL A   1      33.671  29.875  27.507  1.00  0.00     0.118 C 
BRANCH  25  26
ATOM     26  N   UNL A   1      34.352  31.079  27.975  1.00  0.00    -0.352 N 
ATOM     27  C   UNL A   1      35.600  31.218  28.563  1.00  0.00     0.251 C 
ATOM     28  H   UNL A   1      33.849  31.918  27.857  1.00  0.00     0.163 HD
ATOM     29  O   UNL A   1      35.982  32.313  28.936  1.00  0.00    -0.269 OA
BRANCH  27  30
ATOM     30  C   UNL A   1      36.514  30.050  28.610  1.00  0.00     0.039 A 
ATOM     31  C   UNL A   1      36.626  29.341  29.815  1.00  0.00     0.014 A 
ATOM     32  C   UNL A   1      37.396  29.797  27.569  1.00  0.00     0.014 A 
ATOM     33  C   UNL A   1      37.768  28.578  30.058  1.00  0.00     0.010 A 
ATOM     34  C   UNL A   1      38.581  29.162  27.855  1.00  0.00     0.010 A 
ATOM     35  C   UNL A   1      38.792  28.590  29.117  1.00  0.00    -0.014 A 
BRANCH  35  36
ATOM     36  C   UNL A   1      40.149  28.101  29.332  1.00  0.00     0.031 A 
ATOM     37  C   UNL A   1      40.543  26.780  28.795  1.00  0.00     0.074 A 
ATOM     38  C   UNL A   1      41.090  28.967  29.765  1.00  0.00     0.049 A 
ATOM     39  N   UNL A   1      41.693  26.227  28.972  1.00  0.00    -0.248 NA
ATOM     40  C   UNL A   1      39.625  25.947  28.026  1.00  0.00     0.031 C 
ATOM     41  C   UNL A   1      42.535  28.871  29.569  1.00  0.00     0.029 A 
ATOM     42  N   UNL A   1      40.932  30.032  30.663  1.00  0.00    -0.354 N 
ATOM     43  C   UNL A   1      41.772  25.122  28.153  1.00  0.00     0.074 A 
ATOM     44  C   UNL A   1      40.435  24.960  27.636  1.00  0.00     0.031 C 
ATOM     45  C   UNL A   1      43.150  29.613  30.502  1.00  0.00     0.029 A 
ATOM     46  C   UNL A   1      42.126  30.056  31.430  1.00  0.00     0.049 A 
ATOM     47  H   UNL A   1      40.159  30.635  30.744  1.00  0.00     0.167 HD
ATOM     48  C   UNL A   1      42.994  24.547  27.946  1.00  0.00     0.037 A 
ATOM     49  C   UNL A   1      42.109  29.760  32.764  1.00  0.00     0.037 A 
ATOM     50  C   UNL A   1      43.996  25.126  28.843  1.00  0.00     0.049 A 
ATOM     51  C   UNL A   1      42.942  28.563  33.174  1.00  0.00     0.074 A 
ATOM     52  C   UNL A   1      44.994  26.079  28.720  1.00  0.00     0.029 A 
ATOM     53  N   UNL A   1      43.863  24.889  30.198  1.00  0.00    -0.354 N 
ATOM     54  N   UNL A   1      43.559  27.774  32.339  1.00  0.00    -0.248 NA
ATOM     55  C   UNL A   1      43.060  28.103  34.560  1.00  0.00     0.031 C 
ATOM     56  C   UNL A   1      45.434  26.430  30.031  1.00  0.00     0.029 A 
ATOM     57  C   UNL A   1      44.707  25.684  30.943  1.00  0.00     0.049 A 
ATOM     58  H   UNL A   1      43.241  24.231  30.584  1.00  0.00     0.167 HD
ATOM     59  C   UNL A   1      44.050  26.692  33.018  1.00  0.00     0.074 A 
ATOM     60  C   UNL A   1      43.739  26.953  34.410  1.00  0.00     0.031 C 
ATOM     61  C   UNL A   1      44.618  25.626  32.391  1.00  0.00     0.037 A 
BRANCH  48  62
ATOM     62  C   UNL A   1      43.358  23.572  26.843  1.00  0.00     0.057 A 
ATOM     63  C   UNL A   1      42.995  22.212  26.953  1.00  0.00     0.134 A 
ATOM     64  C   UNL A   1      44.099  23.863  25.683  1.00  0.00     0.134 A 
ATOM     65  F   UNL A   1      42.220  21.767  27.952  1.00  0.00    -0.206 F 
ATOM     66  C   UNL A   1      43.406  21.228  26.044  1.00  0.00     0.040 A 
ATOM     67  C   UNL A   1      44.542  22.885  24.780  1.00  0.00     0.040 A 
ATOM     68  F   UNL A   1      44.399  25.107  25.313  1.00  0.00    -0.206 F 
ATOM     69  C   UNL A   1      44.207  21.556  24.964  1.00  0.00     0.006 A 
ENDBRANCH  48  62
BRANCH  49  70
ATOM     70  C   UNL A   1      40.833  30.153  33.416  1.00  0.00     0.057 A 
ATOM     71  C   UNL A   1      40.661  31.491  33.811  1.00  0.00     0.134 A 
ATOM     72  C   UNL A   1      39.684  29.369  33.282  1.00  0.00     0.134 A 
ATOM     73  F   UNL A   1      41.725  32.296  33.951  1.00  0.00    -0.206 F 
ATOM     74  C   UNL A   1      39.392  32.056  33.949  1.00  0.00     0.040 A 
ATOM     75  C   UNL A   1      38.409  29.922  33.431  1.00  0.00     0.040 A 
ATOM     76  F   UNL A   1      39.772  28.091  32.885  1.00  0.00    -0.206 F 
ATOM     77  C   UNL A   1      38.260  31.277  33.724  1.00  0.00     0.006 A 
ENDBRANCH  49  70
BRANCH  61  78
ATOM     78  C   UNL A   1      45.111  24.417  33.118  1.00  0.00     0.057 A 
ATOM     79  C   UNL A   1      44.281  23.325  33.394  1.00  0.00     0.134 A 
ATOM     80  C   UNL A   1      46.401  24.376  33.681  1.00  0.00     0.134 A 
ATOM     81  F   UNL A   1      43.029  23.277  32.914  1.00  0.00    -0.206 F 
ATOM     82  C   UNL A   1      44.708  22.255  34.189  1.00  0.00     0.040 A 
ATOM     83  C   UNL A   1      46.823  23.336  34.511  1.00  0.00     0.040 A 
ATOM     84  F   UNL A   1      47.304  25.336  33.429  1.00  0.00    -0.206 F 
ATOM     85  C   UNL A   1      45.975  22.268  34.767  1.00  0.00     0.006 A 
ENDBRANCH  61  78
ENDBRANCH  35  36
ENDBRANCH  27  30
ENDBRANCH  25  26
ENDBRANCH  24  25
ENDBRANCH   1  24
TORSDOF 13
ENDMDL
MODEL 3
REMARK VINA RESULT:     -12.4      3.642      9.376
REMARK SMILES Cc1c(/C=C/C(=O)NCCCNC(=O)c2ccc(-c3c4nc(c(-c5c(F)cccc5F)c5ccc([nH]5)c(-c5c(F)cccc5F)c5nc(c(-c6c(F)cccc6F)c6ccc3[nH]6)C=C5)C=C4)cc2)cccc1C(=O)N1C[C@@H](C)[C@@H](C)C1
REMARK SMILES IDX 9 1 8 2 6 3 7 4 5 6 4 7 3 8 1 9 2 10 72 11 69 12 71 13 70 14
REMARK SMILES IDX 73 15 74 16 75 17 76 18 81 19 77 20 79 21 78 22 80 23 10 24
REMARK SMILES IDX 11 25 12 26 13 27 14 29 15 30 16 31 68 32 17 33 67 34 18 35
REMARK SMILES IDX 19 36 20 37 61 38 21 39 66 40 60 41 62 42 22 43 65 44 59 45
REMARK SMILES IDX 58 46 23 48 49 49 32 50 48 51 33 52 36 53 47 54 63 55 34 56
REMARK SMILES IDX 35 57 46 59 64 60 37 61 24 62 25 63 30 64 26 65 27 66 29 67
REMARK SMILES IDX 31 68 28 69 50 70 51 71 56 72 52 73 53 74 55 75 57 76 54 77
REMARK SMILES IDX 38 78 39 79 44 80 40 81 41 82 43 83 45 84 42 85
REMARK H PARENT 8 5 12 28 62 47 36 58
REMARK Flexibility Score: inf
ROOT
ATOM      1  C   UNL A   1      31.866  29.060  25.929  1.00  0.00     0.118 C 
ENDROOT
BRANCH   1   2
ATOM      2  N   UNL A   1      32.610  28.951  24.680  1.00  0.00    -0.352 N 
ATOM      3  C   UNL A   1      33.233  27.854  24.152  1.00  0.00     0.244 C 
ATOM      4  O   UNL A   1      33.726  27.881  23.031  1.00  0.00    -0.270 OA
ATOM      5  H   UNL A   1      32.671  29.777  24.146  1.00  0.00     0.163 HD
BRANCH   3   6
ATOM      6  C   UNL A   1      33.235  26.610  24.949  1.00  0.00     0.072 C 
ATOM      7  C   UNL A   1      33.906  25.537  24.506  1.00  0.00     0.014 C 
BRANCH   7   8
ATOM      8  C   UNL A   1      34.085  24.293  25.277  1.00  0.00    -0.022 A 
ATOM      9  C   UNL A   1      35.490  23.307  23.410  1.00  0.00     0.046 C 
ATOM     10  C   UNL A   1      34.845  23.203  24.765  1.00  0.00    -0.031 A 
ATOM     11  C   UNL A   1      34.981  22.032  25.550  1.00  0.00     0.043 A 
ATOM     12  C   UNL A   1      33.421  24.162  26.506  1.00  0.00     0.008 A 
ATOM     13  C   UNL A   1      34.312  21.939  26.783  1.00  0.00     0.014 A 
ATOM     14  C   UNL A   1      33.534  22.994  27.254  1.00  0.00     0.001 A 
BRANCH  11  15
ATOM     15  C   UNL A   1      35.534  20.755  25.015  1.00  0.00     0.254 C 
ATOM     16  O   UNL A   1      36.761  20.665  24.961  1.00  0.00    -0.269 OA
BRANCH  15  17
ATOM     17  N   UNL A   1      34.714  19.685  24.701  1.00  0.00    -0.338 N 
ATOM     18  C   UNL A   1      35.295  18.359  24.627  1.00  0.00     0.123 C 
ATOM     19  C   UNL A   1      33.331  19.693  24.249  1.00  0.00     0.123 C 
ATOM     20  C   UNL A   1      34.298  17.513  23.847  1.00  0.00     0.010 C 
ATOM     21  C   UNL A   1      32.942  18.207  24.103  1.00  0.00     0.010 C 
ATOM     22  C   UNL A   1      34.399  16.040  24.222  1.00  0.00     0.010 C 
ATOM     23  C   UNL A   1      32.174  17.694  25.321  1.00  0.00     0.010 C 
ENDBRANCH  15  17
ENDBRANCH  11  15
ENDBRANCH   7   8
ENDBRANCH   3   6
ENDBRANCH   1   2
BRANCH   1  24
ATOM     24  C   UNL A   1      32.432  30.144  26.840  1.00  0.00     0.042 C 
BRANCH  24  25
ATOM     25  C   UNL A   1      33.895  29.950  27.189  1.00  0.00     0.118 C 
BRANCH  25  26
ATOM     26  N   UNL A   1      34.510  31.107  27.833  1.00  0.00    -0.352 N 
ATOM     27  C   UNL A   1      35.672  31.188  28.585  1.00  0.00     0.251 C 
ATOM     28  H   UNL A   1      34.025  31.957  27.719  1.00  0.00     0.163 HD
ATOM     29  O   UNL A   1      36.002  32.247  29.088  1.00  0.00    -0.269 OA
BRANCH  27  30
ATOM     30  C   UNL A   1      36.573  30.011  28.655  1.00  0.00     0.039 A 
ATOM     31  C   UNL A   1      36.671  29.320  29.872  1.00  0.00     0.014 A 
ATOM     32  C   UNL A   1      37.459  29.732  27.624  1.00  0.00     0.014 A 
ATOM     33  C   UNL A   1      37.804  28.549  30.134  1.00  0.00     0.010 A 
ATOM     34  C   UNL A   1      38.635  29.090  27.927  1.00  0.00     0.010 A 
ATOM     35  C   UNL A   1      38.833  28.536  29.198  1.00  0.00    -0.014 A 
BRANCH  35  36
ATOM     36  C   UNL A   1      40.183  28.037  29.429  1.00  0.00     0.031 A 
ATOM     37  C   UNL A   1      40.571  26.709  28.901  1.00  0.00     0.074 A 
ATOM     38  C   UNL A   1      41.128  28.896  29.867  1.00  0.00     0.049 A 
ATOM     39  N   UNL A   1      41.715  26.148  29.092  1.00  0.00    -0.248 NA
ATOM     40  C   UNL A   1      39.655  25.881  28.128  1.00  0.00     0.031 C 
ATOM     41  C   UNL A   1      42.574  28.787  29.687  1.00  0.00     0.029 A 
ATOM     42  N   UNL A   1      40.971  29.966  30.759  1.00  0.00    -0.354 N 
ATOM     43  C   UNL A   1      41.793  25.039  28.279  1.00  0.00     0.074 A 
ATOM     44  C   UNL A   1      40.460  24.885  27.750  1.00  0.00     0.031 C 
ATOM     45  C   UNL A   1      43.186  29.527  30.622  1.00  0.00     0.029 A 
ATOM     46  C   UNL A   1      42.157  29.983  31.539  1.00  0.00     0.049 A 
ATOM     47  H   UNL A   1      40.201  30.577  30.830  1.00  0.00     0.167 HD
ATOM     48  C   UNL A   1      43.011  24.452  28.087  1.00  0.00     0.037 A 
ATOM     49  C   UNL A   1      42.124  29.694  32.874  1.00  0.00     0.037 A 
ATOM     50  C   UNL A   1      44.010  25.027  28.992  1.00  0.00     0.049 A 
ATOM     51  C   UNL A   1      42.943  28.491  33.296  1.00  0.00     0.074 A 
ATOM     52  C   UNL A   1      45.017  25.970  28.874  1.00  0.00     0.029 A 
ATOM     53  N   UNL A   1      43.861  24.797  30.346  1.00  0.00    -0.354 N 
ATOM     54  N   UNL A   1      43.560  27.693  32.471  1.00  0.00    -0.248 NA
ATOM     55  C   UNL A   1      43.042  28.036  34.685  1.00  0.00     0.031 C 
ATOM     56  C   UNL A   1      45.447  26.324  30.188  1.00  0.00     0.029 A 
ATOM     57  C   UNL A   1      44.705  25.587  31.095  1.00  0.00     0.049 A 
ATOM     58  H   UNL A   1      43.230  24.145  30.729  1.00  0.00     0.167 HD
ATOM     59  C   UNL A   1      44.036  26.610  33.160  1.00  0.00     0.074 A 
ATOM     60  C   UNL A   1      43.714  26.879  34.548  1.00  0.00     0.031 C 
ATOM     61  C   UNL A   1      44.600  25.537  32.543  1.00  0.00     0.037 A 
BRANCH  48  62
ATOM     62  C   UNL A   1      43.379  23.469  26.991  1.00  0.00     0.057 A 
ATOM     63  C   UNL A   1      42.848  22.161  27.009  1.00  0.00     0.134 A 
ATOM     64  C   UNL A   1      44.272  23.698  25.929  1.00  0.00     0.134 A 
ATOM     65  F   UNL A   1      41.921  21.787  27.902  1.00  0.00    -0.206 F 
ATOM     66  C   UNL A   1      43.239  21.158  26.111  1.00  0.00     0.040 A 
ATOM     67  C   UNL A   1      44.694  22.698  25.041  1.00  0.00     0.040 A 
ATOM     68  F   UNL A   1      44.754  24.907  25.642  1.00  0.00    -0.206 F 
ATOM     69  C   UNL A   1      44.187  21.415  25.136  1.00  0.00     0.006 A 
ENDBRANCH  48  62
BRANCH  49  70
ATOM     70  C   UNL A   1      40.845  30.100  33.511  1.00  0.00     0.057 A 
ATOM     71  C   UNL A   1      40.687  31.438  33.913  1.00  0.00     0.134 A 
ATOM     72  C   UNL A   1      39.687  29.334  33.356  1.00  0.00     0.134 A 
ATOM     73  F   UNL A   1      41.761  32.227  34.073  1.00  0.00    -0.206 F 
ATOM     74  C   UNL A   1      39.424  32.020  34.038  1.00  0.00     0.040 A 
ATOM     75  C   UNL A   1      38.418  29.905  33.492  1.00  0.00     0.040 A 
ATOM     76  F   UNL A   1      39.762  28.058  32.951  1.00  0.00    -0.206 F 
ATOM     77  C   UNL A   1      38.285  31.259  33.792  1.00  0.00     0.006 A 
ENDBRANCH  49  70
BRANCH  61  78
ATOM     78  C   UNL A   1      45.076  24.327  33.280  1.00  0.00     0.057 A 
ATOM     79  C   UNL A   1      44.225  23.259  33.585  1.00  0.00     0.134 A 
ATOM     80  C   UNL A   1      46.373  24.262  33.823  1.00  0.00     0.134 A 
ATOM     81  F   UNL A   1      42.964  23.235  33.125  1.00  0.00    -0.206 F 
ATOM     82  C   UNL A   1      44.638  22.191  34.388  1.00  0.00     0.040 A 
ATOM     83  C   UNL A   1      46.783  23.224  34.662  1.00  0.00     0.040 A 
ATOM     84  F   UNL A   1      47.295  25.197  33.543  1.00  0.00    -0.206 F 
ATOM     85  C   UNL A   1      45.914  22.181  34.947  1.00  0.00     0.006 A 
ENDBRANCH  61  78
ENDBRANCH  35  36
ENDBRANCH  27  30
ENDBRANCH  25  26
ENDBRANCH  24  25
ENDBRANCH   1  24
TORSDOF 13
ENDMDL
