MODEL 1
REMARK VINA RESULT:     -13.9      0.000      0.000
REMARK SMILES O=C(N[C@H]1c2ccccc2C[C@H]1C(=O)NCCCNC(=O)c1ccc(-c2c3nc(c(-c4c(F)cccc4F)c4ccc([nH]4)c(-c4c(F)cccc4F)c4nc(c(-c5c(F)cccc5F)c5ccc2[nH]5)C=C4)C=C3)cc1)OCC1c2ccccc2-c2ccccc21
REMARK SMILES IDX 16 1 15 2 13 3 14 4 12 6 4 7 5 8 6 9 10 10 11 11 7 12 9 13
REMARK SMILES IDX 8 14 3 15 1 16 2 17 76 19 77 20 78 21 79 22 90 23 80 24
REMARK SMILES IDX 84 25 85 26 89 27 81 28 83 29 86 30 88 31 82 32 87 33 17 34
REMARK SMILES IDX 18 35 19 36 20 37 21 39 22 40 23 41 75 42 24 43 74 44 25 45
REMARK SMILES IDX 26 46 27 47 68 48 28 49 73 50 67 51 69 52 29 53 72 54 66 55
REMARK SMILES IDX 65 56 30 58 56 59 39 60 55 61 40 62 43 63 54 64 70 65 41 66
REMARK SMILES IDX 42 67 53 69 71 70 44 71 31 72 32 73 37 74 33 75 34 76 36 77
REMARK SMILES IDX 38 78 35 79 57 80 58 81 63 82 59 83 60 84 62 85 64 86 61 87
REMARK SMILES IDX 45 88 46 89 51 90 47 91 48 92 50 93 52 94 49 95
REMARK H PARENT 15 5 3 18 19 38 69 57 43 68
REMARK Flexibility Score: inf
ROOT
ATOM      1  C   UNL A   1      31.417  30.506  26.358  1.00  0.00     0.117 C 
ENDROOT
BRANCH   1   2
ATOM      2  N   UNL A   1      32.186  30.075  25.206  1.00  0.00    -0.356 N 
ATOM      3  C   UNL A   1      32.628  28.815  24.929  1.00  0.00     0.225 C 
ATOM      4  O   UNL A   1      33.688  28.705  24.318  1.00  0.00    -0.275 OA
ATOM      5  H   UNL A   1      32.416  30.772  24.549  1.00  0.00     0.163 HD
BRANCH   3   6
ATOM      6  C   UNL A   1      31.783  27.634  25.359  1.00  0.00     0.110 C 
ATOM      7  C   UNL A   1      31.285  26.734  24.190  1.00  0.00     0.129 C 
ATOM      8  C   UNL A   1      31.292  25.381  24.846  1.00  0.00    -0.021 A 
ATOM      9  C   UNL A   1      30.678  24.225  24.388  1.00  0.00     0.006 A 
ATOM     10  C   UNL A   1      31.933  25.412  26.088  1.00  0.00    -0.042 A 
ATOM     11  C   UNL A   1      32.553  26.745  26.345  1.00  0.00     0.052 C 
ATOM     12  C   UNL A   1      30.686  23.099  25.212  1.00  0.00     0.000 A 
ATOM     13  C   UNL A   1      31.947  24.298  26.913  1.00  0.00     0.004 A 
ATOM     14  C   UNL A   1      31.305  23.140  26.471  1.00  0.00     0.000 A 
BRANCH   7  15
ATOM     15  N   UNL A   1      32.052  26.769  22.970  1.00  0.00    -0.314 N 
ATOM     16  O   UNL A   1      33.651  26.398  21.463  1.00  0.00    -0.225 OA
ATOM     17  C   UNL A   1      33.174  26.109  22.561  1.00  0.00     0.407 C 
ATOM     18  H   UNL A   1      31.694  27.394  22.298  1.00  0.00     0.167 HD
BRANCH  17  19
ATOM     19  O   UNL A   1      33.821  25.209  23.349  1.00  0.00    -0.449 OA
BRANCH  19  20
ATOM     20  C   UNL A   1      34.127  23.840  23.050  1.00  0.00     0.248 C 
BRANCH  20  21
ATOM     21  C   UNL A   1      34.187  22.935  24.288  1.00  0.00     0.088 C 
ATOM     22  C   UNL A   1      35.618  22.797  24.827  1.00  0.00    -0.029 A 
ATOM     23  C   UNL A   1      33.783  21.471  24.138  1.00  0.00    -0.029 A 
ATOM     24  C   UNL A   1      36.577  23.781  25.030  1.00  0.00     0.005 A 
ATOM     25  C   UNL A   1      35.908  21.439  25.084  1.00  0.00    -0.014 A 
ATOM     26  C   UNL A   1      34.776  20.631  24.687  1.00  0.00    -0.014 A 
ATOM     27  C   UNL A   1      32.618  20.936  23.608  1.00  0.00     0.005 A 
ATOM     28  C   UNL A   1      37.838  23.390  25.491  1.00  0.00     0.000 A 
ATOM     29  C   UNL A   1      37.150  21.057  25.564  1.00  0.00     0.009 A 
ATOM     30  C   UNL A   1      34.595  19.258  24.741  1.00  0.00     0.009 A 
ATOM     31  C   UNL A   1      32.450  19.549  23.629  1.00  0.00     0.000 A 
ATOM     32  C   UNL A   1      38.120  22.042  25.764  1.00  0.00     0.001 A 
ATOM     33  C   UNL A   1      33.422  18.718  24.206  1.00  0.00     0.001 A 
ENDBRANCH  20  21
ENDBRANCH  19  20
ENDBRANCH  17  19
ENDBRANCH   7  15
ENDBRANCH   3   6
ENDBRANCH   1   2
BRANCH   1  34
ATOM     34  C   UNL A   1      31.424  32.027  26.450  1.00  0.00     0.042 C 
BRANCH  34  35
ATOM     35  C   UNL A   1      32.643  32.582  27.181  1.00  0.00     0.118 C 
BRANCH  35  36
ATOM     36  N   UNL A   1      32.470  33.972  27.577  1.00  0.00    -0.352 N 
ATOM     37  C   UNL A   1      33.146  34.674  28.544  1.00  0.00     0.251 C 
ATOM     38  H   UNL A   1      31.778  34.474  27.089  1.00  0.00     0.163 HD
ATOM     39  O   UNL A   1      32.767  35.790  28.879  1.00  0.00    -0.269 OA
BRANCH  37  40
ATOM     40  C   UNL A   1      34.317  34.056  29.197  1.00  0.00     0.039 A 
ATOM     41  C   UNL A   1      34.109  33.153  30.241  1.00  0.00     0.014 A 
ATOM     42  C   UNL A   1      35.611  34.345  28.754  1.00  0.00     0.014 A 
ATOM     43  C   UNL A   1      35.201  32.494  30.806  1.00  0.00     0.010 A 
ATOM     44  C   UNL A   1      36.691  33.636  29.271  1.00  0.00     0.010 A 
ATOM     45  C   UNL A   1      36.496  32.708  30.303  1.00  0.00    -0.014 A 
BRANCH  45  46
ATOM     46  C   UNL A   1      37.658  31.968  30.854  1.00  0.00     0.031 A 
ATOM     47  C   UNL A   1      38.177  32.295  32.227  1.00  0.00     0.074 A 
ATOM     48  C   UNL A   1      38.278  31.041  30.099  1.00  0.00     0.049 A 
ATOM     49  N   UNL A   1      39.203  31.791  32.864  1.00  0.00    -0.248 NA
ATOM     50  C   UNL A   1      37.465  33.344  32.973  1.00  0.00     0.031 C 
ATOM     51  C   UNL A   1      37.902  30.672  28.732  1.00  0.00     0.029 A 
ATOM     52  N   UNL A   1      39.359  30.243  30.372  1.00  0.00    -0.354 N 
ATOM     53  C   UNL A   1      39.266  32.468  34.074  1.00  0.00     0.074 A 
ATOM     54  C   UNL A   1      38.209  33.455  34.062  1.00  0.00     0.031 C 
ATOM     55  C   UNL A   1      38.723  29.702  28.298  1.00  0.00     0.029 A 
ATOM     56  C   UNL A   1      39.699  29.402  29.340  1.00  0.00     0.049 A 
ATOM     57  H   UNL A   1      39.847  30.269  31.228  1.00  0.00     0.167 HD
ATOM     58  C   UNL A   1      40.111  32.268  35.113  1.00  0.00     0.037 A 
ATOM     59  C   UNL A   1      40.687  28.493  29.247  1.00  0.00     0.037 A 
ATOM     60  C   UNL A   1      41.144  31.266  35.134  1.00  0.00     0.049 A 
ATOM     61  C   UNL A   1      41.608  28.286  30.417  1.00  0.00     0.074 A 
ATOM     62  C   UNL A   1      42.016  30.948  36.160  1.00  0.00     0.029 A 
ATOM     63  N   UNL A   1      41.443  30.420  34.078  1.00  0.00    -0.354 N 
ATOM     64  N   UNL A   1      41.611  28.887  31.582  1.00  0.00    -0.248 NA
ATOM     65  C   UNL A   1      42.656  27.268  30.262  1.00  0.00     0.031 C 
ATOM     66  C   UNL A   1      42.865  29.931  35.713  1.00  0.00     0.029 A 
ATOM     67  C   UNL A   1      42.495  29.589  34.422  1.00  0.00     0.049 A 
ATOM     68  H   UNL A   1      40.976  30.411  33.211  1.00  0.00     0.167 HD
ATOM     69  C   UNL A   1      42.640  28.301  32.308  1.00  0.00     0.074 A 
ATOM     70  C   UNL A   1      43.229  27.288  31.457  1.00  0.00     0.031 C 
ATOM     71  C   UNL A   1      43.060  28.579  33.566  1.00  0.00     0.037 A 
BRANCH  58  72
ATOM     72  C   UNL A   1      39.941  33.144  36.318  1.00  0.00     0.057 A 
ATOM     73  C   UNL A   1      39.043  32.817  37.344  1.00  0.00     0.134 A 
ATOM     74  C   UNL A   1      40.704  34.307  36.474  1.00  0.00     0.134 A 
ATOM     75  F   UNL A   1      38.273  31.723  37.250  1.00  0.00    -0.206 F 
ATOM     76  C   UNL A   1      38.893  33.629  38.469  1.00  0.00     0.040 A 
ATOM     77  C   UNL A   1      40.581  35.114  37.606  1.00  0.00     0.040 A 
ATOM     78  F   UNL A   1      41.586  34.675  35.532  1.00  0.00    -0.206 F 
ATOM     79  C   UNL A   1      39.669  34.778  38.605  1.00  0.00     0.006 A 
ENDBRANCH  58  72
BRANCH  59  80
ATOM     80  C   UNL A   1      40.841  27.683  28.011  1.00  0.00     0.057 A 
ATOM     81  C   UNL A   1      40.219  26.435  27.887  1.00  0.00     0.134 A 
ATOM     82  C   UNL A   1      41.623  28.126  26.938  1.00  0.00     0.134 A 
ATOM     83  F   UNL A   1      39.472  25.951  28.890  1.00  0.00    -0.206 F 
ATOM     84  C   UNL A   1      40.387  25.646  26.748  1.00  0.00     0.040 A 
ATOM     85  C   UNL A   1      41.780  27.357  25.785  1.00  0.00     0.040 A 
ATOM     86  F   UNL A   1      42.237  29.316  26.993  1.00  0.00    -0.206 F 
ATOM     87  C   UNL A   1      41.167  26.108  25.691  1.00  0.00     0.006 A 
ENDBRANCH  59  80
BRANCH  71  88
ATOM     88  C   UNL A   1      44.187  27.750  34.108  1.00  0.00     0.057 A 
ATOM     89  C   UNL A   1      45.520  28.168  34.020  1.00  0.00     0.134 A 
ATOM     90  C   UNL A   1      43.928  26.535  34.755  1.00  0.00     0.134 A 
ATOM     91  F   UNL A   1      45.833  29.317  33.401  1.00  0.00    -0.206 F 
ATOM     92  C   UNL A   1      46.561  27.395  34.538  1.00  0.00     0.040 A 
ATOM     93  C   UNL A   1      44.958  25.765  35.297  1.00  0.00     0.040 A 
ATOM     94  F   UNL A   1      42.672  26.082  34.879  1.00  0.00    -0.206 F 
ATOM     95  C   UNL A   1      46.280  26.192  35.184  1.00  0.00     0.006 A 
ENDBRANCH  71  88
ENDBRANCH  45  46
ENDBRANCH  37  40
ENDBRANCH  35  36
ENDBRANCH  34  35
ENDBRANCH   1  34
TORSDOF 14
ENDMDL
MODEL 2
REMARK VINA RESULT:     -13.9      0.820      5.874
REMARK SMILES O=C(N[C@H]1c2ccccc2C[C@H]1C(=O)NCCCNC(=O)c1ccc(-c2c3nc(c(-c4c(F)cccc4F)c4ccc([nH]4)c(-c4c(F)cccc4F)c4nc(c(-c5c(F)cccc5F)c5ccc2[nH]5)C=C4)C=C3)cc1)OCC1c2ccccc2-c2ccccc21
REMARK SMILES IDX 16 1 15 2 13 3 14 4 12 6 4 7 5 8 6 9 10 10 11 11 7 12 9 13
REMARK SMILES IDX 8 14 3 15 1 16 2 17 76 19 77 20 78 21 79 22 90 23 80 24
REMARK SMILES IDX 84 25 85 26 89 27 81 28 83 29 86 30 88 31 82 32 87 33 17 34
REMARK SMILES IDX 18 35 19 36 20 37 21 39 22 40 23 41 75 42 24 43 74 44 25 45
REMARK SMILES IDX 26 46 27 47 68 48 28 49 73 50 67 51 69 52 29 53 72 54 66 55
REMARK SMILES IDX 65 56 30 58 56 59 39 60 55 61 40 62 43 63 54 64 70 65 41 66
REMARK SMILES IDX 42 67 53 69 71 70 44 71 31 72 32 73 37 74 33 75 34 76 36 77
REMARK SMILES IDX 38 78 35 79 57 80 58 81 63 82 59 83 60 84 62 85 64 86 61 87
REMARK SMILES IDX 45 88 46 89 51 90 47 91 48 92 50 93 52 94 49 95
REMARK H PARENT 15 5 3 18 19 38 69 57 43 68
REMARK Flexibility Score: inf
ROOT
ATOM      1  C   UNL A   1      31.688  30.432  26.493  1.00  0.00     0.117 C 
ENDROOT
BRANCH   1   2
ATOM      2  N   UNL A   1      32.410  30.003  25.311  1.00  0.00    -0.356 N 
ATOM      3  C   UNL A   1      32.797  28.734  24.993  1.00  0.00     0.225 C 
ATOM      4  O   UNL A   1      33.837  28.601  24.352  1.00  0.00    -0.275 OA
ATOM      5  H   UNL A   1      32.648  30.706  24.665  1.00  0.00     0.163 HD
BRANCH   3   6
ATOM      6  C   UNL A   1      31.921  27.574  25.417  1.00  0.00     0.110 C 
ATOM      7  C   UNL A   1      31.363  26.720  24.242  1.00  0.00     0.129 C 
ATOM      8  C   UNL A   1      31.336  25.353  24.867  1.00  0.00    -0.021 A 
ATOM      9  C   UNL A   1      30.669  24.231  24.399  1.00  0.00     0.006 A 
ATOM     10  C   UNL A   1      32.008  25.332  26.093  1.00  0.00    -0.042 A 
ATOM     11  C   UNL A   1      32.681  26.636  26.364  1.00  0.00     0.052 C 
ATOM     12  C   UNL A   1      30.656  23.087  25.197  1.00  0.00     0.000 A 
ATOM     13  C   UNL A   1      32.001  24.200  26.892  1.00  0.00     0.004 A 
ATOM     14  C   UNL A   1      31.307  23.076  26.441  1.00  0.00     0.000 A 
BRANCH   7  15
ATOM     15  N   UNL A   1      32.100  26.756  23.004  1.00  0.00    -0.314 N 
ATOM     16  O   UNL A   1      33.655  26.374  21.454  1.00  0.00    -0.225 OA
ATOM     17  C   UNL A   1      33.200  26.081  22.560  1.00  0.00     0.407 C 
ATOM     18  H   UNL A   1      31.738  27.395  22.348  1.00  0.00     0.167 HD
BRANCH  17  19
ATOM     19  O   UNL A   1      33.849  25.160  23.322  1.00  0.00    -0.449 OA
BRANCH  19  20
ATOM     20  C   UNL A   1      34.081  23.777  23.021  1.00  0.00     0.248 C 
BRANCH  20  21
ATOM     21  C   UNL A   1      34.151  22.877  24.261  1.00  0.00     0.088 C 
ATOM     22  C   UNL A   1      35.585  22.747  24.794  1.00  0.00    -0.029 A 
ATOM     23  C   UNL A   1      33.752  21.410  24.117  1.00  0.00    -0.029 A 
ATOM     24  C   UNL A   1      36.540  23.735  24.990  1.00  0.00     0.005 A 
ATOM     25  C   UNL A   1      35.881  21.391  25.055  1.00  0.00    -0.014 A 
ATOM     26  C   UNL A   1      34.751  20.576  24.665  1.00  0.00    -0.014 A 
ATOM     27  C   UNL A   1      32.587  20.869  23.595  1.00  0.00     0.005 A 
ATOM     28  C   UNL A   1      37.805  23.351  25.447  1.00  0.00     0.000 A 
ATOM     29  C   UNL A   1      37.128  21.015  25.530  1.00  0.00     0.009 A 
ATOM     30  C   UNL A   1      34.577  19.203  24.725  1.00  0.00     0.009 A 
ATOM     31  C   UNL A   1      32.426  19.481  23.621  1.00  0.00     0.000 A 
ATOM     32  C   UNL A   1      38.094  22.005  25.722  1.00  0.00     0.001 A 
ATOM     33  C   UNL A   1      33.403  18.657  24.197  1.00  0.00     0.001 A 
ENDBRANCH  20  21
ENDBRANCH  19  20
ENDBRANCH  17  19
ENDBRANCH   7  15
ENDBRANCH   3   6
ENDBRANCH   1   2
BRANCH   1  34
ATOM     34  C   UNL A   1      31.570  31.952  26.508  1.00  0.00     0.042 C 
BRANCH  34  35
ATOM     35  C   UNL A   1      32.712  32.638  27.251  1.00  0.00     0.118 C 
BRANCH  35  36
ATOM     36  N   UNL A   1      32.411  34.024  27.578  1.00  0.00    -0.352 N 
ATOM     37  C   UNL A   1      33.004  34.827  28.521  1.00  0.00     0.251 C 
ATOM     38  H   UNL A   1      31.688  34.440  27.055  1.00  0.00     0.163 HD
ATOM     39  O   UNL A   1      32.522  35.919  28.798  1.00  0.00    -0.269 OA
BRANCH  37  40
ATOM     40  C   UNL A   1      34.210  34.344  29.221  1.00  0.00     0.039 A 
ATOM     41  C   UNL A   1      34.059  33.615  30.402  1.00  0.00     0.014 A 
ATOM     42  C   UNL A   1      35.482  34.587  28.693  1.00  0.00     0.014 A 
ATOM     43  C   UNL A   1      35.186  33.076  31.025  1.00  0.00     0.010 A 
ATOM     44  C   UNL A   1      36.596  33.991  29.276  1.00  0.00     0.010 A 
ATOM     45  C   UNL A   1      36.458  33.234  30.449  1.00  0.00    -0.014 A 
BRANCH  45  46
ATOM     46  C   UNL A   1      37.656  32.615  31.068  1.00  0.00     0.031 A 
ATOM     47  C   UNL A   1      38.292  31.408  30.437  1.00  0.00     0.074 A 
ATOM     48  C   UNL A   1      38.138  33.108  32.225  1.00  0.00     0.049 A 
ATOM     49  N   UNL A   1      39.315  30.703  30.848  1.00  0.00    -0.248 NA
ATOM     50  C   UNL A   1      37.683  30.912  29.192  1.00  0.00     0.031 C 
ATOM     51  C   UNL A   1      37.577  34.242  32.963  1.00  0.00     0.029 A 
ATOM     52  N   UNL A   1      39.208  32.713  32.987  1.00  0.00    -0.354 N 
ATOM     53  C   UNL A   1      39.463  29.678  29.923  1.00  0.00     0.074 A 
ATOM     54  C   UNL A   1      38.393  29.820  28.959  1.00  0.00     0.031 C 
ATOM     55  C   UNL A   1      38.324  34.467  34.056  1.00  0.00     0.029 A 
ATOM     56  C   UNL A   1      39.396  33.478  34.113  1.00  0.00     0.049 A 
ATOM     57  H   UNL A   1      39.788  31.953  32.750  1.00  0.00     0.167 HD
ATOM     58  C   UNL A   1      40.418  28.720  29.867  1.00  0.00     0.037 A 
ATOM     59  C   UNL A   1      40.326  33.390  35.081  1.00  0.00     0.037 A 
ATOM     60  C   UNL A   1      41.497  28.597  30.812  1.00  0.00     0.049 A 
ATOM     61  C   UNL A   1      41.380  32.320  34.991  1.00  0.00     0.074 A 
ATOM     62  C   UNL A   1      42.546  27.695  30.810  1.00  0.00     0.029 A 
ATOM     63  N   UNL A   1      41.664  29.404  31.926  1.00  0.00    -0.354 N 
ATOM     64  N   UNL A   1      41.547  31.400  34.073  1.00  0.00    -0.248 NA
ATOM     65  C   UNL A   1      42.379  32.285  36.068  1.00  0.00     0.031 C 
ATOM     66  C   UNL A   1      43.330  27.935  31.942  1.00  0.00     0.029 A 
ATOM     67  C   UNL A   1      42.791  29.012  32.627  1.00  0.00     0.049 A 
ATOM     68  H   UNL A   1      41.069  30.146  32.181  1.00  0.00     0.167 HD
ATOM     69  C   UNL A   1      42.684  30.695  34.445  1.00  0.00     0.074 A 
ATOM     70  C   UNL A   1      43.174  31.304  35.665  1.00  0.00     0.031 C 
ATOM     71  C   UNL A   1      43.269  29.637  33.833  1.00  0.00     0.037 A 
BRANCH  58  72
ATOM     72  C   UNL A   1      40.344  27.738  28.736  1.00  0.00     0.057 A 
ATOM     73  C   UNL A   1      41.026  27.950  27.531  1.00  0.00     0.134 A 
ATOM     74  C   UNL A   1      39.611  26.552  28.863  1.00  0.00     0.134 A 
ATOM     75  F   UNL A   1      41.736  29.074  27.341  1.00  0.00    -0.206 F 
ATOM     76  C   UNL A   1      40.963  27.031  26.483  1.00  0.00     0.040 A 
ATOM     77  C   UNL A   1      39.561  25.612  27.832  1.00  0.00     0.040 A 
ATOM     78  F   UNL A   1      38.938  26.283  29.992  1.00  0.00    -0.206 F 
ATOM     79  C   UNL A   1      40.233  25.854  26.635  1.00  0.00     0.006 A 
ENDBRANCH  58  72
BRANCH  59  80
ATOM     80  C   UNL A   1      40.328  34.359  36.206  1.00  0.00     0.057 A 
ATOM     81  C   UNL A   1      39.593  34.109  37.371  1.00  0.00     0.134 A 
ATOM     82  C   UNL A   1      41.045  35.559  36.139  1.00  0.00     0.134 A 
ATOM     83  F   UNL A   1      38.872  32.983  37.485  1.00  0.00    -0.206 F 
ATOM     84  C   UNL A   1      39.553  35.028  38.421  1.00  0.00     0.040 A 
ATOM     85  C   UNL A   1      41.031  36.476  37.190  1.00  0.00     0.040 A 
ATOM     86  F   UNL A   1      41.774  35.852  35.053  1.00  0.00    -0.206 F 
ATOM     87  C   UNL A   1      40.277  36.214  38.333  1.00  0.00     0.006 A 
ENDBRANCH  59  80
BRANCH  71  88
ATOM     88  C   UNL A   1      44.523  29.097  34.453  1.00  0.00     0.057 A 
ATOM     89  C   UNL A   1      45.787  29.603  34.124  1.00  0.00     0.134 A 
ATOM     90  C   UNL A   1      44.461  28.080  35.415  1.00  0.00     0.134 A 
ATOM     91  F   UNL A   1      45.914  30.568  33.201  1.00  0.00    -0.206 F 
ATOM     92  C   UNL A   1      46.948  29.100  34.715  1.00  0.00     0.040 A 
ATOM     93  C   UNL A   1      45.612  27.587  36.029  1.00  0.00     0.040 A 
ATOM     94  F   UNL A   1      43.280  27.558  35.779  1.00  0.00    -0.206 F 
ATOM     95  C   UNL A   1      46.861  28.093  35.675  1.00  0.00     0.006 A 
ENDBRANCH  71  88
ENDBRANCH  45  46
ENDBRANCH  37  40
ENDBRANCH  35  36
ENDBRANCH  34  35
ENDBRANCH   1  34
TORSDOF 14
ENDMDL
MODEL 3
REMARK VINA RESULT:     -13.8      4.192      9.299
REMARK SMILES O=C(N[C@H]1c2ccccc2C[C@H]1C(=O)NCCCNC(=O)c1ccc(-c2c3nc(c(-c4c(F)cccc4F)c4ccc([nH]4)c(-c4c(F)cccc4F)c4nc(c(-c5c(F)cccc5F)c5ccc2[nH]5)C=C4)C=C3)cc1)OCC1c2ccccc2-c2ccccc21
REMARK SMILES IDX 16 1 15 2 13 3 14 4 12 6 4 7 5 8 6 9 10 10 11 11 7 12 9 13
REMARK SMILES IDX 8 14 3 15 1 16 2 17 76 19 77 20 78 21 79 22 90 23 80 24
REMARK SMILES IDX 84 25 85 26 89 27 81 28 83 29 86 30 88 31 82 32 87 33 17 34
REMARK SMILES IDX 18 35 19 36 20 37 21 39 22 40 23 41 75 42 24 43 74 44 25 45
REMARK SMILES IDX 26 46 27 47 68 48 28 49 73 50 67 51 69 52 29 53 72 54 66 55
REMARK SMILES IDX 65 56 30 58 56 59 39 60 55 61 40 62 43 63 54 64 70 65 41 66
REMARK SMILES IDX 42 67 53 69 71 70 44 71 31 72 32 73 37 74 33 75 34 76 36 77
REMARK SMILES IDX 38 78 35 79 57 80 58 81 63 82 59 83 60 84 62 85 64 86 61 87
REMARK SMILES IDX 45 88 46 89 51 90 47 91 48 92 50 93 52 94 49 95
REMARK H PARENT 15 5 3 18 19 38 69 57 43 68
REMARK Flexibility Score: inf
ROOT
ATOM      1  C   UNL A   1      37.064  21.029  24.511  1.00  0.00     0.117 C 
ENDROOT
BRANCH   1   2
ATOM      2  N   UNL A   1      35.931  21.217  25.396  1.00  0.00    -0.356 N 
ATOM      3  C   UNL A   1      35.104  22.301  25.463  1.00  0.00     0.225 C 
ATOM      4  O   UNL A   1      34.625  22.582  26.559  1.00  0.00    -0.275 OA
ATOM      5  H   UNL A   1      35.736  20.481  26.019  1.00  0.00     0.163 HD
BRANCH   3   6
ATOM      6  C   UNL A   1      34.803  23.070  24.195  1.00  0.00     0.110 C 
ATOM      7  C   UNL A   1      33.398  22.790  23.586  1.00  0.00     0.129 C 
ATOM      8  C   UNL A   1      33.063  24.137  23.005  1.00  0.00    -0.021 A 
ATOM      9  C   UNL A   1      32.063  24.428  22.089  1.00  0.00     0.006 A 
ATOM     10  C   UNL A   1      33.968  25.118  23.420  1.00  0.00    -0.042 A 
ATOM     11  C   UNL A   1      34.922  24.581  24.434  1.00  0.00     0.052 C 
ATOM     12  C   UNL A   1      32.000  25.720  21.566  1.00  0.00     0.000 A 
ATOM     13  C   UNL A   1      33.913  26.404  22.906  1.00  0.00     0.004 A 
ATOM     14  C   UNL A   1      32.927  26.697  21.963  1.00  0.00     0.000 A 
BRANCH   7  15
ATOM     15  N   UNL A   1      32.385  22.302  24.486  1.00  0.00    -0.314 N 
ATOM     16  O   UNL A   1      30.752  22.236  26.002  1.00  0.00    -0.225 OA
ATOM     17  C   UNL A   1      31.461  22.929  25.272  1.00  0.00     0.407 C 
ATOM     18  H   UNL A   1      32.351  21.319  24.546  1.00  0.00     0.167 HD
BRANCH  17  19
ATOM     19  O   UNL A   1      31.352  24.283  25.332  1.00  0.00    -0.449 OA
BRANCH  19  20
ATOM     20  C   UNL A   1      30.309  25.105  24.791  1.00  0.00     0.248 C 
BRANCH  20  21
ATOM     21  C   UNL A   1      30.335  26.553  25.299  1.00  0.00     0.088 C 
ATOM     22  C   UNL A   1      29.723  27.528  24.283  1.00  0.00    -0.029 A 
ATOM     23  C   UNL A   1      31.690  27.206  25.560  1.00  0.00    -0.029 A 
ATOM     24  C   UNL A   1      28.551  27.406  23.548  1.00  0.00     0.005 A 
ATOM     25  C   UNL A   1      30.566  28.650  24.123  1.00  0.00    -0.014 A 
ATOM     26  C   UNL A   1      31.757  28.465  24.923  1.00  0.00    -0.014 A 
ATOM     27  C   UNL A   1      32.747  26.748  26.333  1.00  0.00     0.005 A 
ATOM     28  C   UNL A   1      28.231  28.422  22.641  1.00  0.00     0.000 A 
ATOM     29  C   UNL A   1      30.235  29.666  23.241  1.00  0.00     0.009 A 
ATOM     30  C   UNL A   1      32.862  29.285  25.083  1.00  0.00     0.009 A 
ATOM     31  C   UNL A   1      33.877  27.559  26.466  1.00  0.00     0.000 A 
ATOM     32  C   UNL A   1      29.060  29.545  22.495  1.00  0.00     0.001 A 
ATOM     33  C   UNL A   1      33.928  28.823  25.861  1.00  0.00     0.001 A 
ENDBRANCH  20  21
ENDBRANCH  19  20
ENDBRANCH  17  19
ENDBRANCH   7  15
ENDBRANCH   3   6
ENDBRANCH   1   2
BRANCH   1  34
ATOM     34  C   UNL A   1      37.894  19.836  24.974  1.00  0.00     0.042 C 
BRANCH  34  35
ATOM     35  C   UNL A   1      39.046  20.224  25.896  1.00  0.00     0.118 C 
BRANCH  35  36
ATOM     36  N   UNL A   1      40.152  19.281  25.831  1.00  0.00    -0.352 N 
ATOM     37  C   UNL A   1      41.486  19.512  26.062  1.00  0.00     0.251 C 
ATOM     38  H   UNL A   1      39.913  18.356  25.592  1.00  0.00     0.163 HD
ATOM     39  O   UNL A   1      42.319  18.653  25.800  1.00  0.00    -0.269 OA
BRANCH  37  40
ATOM     40  C   UNL A   1      41.906  20.821  26.601  1.00  0.00     0.039 A 
ATOM     41  C   UNL A   1      42.359  21.801  25.716  1.00  0.00     0.014 A 
ATOM     42  C   UNL A   1      41.822  21.084  27.972  1.00  0.00     0.014 A 
ATOM     43  C   UNL A   1      42.675  23.071  26.201  1.00  0.00     0.010 A 
ATOM     44  C   UNL A   1      42.069  22.370  28.442  1.00  0.00     0.010 A 
ATOM     45  C   UNL A   1      42.501  23.373  27.563  1.00  0.00    -0.014 A 
BRANCH  45  46
ATOM     46  C   UNL A   1      42.775  24.736  28.081  1.00  0.00     0.031 A 
ATOM     47  C   UNL A   1      44.172  25.127  28.472  1.00  0.00     0.074 A 
ATOM     48  C   UNL A   1      41.757  25.602  28.249  1.00  0.00     0.049 A 
ATOM     49  N   UNL A   1      44.603  26.252  28.982  1.00  0.00    -0.248 NA
ATOM     50  C   UNL A   1      45.221  24.110  28.290  1.00  0.00     0.031 C 
ATOM     51  C   UNL A   1      40.349  25.322  27.956  1.00  0.00     0.029 A 
ATOM     52  N   UNL A   1      41.749  26.893  28.712  1.00  0.00    -0.354 N 
ATOM     53  C   UNL A   1      45.964  26.075  29.192  1.00  0.00     0.074 A 
ATOM     54  C   UNL A   1      46.279  24.717  28.806  1.00  0.00     0.031 C 
ATOM     55  C   UNL A   1      39.620  26.419  28.222  1.00  0.00     0.029 A 
ATOM     56  C   UNL A   1      40.500  27.465  28.731  1.00  0.00     0.049 A 
ATOM     57  H   UNL A   1      42.563  27.366  29.004  1.00  0.00     0.167 HD
ATOM     58  C   UNL A   1      46.875  26.970  29.642  1.00  0.00     0.037 A 
ATOM     59  C   UNL A   1      40.111  28.694  29.115  1.00  0.00     0.037 A 
ATOM     60  C   UNL A   1      46.564  28.329  30.001  1.00  0.00     0.049 A 
ATOM     61  C   UNL A   1      41.144  29.672  29.605  1.00  0.00     0.074 A 
ATOM     62  C   UNL A   1      47.426  29.330  30.415  1.00  0.00     0.029 A 
ATOM     63  N   UNL A   1      45.292  28.877  29.985  1.00  0.00    -0.354 N 
ATOM     64  N   UNL A   1      42.439  29.511  29.733  1.00  0.00    -0.248 NA
ATOM     65  C   UNL A   1      40.661  31.004  29.995  1.00  0.00     0.031 C 
ATOM     66  C   UNL A   1      46.669  30.475  30.682  1.00  0.00     0.029 A 
ATOM     67  C   UNL A   1      45.342  30.198  30.396  1.00  0.00     0.049 A 
ATOM     68  H   UNL A   1      44.473  28.397  29.721  1.00  0.00     0.167 HD
ATOM     69  C   UNL A   1      42.928  30.727  30.190  1.00  0.00     0.074 A 
ATOM     70  C   UNL A   1      41.793  31.620  30.303  1.00  0.00     0.031 C 
ATOM     71  C   UNL A   1      44.203  31.074  30.491  1.00  0.00     0.037 A 
BRANCH  58  72
ATOM     72  C   UNL A   1      48.297  26.508  29.758  1.00  0.00     0.057 A 
ATOM     73  C   UNL A   1      48.780  25.897  30.923  1.00  0.00     0.134 A 
ATOM     74  C   UNL A   1      49.185  26.642  28.683  1.00  0.00     0.134 A 
ATOM     75  F   UNL A   1      47.984  25.750  31.993  1.00  0.00    -0.206 F 
ATOM     76  C   UNL A   1      50.101  25.459  31.025  1.00  0.00     0.040 A 
ATOM     77  C   UNL A   1      50.501  26.185  28.764  1.00  0.00     0.040 A 
ATOM     78  F   UNL A   1      48.786  27.213  27.537  1.00  0.00    -0.206 F 
ATOM     79  C   UNL A   1      50.963  25.597  29.940  1.00  0.00     0.006 A 
ENDBRANCH  58  72
BRANCH  59  80
ATOM     80  C   UNL A   1      38.682  29.087  29.026  1.00  0.00     0.057 A 
ATOM     81  C   UNL A   1      38.147  29.585  27.831  1.00  0.00     0.134 A 
ATOM     82  C   UNL A   1      37.825  28.991  30.127  1.00  0.00     0.134 A 
ATOM     83  F   UNL A   1      38.925  29.716  26.747  1.00  0.00    -0.206 F 
ATOM     84  C   UNL A   1      36.816  29.994  27.742  1.00  0.00     0.040 A 
ATOM     85  C   UNL A   1      36.486  29.376  30.046  1.00  0.00     0.040 A 
ATOM     86  F   UNL A   1      38.275  28.514  31.297  1.00  0.00    -0.206 F 
ATOM     87  C   UNL A   1      35.980  29.886  28.851  1.00  0.00     0.006 A 
ENDBRANCH  59  80
BRANCH  71  88
ATOM     88  C   UNL A   1      44.441  32.487  30.935  1.00  0.00     0.057 A 
ATOM     89  C   UNL A   1      44.434  32.847  32.288  1.00  0.00     0.134 A 
ATOM     90  C   UNL A   1      44.712  33.491  29.997  1.00  0.00     0.134 A 
ATOM     91  F   UNL A   1      44.168  31.933  33.234  1.00  0.00    -0.206 F 
ATOM     92  C   UNL A   1      44.667  34.163  32.692  1.00  0.00     0.040 A 
ATOM     93  C   UNL A   1      44.970  34.804  30.390  1.00  0.00     0.040 A 
ATOM     94  F   UNL A   1      44.740  33.210  28.686  1.00  0.00    -0.206 F 
ATOM     95  C   UNL A   1      44.942  35.145  31.741  1.00  0.00     0.006 A 
ENDBRANCH  71  88
ENDBRANCH  45  46
ENDBRANCH  37  40
ENDBRANCH  35  36
ENDBRANCH  34  35
ENDBRANCH   1  34
TORSDOF 14
ENDMDL
