MODEL 1
REMARK VINA RESULT:     -12.2      0.000      0.000
REMARK SMILES O=C(NCCCNC(=O)c1ccc(C[N@@H+]2CCN3C(=O)NC[C@@H]3C2)nc1)c1ccc(-c2c3nc(c(-c4c(F)cccc4F)c4ccc([nH]4)c(-c4c(F)cccc4F)c4nc(c(-c5c(F)cccc5F)c5ccc2[nH]5)C=C4)C=C3)cc1
REMARK SMILES IDX 5 1 4 2 3 3 1 4 2 5 27 7 28 8 80 9 29 10 79 11 30 12 31 13
REMARK SMILES IDX 32 14 73 15 33 16 78 17 72 18 74 19 34 20 77 21 71 22 70 23
REMARK SMILES IDX 35 25 61 26 44 27 60 28 45 29 48 30 59 31 75 32 46 33 47 34
REMARK SMILES IDX 58 36 76 37 49 38 36 39 37 40 42 41 38 42 39 43 41 44 43 45
REMARK SMILES IDX 40 46 62 47 63 48 68 49 64 50 65 51 67 52 69 53 66 54 50 55
REMARK SMILES IDX 51 56 56 57 52 58 53 59 55 60 57 61 54 62 6 63 7 64 8 65
REMARK SMILES IDX 9 67 10 68 11 69 26 70 12 71 25 72 13 73 14 74 15 75 16 76
REMARK SMILES IDX 24 77 17 79 23 80 18 81 22 82 19 83 21 84 20 85
REMARK H PARENT 3 6 74 24 48 35 7 66 15 78 21 86
REMARK Flexibility Score: inf
ROOT
ATOM      1  C   UNL A   1      37.840  19.443  25.001  1.00  0.00     0.042 C 
ENDROOT
BRANCH   1   2
ATOM      2  C   UNL A   1      39.034  20.005  25.752  1.00  0.00     0.118 C 
BRANCH   2   3
ATOM      3  N   UNL A   1      40.135  19.052  25.833  1.00  0.00    -0.352 N 
ATOM      4  O   UNL A   1      42.278  18.357  25.814  1.00  0.00    -0.269 OA
ATOM      5  C   UNL A   1      41.480  19.273  25.991  1.00  0.00     0.251 C 
ATOM      6  H   UNL A   1      39.873  18.106  25.764  1.00  0.00     0.163 HD
BRANCH   5   7
ATOM      7  C   UNL A   1      41.963  20.618  26.363  1.00  0.00     0.039 A 
ATOM      8  C   UNL A   1      42.216  21.572  25.377  1.00  0.00     0.014 A 
ATOM      9  C   UNL A   1      42.144  20.933  27.711  1.00  0.00     0.014 A 
ATOM     10  C   UNL A   1      42.802  22.780  25.720  1.00  0.00     0.010 A 
ATOM     11  C   UNL A   1      42.623  22.196  28.065  1.00  0.00     0.010 A 
ATOM     12  C   UNL A   1      42.975  23.122  27.069  1.00  0.00    -0.014 A 
BRANCH  12  13
ATOM     13  C   UNL A   1      43.417  24.495  27.411  1.00  0.00     0.031 A 
ATOM     14  C   UNL A   1      42.441  25.541  27.861  1.00  0.00     0.074 A 
ATOM     15  C   UNL A   1      44.730  24.780  27.309  1.00  0.00     0.049 A 
ATOM     16  N   UNL A   1      42.666  26.794  28.166  1.00  0.00    -0.248 NA
ATOM     17  C   UNL A   1      41.031  25.138  27.975  1.00  0.00     0.031 C 
ATOM     18  C   UNL A   1      45.766  23.838  26.873  1.00  0.00     0.029 A 
ATOM     19  N   UNL A   1      45.422  25.934  27.568  1.00  0.00    -0.354 N 
ATOM     20  C   UNL A   1      41.428  27.335  28.488  1.00  0.00     0.074 A 
ATOM     21  C   UNL A   1      40.451  26.281  28.320  1.00  0.00     0.031 C 
ATOM     22  C   UNL A   1      46.961  24.440  26.927  1.00  0.00     0.029 A 
ATOM     23  C   UNL A   1      46.770  25.829  27.322  1.00  0.00     0.049 A 
ATOM     24  H   UNL A   1      44.996  26.758  27.899  1.00  0.00     0.167 HD
ATOM     25  C   UNL A   1      41.143  28.598  28.887  1.00  0.00     0.037 A 
ATOM     26  C   UNL A   1      47.741  26.757  27.369  1.00  0.00     0.037 A 
ATOM     27  C   UNL A   1      42.131  29.634  29.059  1.00  0.00     0.049 A 
ATOM     28  C   UNL A   1      47.384  28.157  27.767  1.00  0.00     0.074 A 
ATOM     29  C   UNL A   1      41.949  30.929  29.512  1.00  0.00     0.029 A 
ATOM     30  N   UNL A   1      43.481  29.497  28.772  1.00  0.00    -0.354 N 
ATOM     31  N   UNL A   1      46.218  28.641  28.121  1.00  0.00    -0.248 NA
ATOM     32  C   UNL A   1      48.472  29.142  27.767  1.00  0.00     0.031 C 
ATOM     33  C   UNL A   1      43.175  31.595  29.436  1.00  0.00     0.029 A 
ATOM     34  C   UNL A   1      44.136  30.698  28.997  1.00  0.00     0.049 A 
ATOM     35  H   UNL A   1      43.911  28.671  28.454  1.00  0.00     0.167 HD
ATOM     36  C   UNL A   1      46.436  29.982  28.404  1.00  0.00     0.074 A 
ATOM     37  C   UNL A   1      47.849  30.228  28.201  1.00  0.00     0.031 C 
ATOM     38  C   UNL A   1      45.544  30.926  28.792  1.00  0.00     0.037 A 
BRANCH  25  39
ATOM     39  C   UNL A   1      39.704  28.948  29.139  1.00  0.00     0.057 A 
ATOM     40  C   UNL A   1      38.845  29.359  28.111  1.00  0.00     0.134 A 
ATOM     41  C   UNL A   1      39.153  28.808  30.420  1.00  0.00     0.134 A 
ATOM     42  F   UNL A   1      39.308  29.523  26.863  1.00  0.00    -0.206 F 
ATOM     43  C   UNL A   1      37.497  29.634  28.352  1.00  0.00     0.040 A 
ATOM     44  C   UNL A   1      37.802  29.053  30.669  1.00  0.00     0.040 A 
ATOM     45  F   UNL A   1      39.917  28.410  31.450  1.00  0.00    -0.206 F 
ATOM     46  C   UNL A   1      36.971  29.472  29.632  1.00  0.00     0.006 A 
ENDBRANCH  25  39
BRANCH  26  47
ATOM     47  C   UNL A   1      49.131  26.393  26.992  1.00  0.00     0.057 A 
ATOM     48  C   UNL A   1      50.035  25.898  27.938  1.00  0.00     0.134 A 
ATOM     49  C   UNL A   1      49.588  26.537  25.675  1.00  0.00     0.134 A 
ATOM     50  F   UNL A   1      49.660  25.751  29.216  1.00  0.00    -0.206 F 
ATOM     51  C   UNL A   1      51.349  25.580  27.594  1.00  0.00     0.040 A 
ATOM     52  C   UNL A   1      50.890  26.192  25.310  1.00  0.00     0.040 A 
ATOM     53  F   UNL A   1      48.767  26.995  24.718  1.00  0.00    -0.206 F 
ATOM     54  C   UNL A   1      51.778  25.722  26.274  1.00  0.00     0.006 A 
ENDBRANCH  26  47
BRANCH  38  55
ATOM     55  C   UNL A   1      46.078  32.304  29.050  1.00  0.00     0.057 A 
ATOM     56  C   UNL A   1      46.096  33.289  28.055  1.00  0.00     0.134 A 
ATOM     57  C   UNL A   1      46.542  32.660  30.323  1.00  0.00     0.134 A 
ATOM     58  F   UNL A   1      45.681  33.007  26.811  1.00  0.00    -0.206 F 
ATOM     59  C   UNL A   1      46.575  34.574  28.311  1.00  0.00     0.040 A 
ATOM     60  C   UNL A   1      46.995  33.951  30.599  1.00  0.00     0.040 A 
ATOM     61  F   UNL A   1      46.546  31.766  31.323  1.00  0.00    -0.206 F 
ATOM     62  C   UNL A   1      47.018  34.911  29.589  1.00  0.00     0.006 A 
ENDBRANCH  38  55
ENDBRANCH  12  13
ENDBRANCH   5   7
ENDBRANCH   2   3
ENDBRANCH   1   2
BRANCH   1  63
ATOM     63  C   UNL A   1      36.762  20.479  24.742  1.00  0.00     0.118 C 
BRANCH  63  64
ATOM     64  N   UNL A   1      35.429  19.952  25.003  1.00  0.00    -0.352 N 
ATOM     65  C   UNL A   1      34.255  20.638  25.169  1.00  0.00     0.252 C 
ATOM     66  H   UNL A   1      35.364  18.972  25.069  1.00  0.00     0.163 HD
ATOM     67  O   UNL A   1      33.258  20.081  25.613  1.00  0.00    -0.269 OA
BRANCH  65  68
ATOM     68  C   UNL A   1      34.209  22.058  24.814  1.00  0.00     0.058 A 
ATOM     69  C   UNL A   1      34.210  22.476  23.485  1.00  0.00     0.017 A 
ATOM     70  C   UNL A   1      34.168  23.009  25.818  1.00  0.00     0.125 A 
ATOM     71  C   UNL A   1      34.240  23.834  23.207  1.00  0.00     0.030 A 
ATOM     72  N   UNL A   1      34.180  24.338  25.572  1.00  0.00    -0.255 NA
ATOM     73  C   UNL A   1      34.211  24.736  24.271  1.00  0.00     0.095 A 
BRANCH  73  74
ATOM     74  C   UNL A   1      34.026  26.217  23.981  1.00  0.00     0.319 C 
BRANCH  74  75
ATOM     75  N   UNL A   1      32.632  26.689  24.064  1.00  0.00    -0.327 N 
ATOM     76  C   UNL A   1      31.821  26.277  22.893  1.00  0.00     0.284 C 
ATOM     77  C   UNL A   1      32.519  28.119  24.404  1.00  0.00     0.289 C 
ATOM     78  H   UNL A   1      32.214  26.209  24.861  1.00  0.00     0.348 HD
ATOM     79  C   UNL A   1      30.931  27.331  22.196  1.00  0.00     0.183 C 
ATOM     80  C   UNL A   1      31.066  28.586  24.378  1.00  0.00     0.161 C 
ATOM     81  N   UNL A   1      30.492  28.405  23.061  1.00  0.00    -0.309 N 
ATOM     82  C   UNL A   1      30.880  30.082  24.627  1.00  0.00     0.148 C 
ATOM     83  C   UNL A   1      29.755  29.504  22.667  1.00  0.00     0.318 C 
ATOM     84  N   UNL A   1      29.888  30.467  23.656  1.00  0.00    -0.336 N 
ATOM     85  O   UNL A   1      29.141  29.652  21.625  1.00  0.00    -0.249 OA
ATOM     86  H   UNL A   1      29.371  31.304  23.690  1.00  0.00     0.165 HD
ENDBRANCH  74  75
ENDBRANCH  73  74
ENDBRANCH  65  68
ENDBRANCH  63  64
ENDBRANCH   1  63
TORSDOF 12
ENDMDL
MODEL 2
REMARK VINA RESULT:     -12.2      4.597     10.333
REMARK SMILES O=C(NCCCNC(=O)c1ccc(C[N@@H+]2CCN3C(=O)NC[C@@H]3C2)nc1)c1ccc(-c2c3nc(c(-c4c(F)cccc4F)c4ccc([nH]4)c(-c4c(F)cccc4F)c4nc(c(-c5c(F)cccc5F)c5ccc2[nH]5)C=C4)C=C3)cc1
REMARK SMILES IDX 5 1 4 2 3 3 1 4 2 5 27 7 28 8 80 9 29 10 79 11 30 12 31 13
REMARK SMILES IDX 32 14 73 15 33 16 78 17 72 18 74 19 34 20 77 21 71 22 70 23
REMARK SMILES IDX 35 25 61 26 44 27 60 28 45 29 48 30 59 31 75 32 46 33 47 34
REMARK SMILES IDX 58 36 76 37 49 38 36 39 37 40 42 41 38 42 39 43 41 44 43 45
REMARK SMILES IDX 40 46 62 47 63 48 68 49 64 50 65 51 67 52 69 53 66 54 50 55
REMARK SMILES IDX 51 56 56 57 52 58 53 59 55 60 57 61 54 62 6 63 7 64 8 65
REMARK SMILES IDX 9 67 10 68 11 69 26 70 12 71 25 72 13 73 14 74 15 75 16 76
REMARK SMILES IDX 24 77 17 79 23 80 18 81 22 82 19 83 21 84 20 85
REMARK H PARENT 3 6 74 24 48 35 7 66 15 78 21 86
REMARK Flexibility Score: inf
ROOT
ATOM      1  C   UNL A   1      31.266  31.828  26.437  1.00  0.00     0.042 C 
ENDROOT
BRANCH   1   2
ATOM      2  C   UNL A   1      32.554  32.457  26.938  1.00  0.00     0.118 C 
BRANCH   2   3
ATOM      3  N   UNL A   1      32.354  33.817  27.424  1.00  0.00    -0.352 N 
ATOM      4  O   UNL A   1      32.543  35.560  28.838  1.00  0.00    -0.269 OA
ATOM      5  C   UNL A   1      33.000  34.499  28.425  1.00  0.00     0.251 C 
ATOM      6  H   UNL A   1      31.647  34.324  26.963  1.00  0.00     0.163 HD
BRANCH   5   7
ATOM      7  C   UNL A   1      34.238  33.944  29.007  1.00  0.00     0.039 A 
ATOM      8  C   UNL A   1      34.171  32.990  30.023  1.00  0.00     0.014 A 
ATOM      9  C   UNL A   1      35.476  34.368  28.519  1.00  0.00     0.014 A 
ATOM     10  C   UNL A   1      35.331  32.580  30.661  1.00  0.00     0.010 A 
ATOM     11  C   UNL A   1      36.649  33.863  29.084  1.00  0.00     0.010 A 
ATOM     12  C   UNL A   1      36.584  32.979  30.174  1.00  0.00    -0.014 A 
BRANCH  12  13
ATOM     13  C   UNL A   1      37.806  32.370  30.749  1.00  0.00     0.031 A 
ATOM     14  C   UNL A   1      38.444  31.163  30.129  1.00  0.00     0.074 A 
ATOM     15  C   UNL A   1      38.335  32.935  31.853  1.00  0.00     0.049 A 
ATOM     16  N   UNL A   1      39.496  30.495  30.529  1.00  0.00    -0.248 NA
ATOM     17  C   UNL A   1      37.821  30.628  28.908  1.00  0.00     0.031 C 
ATOM     18  C   UNL A   1      37.790  34.107  32.544  1.00  0.00     0.029 A 
ATOM     19  N   UNL A   1      39.447  32.609  32.584  1.00  0.00    -0.354 N 
ATOM     20  C   UNL A   1      39.650  29.451  29.627  1.00  0.00     0.074 A 
ATOM     21  C   UNL A   1      38.571  29.560  28.669  1.00  0.00     0.031 C 
ATOM     22  C   UNL A   1      38.585  34.422  33.575  1.00  0.00     0.029 A 
ATOM     23  C   UNL A   1      39.647  33.430  33.668  1.00  0.00     0.049 A 
ATOM     24  H   UNL A   1      40.045  31.861  32.356  1.00  0.00     0.167 HD
ATOM     25  C   UNL A   1      40.609  28.495  29.606  1.00  0.00     0.037 A 
ATOM     26  C   UNL A   1      40.561  33.370  34.652  1.00  0.00     0.037 A 
ATOM     27  C   UNL A   1      41.684  28.407  30.564  1.00  0.00     0.049 A 
ATOM     28  C   UNL A   1      41.578  32.270  34.627  1.00  0.00     0.074 A 
ATOM     29  C   UNL A   1      42.735  27.507  30.596  1.00  0.00     0.029 A 
ATOM     30  N   UNL A   1      41.836  29.239  31.663  1.00  0.00    -0.354 N 
ATOM     31  N   UNL A   1      41.745  31.321  33.737  1.00  0.00    -0.248 NA
ATOM     32  C   UNL A   1      42.530  32.224  35.744  1.00  0.00     0.031 C 
ATOM     33  C   UNL A   1      43.484  27.752  31.750  1.00  0.00     0.029 A 
ATOM     34  C   UNL A   1      42.940  28.846  32.404  1.00  0.00     0.049 A 
ATOM     35  H   UNL A   1      41.247  29.996  31.885  1.00  0.00     0.167 HD
ATOM     36  C   UNL A   1      42.831  30.578  34.176  1.00  0.00     0.074 A 
ATOM     37  C   UNL A   1      43.296  31.200  35.399  1.00  0.00     0.031 C 
ATOM     38  C   UNL A   1      43.391  29.477  33.619  1.00  0.00     0.037 A 
BRANCH  25  39
ATOM     39  C   UNL A   1      40.531  27.442  28.537  1.00  0.00     0.057 A 
ATOM     40  C   UNL A   1      39.718  26.308  28.663  1.00  0.00     0.134 A 
ATOM     41  C   UNL A   1      41.231  27.601  27.333  1.00  0.00     0.134 A 
ATOM     42  F   UNL A   1      39.027  26.090  29.792  1.00  0.00    -0.206 F 
ATOM     43  C   UNL A   1      39.618  25.364  27.639  1.00  0.00     0.040 A 
ATOM     44  C   UNL A   1      41.119  26.678  26.292  1.00  0.00     0.040 A 
ATOM     45  F   UNL A   1      42.023  28.668  27.142  1.00  0.00    -0.206 F 
ATOM     46  C   UNL A   1      40.313  25.553  26.446  1.00  0.00     0.006 A 
ENDBRANCH  25  39
BRANCH  26  47
ATOM     47  C   UNL A   1      40.523  34.361  35.757  1.00  0.00     0.057 A 
ATOM     48  C   UNL A   1      39.777  34.128  36.917  1.00  0.00     0.134 A 
ATOM     49  C   UNL A   1      41.232  35.567  35.677  1.00  0.00     0.134 A 
ATOM     50  F   UNL A   1      39.067  32.998  37.048  1.00  0.00    -0.206 F 
ATOM     51  C   UNL A   1      39.717  35.068  37.947  1.00  0.00     0.040 A 
ATOM     52  C   UNL A   1      41.208  36.501  36.713  1.00  0.00     0.040 A 
ATOM     53  F   UNL A   1      41.976  35.846  34.597  1.00  0.00    -0.206 F 
ATOM     54  C   UNL A   1      40.439  36.257  37.849  1.00  0.00     0.006 A 
ENDBRANCH  26  47
BRANCH  38  55
ATOM     55  C   UNL A   1      44.586  28.892  34.313  1.00  0.00     0.057 A 
ATOM     56  C   UNL A   1      44.461  27.883  35.275  1.00  0.00     0.134 A 
ATOM     57  C   UNL A   1      45.879  29.318  33.982  1.00  0.00     0.134 A 
ATOM     58  F   UNL A   1      43.250  27.444  35.649  1.00  0.00    -0.206 F 
ATOM     59  C   UNL A   1      45.580  27.331  35.900  1.00  0.00     0.040 A 
ATOM     60  C   UNL A   1      47.007  28.752  34.578  1.00  0.00     0.040 A 
ATOM     61  F   UNL A   1      46.068  30.276  33.063  1.00  0.00    -0.206 F 
ATOM     62  C   UNL A   1      46.858  27.759  35.544  1.00  0.00     0.006 A 
ENDBRANCH  38  55
ENDBRANCH  12  13
ENDBRANCH   5   7
ENDBRANCH   2   3
ENDBRANCH   1   2
BRANCH   1  63
ATOM     63  C   UNL A   1      31.444  30.388  25.993  1.00  0.00     0.118 C 
BRANCH  63  64
ATOM     64  N   UNL A   1      31.057  30.197  24.601  1.00  0.00    -0.352 N 
ATOM     65  C   UNL A   1      31.126  29.060  23.842  1.00  0.00     0.252 C 
ATOM     66  H   UNL A   1      30.701  30.994  24.146  1.00  0.00     0.163 HD
ATOM     67  O   UNL A   1      30.987  29.105  22.626  1.00  0.00    -0.269 OA
BRANCH  65  68
ATOM     68  C   UNL A   1      31.378  27.779  24.508  1.00  0.00     0.058 A 
ATOM     69  C   UNL A   1      30.334  26.995  24.993  1.00  0.00     0.017 A 
ATOM     70  C   UNL A   1      32.679  27.338  24.663  1.00  0.00     0.125 A 
ATOM     71  C   UNL A   1      30.633  25.828  25.681  1.00  0.00     0.030 A 
ATOM     72  N   UNL A   1      32.995  26.196  25.314  1.00  0.00    -0.255 NA
ATOM     73  C   UNL A   1      31.970  25.451  25.811  1.00  0.00     0.095 A 
BRANCH  73  74
ATOM     74  C   UNL A   1      32.302  24.077  26.368  1.00  0.00     0.319 C 
BRANCH  74  75
ATOM     75  N   UNL A   1      32.873  23.138  25.385  1.00  0.00    -0.327 N 
ATOM     76  C   UNL A   1      31.872  22.168  24.877  1.00  0.00     0.284 C 
ATOM     77  C   UNL A   1      34.137  22.525  25.828  1.00  0.00     0.289 C 
ATOM     78  H   UNL A   1      33.136  23.698  24.574  1.00  0.00     0.348 HD
ATOM     79  C   UNL A   1      32.251  20.670  24.817  1.00  0.00     0.183 C 
ATOM     80  C   UNL A   1      34.637  21.487  24.827  1.00  0.00     0.161 C 
ATOM     81  N   UNL A   1      33.669  20.422  24.667  1.00  0.00    -0.309 N 
ATOM     82  C   UNL A   1      35.895  20.740  25.267  1.00  0.00     0.148 C 
ATOM     83  C   UNL A   1      34.270  19.179  24.663  1.00  0.00     0.318 C 
ATOM     84  N   UNL A   1      35.622  19.372  24.905  1.00  0.00    -0.336 N 
ATOM     85  O   UNL A   1      33.732  18.093  24.533  1.00  0.00    -0.249 OA
ATOM     86  H   UNL A   1      36.306  18.668  24.837  1.00  0.00     0.165 HD
ENDBRANCH  74  75
ENDBRANCH  73  74
ENDBRANCH  65  68
ENDBRANCH  63  64
ENDBRANCH   1  63
TORSDOF 12
ENDMDL
MODEL 3
REMARK VINA RESULT:     -12.2      1.417      2.070
REMARK SMILES O=C(NCCCNC(=O)c1ccc(C[N@@H+]2CCN3C(=O)NC[C@@H]3C2)nc1)c1ccc(-c2c3nc(c(-c4c(F)cccc4F)c4ccc([nH]4)c(-c4c(F)cccc4F)c4nc(c(-c5c(F)cccc5F)c5ccc2[nH]5)C=C4)C=C3)cc1
REMARK SMILES IDX 5 1 4 2 3 3 1 4 2 5 27 7 28 8 80 9 29 10 79 11 30 12 31 13
REMARK SMILES IDX 32 14 73 15 33 16 78 17 72 18 74 19 34 20 77 21 71 22 70 23
REMARK SMILES IDX 35 25 61 26 44 27 60 28 45 29 48 30 59 31 75 32 46 33 47 34
REMARK SMILES IDX 58 36 76 37 49 38 36 39 37 40 42 41 38 42 39 43 41 44 43 45
REMARK SMILES IDX 40 46 62 47 63 48 68 49 64 50 65 51 67 52 69 53 66 54 50 55
REMARK SMILES IDX 51 56 56 57 52 58 53 59 55 60 57 61 54 62 6 63 7 64 8 65
REMARK SMILES IDX 9 67 10 68 11 69 26 70 12 71 25 72 13 73 14 74 15 75 16 76
REMARK SMILES IDX 24 77 17 79 23 80 18 81 22 82 19 83 21 84 20 85
REMARK H PARENT 3 6 74 24 48 35 7 66 15 78 21 86
REMARK Flexibility Score: inf
ROOT
ATOM      1  C   UNL A   1      37.293  19.561  24.978  1.00  0.00     0.042 C 
ENDROOT
BRANCH   1   2
ATOM      2  C   UNL A   1      38.578  20.233  25.431  1.00  0.00     0.118 C 
BRANCH   2   3
ATOM      3  N   UNL A   1      39.660  19.276  25.634  1.00  0.00    -0.352 N 
ATOM      4  O   UNL A   1      41.782  18.582  25.934  1.00  0.00    -0.269 OA
ATOM      5  C   UNL A   1      40.956  19.485  26.033  1.00  0.00     0.251 C 
ATOM      6  H   UNL A   1      39.423  18.337  25.459  1.00  0.00     0.163 HD
BRANCH   5   7
ATOM      7  C   UNL A   1      41.354  20.801  26.570  1.00  0.00     0.039 A 
ATOM      8  C   UNL A   1      41.834  21.794  25.715  1.00  0.00     0.014 A 
ATOM      9  C   UNL A   1      41.227  21.051  27.938  1.00  0.00     0.014 A 
ATOM     10  C   UNL A   1      42.337  22.974  26.241  1.00  0.00     0.010 A 
ATOM     11  C   UNL A   1      41.624  22.288  28.453  1.00  0.00     0.010 A 
ATOM     12  C   UNL A   1      42.202  23.251  27.609  1.00  0.00    -0.014 A 
BRANCH  12  13
ATOM     13  C   UNL A   1      42.567  24.597  28.108  1.00  0.00     0.031 A 
ATOM     14  C   UNL A   1      41.528  25.652  28.343  1.00  0.00     0.074 A 
ATOM     15  C   UNL A   1      43.868  24.850  28.352  1.00  0.00     0.049 A 
ATOM     16  N   UNL A   1      41.690  26.887  28.748  1.00  0.00    -0.248 NA
ATOM     17  C   UNL A   1      40.128  25.285  28.082  1.00  0.00     0.031 C 
ATOM     18  C   UNL A   1      44.964  23.896  28.151  1.00  0.00     0.029 A 
ATOM     19  N   UNL A   1      44.493  25.973  28.825  1.00  0.00    -0.354 N 
ATOM     20  C   UNL A   1      40.421  27.449  28.770  1.00  0.00     0.074 A 
ATOM     21  C   UNL A   1      39.500  26.430  28.318  1.00  0.00     0.031 C 
ATOM     22  C   UNL A   1      46.118  24.462  28.529  1.00  0.00     0.029 A 
ATOM     23  C   UNL A   1      45.857  25.840  28.921  1.00  0.00     0.049 A 
ATOM     24  H   UNL A   1      44.012  26.796  29.073  1.00  0.00     0.167 HD
ATOM     25  C   UNL A   1      40.067  28.704  29.139  1.00  0.00     0.037 A 
ATOM     26  C   UNL A   1      46.801  26.739  29.250  1.00  0.00     0.037 A 
ATOM     27  C   UNL A   1      40.997  29.706  29.597  1.00  0.00     0.049 A 
ATOM     28  C   UNL A   1      46.379  28.133  29.605  1.00  0.00     0.074 A 
ATOM     29  C   UNL A   1      40.730  30.988  30.044  1.00  0.00     0.029 A 
ATOM     30  N   UNL A   1      42.374  29.542  29.653  1.00  0.00    -0.354 N 
ATOM     31  N   UNL A   1      45.171  28.636  29.675  1.00  0.00    -0.248 NA
ATOM     32  C   UNL A   1      47.450  29.087  29.920  1.00  0.00     0.031 C 
ATOM     33  C   UNL A   1      41.947  31.622  30.306  1.00  0.00     0.029 A 
ATOM     34  C   UNL A   1      42.971  30.716  30.086  1.00  0.00     0.049 A 
ATOM     35  H   UNL A   1      42.855  28.716  29.418  1.00  0.00     0.167 HD
ATOM     36  C   UNL A   1      45.333  29.958  30.060  1.00  0.00     0.074 A 
ATOM     37  C   UNL A   1      46.756  30.173  30.229  1.00  0.00     0.031 C 
ATOM     38  C   UNL A   1      44.389  30.912  30.251  1.00  0.00     0.037 A 
BRANCH  25  39
ATOM     39  C   UNL A   1      38.617  29.085  29.035  1.00  0.00     0.057 A 
ATOM     40  C   UNL A   1      37.746  29.010  30.130  1.00  0.00     0.134 A 
ATOM     41  C   UNL A   1      38.102  29.598  27.836  1.00  0.00     0.134 A 
ATOM     42  F   UNL A   1      38.170  28.522  31.304  1.00  0.00    -0.206 F 
ATOM     43  C   UNL A   1      36.413  29.416  30.031  1.00  0.00     0.040 A 
ATOM     44  C   UNL A   1      36.779  30.031  27.732  1.00  0.00     0.040 A 
ATOM     45  F   UNL A   1      38.884  29.705  26.750  1.00  0.00    -0.206 F 
ATOM     46  C   UNL A   1      35.930  29.936  28.832  1.00  0.00     0.006 A 
ENDBRANCH  25  39
BRANCH  26  47
ATOM     47  C   UNL A   1      48.234  26.351  29.220  1.00  0.00     0.057 A 
ATOM     48  C   UNL A   1      48.863  25.802  30.342  1.00  0.00     0.134 A 
ATOM     49  C   UNL A   1      49.010  26.526  28.066  1.00  0.00     0.134 A 
ATOM     50  F   UNL A   1      48.177  25.622  31.480  1.00  0.00    -0.206 F 
ATOM     51  C   UNL A   1      50.216  25.460  30.326  1.00  0.00     0.040 A 
ATOM     52  C   UNL A   1      50.356  26.158  28.025  1.00  0.00     0.040 A 
ATOM     53  F   UNL A   1      48.464  27.037  26.952  1.00  0.00    -0.206 F 
ATOM     54  C   UNL A   1      50.965  25.634  29.162  1.00  0.00     0.006 A 
ENDBRANCH  26  47
BRANCH  38  55
ATOM     55  C   UNL A   1      44.865  32.264  30.694  1.00  0.00     0.057 A 
ATOM     56  C   UNL A   1      45.055  32.576  32.045  1.00  0.00     0.134 A 
ATOM     57  C   UNL A   1      45.175  33.253  29.750  1.00  0.00     0.134 A 
ATOM     58  F   UNL A   1      44.760  31.680  32.998  1.00  0.00    -0.206 F 
ATOM     59  C   UNL A   1      45.518  33.830  32.445  1.00  0.00     0.040 A 
ATOM     60  C   UNL A   1      45.668  34.500  30.136  1.00  0.00     0.040 A 
ATOM     61  F   UNL A   1      45.022  33.017  28.439  1.00  0.00    -0.206 F 
ATOM     62  C   UNL A   1      45.835  34.793  31.489  1.00  0.00     0.006 A 
ENDBRANCH  38  55
ENDBRANCH  12  13
ENDBRANCH   5   7
ENDBRANCH   2   3
ENDBRANCH   1   2
BRANCH   1  63
ATOM     63  C   UNL A   1      36.114  20.516  24.923  1.00  0.00     0.118 C 
BRANCH  63  64
ATOM     64  N   UNL A   1      34.848  19.827  25.133  1.00  0.00    -0.352 N 
ATOM     65  C   UNL A   1      33.576  20.318  25.006  1.00  0.00     0.252 C 
ATOM     66  H   UNL A   1      34.917  18.883  25.403  1.00  0.00     0.163 HD
ATOM     67  O   UNL A   1      32.614  19.694  25.440  1.00  0.00    -0.269 OA
BRANCH  65  68
ATOM     68  C   UNL A   1      33.379  21.612  24.348  1.00  0.00     0.058 A 
ATOM     69  C   UNL A   1      32.961  21.697  23.022  1.00  0.00     0.017 A 
ATOM     70  C   UNL A   1      33.615  22.777  25.055  1.00  0.00     0.125 A 
ATOM     71  C   UNL A   1      32.862  22.946  22.427  1.00  0.00     0.030 A 
ATOM     72  N   UNL A   1      33.510  24.006  24.502  1.00  0.00    -0.255 NA
ATOM     73  C   UNL A   1      33.130  24.078  23.197  1.00  0.00     0.095 A 
BRANCH  73  74
ATOM     74  C   UNL A   1      32.819  25.452  22.627  1.00  0.00     0.319 C 
BRANCH  74  75
ATOM     75  N   UNL A   1      31.919  26.272  23.458  1.00  0.00    -0.327 N 
ATOM     76  C   UNL A   1      30.600  26.495  22.818  1.00  0.00     0.284 C 
ATOM     77  C   UNL A   1      32.554  27.497  23.973  1.00  0.00     0.289 C 
ATOM     78  H   UNL A   1      31.720  25.721  24.293  1.00  0.00     0.348 HD
ATOM     79  C   UNL A   1      30.015  27.926  22.796  1.00  0.00     0.183 C 
ATOM     80  C   UNL A   1      31.558  28.363  24.741  1.00  0.00     0.161 C 
ATOM     81  N   UNL A   1      30.464  28.768  23.884  1.00  0.00    -0.309 N 
ATOM     82  C   UNL A   1      32.124  29.698  25.224  1.00  0.00     0.148 C 
ATOM     83  C   UNL A   1      30.150  30.102  24.049  1.00  0.00     0.318 C 
ATOM     84  N   UNL A   1      31.068  30.636  24.940  1.00  0.00    -0.336 N 
ATOM     85  O   UNL A   1      29.273  30.735  23.486  1.00  0.00    -0.249 OA
ATOM     86  H   UNL A   1      31.006  31.538  25.329  1.00  0.00     0.165 HD
ENDBRANCH  74  75
ENDBRANCH  73  74
ENDBRANCH  65  68
ENDBRANCH  63  64
ENDBRANCH   1  63
TORSDOF 12
ENDMDL
