MODEL 1
REMARK VINA RESULT:     -11.1      0.000      0.000
REMARK SMILES CC[C@H](CNC(=O)[C@H]1CSc2ccccc21)C(=O)NCCCNC(=O)c1ccc(-c2c3nc(c(-c4c(F)cccc4F)c4ccc([nH]4)c(-c4c(F)cccc4F)c4nc(c(-c5c(F)cccc5F)c5ccc2[nH]5)C=C4)C=C3)cc1
REMARK SMILES IDX 20 1 19 2 17 3 18 4 3 6 2 7 1 8 4 9 5 10 6 11 7 13 8 14 9 15
REMARK SMILES IDX 16 16 10 17 11 18 15 19 12 20 14 21 13 22 21 23 22 24 23 25
REMARK SMILES IDX 24 26 25 28 26 29 27 30 79 31 28 32 78 33 29 34 30 35 31 36
REMARK SMILES IDX 72 37 32 38 77 39 71 40 73 41 33 42 76 43 70 44 69 45 34 47
REMARK SMILES IDX 60 48 43 49 59 50 44 51 47 52 58 53 74 54 45 55 46 56 57 58
REMARK SMILES IDX 75 59 48 60 35 61 36 62 41 63 37 64 38 65 40 66 42 67 39 68
REMARK SMILES IDX 61 69 62 70 67 71 63 72 64 73 66 74 68 75 65 76 49 77 50 78
REMARK SMILES IDX 55 79 51 80 52 81 54 82 56 83 53 84
REMARK H PARENT 19 5 5 12 23 27 73 46 47 57
REMARK Flexibility Score: inf
ROOT
ATOM      1  C   UNL A   1      34.040  34.165  30.071  1.00  0.00     0.117 C 
ENDROOT
BRANCH   1   2
ATOM      2  N   UNL A   1      35.132  33.915  29.156  1.00  0.00    -0.356 N 
ATOM      3  C   UNL A   1      35.358  32.878  28.309  1.00  0.00     0.224 C 
ATOM      4  O   UNL A   1      36.191  33.077  27.417  1.00  0.00    -0.275 OA
ATOM      5  H   UNL A   1      35.828  34.612  29.145  1.00  0.00     0.163 HD
BRANCH   3   6
ATOM      6  C   UNL A   1      34.699  31.503  28.426  1.00  0.00     0.097 C 
BRANCH   6   7
ATOM      7  C   UNL A   1      35.650  30.337  28.757  1.00  0.00     0.012 C 
ATOM      8  C   UNL A   1      36.440  29.690  27.627  1.00  0.00     0.005 C 
ENDBRANCH   6   7
BRANCH   6   9
ATOM      9  C   UNL A   1      33.670  31.253  27.319  1.00  0.00     0.129 C 
BRANCH   9  10
ATOM     10  N   UNL A   1      32.805  30.118  27.626  1.00  0.00    -0.355 N 
ATOM     11  C   UNL A   1      32.407  29.053  26.881  1.00  0.00     0.228 C 
ATOM     12  H   UNL A   1      32.442  30.127  28.542  1.00  0.00     0.163 HD
ATOM     13  O   UNL A   1      31.708  28.205  27.446  1.00  0.00    -0.274 OA
BRANCH  11  14
ATOM     14  C   UNL A   1      32.779  28.871  25.416  1.00  0.00     0.120 C 
ATOM     15  C   UNL A   1      33.654  27.639  25.163  1.00  0.00     0.093 C 
ATOM     16  C   UNL A   1      31.604  28.849  24.476  1.00  0.00    -0.021 A 
ATOM     17  S   UNL A   1      32.906  26.643  23.825  1.00  0.00    -0.125 SA
ATOM     18  C   UNL A   1      31.548  27.750  23.621  1.00  0.00     0.011 A 
ATOM     19  C   UNL A   1      30.652  29.861  24.377  1.00  0.00     0.006 A 
ATOM     20  C   UNL A   1      30.522  27.612  22.699  1.00  0.00     0.015 A 
ATOM     21  C   UNL A   1      29.629  29.741  23.436  1.00  0.00     0.000 A 
ATOM     22  C   UNL A   1      29.557  28.616  22.608  1.00  0.00     0.001 A 
ENDBRANCH  11  14
ENDBRANCH   9  10
ENDBRANCH   6   9
ENDBRANCH   3   6
ENDBRANCH   1   2
BRANCH   1  23
ATOM     23  C   UNL A   1      34.411  34.201  31.558  1.00  0.00     0.042 C 
BRANCH  23  24
ATOM     24  C   UNL A   1      34.479  32.847  32.252  1.00  0.00     0.118 C 
BRANCH  24  25
ATOM     25  N   UNL A   1      35.403  32.853  33.372  1.00  0.00    -0.352 N 
ATOM     26  C   UNL A   1      36.613  32.269  33.620  1.00  0.00     0.251 C 
ATOM     27  H   UNL A   1      35.084  33.401  34.126  1.00  0.00     0.163 HD
ATOM     28  O   UNL A   1      37.012  32.302  34.790  1.00  0.00    -0.269 OA
BRANCH  26  29
ATOM     29  C   UNL A   1      37.479  31.613  32.603  1.00  0.00     0.039 A 
ATOM     30  C   UNL A   1      37.553  32.003  31.265  1.00  0.00     0.014 A 
ATOM     31  C   UNL A   1      38.412  30.673  33.077  1.00  0.00     0.014 A 
ATOM     32  C   UNL A   1      38.539  31.459  30.421  1.00  0.00     0.010 A 
ATOM     33  C   UNL A   1      39.424  30.168  32.250  1.00  0.00     0.010 A 
ATOM     34  C   UNL A   1      39.508  30.566  30.911  1.00  0.00    -0.014 A 
BRANCH  34  35
ATOM     35  C   UNL A   1      40.660  30.143  30.061  1.00  0.00     0.031 A 
ATOM     36  C   UNL A   1      41.791  31.082  29.738  1.00  0.00     0.074 A 
ATOM     37  C   UNL A   1      40.674  28.901  29.535  1.00  0.00     0.049 A 
ATOM     38  N   UNL A   1      42.877  30.857  29.038  1.00  0.00    -0.248 NA
ATOM     39  C   UNL A   1      41.684  32.455  30.252  1.00  0.00     0.031 C 
ATOM     40  C   UNL A   1      39.617  27.902  29.699  1.00  0.00     0.029 A 
ATOM     41  N   UNL A   1      41.615  28.263  28.762  1.00  0.00    -0.354 N 
ATOM     42  C   UNL A   1      43.578  32.056  29.021  1.00  0.00     0.074 A 
ATOM     43  C   UNL A   1      42.777  33.017  29.753  1.00  0.00     0.031 C 
ATOM     44  C   UNL A   1      39.988  26.764  29.090  1.00  0.00     0.029 A 
ATOM     45  C   UNL A   1      41.294  26.960  28.467  1.00  0.00     0.049 A 
ATOM     46  H   UNL A   1      42.440  28.698  28.449  1.00  0.00     0.167 HD
ATOM     47  C   UNL A   1      44.784  32.333  28.463  1.00  0.00     0.037 A 
ATOM     48  C   UNL A   1      41.974  26.020  27.784  1.00  0.00     0.037 A 
ATOM     49  C   UNL A   1      45.598  31.388  27.740  1.00  0.00     0.049 A 
ATOM     50  C   UNL A   1      43.317  26.345  27.196  1.00  0.00     0.074 A 
ATOM     51  C   UNL A   1      46.852  31.578  27.183  1.00  0.00     0.029 A 
ATOM     52  N   UNL A   1      45.240  30.077  27.473  1.00  0.00    -0.354 N 
ATOM     53  N   UNL A   1      43.992  27.466  27.246  1.00  0.00    -0.248 NA
ATOM     54  C   UNL A   1      43.994  25.268  26.457  1.00  0.00     0.031 C 
ATOM     55  C   UNL A   1      47.242  30.388  26.557  1.00  0.00     0.029 A 
ATOM     56  C   UNL A   1      46.243  29.450  26.750  1.00  0.00     0.049 A 
ATOM     57  H   UNL A   1      44.397  29.653  27.754  1.00  0.00     0.167 HD
ATOM     58  C   UNL A   1      45.175  27.227  26.560  1.00  0.00     0.074 A 
ATOM     59  C   UNL A   1      45.136  25.848  26.121  1.00  0.00     0.031 C 
ATOM     60  C   UNL A   1      46.198  28.079  26.312  1.00  0.00     0.037 A 
BRANCH  47  61
ATOM     61  C   UNL A   1      45.306  33.731  28.621  1.00  0.00     0.057 A 
ATOM     62  C   UNL A   1      46.091  34.085  29.725  1.00  0.00     0.134 A 
ATOM     63  C   UNL A   1      44.998  34.736  27.696  1.00  0.00     0.134 A 
ATOM     64  F   UNL A   1      46.414  33.171  30.653  1.00  0.00    -0.206 F 
ATOM     65  C   UNL A   1      46.554  35.390  29.901  1.00  0.00     0.040 A 
ATOM     66  C   UNL A   1      45.472  36.040  27.851  1.00  0.00     0.040 A 
ATOM     67  F   UNL A   1      44.256  34.458  26.613  1.00  0.00    -0.206 F 
ATOM     68  C   UNL A   1      46.249  36.370  28.959  1.00  0.00     0.006 A 
ENDBRANCH  47  61
BRANCH  48  69
ATOM     69  C   UNL A   1      41.415  24.653  27.646  1.00  0.00     0.057 A 
ATOM     70  C   UNL A   1      40.454  24.348  26.677  1.00  0.00     0.134 A 
ATOM     71  C   UNL A   1      41.853  23.615  28.476  1.00  0.00     0.134 A 
ATOM     72  F   UNL A   1      39.997  25.304  25.853  1.00  0.00    -0.206 F 
ATOM     73  C   UNL A   1      39.942  23.058  26.539  1.00  0.00     0.040 A 
ATOM     74  C   UNL A   1      41.365  22.315  28.336  1.00  0.00     0.040 A 
ATOM     75  F   UNL A   1      42.791  23.844  29.406  1.00  0.00    -0.206 F 
ATOM     76  C   UNL A   1      40.403  22.035  27.367  1.00  0.00     0.006 A 
ENDBRANCH  48  69
BRANCH  60  77
ATOM     77  C   UNL A   1      47.365  27.531  25.544  1.00  0.00     0.057 A 
ATOM     78  C   UNL A   1      48.428  26.907  26.207  1.00  0.00     0.134 A 
ATOM     79  C   UNL A   1      47.430  27.615  24.148  1.00  0.00     0.134 A 
ATOM     80  F   UNL A   1      48.428  26.795  27.544  1.00  0.00    -0.206 F 
ATOM     81  C   UNL A   1      49.514  26.378  25.506  1.00  0.00     0.040 A 
ATOM     82  C   UNL A   1      48.501  27.073  23.435  1.00  0.00     0.040 A 
ATOM     83  F   UNL A   1      46.434  28.186  23.454  1.00  0.00    -0.206 F 
ATOM     84  C   UNL A   1      49.548  26.454  24.115  1.00  0.00     0.006 A 
ENDBRANCH  60  77
ENDBRANCH  34  35
ENDBRANCH  26  29
ENDBRANCH  24  25
ENDBRANCH  23  24
ENDBRANCH   1  23
TORSDOF 14
ENDMDL
MODEL 2
REMARK VINA RESULT:     -11.1      4.536      7.424
REMARK SMILES CC[C@H](CNC(=O)[C@H]1CSc2ccccc21)C(=O)NCCCNC(=O)c1ccc(-c2c3nc(c(-c4c(F)cccc4F)c4ccc([nH]4)c(-c4c(F)cccc4F)c4nc(c(-c5c(F)cccc5F)c5ccc2[nH]5)C=C4)C=C3)cc1
REMARK SMILES IDX 20 1 19 2 17 3 18 4 3 6 2 7 1 8 4 9 5 10 6 11 7 13 8 14 9 15
REMARK SMILES IDX 16 16 10 17 11 18 15 19 12 20 14 21 13 22 21 23 22 24 23 25
REMARK SMILES IDX 24 26 25 28 26 29 27 30 79 31 28 32 78 33 29 34 30 35 31 36
REMARK SMILES IDX 72 37 32 38 77 39 71 40 73 41 33 42 76 43 70 44 69 45 34 47
REMARK SMILES IDX 60 48 43 49 59 50 44 51 47 52 58 53 74 54 45 55 46 56 57 58
REMARK SMILES IDX 75 59 48 60 35 61 36 62 41 63 37 64 38 65 40 66 42 67 39 68
REMARK SMILES IDX 61 69 62 70 67 71 63 72 64 73 66 74 68 75 65 76 49 77 50 78
REMARK SMILES IDX 55 79 51 80 52 81 54 82 56 83 53 84
REMARK H PARENT 19 5 5 12 23 27 73 46 47 57
REMARK Flexibility Score: inf
ROOT
ATOM      1  C   UNL A   1      31.408  30.673  26.533  1.00  0.00     0.117 C 
ENDROOT
BRANCH   1   2
ATOM      2  N   UNL A   1      31.533  30.080  25.219  1.00  0.00    -0.356 N 
ATOM      3  C   UNL A   1      31.335  28.803  24.802  1.00  0.00     0.224 C 
ATOM      4  O   UNL A   1      31.195  28.646  23.583  1.00  0.00    -0.275 OA
ATOM      5  H   UNL A   1      31.808  30.705  24.509  1.00  0.00     0.163 HD
BRANCH   3   6
ATOM      6  C   UNL A   1      31.328  27.581  25.721  1.00  0.00     0.097 C 
BRANCH   6   7
ATOM      7  C   UNL A   1      32.697  27.184  26.308  1.00  0.00     0.012 C 
ATOM      8  C   UNL A   1      33.958  27.535  25.531  1.00  0.00     0.005 C 
ENDBRANCH   6   7
BRANCH   6   9
ATOM      9  C   UNL A   1      30.464  26.442  25.171  1.00  0.00     0.129 C 
BRANCH   9  10
ATOM     10  N   UNL A   1      30.183  25.433  26.187  1.00  0.00    -0.355 N 
ATOM     11  C   UNL A   1      30.542  24.125  26.292  1.00  0.00     0.228 C 
ATOM     12  H   UNL A   1      29.631  25.759  26.935  1.00  0.00     0.163 HD
ATOM     13  O   UNL A   1      30.199  23.531  27.319  1.00  0.00    -0.274 OA
BRANCH  11  14
ATOM     14  C   UNL A   1      31.328  23.386  25.217  1.00  0.00     0.120 C 
ATOM     15  C   UNL A   1      30.805  23.644  23.800  1.00  0.00     0.093 C 
ATOM     16  C   UNL A   1      32.812  23.634  25.253  1.00  0.00    -0.021 A 
ATOM     17  S   UNL A   1      32.201  24.155  22.735  1.00  0.00    -0.125 SA
ATOM     18  C   UNL A   1      33.374  24.047  24.048  1.00  0.00     0.011 A 
ATOM     19  C   UNL A   1      33.622  23.413  26.365  1.00  0.00     0.006 A 
ATOM     20  C   UNL A   1      34.733  24.302  23.942  1.00  0.00     0.015 A 
ATOM     21  C   UNL A   1      34.995  23.644  26.260  1.00  0.00     0.000 A 
ATOM     22  C   UNL A   1      35.546  24.098  25.058  1.00  0.00     0.001 A 
ENDBRANCH  11  14
ENDBRANCH   9  10
ENDBRANCH   6   9
ENDBRANCH   3   6
ENDBRANCH   1   2
BRANCH   1  23
ATOM     23  C   UNL A   1      31.490  32.203  26.584  1.00  0.00     0.042 C 
BRANCH  23  24
ATOM     24  C   UNL A   1      32.739  32.773  27.244  1.00  0.00     0.118 C 
BRANCH  24  25
ATOM     25  N   UNL A   1      32.557  34.152  27.660  1.00  0.00    -0.352 N 
ATOM     26  C   UNL A   1      33.061  34.924  28.669  1.00  0.00     0.251 C 
ATOM     27  H   UNL A   1      31.925  34.643  27.085  1.00  0.00     0.163 HD
ATOM     28  O   UNL A   1      32.499  36.008  28.867  1.00  0.00    -0.269 OA
BRANCH  26  29
ATOM     29  C   UNL A   1      34.221  34.568  29.529  1.00  0.00     0.039 A 
ATOM     30  C   UNL A   1      34.114  34.044  30.818  1.00  0.00     0.014 A 
ATOM     31  C   UNL A   1      35.490  34.588  28.920  1.00  0.00     0.014 A 
ATOM     32  C   UNL A   1      35.254  33.554  31.481  1.00  0.00     0.010 A 
ATOM     33  C   UNL A   1      36.616  34.056  29.561  1.00  0.00     0.010 A 
ATOM     34  C   UNL A   1      36.509  33.518  30.849  1.00  0.00    -0.014 A 
BRANCH  34  35
ATOM     35  C   UNL A   1      37.668  32.825  31.483  1.00  0.00     0.031 A 
ATOM     36  C   UNL A   1      38.242  33.283  32.797  1.00  0.00     0.074 A 
ATOM     37  C   UNL A   1      38.246  31.784  30.848  1.00  0.00     0.049 A 
ATOM     38  N   UNL A   1      39.229  32.770  33.492  1.00  0.00    -0.248 NA
ATOM     39  C   UNL A   1      37.644  34.481  33.403  1.00  0.00     0.031 C 
ATOM     40  C   UNL A   1      37.849  31.269  29.537  1.00  0.00     0.029 A 
ATOM     41  N   UNL A   1      39.285  30.967  31.224  1.00  0.00    -0.354 N 
ATOM     42  C   UNL A   1      39.375  33.581  34.610  1.00  0.00     0.074 A 
ATOM     43  C   UNL A   1      38.396  34.643  34.483  1.00  0.00     0.031 C 
ATOM     44  C   UNL A   1      38.599  30.196  29.240  1.00  0.00     0.029 A 
ATOM     45  C   UNL A   1      39.550  29.963  30.324  1.00  0.00     0.049 A 
ATOM     46  H   UNL A   1      39.791  31.088  32.059  1.00  0.00     0.167 HD
ATOM     47  C   UNL A   1      40.230  33.451  35.654  1.00  0.00     0.037 A 
ATOM     48  C   UNL A   1      40.447  28.960  30.363  1.00  0.00     0.037 A 
ATOM     49  C   UNL A   1      41.203  32.397  35.802  1.00  0.00     0.049 A 
ATOM     50  C   UNL A   1      41.368  28.824  31.543  1.00  0.00     0.074 A 
ATOM     51  C   UNL A   1      42.077  32.169  36.852  1.00  0.00     0.029 A 
ATOM     52  N   UNL A   1      41.432  31.397  34.871  1.00  0.00    -0.354 N 
ATOM     53  N   UNL A   1      41.446  29.565  32.620  1.00  0.00    -0.248 NA
ATOM     54  C   UNL A   1      42.324  27.707  31.509  1.00  0.00     0.031 C 
ATOM     55  C   UNL A   1      42.852  31.043  36.545  1.00  0.00     0.029 A 
ATOM     56  C   UNL A   1      42.440  30.556  35.318  1.00  0.00     0.049 A 
ATOM     57  H   UNL A   1      40.950  31.298  34.018  1.00  0.00     0.167 HD
ATOM     58  C   UNL A   1      42.447  28.998  33.397  1.00  0.00     0.074 A 
ATOM     59  C   UNL A   1      42.933  27.839  32.678  1.00  0.00     0.031 C 
ATOM     60  C   UNL A   1      42.923  29.407  34.597  1.00  0.00     0.037 A 
BRANCH  47  61
ATOM     61  C   UNL A   1      40.147  34.483  36.740  1.00  0.00     0.057 A 
ATOM     62  C   UNL A   1      40.965  35.619  36.718  1.00  0.00     0.134 A 
ATOM     63  C   UNL A   1      39.278  34.331  37.828  1.00  0.00     0.134 A 
ATOM     64  F   UNL A   1      41.826  35.820  35.709  1.00  0.00    -0.206 F 
ATOM     65  C   UNL A   1      40.920  36.569  37.740  1.00  0.00     0.040 A 
ATOM     66  C   UNL A   1      39.210  35.285  38.846  1.00  0.00     0.040 A 
ATOM     67  F   UNL A   1      38.462  33.268  37.903  1.00  0.00    -0.206 F 
ATOM     68  C   UNL A   1      40.036  36.406  38.805  1.00  0.00     0.006 A 
ENDBRANCH  47  61
BRANCH  48  69
ATOM     69  C   UNL A   1      40.499  27.967  29.263  1.00  0.00     0.057 A 
ATOM     70  C   UNL A   1      41.395  28.099  28.198  1.00  0.00     0.134 A 
ATOM     71  C   UNL A   1      39.659  26.847  29.271  1.00  0.00     0.134 A 
ATOM     72  F   UNL A   1      42.224  29.152  28.138  1.00  0.00    -0.206 F 
ATOM     73  C   UNL A   1      41.453  27.154  27.173  1.00  0.00     0.040 A 
ATOM     74  C   UNL A   1      39.720  25.883  28.264  1.00  0.00     0.040 A 
ATOM     75  F   UNL A   1      38.798  26.656  30.281  1.00  0.00    -0.206 F 
ATOM     76  C   UNL A   1      40.617  26.039  27.208  1.00  0.00     0.006 A 
ENDBRANCH  48  69
BRANCH  60  77
ATOM     77  C   UNL A   1      44.015  28.581  35.210  1.00  0.00     0.057 A 
ATOM     78  C   UNL A   1      45.359  28.838  34.915  1.00  0.00     0.134 A 
ATOM     79  C   UNL A   1      43.735  27.537  36.101  1.00  0.00     0.134 A 
ATOM     80  F   UNL A   1      45.695  29.824  34.069  1.00  0.00    -0.206 F 
ATOM     81  C   UNL A   1      46.387  28.089  35.490  1.00  0.00     0.040 A 
ATOM     82  C   UNL A   1      44.755  26.794  36.696  1.00  0.00     0.040 A 
ATOM     83  F   UNL A   1      42.467  27.252  36.437  1.00  0.00    -0.206 F 
ATOM     84  C   UNL A   1      46.087  27.069  36.390  1.00  0.00     0.006 A 
ENDBRANCH  60  77
ENDBRANCH  34  35
ENDBRANCH  26  29
ENDBRANCH  24  25
ENDBRANCH  23  24
ENDBRANCH   1  23
TORSDOF 14
ENDMDL
MODEL 3
REMARK VINA RESULT:     -11.0      3.309      5.227
REMARK SMILES CC[C@H](CNC(=O)[C@H]1CSc2ccccc21)C(=O)NCCCNC(=O)c1ccc(-c2c3nc(c(-c4c(F)cccc4F)c4ccc([nH]4)c(-c4c(F)cccc4F)c4nc(c(-c5c(F)cccc5F)c5ccc2[nH]5)C=C4)C=C3)cc1
REMARK SMILES IDX 20 1 19 2 17 3 18 4 3 6 2 7 1 8 4 9 5 10 6 11 7 13 8 14 9 15
REMARK SMILES IDX 16 16 10 17 11 18 15 19 12 20 14 21 13 22 21 23 22 24 23 25
REMARK SMILES IDX 24 26 25 28 26 29 27 30 79 31 28 32 78 33 29 34 30 35 31 36
REMARK SMILES IDX 72 37 32 38 77 39 71 40 73 41 33 42 76 43 70 44 69 45 34 47
REMARK SMILES IDX 60 48 43 49 59 50 44 51 47 52 58 53 74 54 45 55 46 56 57 58
REMARK SMILES IDX 75 59 48 60 35 61 36 62 41 63 37 64 38 65 40 66 42 67 39 68
REMARK SMILES IDX 61 69 62 70 67 71 63 72 64 73 66 74 68 75 65 76 49 77 50 78
REMARK SMILES IDX 55 79 51 80 52 81 54 82 56 83 53 84
REMARK H PARENT 19 5 5 12 23 27 73 46 47 57
REMARK Flexibility Score: inf
ROOT
ATOM      1  C   UNL A   1      31.403  29.289  25.041  1.00  0.00     0.117 C 
ENDROOT
BRANCH   1   2
ATOM      2  N   UNL A   1      31.335  28.818  23.674  1.00  0.00    -0.356 N 
ATOM      3  C   UNL A   1      31.256  27.558  23.175  1.00  0.00     0.224 C 
ATOM      4  O   UNL A   1      30.884  27.462  21.999  1.00  0.00    -0.275 OA
ATOM      5  H   UNL A   1      31.350  29.529  22.993  1.00  0.00     0.163 HD
BRANCH   3   6
ATOM      6  C   UNL A   1      31.638  26.293  23.946  1.00  0.00     0.097 C 
BRANCH   6   7
ATOM      7  C   UNL A   1      33.085  26.250  24.474  1.00  0.00     0.012 C 
ATOM      8  C   UNL A   1      33.322  25.903  25.938  1.00  0.00     0.005 C 
ENDBRANCH   6   7
BRANCH   6   9
ATOM      9  C   UNL A   1      31.118  25.019  23.272  1.00  0.00     0.129 C 
BRANCH   9  10
ATOM     10  N   UNL A   1      32.118  24.422  22.393  1.00  0.00    -0.355 N 
ATOM     11  C   UNL A   1      33.028  23.433  22.594  1.00  0.00     0.228 C 
ATOM     12  H   UNL A   1      32.137  24.807  21.487  1.00  0.00     0.163 HD
ATOM     13  O   UNL A   1      33.712  23.094  21.623  1.00  0.00    -0.274 OA
BRANCH  11  14
ATOM     14  C   UNL A   1      33.233  22.746  23.938  1.00  0.00     0.120 C 
ATOM     15  C   UNL A   1      32.442  21.440  24.077  1.00  0.00     0.093 C 
ATOM     16  C   UNL A   1      34.674  22.495  24.293  1.00  0.00    -0.021 A 
ATOM     17  S   UNL A   1      33.577  20.111  24.611  1.00  0.00    -0.125 SA
ATOM     18  C   UNL A   1      34.980  21.180  24.640  1.00  0.00     0.011 A 
ATOM     19  C   UNL A   1      35.655  23.482  24.355  1.00  0.00     0.006 A 
ATOM     20  C   UNL A   1      36.269  20.816  24.998  1.00  0.00     0.015 A 
ATOM     21  C   UNL A   1      36.951  23.128  24.736  1.00  0.00     0.000 A 
ATOM     22  C   UNL A   1      37.259  21.799  25.044  1.00  0.00     0.001 A 
ENDBRANCH  11  14
ENDBRANCH   9  10
ENDBRANCH   6   9
ENDBRANCH   3   6
ENDBRANCH   1   2
BRANCH   1  23
ATOM     23  C   UNL A   1      32.765  29.829  25.493  1.00  0.00     0.042 C 
BRANCH  23  24
ATOM     24  C   UNL A   1      33.187  29.446  26.906  1.00  0.00     0.118 C 
BRANCH  24  25
ATOM     25  N   UNL A   1      33.563  30.604  27.696  1.00  0.00    -0.352 N 
ATOM     26  C   UNL A   1      34.660  30.944  28.438  1.00  0.00     0.251 C 
ATOM     27  H   UNL A   1      32.870  31.304  27.701  1.00  0.00     0.163 HD
ATOM     28  O   UNL A   1      34.541  31.927  29.179  1.00  0.00    -0.269 OA
BRANCH  26  29
ATOM     29  C   UNL A   1      35.969  30.237  28.414  1.00  0.00     0.039 A 
ATOM     30  C   UNL A   1      36.836  30.223  27.321  1.00  0.00     0.014 A 
ATOM     31  C   UNL A   1      36.431  29.720  29.638  1.00  0.00     0.014 A 
ATOM     32  C   UNL A   1      38.135  29.699  27.452  1.00  0.00     0.010 A 
ATOM     33  C   UNL A   1      37.740  29.242  29.782  1.00  0.00     0.010 A 
ATOM     34  C   UNL A   1      38.616  29.238  28.690  1.00  0.00    -0.014 A 
BRANCH  34  35
ATOM     35  C   UNL A   1      40.049  28.863  28.864  1.00  0.00     0.031 A 
ATOM     36  C   UNL A   1      41.042  29.802  29.494  1.00  0.00     0.074 A 
ATOM     37  C   UNL A   1      40.480  27.667  28.412  1.00  0.00     0.049 A 
ATOM     38  N   UNL A   1      42.316  29.613  29.742  1.00  0.00    -0.248 NA
ATOM     39  C   UNL A   1      40.548  31.131  29.881  1.00  0.00     0.031 C 
ATOM     40  C   UNL A   1      39.654  26.679  27.717  1.00  0.00     0.029 A 
ATOM     41  N   UNL A   1      41.720  27.075  28.478  1.00  0.00    -0.354 N 
ATOM     42  C   UNL A   1      42.777  30.796  30.306  1.00  0.00     0.074 A 
ATOM     43  C   UNL A   1      41.652  31.710  30.332  1.00  0.00     0.031 C 
ATOM     44  C   UNL A   1      40.394  25.586  27.464  1.00  0.00     0.029 A 
ATOM     45  C   UNL A   1      41.753  25.806  27.951  1.00  0.00     0.049 A 
ATOM     46  H   UNL A   1      42.509  27.518  28.864  1.00  0.00     0.167 HD
ATOM     47  C   UNL A   1      44.015  31.094  30.774  1.00  0.00     0.037 A 
ATOM     48  C   UNL A   1      42.756  24.911  27.876  1.00  0.00     0.037 A 
ATOM     49  C   UNL A   1      45.142  30.195  30.765  1.00  0.00     0.049 A 
ATOM     50  C   UNL A   1      44.111  25.257  28.423  1.00  0.00     0.074 A 
ATOM     51  C   UNL A   1      46.418  30.404  31.262  1.00  0.00     0.029 A 
ATOM     52  N   UNL A   1      45.130  28.916  30.231  1.00  0.00    -0.354 N 
ATOM     53  N   UNL A   1      44.510  26.357  29.010  1.00  0.00    -0.248 NA
ATOM     54  C   UNL A   1      45.156  24.229  28.296  1.00  0.00     0.031 C 
ATOM     55  C   UNL A   1      47.185  29.261  31.006  1.00  0.00     0.029 A 
ATOM     56  C   UNL A   1      46.378  28.330  30.376  1.00  0.00     0.049 A 
ATOM     57  H   UNL A   1      44.350  28.487  29.810  1.00  0.00     0.167 HD
ATOM     58  C   UNL A   1      45.843  26.151  29.335  1.00  0.00     0.074 A 
ATOM     59  C   UNL A   1      46.181  24.813  28.899  1.00  0.00     0.031 C 
ATOM     60  C   UNL A   1      46.710  27.000  29.937  1.00  0.00     0.037 A 
BRANCH  47  61
ATOM     61  C   UNL A   1      44.217  32.464  31.351  1.00  0.00     0.057 A 
ATOM     62  C   UNL A   1      43.987  32.713  32.710  1.00  0.00     0.134 A 
ATOM     63  C   UNL A   1      44.605  33.546  30.550  1.00  0.00     0.134 A 
ATOM     64  F   UNL A   1      43.605  31.722  33.530  1.00  0.00    -0.206 F 
ATOM     65  C   UNL A   1      44.139  33.991  33.252  1.00  0.00     0.040 A 
ATOM     66  C   UNL A   1      44.779  34.823  31.085  1.00  0.00     0.040 A 
ATOM     67  F   UNL A   1      44.848  33.369  29.242  1.00  0.00    -0.206 F 
ATOM     68  C   UNL A   1      44.541  35.049  32.439  1.00  0.00     0.006 A 
ENDBRANCH  47  61
BRANCH  48  69
ATOM     69  C   UNL A   1      42.512  23.571  27.289  1.00  0.00     0.057 A 
ATOM     70  C   UNL A   1      42.649  23.335  25.918  1.00  0.00     0.134 A 
ATOM     71  C   UNL A   1      42.154  22.489  28.102  1.00  0.00     0.134 A 
ATOM     72  F   UNL A   1      42.990  24.334  25.090  1.00  0.00    -0.206 F 
ATOM     73  C   UNL A   1      42.435  22.069  25.372  1.00  0.00     0.040 A 
ATOM     74  C   UNL A   1      41.956  21.213  27.573  1.00  0.00     0.040 A 
ATOM     75  F   UNL A   1      42.032  22.652  29.428  1.00  0.00    -0.206 F 
ATOM     76  C   UNL A   1      42.093  21.002  26.202  1.00  0.00     0.006 A 
ENDBRANCH  48  69
BRANCH  60  77
ATOM     77  C   UNL A   1      48.103  26.493  30.171  1.00  0.00     0.057 A 
ATOM     78  C   UNL A   1      49.103  26.680  29.210  1.00  0.00     0.134 A 
ATOM     79  C   UNL A   1      48.454  25.828  31.352  1.00  0.00     0.134 A 
ATOM     80  F   UNL A   1      48.832  27.309  28.056  1.00  0.00    -0.206 F 
ATOM     81  C   UNL A   1      50.408  26.229  29.419  1.00  0.00     0.040 A 
ATOM     82  C   UNL A   1      49.760  25.389  31.580  1.00  0.00     0.040 A 
ATOM     83  F   UNL A   1      47.544  25.634  32.319  1.00  0.00    -0.206 F 
ATOM     84  C   UNL A   1      50.741  25.588  30.611  1.00  0.00     0.006 A 
ENDBRANCH  60  77
ENDBRANCH  34  35
ENDBRANCH  26  29
ENDBRANCH  24  25
ENDBRANCH  23  24
ENDBRANCH   1  23
TORSDOF 14
ENDMDL
