MODEL 1
REMARK VINA RESULT:     -12.6      0.000      0.000
REMARK SMILES CN(C)C(=O)CCc1cccc(NC(=O)[C@H]2CCCC[C@@H]2C(=O)NCCCNC(=O)c2ccc(-c3c4nc(c(-c5c(F)cccc5F)c5ccc([nH]5)c(-c5c(F)cccc5F)c5nc(c(-c6c(F)cccc6F)c6ccc3[nH]6)C=C5)C=C4)cc2)c1
REMARK SMILES IDX 22 1 23 2 24 3 21 5 16 6 17 7 18 8 20 9 19 10 14 11 13 12
REMARK SMILES IDX 15 14 12 15 8 16 9 17 85 18 10 19 11 20 7 21 6 22 4 23 1 24
REMARK SMILES IDX 2 25 3 26 5 27 25 28 26 29 27 30 28 31 29 32 30 34 31 35
REMARK SMILES IDX 32 36 84 37 33 38 83 39 34 40 35 41 36 42 77 43 37 44 82 45
REMARK SMILES IDX 76 46 78 47 38 48 81 49 75 50 74 51 39 53 65 54 48 55 64 56
REMARK SMILES IDX 49 57 52 58 63 59 79 60 50 61 51 62 62 64 80 65 53 66 40 67
REMARK SMILES IDX 41 68 46 69 42 70 43 71 45 72 47 73 44 74 66 75 67 76 72 77
REMARK SMILES IDX 68 78 69 79 71 80 73 81 70 82 54 83 55 84 60 85 56 86 57 87
REMARK SMILES IDX 59 88 61 89 58 90
REMARK H PARENT 24 4 13 13 28 33 78 52 52 63
REMARK Flexibility Score: inf
ROOT
ATOM      1  C   UNL A   1      32.470  24.572  26.383  1.00  0.00     0.223 C 
ATOM      2  O   UNL A   1      32.423  23.492  26.973  1.00  0.00    -0.275 OA
ATOM      3  N   UNL A   1      31.835  25.626  26.964  1.00  0.00    -0.356 N 
ATOM      4  H   UNL A   1      31.469  25.439  27.858  1.00  0.00     0.163 HD
ENDROOT
BRANCH   1   5
ATOM      5  C   UNL A   1      33.206  24.744  25.051  1.00  0.00     0.091 C 
ATOM      6  C   UNL A   1      33.033  23.480  24.170  1.00  0.00     0.091 C 
ATOM      7  C   UNL A   1      34.017  22.344  24.526  1.00  0.00     0.014 C 
ATOM      8  C   UNL A   1      35.447  22.791  24.805  1.00  0.00     0.001 C 
ATOM      9  C   UNL A   1      34.671  25.120  25.298  1.00  0.00     0.014 C 
ATOM     10  C   UNL A   1      35.499  23.945  25.794  1.00  0.00     0.001 C 
BRANCH   6  11
ATOM     11  C   UNL A   1      33.087  23.833  22.687  1.00  0.00     0.228 C 
ATOM     12  N   UNL A   1      32.223  24.711  22.094  1.00  0.00    -0.326 N 
ATOM     13  H   UNL A   1      32.330  24.736  21.116  1.00  0.00     0.169 HD
ATOM     14  O   UNL A   1      33.936  23.324  21.946  1.00  0.00    -0.274 OA
BRANCH  12  15
ATOM     15  C   UNL A   1      31.216  25.589  22.540  1.00  0.00     0.041 A 
ATOM     16  C   UNL A   1      30.522  27.920  22.803  1.00  0.00    -0.045 A 
ATOM     17  C   UNL A   1      29.495  27.509  23.655  1.00  0.00     0.004 A 
ATOM     18  C   UNL A   1      31.416  26.960  22.300  1.00  0.00     0.029 A 
ATOM     19  C   UNL A   1      29.223  26.161  23.800  1.00  0.00     0.002 A 
ATOM     20  C   UNL A   1      30.056  25.215  23.211  1.00  0.00     0.026 A 
BRANCH  16  21
ATOM     21  C   UNL A   1      30.539  29.357  22.332  1.00  0.00     0.045 C 
BRANCH  21  22
ATOM     22  C   UNL A   1      29.366  30.177  22.903  1.00  0.00     0.105 C 
BRANCH  22  23
ATOM     23  C   UNL A   1      28.513  30.796  21.800  1.00  0.00     0.222 C 
ATOM     24  C   UNL A   1      27.760  32.763  20.558  1.00  0.00     0.146 C 
ATOM     25  N   UNL A   1      28.413  32.181  21.722  1.00  0.00    -0.349 N 
ATOM     26  C   UNL A   1      28.809  33.108  22.772  1.00  0.00     0.146 C 
ATOM     27  O   UNL A   1      28.005  30.055  20.955  1.00  0.00    -0.275 OA
ENDBRANCH  22  23
ENDBRANCH  21  22
ENDBRANCH  16  21
ENDBRANCH  12  15
ENDBRANCH   6  11
ENDBRANCH   1   5
BRANCH   3  28
ATOM     28  C   UNL A   1      31.608  26.978  26.485  1.00  0.00     0.117 C 
BRANCH  28  29
ATOM     29  C   UNL A   1      32.039  28.030  27.507  1.00  0.00     0.042 C 
BRANCH  29  30
ATOM     30  C   UNL A   1      33.433  28.616  27.288  1.00  0.00     0.118 C 
BRANCH  30  31
ATOM     31  N   UNL A   1      33.522  30.018  27.665  1.00  0.00    -0.352 N 
ATOM     32  C   UNL A   1      34.545  30.719  28.260  1.00  0.00     0.251 C 
ATOM     33  H   UNL A   1      32.721  30.552  27.461  1.00  0.00     0.163 HD
ATOM     34  O   UNL A   1      34.345  31.864  28.646  1.00  0.00    -0.269 OA
BRANCH  32  35
ATOM     35  C   UNL A   1      35.873  30.097  28.470  1.00  0.00     0.039 A 
ATOM     36  C   UNL A   1      36.778  30.083  27.405  1.00  0.00     0.014 A 
ATOM     37  C   UNL A   1      36.230  29.518  29.690  1.00  0.00     0.014 A 
ATOM     38  C   UNL A   1      38.066  29.574  27.589  1.00  0.00     0.010 A 
ATOM     39  C   UNL A   1      37.537  29.070  29.894  1.00  0.00     0.010 A 
ATOM     40  C   UNL A   1      38.475  29.115  28.852  1.00  0.00    -0.014 A 
BRANCH  40  41
ATOM     41  C   UNL A   1      39.896  28.766  29.116  1.00  0.00     0.031 A 
ATOM     42  C   UNL A   1      40.844  29.762  29.723  1.00  0.00     0.074 A 
ATOM     43  C   UNL A   1      40.352  27.556  28.733  1.00  0.00     0.049 A 
ATOM     44  N   UNL A   1      42.128  29.646  29.951  1.00  0.00    -0.248 NA
ATOM     45  C   UNL A   1      40.280  31.064  30.109  1.00  0.00     0.031 C 
ATOM     46  C   UNL A   1      39.546  26.514  28.095  1.00  0.00     0.029 A 
ATOM     47  N   UNL A   1      41.607  27.002  28.809  1.00  0.00    -0.354 N 
ATOM     48  C   UNL A   1      42.529  30.858  30.499  1.00  0.00     0.074 A 
ATOM     49  C   UNL A   1      41.358  31.711  30.530  1.00  0.00     0.031 C 
ATOM     50  C   UNL A   1      40.319  25.445  27.850  1.00  0.00     0.029 A 
ATOM     51  C   UNL A   1      41.685  25.741  28.268  1.00  0.00     0.049 A 
ATOM     52  H   UNL A   1      42.376  27.466  29.211  1.00  0.00     0.167 HD
ATOM     53  C   UNL A   1      43.755  31.221  30.946  1.00  0.00     0.037 A 
ATOM     54  C   UNL A   1      42.740  24.921  28.103  1.00  0.00     0.037 A 
ATOM     55  C   UNL A   1      44.917  30.367  30.919  1.00  0.00     0.049 A 
ATOM     56  C   UNL A   1      44.097  25.366  28.572  1.00  0.00     0.074 A 
ATOM     57  C   UNL A   1      46.186  30.625  31.409  1.00  0.00     0.029 A 
ATOM     58  N   UNL A   1      44.958  29.099  30.358  1.00  0.00    -0.354 N 
ATOM     59  N   UNL A   1      44.444  26.483  29.161  1.00  0.00    -0.248 NA
ATOM     60  C   UNL A   1      45.212  24.432  28.352  1.00  0.00     0.031 C 
ATOM     61  C   UNL A   1      47.009  29.540  31.092  1.00  0.00     0.029 A 
ATOM     62  C   UNL A   1      46.240  28.580  30.455  1.00  0.00     0.049 A 
ATOM     63  H   UNL A   1      44.191  28.637  29.950  1.00  0.00     0.167 HD
ATOM     64  C   UNL A   1      45.808  26.381  29.399  1.00  0.00     0.074 A 
ATOM     65  C   UNL A   1      46.221  25.081  28.914  1.00  0.00     0.031 C 
ATOM     66  C   UNL A   1      46.644  27.286  29.965  1.00  0.00     0.037 A 
BRANCH  53  67
ATOM     67  C   UNL A   1      43.913  32.607  31.503  1.00  0.00     0.057 A 
ATOM     68  C   UNL A   1      44.239  33.700  30.690  1.00  0.00     0.134 A 
ATOM     69  C   UNL A   1      43.676  32.862  32.860  1.00  0.00     0.134 A 
ATOM     70  F   UNL A   1      44.484  33.524  29.382  1.00  0.00    -0.206 F 
ATOM     71  C   UNL A   1      44.347  34.992  31.209  1.00  0.00     0.040 A 
ATOM     72  C   UNL A   1      43.755  34.154  33.386  1.00  0.00     0.040 A 
ATOM     73  F   UNL A   1      43.350  31.865  33.695  1.00  0.00    -0.206 F 
ATOM     74  C   UNL A   1      44.096  35.222  32.560  1.00  0.00     0.006 A 
ENDBRANCH  53  67
BRANCH  54  75
ATOM     75  C   UNL A   1      42.558  23.595  27.457  1.00  0.00     0.057 A 
ATOM     76  C   UNL A   1      42.297  22.450  28.217  1.00  0.00     0.134 A 
ATOM     77  C   UNL A   1      42.655  23.440  26.070  1.00  0.00     0.134 A 
ATOM     78  F   UNL A   1      42.212  22.529  29.553  1.00  0.00    -0.206 F 
ATOM     79  C   UNL A   1      42.158  21.194  27.623  1.00  0.00     0.040 A 
ATOM     80  C   UNL A   1      42.489  22.196  25.459  1.00  0.00     0.040 A 
ATOM     81  F   UNL A   1      42.895  24.500  25.284  1.00  0.00    -0.206 F 
ATOM     82  C   UNL A   1      42.249  21.066  26.238  1.00  0.00     0.006 A 
ENDBRANCH  54  75
BRANCH  66  83
ATOM     83  C   UNL A   1      48.087  26.892  30.108  1.00  0.00     0.057 A 
ATOM     84  C   UNL A   1      48.539  26.120  31.186  1.00  0.00     0.134 A 
ATOM     85  C   UNL A   1      49.030  27.265  29.141  1.00  0.00     0.134 A 
ATOM     86  F   UNL A   1      47.691  25.742  32.155  1.00  0.00    -0.206 F 
ATOM     87  C   UNL A   1      49.880  25.754  31.309  1.00  0.00     0.040 A 
ATOM     88  C   UNL A   1      50.368  26.879  29.238  1.00  0.00     0.040 A 
ATOM     89  F   UNL A   1      48.664  27.998  28.079  1.00  0.00    -0.206 F 
ATOM     90  C   UNL A   1      50.797  26.127  30.330  1.00  0.00     0.006 A 
ENDBRANCH  66  83
ENDBRANCH  40  41
ENDBRANCH  32  35
ENDBRANCH  30  31
ENDBRANCH  29  30
ENDBRANCH  28  29
ENDBRANCH   3  28
TORSDOF 15
ENDMDL
MODEL 2
REMARK VINA RESULT:     -12.2      0.821      6.037
REMARK SMILES CN(C)C(=O)CCc1cccc(NC(=O)[C@H]2CCCC[C@@H]2C(=O)NCCCNC(=O)c2ccc(-c3c4nc(c(-c5c(F)cccc5F)c5ccc([nH]5)c(-c5c(F)cccc5F)c5nc(c(-c6c(F)cccc6F)c6ccc3[nH]6)C=C5)C=C4)cc2)c1
REMARK SMILES IDX 22 1 23 2 24 3 21 5 16 6 17 7 18 8 20 9 19 10 14 11 13 12
REMARK SMILES IDX 15 14 12 15 8 16 9 17 85 18 10 19 11 20 7 21 6 22 4 23 1 24
REMARK SMILES IDX 2 25 3 26 5 27 25 28 26 29 27 30 28 31 29 32 30 34 31 35
REMARK SMILES IDX 32 36 84 37 33 38 83 39 34 40 35 41 36 42 77 43 37 44 82 45
REMARK SMILES IDX 76 46 78 47 38 48 81 49 75 50 74 51 39 53 65 54 48 55 64 56
REMARK SMILES IDX 49 57 52 58 63 59 79 60 50 61 51 62 62 64 80 65 53 66 40 67
REMARK SMILES IDX 41 68 46 69 42 70 43 71 45 72 47 73 44 74 66 75 67 76 72 77
REMARK SMILES IDX 68 78 69 79 71 80 73 81 70 82 54 83 55 84 60 85 56 86 57 87
REMARK SMILES IDX 59 88 61 89 58 90
REMARK H PARENT 24 4 13 13 28 33 78 52 52 63
REMARK Flexibility Score: inf
ROOT
ATOM      1  C   UNL A   1      31.177  25.152  26.349  1.00  0.00     0.223 C 
ATOM      2  O   UNL A   1      30.363  24.347  26.802  1.00  0.00    -0.275 OA
ATOM      3  N   UNL A   1      31.052  26.449  26.741  1.00  0.00    -0.356 N 
ATOM      4  H   UNL A   1      30.366  26.604  27.429  1.00  0.00     0.163 HD
ENDROOT
BRANCH   1   5
ATOM      5  C   UNL A   1      32.289  24.735  25.383  1.00  0.00     0.091 C 
ATOM      6  C   UNL A   1      31.774  23.651  24.400  1.00  0.00     0.091 C 
ATOM      7  C   UNL A   1      31.799  22.224  24.990  1.00  0.00     0.014 C 
ATOM      8  C   UNL A   1      33.047  21.879  25.794  1.00  0.00     0.001 C 
ATOM      9  C   UNL A   1      33.537  24.306  26.163  1.00  0.00     0.014 C 
ATOM     10  C   UNL A   1      33.373  22.947  26.826  1.00  0.00     0.001 C 
BRANCH   6  11
ATOM     11  C   UNL A   1      32.511  23.726  23.066  1.00  0.00     0.228 C 
ATOM     12  N   UNL A   1      32.702  24.894  22.381  1.00  0.00    -0.326 N 
ATOM     13  H   UNL A   1      33.097  24.743  21.492  1.00  0.00     0.169 HD
ATOM     14  O   UNL A   1      32.973  22.707  22.541  1.00  0.00    -0.274 OA
BRANCH  12  15
ATOM     15  C   UNL A   1      32.473  26.260  22.635  1.00  0.00     0.041 A 
ATOM     16  C   UNL A   1      30.827  28.068  22.694  1.00  0.00    -0.045 A 
ATOM     17  C   UNL A   1      31.865  28.999  22.768  1.00  0.00     0.004 A 
ATOM     18  C   UNL A   1      31.141  26.705  22.564  1.00  0.00     0.029 A 
ATOM     19  C   UNL A   1      33.163  28.564  22.955  1.00  0.00     0.002 A 
ATOM     20  C   UNL A   1      33.453  27.203  22.929  1.00  0.00     0.026 A 
BRANCH  16  21
ATOM     21  C   UNL A   1      29.409  28.548  22.910  1.00  0.00     0.045 C 
BRANCH  21  22
ATOM     22  C   UNL A   1      29.318  30.082  23.029  1.00  0.00     0.105 C 
BRANCH  22  23
ATOM     23  C   UNL A   1      28.536  30.697  21.873  1.00  0.00     0.222 C 
ATOM     24  C   UNL A   1      27.890  32.656  20.559  1.00  0.00     0.146 C 
ATOM     25  N   UNL A   1      28.471  32.083  21.764  1.00  0.00    -0.349 N 
ATOM     26  C   UNL A   1      28.836  33.021  22.815  1.00  0.00     0.146 C 
ATOM     27  O   UNL A   1      28.053  29.951  21.017  1.00  0.00    -0.275 OA
ENDBRANCH  22  23
ENDBRANCH  21  22
ENDBRANCH  16  21
ENDBRANCH  12  15
ENDBRANCH   6  11
ENDBRANCH   1   5
BRANCH   3  28
ATOM     28  C   UNL A   1      31.762  27.642  26.314  1.00  0.00     0.117 C 
BRANCH  28  29
ATOM     29  C   UNL A   1      32.872  28.032  27.289  1.00  0.00     0.042 C 
BRANCH  29  30
ATOM     30  C   UNL A   1      33.847  29.090  26.776  1.00  0.00     0.118 C 
BRANCH  30  31
ATOM     31  N   UNL A   1      33.834  30.306  27.573  1.00  0.00    -0.352 N 
ATOM     32  C   UNL A   1      34.773  30.818  28.437  1.00  0.00     0.251 C 
ATOM     33  H   UNL A   1      33.021  30.852  27.478  1.00  0.00     0.163 HD
ATOM     34  O   UNL A   1      34.485  31.779  29.140  1.00  0.00    -0.269 OA
BRANCH  32  35
ATOM     35  C   UNL A   1      36.116  30.202  28.555  1.00  0.00     0.039 A 
ATOM     36  C   UNL A   1      36.977  30.267  27.455  1.00  0.00     0.014 A 
ATOM     37  C   UNL A   1      36.527  29.552  29.721  1.00  0.00     0.014 A 
ATOM     38  C   UNL A   1      38.277  29.766  27.556  1.00  0.00     0.010 A 
ATOM     39  C   UNL A   1      37.846  29.110  29.843  1.00  0.00     0.010 A 
ATOM     40  C   UNL A   1      38.742  29.233  28.770  1.00  0.00    -0.014 A 
BRANCH  40  41
ATOM     41  C   UNL A   1      40.176  28.887  28.954  1.00  0.00     0.031 A 
ATOM     42  C   UNL A   1      40.717  27.553  28.520  1.00  0.00     0.074 A 
ATOM     43  C   UNL A   1      40.982  29.762  29.588  1.00  0.00     0.049 A 
ATOM     44  N   UNL A   1      41.921  27.063  28.674  1.00  0.00    -0.248 NA
ATOM     45  C   UNL A   1      39.780  26.646  27.842  1.00  0.00     0.031 C 
ATOM     46  C   UNL A   1      40.571  31.073  30.096  1.00  0.00     0.029 A 
ATOM     47  N   UNL A   1      42.309  29.678  29.930  1.00  0.00    -0.354 N 
ATOM     48  C   UNL A   1      41.887  25.790  28.119  1.00  0.00     0.074 A 
ATOM     49  C   UNL A   1      40.530  25.567  27.664  1.00  0.00     0.031 C 
ATOM     50  C   UNL A   1      41.624  31.674  30.670  1.00  0.00     0.029 A 
ATOM     51  C   UNL A   1      42.772  30.775  30.617  1.00  0.00     0.049 A 
ATOM     52  H   UNL A   1      42.875  28.904  29.705  1.00  0.00     0.167 HD
ATOM     53  C   UNL A   1      42.896  24.895  27.990  1.00  0.00     0.037 A 
ATOM     54  C   UNL A   1      43.977  31.024  31.163  1.00  0.00     0.037 A 
ATOM     55  C   UNL A   1      44.248  25.122  28.440  1.00  0.00     0.049 A 
ATOM     56  C   UNL A   1      45.067  29.996  31.040  1.00  0.00     0.074 A 
ATOM     57  C   UNL A   1      45.353  24.300  28.294  1.00  0.00     0.029 A 
ATOM     58  N   UNL A   1      44.676  26.243  29.135  1.00  0.00    -0.354 N 
ATOM     59  N   UNL A   1      45.041  28.831  30.443  1.00  0.00    -0.248 NA
ATOM     60  C   UNL A   1      46.355  30.320  31.669  1.00  0.00     0.031 C 
ATOM     61  C   UNL A   1      46.433  24.895  28.953  1.00  0.00     0.029 A 
ATOM     62  C   UNL A   1      46.018  26.115  29.460  1.00  0.00     0.049 A 
ATOM     63  H   UNL A   1      44.110  27.014  29.366  1.00  0.00     0.167 HD
ATOM     64  C   UNL A   1      46.310  28.291  30.607  1.00  0.00     0.074 A 
ATOM     65  C   UNL A   1      47.089  29.268  31.337  1.00  0.00     0.031 C 
ATOM     66  C   UNL A   1      46.785  27.091  30.192  1.00  0.00     0.037 A 
BRANCH  53  67
ATOM     67  C   UNL A   1      42.583  23.578  27.339  1.00  0.00     0.057 A 
ATOM     68  C   UNL A   1      42.744  23.375  25.962  1.00  0.00     0.134 A 
ATOM     69  C   UNL A   1      42.172  22.481  28.108  1.00  0.00     0.134 A 
ATOM     70  F   UNL A   1      43.129  24.385  25.167  1.00  0.00    -0.206 F 
ATOM     71  C   UNL A   1      42.486  22.137  25.371  1.00  0.00     0.040 A 
ATOM     72  C   UNL A   1      41.937  21.231  27.532  1.00  0.00     0.040 A 
ATOM     73  F   UNL A   1      42.007  22.601  29.434  1.00  0.00    -0.206 F 
ATOM     74  C   UNL A   1      42.089  21.058  26.158  1.00  0.00     0.006 A 
ENDBRANCH  53  67
BRANCH  54  75
ATOM     75  C   UNL A   1      44.217  32.301  31.885  1.00  0.00     0.057 A 
ATOM     76  C   UNL A   1      43.943  32.422  33.251  1.00  0.00     0.134 A 
ATOM     77  C   UNL A   1      44.710  33.431  31.223  1.00  0.00     0.134 A 
ATOM     78  F   UNL A   1      43.449  31.381  33.937  1.00  0.00    -0.206 F 
ATOM     79  C   UNL A   1      44.132  33.627  33.931  1.00  0.00     0.040 A 
ATOM     80  C   UNL A   1      44.932  34.634  31.896  1.00  0.00     0.040 A 
ATOM     81  F   UNL A   1      45.001  33.379  29.915  1.00  0.00    -0.206 F 
ATOM     82  C   UNL A   1      44.634  34.737  33.253  1.00  0.00     0.006 A 
ENDBRANCH  54  75
BRANCH  66  83
ATOM     83  C   UNL A   1      48.221  26.776  30.502  1.00  0.00     0.057 A 
ATOM     84  C   UNL A   1      48.587  26.039  31.636  1.00  0.00     0.134 A 
ATOM     85  C   UNL A   1      49.247  27.188  29.642  1.00  0.00     0.134 A 
ATOM     86  F   UNL A   1      47.656  25.627  32.510  1.00  0.00    -0.206 F 
ATOM     87  C   UNL A   1      49.923  25.746  31.915  1.00  0.00     0.040 A 
ATOM     88  C   UNL A   1      50.583  26.874  29.894  1.00  0.00     0.040 A 
ATOM     89  F   UNL A   1      48.966  27.890  28.533  1.00  0.00    -0.206 F 
ATOM     90  C   UNL A   1      50.925  26.156  31.038  1.00  0.00     0.006 A 
ENDBRANCH  66  83
ENDBRANCH  40  41
ENDBRANCH  32  35
ENDBRANCH  30  31
ENDBRANCH  29  30
ENDBRANCH  28  29
ENDBRANCH   3  28
TORSDOF 15
ENDMDL
MODEL 3
REMARK VINA RESULT:     -12.1      2.736      6.714
REMARK SMILES CN(C)C(=O)CCc1cccc(NC(=O)[C@H]2CCCC[C@@H]2C(=O)NCCCNC(=O)c2ccc(-c3c4nc(c(-c5c(F)cccc5F)c5ccc([nH]5)c(-c5c(F)cccc5F)c5nc(c(-c6c(F)cccc6F)c6ccc3[nH]6)C=C5)C=C4)cc2)c1
REMARK SMILES IDX 22 1 23 2 24 3 21 5 16 6 17 7 18 8 20 9 19 10 14 11 13 12
REMARK SMILES IDX 15 14 12 15 8 16 9 17 85 18 10 19 11 20 7 21 6 22 4 23 1 24
REMARK SMILES IDX 2 25 3 26 5 27 25 28 26 29 27 30 28 31 29 32 30 34 31 35
REMARK SMILES IDX 32 36 84 37 33 38 83 39 34 40 35 41 36 42 77 43 37 44 82 45
REMARK SMILES IDX 76 46 78 47 38 48 81 49 75 50 74 51 39 53 65 54 48 55 64 56
REMARK SMILES IDX 49 57 52 58 63 59 79 60 50 61 51 62 62 64 80 65 53 66 40 67
REMARK SMILES IDX 41 68 46 69 42 70 43 71 45 72 47 73 44 74 66 75 67 76 72 77
REMARK SMILES IDX 68 78 69 79 71 80 73 81 70 82 54 83 55 84 60 85 56 86 57 87
REMARK SMILES IDX 59 88 61 89 58 90
REMARK H PARENT 24 4 13 13 28 33 78 52 52 63
REMARK Flexibility Score: inf
ROOT
ATOM      1  C   UNL A   1      35.584  22.964  25.197  1.00  0.00     0.223 C 
ATOM      2  O   UNL A   1      35.364  23.787  26.086  1.00  0.00    -0.275 OA
ATOM      3  N   UNL A   1      36.776  22.308  25.239  1.00  0.00    -0.356 N 
ATOM      4  H   UNL A   1      37.317  22.496  26.040  1.00  0.00     0.163 HD
ENDROOT
BRANCH   1   5
ATOM      5  C   UNL A   1      34.576  22.674  24.082  1.00  0.00     0.091 C 
ATOM      6  C   UNL A   1      33.657  23.902  23.852  1.00  0.00     0.091 C 
ATOM      7  C   UNL A   1      32.479  23.984  24.847  1.00  0.00     0.014 C 
ATOM      8  C   UNL A   1      31.787  22.658  25.139  1.00  0.00     0.001 C 
ATOM      9  C   UNL A   1      33.805  21.384  24.384  1.00  0.00     0.014 C 
ATOM     10  C   UNL A   1      32.780  21.563  25.494  1.00  0.00     0.001 C 
BRANCH   6  11
ATOM     11  C   UNL A   1      33.181  23.966  22.403  1.00  0.00     0.228 C 
ATOM     12  N   UNL A   1      32.593  25.073  21.857  1.00  0.00    -0.326 N 
ATOM     13  H   UNL A   1      32.251  24.902  20.950  1.00  0.00     0.169 HD
ATOM     14  O   UNL A   1      33.312  22.994  21.651  1.00  0.00    -0.274 OA
BRANCH  12  15
ATOM     15  C   UNL A   1      32.356  26.397  22.273  1.00  0.00     0.041 A 
ATOM     16  C   UNL A   1      30.680  28.132  22.676  1.00  0.00    -0.045 A 
ATOM     17  C   UNL A   1      31.698  29.086  22.749  1.00  0.00     0.004 A 
ATOM     18  C   UNL A   1      31.013  26.801  22.375  1.00  0.00     0.029 A 
ATOM     19  C   UNL A   1      33.018  28.678  22.767  1.00  0.00     0.002 A 
ATOM     20  C   UNL A   1      33.337  27.338  22.571  1.00  0.00     0.026 A 
BRANCH  16  21
ATOM     21  C   UNL A   1      29.279  28.539  23.073  1.00  0.00     0.045 C 
BRANCH  21  22
ATOM     22  C   UNL A   1      29.116  30.068  23.173  1.00  0.00     0.105 C 
BRANCH  22  23
ATOM     23  C   UNL A   1      28.468  30.654  21.923  1.00  0.00     0.222 C 
ATOM     24  C   UNL A   1      28.027  32.568  20.465  1.00  0.00     0.146 C 
ATOM     25  N   UNL A   1      28.471  32.034  21.744  1.00  0.00    -0.349 N 
ATOM     26  C   UNL A   1      28.778  33.009  22.780  1.00  0.00     0.146 C 
ATOM     27  O   UNL A   1      28.034  29.885  21.061  1.00  0.00    -0.275 OA
ENDBRANCH  22  23
ENDBRANCH  21  22
ENDBRANCH  16  21
ENDBRANCH  12  15
ENDBRANCH   6  11
ENDBRANCH   1   5
BRANCH   3  28
ATOM     28  C   UNL A   1      37.382  21.379  24.302  1.00  0.00     0.117 C 
BRANCH  28  29
ATOM     29  C   UNL A   1      37.892  20.115  24.992  1.00  0.00     0.042 C 
BRANCH  29  30
ATOM     30  C   UNL A   1      39.056  20.326  25.959  1.00  0.00     0.118 C 
BRANCH  30  31
ATOM     31  N   UNL A   1      40.039  19.255  25.903  1.00  0.00    -0.352 N 
ATOM     32  C   UNL A   1      41.409  19.295  26.012  1.00  0.00     0.251 C 
ATOM     33  H   UNL A   1      39.662  18.357  25.765  1.00  0.00     0.163 HD
ATOM     34  O   UNL A   1      42.062  18.288  25.764  1.00  0.00    -0.269 OA
BRANCH  32  35
ATOM     35  C   UNL A   1      42.108  20.545  26.390  1.00  0.00     0.039 A 
ATOM     36  C   UNL A   1      42.657  21.334  25.375  1.00  0.00     0.014 A 
ATOM     37  C   UNL A   1      42.242  20.938  27.724  1.00  0.00     0.014 A 
ATOM     38  C   UNL A   1      43.257  22.557  25.688  1.00  0.00     0.010 A 
ATOM     39  C   UNL A   1      42.782  22.189  28.031  1.00  0.00     0.010 A 
ATOM     40  C   UNL A   1      43.274  23.022  27.014  1.00  0.00    -0.014 A 
BRANCH  40  41
ATOM     41  C   UNL A   1      43.719  24.404  27.334  1.00  0.00     0.031 A 
ATOM     42  C   UNL A   1      42.735  25.464  27.744  1.00  0.00     0.074 A 
ATOM     43  C   UNL A   1      45.020  24.721  27.181  1.00  0.00     0.049 A 
ATOM     44  N   UNL A   1      42.945  26.733  27.986  1.00  0.00    -0.248 NA
ATOM     45  C   UNL A   1      41.332  25.048  27.884  1.00  0.00     0.031 C 
ATOM     46  C   UNL A   1      46.070  23.796  26.749  1.00  0.00     0.029 A 
ATOM     47  N   UNL A   1      45.682  25.912  27.355  1.00  0.00    -0.354 N 
ATOM     48  C   UNL A   1      41.703  27.271  28.299  1.00  0.00     0.074 A 
ATOM     49  C   UNL A   1      40.738  26.197  28.175  1.00  0.00     0.031 C 
ATOM     50  C   UNL A   1      47.242  24.448  26.704  1.00  0.00     0.029 A 
ATOM     51  C   UNL A   1      47.022  25.846  27.056  1.00  0.00     0.049 A 
ATOM     52  H   UNL A   1      45.238  26.735  27.663  1.00  0.00     0.167 HD
ATOM     53  C   UNL A   1      41.397  28.538  28.669  1.00  0.00     0.037 A 
ATOM     54  C   UNL A   1      47.967  26.805  27.044  1.00  0.00     0.037 A 
ATOM     55  C   UNL A   1      42.361  29.604  28.797  1.00  0.00     0.049 A 
ATOM     56  C   UNL A   1      47.592  28.212  27.419  1.00  0.00     0.074 A 
ATOM     57  C   UNL A   1      42.155  30.903  29.228  1.00  0.00     0.029 A 
ATOM     58  N   UNL A   1      43.707  29.498  28.481  1.00  0.00    -0.354 N 
ATOM     59  N   UNL A   1      46.429  28.687  27.790  1.00  0.00    -0.248 NA
ATOM     60  C   UNL A   1      48.663  29.217  27.373  1.00  0.00     0.031 C 
ATOM     61  C   UNL A   1      43.362  31.600  29.115  1.00  0.00     0.029 A 
ATOM     62  C   UNL A   1      44.334  30.721  28.670  1.00  0.00     0.049 A 
ATOM     63  H   UNL A   1      44.151  28.678  28.168  1.00  0.00     0.167 HD
ATOM     64  C   UNL A   1      46.630  30.038  28.040  1.00  0.00     0.074 A 
ATOM     65  C   UNL A   1      48.034  30.301  27.803  1.00  0.00     0.031 C 
ATOM     66  C   UNL A   1      45.733  30.976  28.427  1.00  0.00     0.037 A 
BRANCH  53  67
ATOM     67  C   UNL A   1      39.957  28.853  28.959  1.00  0.00     0.057 A 
ATOM     68  C   UNL A   1      39.058  29.209  27.946  1.00  0.00     0.134 A 
ATOM     69  C   UNL A   1      39.450  28.739  30.260  1.00  0.00     0.134 A 
ATOM     70  F   UNL A   1      39.479  29.342  26.679  1.00  0.00    -0.206 F 
ATOM     71  C   UNL A   1      37.712  29.464  28.219  1.00  0.00     0.040 A 
ATOM     72  C   UNL A   1      38.101  28.964  30.542  1.00  0.00     0.040 A 
ATOM     73  F   UNL A   1      40.252  28.392  31.277  1.00  0.00    -0.206 F 
ATOM     74  C   UNL A   1      37.229  29.333  29.519  1.00  0.00     0.006 A 
ENDBRANCH  53  67
BRANCH  54  75
ATOM     75  C   UNL A   1      49.361  26.471  26.656  1.00  0.00     0.057 A 
ATOM     76  C   UNL A   1      50.282  25.999  27.597  1.00  0.00     0.134 A 
ATOM     77  C   UNL A   1      49.809  26.628  25.339  1.00  0.00     0.134 A 
ATOM     78  F   UNL A   1      49.919  25.846  28.880  1.00  0.00    -0.206 F 
ATOM     79  C   UNL A   1      51.604  25.714  27.249  1.00  0.00     0.040 A 
ATOM     80  C   UNL A   1      51.120  26.320  24.970  1.00  0.00     0.040 A 
ATOM     81  F   UNL A   1      48.975  27.068  24.386  1.00  0.00    -0.206 F 
ATOM     82  C   UNL A   1      52.024  25.870  25.930  1.00  0.00     0.006 A 
ENDBRANCH  54  75
BRANCH  66  83
ATOM     83  C   UNL A   1      46.245  32.372  28.637  1.00  0.00     0.057 A 
ATOM     84  C   UNL A   1      46.283  33.310  27.596  1.00  0.00     0.134 A 
ATOM     85  C   UNL A   1      46.677  32.794  29.901  1.00  0.00     0.134 A 
ATOM     86  F   UNL A   1      45.898  32.967  26.357  1.00  0.00    -0.206 F 
ATOM     87  C   UNL A   1      46.756  34.607  27.800  1.00  0.00     0.040 A 
ATOM     88  C   UNL A   1      47.122  34.098  30.124  1.00  0.00     0.040 A 
ATOM     89  F   UNL A   1      46.659  31.950  30.944  1.00  0.00    -0.206 F 
ATOM     90  C   UNL A   1      47.169  35.007  29.069  1.00  0.00     0.006 A 
ENDBRANCH  66  83
ENDBRANCH  40  41
ENDBRANCH  32  35
ENDBRANCH  30  31
ENDBRANCH  29  30
ENDBRANCH  28  29
ENDBRANCH   3  28
TORSDOF 15
ENDMDL
