MODEL 1
REMARK VINA RESULT:     -10.2      0.000      0.000
REMARK SMILES COCCOc1ccc([C@H]([NH3+])C(=O)NCCCNC(=O)c2ccc(-c3c4nc(c(-c5c(F)cccc5F)c5ccc([nH]5)c(-c5c(F)cccc5F)c5nc(c(-c6c(F)cccc6F)c6ccc3[nH]6)C=C5)C=C4)cc2)cc1OC
REMARK SMILES IDX 12 1 13 2 14 3 10 5 9 6 6 7 7 8 76 9 8 10 75 11 5 12 4 13
REMARK SMILES IDX 3 14 2 15 1 16 77 17 78 18 11 19 15 23 16 24 17 25 18 26
REMARK SMILES IDX 19 27 20 29 21 30 22 31 74 32 23 33 73 34 24 35 25 36 26 37
REMARK SMILES IDX 67 38 27 39 72 40 66 41 68 42 28 43 71 44 65 45 64 46 29 48
REMARK SMILES IDX 55 49 38 50 54 51 39 52 42 53 53 54 69 55 40 56 41 57 52 59
REMARK SMILES IDX 70 60 43 61 30 62 31 63 36 64 32 65 33 66 35 67 37 68 34 69
REMARK SMILES IDX 56 70 57 71 62 72 58 73 59 74 61 75 63 76 60 77 44 78 45 79
REMARK SMILES IDX 50 80 46 81 47 82 49 83 51 84 48 85
REMARK H PARENT 14 4 11 20 11 21 11 22 18 28 68 47 42 58
REMARK Flexibility Score: inf
ROOT
ATOM      1  C   UNL A   1      33.596  29.068  26.499  1.00  0.00     0.283 C 
ATOM      2  O   UNL A   1      34.666  28.937  27.106  1.00  0.00    -0.268 OA
ATOM      3  N   UNL A   1      32.813  30.130  26.864  1.00  0.00    -0.351 N 
ATOM      4  H   UNL A   1      33.087  30.579  27.695  1.00  0.00     0.163 HD
ENDROOT
BRANCH   1   5
ATOM      5  C   UNL A   1      33.170  28.056  25.408  1.00  0.00     0.302 C 
BRANCH   5   6
ATOM      6  C   UNL A   1      33.315  26.575  25.739  1.00  0.00     0.023 A 
ATOM      7  C   UNL A   1      33.233  23.760  25.948  1.00  0.00     0.161 A 
ATOM      8  C   UNL A   1      34.328  24.392  25.363  1.00  0.00     0.051 A 
ATOM      9  C   UNL A   1      32.248  24.544  26.545  1.00  0.00     0.161 A 
ATOM     10  C   UNL A   1      34.403  25.788  25.342  1.00  0.00     0.014 A 
ATOM     11  C   UNL A   1      32.267  25.933  26.414  1.00  0.00     0.061 A 
BRANCH   7  12
ATOM     12  O   UNL A   1      33.036  22.410  25.898  1.00  0.00    -0.487 OA
BRANCH  12  13
ATOM     13  C   UNL A   1      33.279  21.789  24.635  1.00  0.00     0.258 C 
BRANCH  13  14
ATOM     14  C   UNL A   1      34.213  20.585  24.786  1.00  0.00     0.201 C 
BRANCH  14  15
ATOM     15  O   UNL A   1      35.361  20.807  25.609  1.00  0.00    -0.381 OA
ATOM     16  C   UNL A   1      36.525  21.248  24.931  1.00  0.00     0.195 C 
ENDBRANCH  14  15
ENDBRANCH  13  14
ENDBRANCH  12  13
ENDBRANCH   7  12
BRANCH   9  17
ATOM     17  O   UNL A   1      31.210  23.973  27.233  1.00  0.00    -0.493 OA
ATOM     18  C   UNL A   1      29.991  24.145  26.501  1.00  0.00     0.278 C 
ENDBRANCH   9  17
ENDBRANCH   5   6
BRANCH   5  19
ATOM     19  N   UNL A   1      33.871  28.394  24.143  1.00  0.00    -0.343 N 
ATOM     20  H   UNL A   1      33.275  28.157  23.350  1.00  0.00     0.345 HD
ATOM     21  H   UNL A   1      34.741  27.864  24.085  1.00  0.00     0.345 HD
ATOM     22  H   UNL A   1      34.079  29.392  24.127  1.00  0.00     0.345 HD
ENDBRANCH   5  19
ENDBRANCH   1   5
BRANCH   3  23
ATOM     23  C   UNL A   1      31.642  30.701  26.220  1.00  0.00     0.118 C 
BRANCH  23  24
ATOM     24  C   UNL A   1      31.433  32.168  26.536  1.00  0.00     0.042 C 
BRANCH  24  25
ATOM     25  C   UNL A   1      32.619  32.819  27.228  1.00  0.00     0.118 C 
BRANCH  25  26
ATOM     26  N   UNL A   1      32.374  34.202  27.627  1.00  0.00    -0.352 N 
ATOM     27  C   UNL A   1      32.983  34.968  28.594  1.00  0.00     0.251 C 
ATOM     28  H   UNL A   1      31.660  34.658  27.126  1.00  0.00     0.163 HD
ATOM     29  O   UNL A   1      32.528  36.072  28.879  1.00  0.00    -0.269 OA
BRANCH  27  30
ATOM     30  C   UNL A   1      34.164  34.445  29.312  1.00  0.00     0.039 A 
ATOM     31  C   UNL A   1      33.985  33.802  30.539  1.00  0.00     0.014 A 
ATOM     32  C   UNL A   1      35.441  34.563  28.762  1.00  0.00     0.014 A 
ATOM     33  C   UNL A   1      35.077  33.193  31.162  1.00  0.00     0.010 A 
ATOM     34  C   UNL A   1      36.499  33.861  29.323  1.00  0.00     0.010 A 
ATOM     35  C   UNL A   1      36.331  33.173  30.532  1.00  0.00    -0.014 A 
BRANCH  35  36
ATOM     36  C   UNL A   1      37.486  32.446  31.116  1.00  0.00     0.031 A 
ATOM     37  C   UNL A   1      38.116  32.937  32.392  1.00  0.00     0.074 A 
ATOM     38  C   UNL A   1      38.021  31.398  30.458  1.00  0.00     0.049 A 
ATOM     39  N   UNL A   1      39.185  32.503  33.008  1.00  0.00    -0.248 NA
ATOM     40  C   UNL A   1      37.480  34.096  33.042  1.00  0.00     0.031 C 
ATOM     41  C   UNL A   1      37.540  30.860  29.183  1.00  0.00     0.029 A 
ATOM     42  N   UNL A   1      39.095  30.602  30.767  1.00  0.00    -0.354 N 
ATOM     43  C   UNL A   1      39.359  33.344  34.099  1.00  0.00     0.074 A 
ATOM     44  C   UNL A   1      38.325  34.352  34.027  1.00  0.00     0.031 C 
ATOM     45  C   UNL A   1      38.297  29.808  28.835  1.00  0.00     0.029 A 
ATOM     46  C   UNL A   1      39.342  29.621  29.837  1.00  0.00     0.049 A 
ATOM     47  H   UNL A   1      39.639  30.723  31.580  1.00  0.00     0.167 HD
ATOM     48  C   UNL A   1      40.277  33.268  35.091  1.00  0.00     0.037 A 
ATOM     49  C   UNL A   1      40.306  28.683  29.793  1.00  0.00     0.037 A 
ATOM     50  C   UNL A   1      41.283  32.243  35.178  1.00  0.00     0.049 A 
ATOM     51  C   UNL A   1      41.315  28.617  30.906  1.00  0.00     0.074 A 
ATOM     52  C   UNL A   1      42.219  32.037  36.176  1.00  0.00     0.029 A 
ATOM     53  N   UNL A   1      41.485  31.254  34.228  1.00  0.00    -0.354 N 
ATOM     54  N   UNL A   1      41.422  29.375  31.971  1.00  0.00    -0.248 NA
ATOM     55  C   UNL A   1      42.335  27.563  30.814  1.00  0.00     0.031 C 
ATOM     56  C   UNL A   1      43.017  30.949  35.808  1.00  0.00     0.029 A 
ATOM     57  C   UNL A   1      42.546  30.446  34.606  1.00  0.00     0.049 A 
ATOM     58  H   UNL A   1      40.954  31.141  33.406  1.00  0.00     0.167 HD
ATOM     59  C   UNL A   1      42.500  28.873  32.688  1.00  0.00     0.074 A 
ATOM     60  C   UNL A   1      43.004  27.737  31.945  1.00  0.00     0.031 C 
ATOM     61  C   UNL A   1      43.028  29.314  33.856  1.00  0.00     0.037 A 
BRANCH  48  62
ATOM     62  C   UNL A   1      40.227  34.317  36.163  1.00  0.00     0.057 A 
ATOM     63  C   UNL A   1      39.428  34.169  37.306  1.00  0.00     0.134 A 
ATOM     64  C   UNL A   1      41.005  35.477  36.068  1.00  0.00     0.134 A 
ATOM     65  F   UNL A   1      38.648  33.087  37.454  1.00  0.00    -0.206 F 
ATOM     66  C   UNL A   1      39.382  35.150  38.298  1.00  0.00     0.040 A 
ATOM     67  C   UNL A   1      40.989  36.451  37.067  1.00  0.00     0.040 A 
ATOM     68  F   UNL A   1      41.796  35.681  35.004  1.00  0.00    -0.206 F 
ATOM     69  C   UNL A   1      40.170  36.292  38.183  1.00  0.00     0.006 A 
ENDBRANCH  48  62
BRANCH  49  70
ATOM     70  C   UNL A   1      40.352  27.712  28.669  1.00  0.00     0.057 A 
ATOM     71  C   UNL A   1      39.647  26.504  28.732  1.00  0.00     0.134 A 
ATOM     72  C   UNL A   1      41.106  27.959  27.516  1.00  0.00     0.134 A 
ATOM     73  F   UNL A   1      38.921  26.202  29.818  1.00  0.00    -0.206 F 
ATOM     74  C   UNL A   1      39.707  25.567  27.699  1.00  0.00     0.040 A 
ATOM     75  C   UNL A   1      41.153  27.043  26.463  1.00  0.00     0.040 A 
ATOM     76  F   UNL A   1      41.797  29.102  27.389  1.00  0.00    -0.206 F 
ATOM     77  C   UNL A   1      40.458  25.839  26.558  1.00  0.00     0.006 A 
ENDBRANCH  49  70
BRANCH  61  78
ATOM     78  C   UNL A   1      44.186  28.544  34.420  1.00  0.00     0.057 A 
ATOM     79  C   UNL A   1      45.513  28.892  34.139  1.00  0.00     0.134 A 
ATOM     80  C   UNL A   1      43.969  27.467  35.288  1.00  0.00     0.134 A 
ATOM     81  F   UNL A   1      45.789  29.907  33.305  1.00  0.00    -0.206 F 
ATOM     82  C   UNL A   1      46.584  28.181  34.683  1.00  0.00     0.040 A 
ATOM     83  C   UNL A   1      45.030  26.766  35.861  1.00  0.00     0.040 A 
ATOM     84  F   UNL A   1      42.722  27.088  35.606  1.00  0.00    -0.206 F 
ATOM     85  C   UNL A   1      46.343  27.118  35.552  1.00  0.00     0.006 A 
ENDBRANCH  61  78
ENDBRANCH  35  36
ENDBRANCH  27  30
ENDBRANCH  25  26
ENDBRANCH  24  25
ENDBRANCH  23  24
ENDBRANCH   3  23
TORSDOF 17
ENDMDL
MODEL 2
REMARK VINA RESULT:     -10.2      5.366      9.587
REMARK SMILES COCCOc1ccc([C@H]([NH3+])C(=O)NCCCNC(=O)c2ccc(-c3c4nc(c(-c5c(F)cccc5F)c5ccc([nH]5)c(-c5c(F)cccc5F)c5nc(c(-c6c(F)cccc6F)c6ccc3[nH]6)C=C5)C=C4)cc2)cc1OC
REMARK SMILES IDX 12 1 13 2 14 3 10 5 9 6 6 7 7 8 76 9 8 10 75 11 5 12 4 13
REMARK SMILES IDX 3 14 2 15 1 16 77 17 78 18 11 19 15 23 16 24 17 25 18 26
REMARK SMILES IDX 19 27 20 29 21 30 22 31 74 32 23 33 73 34 24 35 25 36 26 37
REMARK SMILES IDX 67 38 27 39 72 40 66 41 68 42 28 43 71 44 65 45 64 46 29 48
REMARK SMILES IDX 55 49 38 50 54 51 39 52 42 53 53 54 69 55 40 56 41 57 52 59
REMARK SMILES IDX 70 60 43 61 30 62 31 63 36 64 32 65 33 66 35 67 37 68 34 69
REMARK SMILES IDX 56 70 57 71 62 72 58 73 59 74 61 75 63 76 60 77 44 78 45 79
REMARK SMILES IDX 50 80 46 81 47 82 49 83 51 84 48 85
REMARK H PARENT 14 4 11 20 11 21 11 22 18 28 68 47 42 58
REMARK Flexibility Score: inf
ROOT
ATOM      1  C   UNL A   1      34.785  21.367  26.475  1.00  0.00     0.283 C 
ATOM      2  O   UNL A   1      34.503  21.645  27.647  1.00  0.00    -0.268 OA
ATOM      3  N   UNL A   1      36.017  21.769  26.032  1.00  0.00    -0.351 N 
ATOM      4  H   UNL A   1      36.485  22.398  26.627  1.00  0.00     0.163 HD
ENDROOT
BRANCH   1   5
ATOM      5  C   UNL A   1      33.773  20.631  25.564  1.00  0.00     0.302 C 
BRANCH   5   6
ATOM      6  C   UNL A   1      32.761  21.488  24.815  1.00  0.00     0.023 A 
ATOM      7  C   UNL A   1      31.264  23.460  23.455  1.00  0.00     0.161 A 
ATOM      8  C   UNL A   1      31.863  22.418  22.750  1.00  0.00     0.051 A 
ATOM      9  C   UNL A   1      31.304  23.436  24.848  1.00  0.00     0.161 A 
ATOM     10  C   UNL A   1      32.527  21.397  23.437  1.00  0.00     0.014 A 
ATOM     11  C   UNL A   1      32.070  22.484  25.522  1.00  0.00     0.061 A 
BRANCH   7  12
ATOM     12  O   UNL A   1      30.705  24.548  22.849  1.00  0.00    -0.487 OA
BRANCH  12  13
ATOM     13  C   UNL A   1      31.543  25.700  22.735  1.00  0.00     0.258 C 
BRANCH  13  14
ATOM     14  C   UNL A   1      32.411  25.624  21.476  1.00  0.00     0.201 C 
BRANCH  14  15
ATOM     15  O   UNL A   1      33.653  26.329  21.552  1.00  0.00    -0.381 OA
ATOM     16  C   UNL A   1      33.653  27.483  22.375  1.00  0.00     0.195 C 
ENDBRANCH  14  15
ENDBRANCH  13  14
ENDBRANCH  12  13
ENDBRANCH   7  12
BRANCH   9  17
ATOM     17  O   UNL A   1      30.635  24.371  25.591  1.00  0.00    -0.493 OA
ATOM     18  C   UNL A   1      31.542  25.007  26.500  1.00  0.00     0.278 C 
ENDBRANCH   9  17
ENDBRANCH   5   6
BRANCH   5  19
ATOM     19  N   UNL A   1      33.098  19.574  26.360  1.00  0.00    -0.343 N 
ATOM     20  H   UNL A   1      32.515  20.007  27.075  1.00  0.00     0.345 HD
ATOM     21  H   UNL A   1      33.801  18.983  26.805  1.00  0.00     0.345 HD
ATOM     22  H   UNL A   1      32.516  19.005  25.745  1.00  0.00     0.345 HD
ENDBRANCH   5  19
ENDBRANCH   1   5
BRANCH   3  23
ATOM     23  C   UNL A   1      36.745  21.415  24.825  1.00  0.00     0.118 C 
BRANCH  23  24
ATOM     24  C   UNL A   1      37.665  20.226  25.001  1.00  0.00     0.042 C 
BRANCH  24  25
ATOM     25  C   UNL A   1      38.929  20.540  25.785  1.00  0.00     0.118 C 
BRANCH  25  26
ATOM     26  N   UNL A   1      39.870  19.426  25.847  1.00  0.00    -0.352 N 
ATOM     27  C   UNL A   1      41.230  19.422  26.052  1.00  0.00     0.251 C 
ATOM     28  H   UNL A   1      39.468  18.536  25.721  1.00  0.00     0.163 HD
ATOM     29  O   UNL A   1      41.868  18.382  25.919  1.00  0.00    -0.269 OA
BRANCH  27  30
ATOM     30  C   UNL A   1      41.925  20.679  26.397  1.00  0.00     0.039 A 
ATOM     31  C   UNL A   1      42.293  21.557  25.376  1.00  0.00     0.014 A 
ATOM     32  C   UNL A   1      42.187  21.005  27.729  1.00  0.00     0.014 A 
ATOM     33  C   UNL A   1      42.835  22.803  25.701  1.00  0.00     0.010 A 
ATOM     34  C   UNL A   1      42.616  22.284  28.054  1.00  0.00     0.010 A 
ATOM     35  C   UNL A   1      42.951  23.197  27.044  1.00  0.00    -0.014 A 
BRANCH  35  36
ATOM     36  C   UNL A   1      43.423  24.552  27.422  1.00  0.00     0.031 A 
ATOM     37  C   UNL A   1      42.435  25.595  27.867  1.00  0.00     0.074 A 
ATOM     38  C   UNL A   1      44.727  24.870  27.286  1.00  0.00     0.049 A 
ATOM     39  N   UNL A   1      42.632  26.858  28.145  1.00  0.00    -0.248 NA
ATOM     40  C   UNL A   1      41.029  25.172  27.978  1.00  0.00     0.031 C 
ATOM     41  C   UNL A   1      45.776  23.966  26.808  1.00  0.00     0.029 A 
ATOM     42  N   UNL A   1      45.389  26.046  27.527  1.00  0.00    -0.354 N 
ATOM     43  C   UNL A   1      41.380  27.380  28.441  1.00  0.00     0.074 A 
ATOM     44  C   UNL A   1      40.421  26.316  28.247  1.00  0.00     0.031 C 
ATOM     45  C   UNL A   1      46.952  24.612  26.819  1.00  0.00     0.029 A 
ATOM     46  C   UNL A   1      46.737  25.985  27.262  1.00  0.00     0.049 A 
ATOM     47  H   UNL A   1      44.942  26.859  27.858  1.00  0.00     0.167 HD
ATOM     48  C   UNL A   1      41.059  28.624  28.866  1.00  0.00     0.037 A 
ATOM     49  C   UNL A   1      47.689  26.933  27.358  1.00  0.00     0.037 A 
ATOM     50  C   UNL A   1      42.020  29.671  29.092  1.00  0.00     0.049 A 
ATOM     51  C   UNL A   1      47.308  28.307  27.834  1.00  0.00     0.074 A 
ATOM     52  C   UNL A   1      41.807  30.945  29.585  1.00  0.00     0.029 A 
ATOM     53  N   UNL A   1      43.378  29.562  28.834  1.00  0.00    -0.354 N 
ATOM     54  N   UNL A   1      46.129  28.766  28.181  1.00  0.00    -0.248 NA
ATOM     55  C   UNL A   1      48.390  29.296  27.935  1.00  0.00     0.031 C 
ATOM     56  C   UNL A   1      43.030  31.624  29.584  1.00  0.00     0.029 A 
ATOM     57  C   UNL A   1      44.013  30.755  29.139  1.00  0.00     0.049 A 
ATOM     58  H   UNL A   1      43.826  28.756  28.487  1.00  0.00     0.167 HD
ATOM     59  C   UNL A   1      46.333  30.084  28.568  1.00  0.00     0.074 A 
ATOM     60  C   UNL A   1      47.749  30.347  28.427  1.00  0.00     0.031 C 
ATOM     61  C   UNL A   1      45.427  30.996  28.999  1.00  0.00     0.037 A 
BRANCH  48  62
ATOM     62  C   UNL A   1      39.608  28.915  29.124  1.00  0.00     0.057 A 
ATOM     63  C   UNL A   1      38.754  29.369  28.110  1.00  0.00     0.134 A 
ATOM     64  C   UNL A   1      39.052  28.715  30.393  1.00  0.00     0.134 A 
ATOM     65  F   UNL A   1      39.225  29.594  26.874  1.00  0.00    -0.206 F 
ATOM     66  C   UNL A   1      37.407  29.641  28.356  1.00  0.00     0.040 A 
ATOM     67  C   UNL A   1      37.701  28.955  30.644  1.00  0.00     0.040 A 
ATOM     68  F   UNL A   1      39.812  28.277  31.409  1.00  0.00    -0.206 F 
ATOM     69  C   UNL A   1      36.876  29.427  29.625  1.00  0.00     0.006 A 
ENDBRANCH  48  62
BRANCH  49  70
ATOM     70  C   UNL A   1      49.099  26.610  27.022  1.00  0.00     0.057 A 
ATOM     71  C   UNL A   1      49.572  26.727  25.709  1.00  0.00     0.134 A 
ATOM     72  C   UNL A   1      50.003  26.170  27.996  1.00  0.00     0.134 A 
ATOM     73  F   UNL A   1      48.749  27.127  24.729  1.00  0.00    -0.206 F 
ATOM     74  C   UNL A   1      50.886  26.396  25.373  1.00  0.00     0.040 A 
ATOM     75  C   UNL A   1      51.328  25.861  27.678  1.00  0.00     0.040 A 
ATOM     76  F   UNL A   1      49.616  26.046  29.274  1.00  0.00    -0.206 F 
ATOM     77  C   UNL A   1      51.769  25.966  26.360  1.00  0.00     0.006 A 
ENDBRANCH  49  70
BRANCH  61  78
ATOM     78  C   UNL A   1      45.947  32.350  29.385  1.00  0.00     0.057 A 
ATOM     79  C   UNL A   1      46.408  32.625  30.678  1.00  0.00     0.134 A 
ATOM     80  C   UNL A   1      46.026  33.378  28.437  1.00  0.00     0.134 A 
ATOM     81  F   UNL A   1      46.349  31.686  31.636  1.00  0.00    -0.206 F 
ATOM     82  C   UNL A   1      46.907  33.882  31.022  1.00  0.00     0.040 A 
ATOM     83  C   UNL A   1      46.548  34.630  28.761  1.00  0.00     0.040 A 
ATOM     84  F   UNL A   1      45.610  33.177  27.177  1.00  0.00    -0.206 F 
ATOM     85  C   UNL A   1      46.984  34.887  30.059  1.00  0.00     0.006 A 
ENDBRANCH  61  78
ENDBRANCH  35  36
ENDBRANCH  27  30
ENDBRANCH  25  26
ENDBRANCH  24  25
ENDBRANCH  23  24
ENDBRANCH   3  23
TORSDOF 17
ENDMDL
MODEL 3
REMARK VINA RESULT:     -10.2      4.331      9.227
REMARK SMILES COCCOc1ccc([C@H]([NH3+])C(=O)NCCCNC(=O)c2ccc(-c3c4nc(c(-c5c(F)cccc5F)c5ccc([nH]5)c(-c5c(F)cccc5F)c5nc(c(-c6c(F)cccc6F)c6ccc3[nH]6)C=C5)C=C4)cc2)cc1OC
REMARK SMILES IDX 12 1 13 2 14 3 10 5 9 6 6 7 7 8 76 9 8 10 75 11 5 12 4 13
REMARK SMILES IDX 3 14 2 15 1 16 77 17 78 18 11 19 15 23 16 24 17 25 18 26
REMARK SMILES IDX 19 27 20 29 21 30 22 31 74 32 23 33 73 34 24 35 25 36 26 37
REMARK SMILES IDX 67 38 27 39 72 40 66 41 68 42 28 43 71 44 65 45 64 46 29 48
REMARK SMILES IDX 55 49 38 50 54 51 39 52 42 53 53 54 69 55 40 56 41 57 52 59
REMARK SMILES IDX 70 60 43 61 30 62 31 63 36 64 32 65 33 66 35 67 37 68 34 69
REMARK SMILES IDX 56 70 57 71 62 72 58 73 59 74 61 75 63 76 60 77 44 78 45 79
REMARK SMILES IDX 50 80 46 81 47 82 49 83 51 84 48 85
REMARK H PARENT 14 4 11 20 11 21 11 22 18 28 68 47 42 58
REMARK Flexibility Score: inf
ROOT
ATOM      1  C   UNL A   1      34.453  22.029  26.523  1.00  0.00     0.283 C 
ATOM      2  O   UNL A   1      34.102  21.838  27.693  1.00  0.00    -0.268 OA
ATOM      3  N   UNL A   1      35.745  21.699  26.212  1.00  0.00    -0.351 N 
ATOM      4  H   UNL A   1      36.323  21.514  26.987  1.00  0.00     0.163 HD
ENDROOT
BRANCH   1   5
ATOM      5  C   UNL A   1      33.478  22.640  25.488  1.00  0.00     0.302 C 
BRANCH   5   6
ATOM      6  C   UNL A   1      33.716  24.088  25.079  1.00  0.00     0.023 A 
ATOM      7  C   UNL A   1      33.630  26.771  24.200  1.00  0.00     0.161 A 
ATOM      8  C   UNL A   1      33.680  26.476  25.561  1.00  0.00     0.051 A 
ATOM      9  C   UNL A   1      33.759  25.728  23.284  1.00  0.00     0.161 A 
ATOM     10  C   UNL A   1      33.812  25.151  25.987  1.00  0.00     0.014 A 
ATOM     11  C   UNL A   1      33.767  24.401  23.713  1.00  0.00     0.061 A 
BRANCH   7  12
ATOM     12  O   UNL A   1      33.384  28.023  23.715  1.00  0.00    -0.487 OA
BRANCH  12  13
ATOM     13  C   UNL A   1      32.013  28.426  23.694  1.00  0.00     0.258 C 
BRANCH  13  14
ATOM     14  C   UNL A   1      31.713  29.410  24.829  1.00  0.00     0.201 C 
BRANCH  14  15
ATOM     15  O   UNL A   1      32.860  30.044  25.401  1.00  0.00    -0.381 OA
ATOM     16  C   UNL A   1      32.817  30.238  26.804  1.00  0.00     0.195 C 
ENDBRANCH  14  15
ENDBRANCH  13  14
ENDBRANCH  12  13
ENDBRANCH   7  12
BRANCH   9  17
ATOM     17  O   UNL A   1      33.831  25.974  21.938  1.00  0.00    -0.493 OA
ATOM     18  C   UNL A   1      32.612  25.568  21.305  1.00  0.00     0.278 C 
ENDBRANCH   9  17
ENDBRANCH   5   6
BRANCH   5  19
ATOM     19  N   UNL A   1      32.087  22.438  25.967  1.00  0.00    -0.343 N 
ATOM     20  H   UNL A   1      31.509  22.097  25.199  1.00  0.00     0.345 HD
ATOM     21  H   UNL A   1      31.713  23.325  26.306  1.00  0.00     0.345 HD
ATOM     22  H   UNL A   1      32.084  21.756  26.724  1.00  0.00     0.345 HD
ENDBRANCH   5  19
ENDBRANCH   1   5
BRANCH   3  23
ATOM     23  C   UNL A   1      36.401  21.576  24.921  1.00  0.00     0.118 C 
BRANCH  23  24
ATOM     24  C   UNL A   1      37.450  20.485  24.876  1.00  0.00     0.042 C 
BRANCH  24  25
ATOM     25  C   UNL A   1      38.699  20.805  25.681  1.00  0.00     0.118 C 
BRANCH  25  26
ATOM     26  N   UNL A   1      39.682  19.726  25.686  1.00  0.00    -0.352 N 
ATOM     27  C   UNL A   1      41.018  19.743  26.012  1.00  0.00     0.251 C 
ATOM     28  H   UNL A   1      39.334  18.846  25.412  1.00  0.00     0.163 HD
ATOM     29  O   UNL A   1      41.713  18.752  25.807  1.00  0.00    -0.269 OA
BRANCH  27  30
ATOM     30  C   UNL A   1      41.622  20.967  26.577  1.00  0.00     0.039 A 
ATOM     31  C   UNL A   1      42.198  21.903  25.715  1.00  0.00     0.014 A 
ATOM     32  C   UNL A   1      41.593  21.206  27.951  1.00  0.00     0.014 A 
ATOM     33  C   UNL A   1      42.657  23.119  26.226  1.00  0.00     0.010 A 
ATOM     34  C   UNL A   1      41.941  22.457  28.440  1.00  0.00     0.010 A 
ATOM     35  C   UNL A   1      42.482  23.427  27.585  1.00  0.00    -0.014 A 
BRANCH  35  36
ATOM     36  C   UNL A   1      42.862  24.750  28.140  1.00  0.00     0.031 A 
ATOM     37  C   UNL A   1      41.809  25.802  28.361  1.00  0.00     0.074 A 
ATOM     38  C   UNL A   1      44.160  25.035  28.367  1.00  0.00     0.049 A 
ATOM     39  N   UNL A   1      41.947  27.045  28.744  1.00  0.00    -0.248 NA
ATOM     40  C   UNL A   1      40.416  25.415  28.078  1.00  0.00     0.031 C 
ATOM     41  C   UNL A   1      45.283  24.122  28.137  1.00  0.00     0.029 A 
ATOM     42  N   UNL A   1      44.756  26.180  28.831  1.00  0.00    -0.354 N 
ATOM     43  C   UNL A   1      40.670  27.590  28.726  1.00  0.00     0.074 A 
ATOM     44  C   UNL A   1      39.778  26.564  28.235  1.00  0.00     0.031 C 
ATOM     45  C   UNL A   1      46.425  24.733  28.488  1.00  0.00     0.029 A 
ATOM     46  C   UNL A   1      46.124  26.091  28.926  1.00  0.00     0.049 A 
ATOM     47  H   UNL A   1      44.251  26.991  29.073  1.00  0.00     0.167 HD
ATOM     48  C   UNL A   1      40.269  28.824  29.113  1.00  0.00     0.037 A 
ATOM     49  C   UNL A   1      47.033  27.005  29.315  1.00  0.00     0.037 A 
ATOM     50  C   UNL A   1      41.155  29.831  29.634  1.00  0.00     0.049 A 
ATOM     51  C   UNL A   1      46.564  28.369  29.742  1.00  0.00     0.074 A 
ATOM     52  C   UNL A   1      40.841  31.089  30.116  1.00  0.00     0.029 A 
ATOM     53  N   UNL A   1      42.531  29.694  29.737  1.00  0.00    -0.354 N 
ATOM     54  N   UNL A   1      45.343  28.846  29.790  1.00  0.00    -0.248 NA
ATOM     55  C   UNL A   1      47.597  29.320  30.172  1.00  0.00     0.031 C 
ATOM     56  C   UNL A   1      42.033  31.730  30.470  1.00  0.00     0.029 A 
ATOM     57  C   UNL A   1      43.083  30.853  30.256  1.00  0.00     0.049 A 
ATOM     58  H   UNL A   1      43.040  28.891  29.480  1.00  0.00     0.167 HD
ATOM     59  C   UNL A   1      45.459  30.140  30.281  1.00  0.00     0.074 A 
ATOM     60  C   UNL A   1      46.867  30.367  30.530  1.00  0.00     0.031 C 
ATOM     61  C   UNL A   1      44.488  31.058  30.504  1.00  0.00     0.037 A 
BRANCH  48  62
ATOM     62  C   UNL A   1      38.808  29.145  28.995  1.00  0.00     0.057 A 
ATOM     63  C   UNL A   1      38.236  29.555  27.782  1.00  0.00     0.134 A 
ATOM     64  C   UNL A   1      37.955  29.020  30.099  1.00  0.00     0.134 A 
ATOM     65  F   UNL A   1      38.998  29.707  26.689  1.00  0.00    -0.206 F 
ATOM     66  C   UNL A   1      36.877  29.856  27.680  1.00  0.00     0.040 A 
ATOM     67  C   UNL A   1      36.590  29.290  30.002  1.00  0.00     0.040 A 
ATOM     68  F   UNL A   1      38.435  28.629  31.289  1.00  0.00    -0.206 F 
ATOM     69  C   UNL A   1      36.049  29.717  28.790  1.00  0.00     0.006 A 
ENDBRANCH  48  62
BRANCH  49  70
ATOM     70  C   UNL A   1      48.477  26.657  29.346  1.00  0.00     0.057 A 
ATOM     71  C   UNL A   1      49.311  26.945  28.258  1.00  0.00     0.134 A 
ATOM     72  C   UNL A   1      49.055  26.021  30.451  1.00  0.00     0.134 A 
ATOM     73  F   UNL A   1      48.812  27.537  27.165  1.00  0.00    -0.206 F 
ATOM     74  C   UNL A   1      50.661  26.594  28.259  1.00  0.00     0.040 A 
ATOM     75  C   UNL A   1      50.411  25.688  30.476  1.00  0.00     0.040 A 
ATOM     76  F   UNL A   1      48.313  25.725  31.528  1.00  0.00    -0.206 F 
ATOM     77  C   UNL A   1      51.216  25.967  29.373  1.00  0.00     0.006 A 
ENDBRANCH  49  70
BRANCH  61  78
ATOM     78  C   UNL A   1      44.911  32.379  31.079  1.00  0.00     0.057 A 
ATOM     79  C   UNL A   1      45.206  33.480  30.265  1.00  0.00     0.134 A 
ATOM     80  C   UNL A   1      44.982  32.561  32.466  1.00  0.00     0.134 A 
ATOM     81  F   UNL A   1      45.168  33.367  28.928  1.00  0.00    -0.206 F 
ATOM     82  C   UNL A   1      45.581  34.708  30.809  1.00  0.00     0.040 A 
ATOM     83  C   UNL A   1      45.328  33.792  33.023  1.00  0.00     0.040 A 
ATOM     84  F   UNL A   1      44.702  31.550  33.301  1.00  0.00    -0.206 F 
ATOM     85  C   UNL A   1      45.636  34.868  32.193  1.00  0.00     0.006 A 
ENDBRANCH  61  78
ENDBRANCH  35  36
ENDBRANCH  27  30
ENDBRANCH  25  26
ENDBRANCH  24  25
ENDBRANCH  23  24
ENDBRANCH   3  23
TORSDOF 17
ENDMDL
