MODEL 1
REMARK VINA RESULT:     -10.9      0.000      0.000
REMARK SMILES C[C@@H](Oc1cncc(C(=O)NCCCNC(=O)c2ccc(-c3c4nc(c(-c5c(F)cccc5F)c5ccc([nH]5)c(-c5c(F)cccc5F)c5nc(c(-c6c(F)cccc6F)c6ccc3[nH]6)C=C5)C=C4)cc2)n1)C(F)(F)F
REMARK SMILES IDX 12 1 11 2 9 3 10 4 8 6 4 7 5 8 72 9 6 10 7 11 3 12 2 13 1 14
REMARK SMILES IDX 73 15 74 16 75 17 76 18 13 19 14 20 15 21 16 22 17 24 18 25
REMARK SMILES IDX 19 26 71 27 20 28 70 29 21 30 22 31 23 32 64 33 24 34 69 35
REMARK SMILES IDX 63 36 65 37 25 38 68 39 62 40 61 41 26 43 52 44 35 45 51 46
REMARK SMILES IDX 36 47 39 48 50 49 66 50 37 51 38 52 49 54 67 55 40 56 27 57
REMARK SMILES IDX 28 58 33 59 29 60 30 61 32 62 34 63 31 64 53 65 54 66 59 67
REMARK SMILES IDX 55 68 56 69 58 70 60 71 57 72 41 73 42 74 47 75 43 76 44 77
REMARK SMILES IDX 46 78 48 79 45 80
REMARK H PARENT 11 5 15 23 65 42 39 53
REMARK Flexibility Score: inf
ROOT
ATOM      1  C   UNL A   1      37.511  21.171  24.644  1.00  0.00     0.118 C 
ENDROOT
BRANCH   1   2
ATOM      2  N   UNL A   1      36.746  21.608  25.799  1.00  0.00    -0.351 N 
ATOM      3  C   UNL A   1      35.394  21.685  26.027  1.00  0.00     0.271 C 
ATOM      4  O   UNL A   1      35.034  22.151  27.110  1.00  0.00    -0.267 OA
ATOM      5  H   UNL A   1      37.298  21.903  26.558  1.00  0.00     0.163 HD
BRANCH   3   6
ATOM      6  C   UNL A   1      34.360  21.193  25.070  1.00  0.00     0.150 A 
ATOM      7  C   UNL A   1      33.081  19.550  24.123  1.00  0.00     0.233 A 
ATOM      8  C   UNL A   1      32.275  20.515  23.531  1.00  0.00     0.179 A 
ATOM      9  N   UNL A   1      34.141  19.861  24.901  1.00  0.00    -0.205 NA
ATOM     10  N   UNL A   1      32.528  21.838  23.633  1.00  0.00    -0.257 NA
ATOM     11  C   UNL A   1      33.583  22.154  24.426  1.00  0.00     0.145 A 
BRANCH   7  12
ATOM     12  O   UNL A   1      32.703  18.234  24.108  1.00  0.00    -0.464 OA
BRANCH  12  13
ATOM     13  C   UNL A   1      33.823  17.330  24.199  1.00  0.00     0.277 C 
ATOM     14  C   UNL A   1      34.100  16.729  22.818  1.00  0.00     0.063 C 
BRANCH  13  15
ATOM     15  C   UNL A   1      33.476  16.205  25.180  1.00  0.00     0.425 C 
ATOM     16  F   UNL A   1      34.601  15.644  25.687  1.00  0.00    -0.167 F 
ATOM     17  F   UNL A   1      32.755  16.662  26.227  1.00  0.00    -0.167 F 
ATOM     18  F   UNL A   1      32.768  15.219  24.585  1.00  0.00    -0.167 F 
ENDBRANCH  13  15
ENDBRANCH  12  13
ENDBRANCH   7  12
ENDBRANCH   3   6
ENDBRANCH   1   2
BRANCH   1  19
ATOM     19  C   UNL A   1      38.157  19.812  24.895  1.00  0.00     0.042 C 
BRANCH  19  20
ATOM     20  C   UNL A   1      39.056  19.780  26.133  1.00  0.00     0.118 C 
BRANCH  20  21
ATOM     21  N   UNL A   1      40.336  19.130  25.878  1.00  0.00    -0.352 N 
ATOM     22  C   UNL A   1      41.611  19.627  25.931  1.00  0.00     0.251 C 
ATOM     23  H   UNL A   1      40.273  18.181  25.627  1.00  0.00     0.163 HD
ATOM     24  O   UNL A   1      42.540  18.954  25.485  1.00  0.00    -0.269 OA
BRANCH  22  25
ATOM     25  C   UNL A   1      41.889  20.958  26.509  1.00  0.00     0.039 A 
ATOM     26  C   UNL A   1      42.245  22.001  25.647  1.00  0.00     0.014 A 
ATOM     27  C   UNL A   1      41.866  21.172  27.890  1.00  0.00     0.014 A 
ATOM     28  C   UNL A   1      42.534  23.265  26.166  1.00  0.00     0.010 A 
ATOM     29  C   UNL A   1      42.087  22.450  28.400  1.00  0.00     0.010 A 
ATOM     30  C   UNL A   1      42.437  23.506  27.546  1.00  0.00    -0.014 A 
BRANCH  30  31
ATOM     31  C   UNL A   1      42.719  24.850  28.109  1.00  0.00     0.031 A 
ATOM     32  C   UNL A   1      44.114  25.214  28.539  1.00  0.00     0.074 A 
ATOM     33  C   UNL A   1      41.711  25.727  28.278  1.00  0.00     0.049 A 
ATOM     34  N   UNL A   1      44.547  26.316  29.098  1.00  0.00    -0.248 NA
ATOM     35  C   UNL A   1      45.155  24.193  28.340  1.00  0.00     0.031 C 
ATOM     36  C   UNL A   1      40.307  25.480  27.946  1.00  0.00     0.029 A 
ATOM     37  N   UNL A   1      41.714  27.004  28.782  1.00  0.00    -0.354 N 
ATOM     38  C   UNL A   1      45.901  26.114  29.333  1.00  0.00     0.074 A 
ATOM     39  C   UNL A   1      46.208  24.768  28.901  1.00  0.00     0.031 C 
ATOM     40  C   UNL A   1      39.589  26.577  28.231  1.00  0.00     0.029 A 
ATOM     41  C   UNL A   1      40.473  27.592  28.795  1.00  0.00     0.049 A 
ATOM     42  H   UNL A   1      42.527  27.455  29.102  1.00  0.00     0.167 HD
ATOM     43  C   UNL A   1      46.812  26.978  29.841  1.00  0.00     0.037 A 
ATOM     44  C   UNL A   1      40.092  28.813  29.214  1.00  0.00     0.037 A 
ATOM     45  C   UNL A   1      46.513  28.329  30.241  1.00  0.00     0.049 A 
ATOM     46  C   UNL A   1      41.125  29.761  29.755  1.00  0.00     0.074 A 
ATOM     47  C   UNL A   1      47.376  29.301  30.715  1.00  0.00     0.029 A 
ATOM     48  N   UNL A   1      45.249  28.898  30.211  1.00  0.00    -0.354 N 
ATOM     49  N   UNL A   1      42.412  29.578  29.916  1.00  0.00    -0.248 NA
ATOM     50  C   UNL A   1      40.651  31.092  30.163  1.00  0.00     0.031 C 
ATOM     51  C   UNL A   1      46.629  30.448  31.002  1.00  0.00     0.029 A 
ATOM     52  C   UNL A   1      45.306  30.204  30.669  1.00  0.00     0.049 A 
ATOM     53  H   UNL A   1      44.431  28.441  29.908  1.00  0.00     0.167 HD
ATOM     54  C   UNL A   1      42.907  30.775  30.416  1.00  0.00     0.074 A 
ATOM     55  C   UNL A   1      41.783  31.682  30.518  1.00  0.00     0.031 C 
ATOM     56  C   UNL A   1      44.179  31.095  30.759  1.00  0.00     0.037 A 
BRANCH  43  57
ATOM     57  C   UNL A   1      48.223  26.487  29.986  1.00  0.00     0.057 A 
ATOM     58  C   UNL A   1      49.178  26.678  28.979  1.00  0.00     0.134 A 
ATOM     59  C   UNL A   1      48.638  25.834  31.153  1.00  0.00     0.134 A 
ATOM     60  F   UNL A   1      48.842  27.285  27.829  1.00  0.00    -0.206 F 
ATOM     61  C   UNL A   1      50.488  26.213  29.115  1.00  0.00     0.040 A 
ATOM     62  C   UNL A   1      49.951  25.389  31.313  1.00  0.00     0.040 A 
ATOM     63  F   UNL A   1      47.777  25.624  32.159  1.00  0.00    -0.206 F 
ATOM     64  C   UNL A   1      50.878  25.571  30.288  1.00  0.00     0.006 A 
ENDBRANCH  43  57
BRANCH  44  65
ATOM     65  C   UNL A   1      38.670  29.223  29.106  1.00  0.00     0.057 A 
ATOM     66  C   UNL A   1      37.823  29.185  30.221  1.00  0.00     0.134 A 
ATOM     67  C   UNL A   1      38.123  29.656  27.893  1.00  0.00     0.134 A 
ATOM     68  F   UNL A   1      38.287  28.762  31.406  1.00  0.00    -0.206 F 
ATOM     69  C   UNL A   1      36.478  29.544  30.129  1.00  0.00     0.040 A 
ATOM     70  C   UNL A   1      36.785  30.039  27.792  1.00  0.00     0.040 A 
ATOM     71  F   UNL A   1      38.884  29.722  26.791  1.00  0.00    -0.206 F 
ATOM     72  C   UNL A   1      35.956  29.976  28.911  1.00  0.00     0.006 A 
ENDBRANCH  44  65
BRANCH  56  73
ATOM     73  C   UNL A   1      44.423  32.494  31.243  1.00  0.00     0.057 A 
ATOM     74  C   UNL A   1      44.719  33.540  30.362  1.00  0.00     0.134 A 
ATOM     75  C   UNL A   1      44.341  32.799  32.608  1.00  0.00     0.134 A 
ATOM     76  F   UNL A   1      44.827  33.311  29.044  1.00  0.00    -0.206 F 
ATOM     77  C   UNL A   1      44.951  34.837  30.822  1.00  0.00     0.040 A 
ATOM     78  C   UNL A   1      44.545  34.097  33.078  1.00  0.00     0.040 A 
ATOM     79  F   UNL A   1      44.053  31.843  33.504  1.00  0.00    -0.206 F 
ATOM     80  C   UNL A   1      44.858  35.119  32.185  1.00  0.00     0.006 A 
ENDBRANCH  56  73
ENDBRANCH  30  31
ENDBRANCH  22  25
ENDBRANCH  20  21
ENDBRANCH  19  20
ENDBRANCH   1  19
TORSDOF 13
ENDMDL
MODEL 2
REMARK VINA RESULT:     -10.9      4.892      9.260
REMARK SMILES C[C@@H](Oc1cncc(C(=O)NCCCNC(=O)c2ccc(-c3c4nc(c(-c5c(F)cccc5F)c5ccc([nH]5)c(-c5c(F)cccc5F)c5nc(c(-c6c(F)cccc6F)c6ccc3[nH]6)C=C5)C=C4)cc2)n1)C(F)(F)F
REMARK SMILES IDX 12 1 11 2 9 3 10 4 8 6 4 7 5 8 72 9 6 10 7 11 3 12 2 13 1 14
REMARK SMILES IDX 73 15 74 16 75 17 76 18 13 19 14 20 15 21 16 22 17 24 18 25
REMARK SMILES IDX 19 26 71 27 20 28 70 29 21 30 22 31 23 32 64 33 24 34 69 35
REMARK SMILES IDX 63 36 65 37 25 38 68 39 62 40 61 41 26 43 52 44 35 45 51 46
REMARK SMILES IDX 36 47 39 48 50 49 66 50 37 51 38 52 49 54 67 55 40 56 27 57
REMARK SMILES IDX 28 58 33 59 29 60 30 61 32 62 34 63 31 64 53 65 54 66 59 67
REMARK SMILES IDX 55 68 56 69 58 70 60 71 57 72 41 73 42 74 47 75 43 76 44 77
REMARK SMILES IDX 46 78 48 79 45 80
REMARK H PARENT 11 5 15 23 65 42 39 53
REMARK Flexibility Score: inf
ROOT
ATOM      1  C   UNL A   1      31.962  28.275  27.239  1.00  0.00     0.118 C 
ENDROOT
BRANCH   1   2
ATOM      2  N   UNL A   1      31.187  27.050  27.151  1.00  0.00    -0.351 N 
ATOM      3  C   UNL A   1      30.561  26.435  26.095  1.00  0.00     0.271 C 
ATOM      4  O   UNL A   1      29.926  25.407  26.342  1.00  0.00    -0.267 OA
ATOM      5  H   UNL A   1      31.093  26.572  28.007  1.00  0.00     0.163 HD
BRANCH   3   6
ATOM      6  C   UNL A   1      30.652  26.909  24.683  1.00  0.00     0.150 A 
ATOM      7  C   UNL A   1      30.406  28.489  23.047  1.00  0.00     0.233 A 
ATOM      8  C   UNL A   1      31.166  27.713  22.180  1.00  0.00     0.179 A 
ATOM      9  N   UNL A   1      30.127  28.108  24.313  1.00  0.00    -0.205 NA
ATOM     10  N   UNL A   1      31.629  26.488  22.514  1.00  0.00    -0.257 NA
ATOM     11  C   UNL A   1      31.364  26.110  23.791  1.00  0.00     0.145 A 
BRANCH   7  12
ATOM     12  O   UNL A   1      30.081  29.776  22.713  1.00  0.00    -0.464 OA
BRANCH  12  13
ATOM     13  C   UNL A   1      28.662  30.028  22.773  1.00  0.00     0.277 C 
ATOM     14  C   UNL A   1      28.115  30.174  21.351  1.00  0.00     0.063 C 
BRANCH  13  15
ATOM     15  C   UNL A   1      28.420  31.329  23.545  1.00  0.00     0.425 C 
ATOM     16  F   UNL A   1      27.288  31.245  24.286  1.00  0.00    -0.167 F 
ATOM     17  F   UNL A   1      29.433  31.598  24.398  1.00  0.00    -0.167 F 
ATOM     18  F   UNL A   1      28.280  32.387  22.716  1.00  0.00    -0.167 F 
ENDBRANCH  13  15
ENDBRANCH  12  13
ENDBRANCH   7  12
ENDBRANCH   3   6
ENDBRANCH   1   2
BRANCH   1  19
ATOM     19  C   UNL A   1      33.421  28.031  26.867  1.00  0.00     0.042 C 
BRANCH  19  20
ATOM     20  C   UNL A   1      34.052  29.179  26.077  1.00  0.00     0.118 C 
BRANCH  20  21
ATOM     21  N   UNL A   1      33.847  30.475  26.713  1.00  0.00    -0.352 N 
ATOM     22  C   UNL A   1      34.518  31.076  27.744  1.00  0.00     0.251 C 
ATOM     23  H   UNL A   1      33.104  31.003  26.341  1.00  0.00     0.163 HD
ATOM     24  O   UNL A   1      34.053  32.094  28.256  1.00  0.00    -0.269 OA
BRANCH  22  25
ATOM     25  C   UNL A   1      35.790  30.520  28.253  1.00  0.00     0.039 A 
ATOM     26  C   UNL A   1      35.757  29.716  29.398  1.00  0.00     0.014 A 
ATOM     27  C   UNL A   1      37.014  30.834  27.657  1.00  0.00     0.014 A 
ATOM     28  C   UNL A   1      36.944  29.194  29.916  1.00  0.00     0.010 A 
ATOM     29  C   UNL A   1      38.189  30.257  28.134  1.00  0.00     0.010 A 
ATOM     30  C   UNL A   1      38.169  29.443  29.276  1.00  0.00    -0.014 A 
BRANCH  30  31
ATOM     31  C   UNL A   1      39.436  28.875  29.802  1.00  0.00     0.031 A 
ATOM     32  C   UNL A   1      40.075  29.461  31.031  1.00  0.00     0.074 A 
ATOM     33  C   UNL A   1      40.037  27.864  29.146  1.00  0.00     0.049 A 
ATOM     34  N   UNL A   1      41.203  29.136  31.612  1.00  0.00    -0.248 NA
ATOM     35  C   UNL A   1      39.366  30.576  31.678  1.00  0.00     0.031 C 
ATOM     36  C   UNL A   1      39.544  27.239  27.917  1.00  0.00     0.029 A 
ATOM     37  N   UNL A   1      41.200  27.189  29.420  1.00  0.00    -0.354 N 
ATOM     38  C   UNL A   1      41.346  30.018  32.677  1.00  0.00     0.074 A 
ATOM     39  C   UNL A   1      40.217  30.920  32.634  1.00  0.00     0.031 C 
ATOM     40  C   UNL A   1      40.386  26.258  27.556  1.00  0.00     0.029 A 
ATOM     41  C   UNL A   1      41.491  26.204  28.509  1.00  0.00     0.049 A 
ATOM     42  H   UNL A   1      41.771  27.391  30.195  1.00  0.00     0.167 HD
ATOM     43  C   UNL A   1      42.319  30.058  33.619  1.00  0.00     0.037 A 
ATOM     44  C   UNL A   1      42.532  25.353  28.448  1.00  0.00     0.037 A 
ATOM     45  C   UNL A   1      43.427  29.139  33.681  1.00  0.00     0.049 A 
ATOM     46  C   UNL A   1      43.587  25.404  29.517  1.00  0.00     0.074 A 
ATOM     47  C   UNL A   1      44.433  29.061  34.628  1.00  0.00     0.029 A 
ATOM     48  N   UNL A   1      43.670  28.136  32.756  1.00  0.00    -0.354 N 
ATOM     49  N   UNL A   1      43.679  26.203  30.551  1.00  0.00    -0.248 NA
ATOM     50  C   UNL A   1      44.679  24.425  29.414  1.00  0.00     0.031 C 
ATOM     51  C   UNL A   1      45.304  28.031  34.258  1.00  0.00     0.029 A 
ATOM     52  C   UNL A   1      44.817  27.441  33.102  1.00  0.00     0.049 A 
ATOM     53  H   UNL A   1      43.110  27.944  31.969  1.00  0.00     0.167 HD
ATOM     54  C   UNL A   1      44.820  25.807  31.237  1.00  0.00     0.074 A 
ATOM     55  C   UNL A   1      45.379  24.687  30.509  1.00  0.00     0.031 C 
ATOM     56  C   UNL A   1      45.356  26.325  32.369  1.00  0.00     0.037 A 
BRANCH  43  57
ATOM     57  C   UNL A   1      42.222  31.130  34.665  1.00  0.00     0.057 A 
ATOM     58  C   UNL A   1      41.490  30.945  35.846  1.00  0.00     0.134 A 
ATOM     59  C   UNL A   1      42.884  32.352  34.501  1.00  0.00     0.134 A 
ATOM     60  F   UNL A   1      40.820  29.801  36.059  1.00  0.00    -0.206 F 
ATOM     61  C   UNL A   1      41.397  31.948  36.812  1.00  0.00     0.040 A 
ATOM     62  C   UNL A   1      42.821  33.353  35.473  1.00  0.00     0.040 A 
ATOM     63  F   UNL A   1      43.608  32.593  33.398  1.00  0.00    -0.206 F 
ATOM     64  C   UNL A   1      42.069  33.154  36.629  1.00  0.00     0.006 A 
ENDBRANCH  43  57
BRANCH  44  65
ATOM     65  C   UNL A   1      42.610  24.354  27.353  1.00  0.00     0.057 A 
ATOM     66  C   UNL A   1      42.090  23.065  27.517  1.00  0.00     0.134 A 
ATOM     67  C   UNL A   1      43.207  24.659  26.125  1.00  0.00     0.134 A 
ATOM     68  F   UNL A   1      41.522  22.709  28.679  1.00  0.00    -0.206 F 
ATOM     69  C   UNL A   1      42.177  22.108  26.506  1.00  0.00     0.040 A 
ATOM     70  C   UNL A   1      43.281  23.719  25.096  1.00  0.00     0.040 A 
ATOM     71  F   UNL A   1      43.717  25.879  25.904  1.00  0.00    -0.206 F 
ATOM     72  C   UNL A   1      42.772  22.435  25.288  1.00  0.00     0.006 A 
ENDBRANCH  44  65
BRANCH  56  73
ATOM     73  C   UNL A   1      46.590  25.660  32.905  1.00  0.00     0.057 A 
ATOM     74  C   UNL A   1      47.873  26.044  32.496  1.00  0.00     0.134 A 
ATOM     75  C   UNL A   1      46.492  24.637  33.857  1.00  0.00     0.134 A 
ATOM     76  F   UNL A   1      48.035  27.007  31.576  1.00  0.00    -0.206 F 
ATOM     77  C   UNL A   1      49.015  25.416  32.995  1.00  0.00     0.040 A 
ATOM     78  C   UNL A   1      47.627  24.020  34.383  1.00  0.00     0.040 A 
ATOM     79  F   UNL A   1      45.292  24.229  34.296  1.00  0.00    -0.206 F 
ATOM     80  C   UNL A   1      48.893  24.404  33.946  1.00  0.00     0.006 A 
ENDBRANCH  56  73
ENDBRANCH  30  31
ENDBRANCH  22  25
ENDBRANCH  20  21
ENDBRANCH  19  20
ENDBRANCH   1  19
TORSDOF 13
ENDMDL
MODEL 3
REMARK VINA RESULT:     -10.9      4.414      6.763
REMARK SMILES C[C@@H](Oc1cncc(C(=O)NCCCNC(=O)c2ccc(-c3c4nc(c(-c5c(F)cccc5F)c5ccc([nH]5)c(-c5c(F)cccc5F)c5nc(c(-c6c(F)cccc6F)c6ccc3[nH]6)C=C5)C=C4)cc2)n1)C(F)(F)F
REMARK SMILES IDX 12 1 11 2 9 3 10 4 8 6 4 7 5 8 72 9 6 10 7 11 3 12 2 13 1 14
REMARK SMILES IDX 73 15 74 16 75 17 76 18 13 19 14 20 15 21 16 22 17 24 18 25
REMARK SMILES IDX 19 26 71 27 20 28 70 29 21 30 22 31 23 32 64 33 24 34 69 35
REMARK SMILES IDX 63 36 65 37 25 38 68 39 62 40 61 41 26 43 52 44 35 45 51 46
REMARK SMILES IDX 36 47 39 48 50 49 66 50 37 51 38 52 49 54 67 55 40 56 27 57
REMARK SMILES IDX 28 58 33 59 29 60 30 61 32 62 34 63 31 64 53 65 54 66 59 67
REMARK SMILES IDX 55 68 56 69 58 70 60 71 57 72 41 73 42 74 47 75 43 76 44 77
REMARK SMILES IDX 46 78 48 79 45 80
REMARK H PARENT 11 5 15 23 65 42 39 53
REMARK Flexibility Score: inf
ROOT
ATOM      1  C   UNL A   1      42.454  19.996  27.506  1.00  0.00     0.118 C 
ENDROOT
BRANCH   1   2
ATOM      2  N   UNL A   1      42.844  19.032  26.492  1.00  0.00    -0.351 N 
ATOM      3  C   UNL A   1      43.628  19.148  25.370  1.00  0.00     0.271 C 
ATOM      4  O   UNL A   1      43.741  18.147  24.659  1.00  0.00    -0.267 OA
ATOM      5  H   UNL A   1      42.479  18.129  26.634  1.00  0.00     0.163 HD
BRANCH   3   6
ATOM      6  C   UNL A   1      44.377  20.385  25.004  1.00  0.00     0.150 A 
ATOM      7  C   UNL A   1      44.528  22.636  24.623  1.00  0.00     0.233 A 
ATOM      8  C   UNL A   1      45.915  22.549  24.638  1.00  0.00     0.179 A 
ATOM      9  N   UNL A   1      43.727  21.563  24.800  1.00  0.00    -0.205 NA
ATOM     10  N   UNL A   1      46.569  21.374  24.767  1.00  0.00    -0.257 NA
ATOM     11  C   UNL A   1      45.767  20.296  24.961  1.00  0.00     0.145 A 
BRANCH   7  12
ATOM     12  O   UNL A   1      43.916  23.861  24.632  1.00  0.00    -0.464 OA
BRANCH  12  13
ATOM     13  C   UNL A   1      44.322  24.680  25.748  1.00  0.00     0.277 C 
ATOM     14  C   UNL A   1      43.544  24.256  26.995  1.00  0.00     0.063 C 
BRANCH  13  15
ATOM     15  C   UNL A   1      44.008  26.145  25.428  1.00  0.00     0.425 C 
ATOM     16  F   UNL A   1      42.882  26.244  24.680  1.00  0.00    -0.167 F 
ATOM     17  F   UNL A   1      43.803  26.868  26.551  1.00  0.00    -0.167 F 
ATOM     18  F   UNL A   1      45.007  26.733  24.731  1.00  0.00    -0.167 F 
ENDBRANCH  13  15
ENDBRANCH  12  13
ENDBRANCH   7  12
ENDBRANCH   3   6
ENDBRANCH   1   2
BRANCH   1  19
ATOM     19  C   UNL A   1      41.052  20.536  27.241  1.00  0.00     0.042 C 
BRANCH  19  20
ATOM     20  C   UNL A   1      41.040  21.848  26.454  1.00  0.00     0.118 C 
BRANCH  20  21
ATOM     21  N   UNL A   1      39.745  22.121  25.842  1.00  0.00    -0.352 N 
ATOM     22  C   UNL A   1      38.877  23.164  26.026  1.00  0.00     0.251 C 
ATOM     23  H   UNL A   1      39.446  21.445  25.192  1.00  0.00     0.163 HD
ATOM     24  O   UNL A   1      37.743  23.098  25.552  1.00  0.00    -0.269 OA
BRANCH  22  25
ATOM     25  C   UNL A   1      39.278  24.365  26.788  1.00  0.00     0.039 A 
ATOM     26  C   UNL A   1      38.870  24.478  28.122  1.00  0.00     0.014 A 
ATOM     27  C   UNL A   1      39.992  25.406  26.187  1.00  0.00     0.014 A 
ATOM     28  C   UNL A   1      39.215  25.612  28.862  1.00  0.00     0.010 A 
ATOM     29  C   UNL A   1      40.394  26.503  26.946  1.00  0.00     0.010 A 
ATOM     30  C   UNL A   1      39.999  26.625  28.286  1.00  0.00    -0.014 A 
BRANCH  30  31
ATOM     31  C   UNL A   1      40.393  27.824  29.068  1.00  0.00     0.031 A 
ATOM     32  C   UNL A   1      41.749  27.894  29.714  1.00  0.00     0.074 A 
ATOM     33  C   UNL A   1      39.513  28.829  29.236  1.00  0.00     0.049 A 
ATOM     34  N   UNL A   1      42.256  28.832  30.475  1.00  0.00    -0.248 NA
ATOM     35  C   UNL A   1      42.645  26.747  29.499  1.00  0.00     0.031 C 
ATOM     36  C   UNL A   1      38.151  28.861  28.701  1.00  0.00     0.029 A 
ATOM     37  N   UNL A   1      39.632  30.016  29.915  1.00  0.00    -0.354 N 
ATOM     38  C   UNL A   1      43.518  28.380  30.843  1.00  0.00     0.074 A 
ATOM     39  C   UNL A   1      43.680  27.065  30.263  1.00  0.00     0.031 C 
ATOM     40  C   UNL A   1      37.569  30.019  29.051  1.00  0.00     0.029 A 
ATOM     41  C   UNL A   1      38.504  30.797  29.859  1.00  0.00     0.049 A 
ATOM     42  H   UNL A   1      40.449  30.283  30.394  1.00  0.00     0.167 HD
ATOM     43  C   UNL A   1      44.464  29.012  31.578  1.00  0.00     0.037 A 
ATOM     44  C   UNL A   1      38.251  32.003  30.400  1.00  0.00     0.037 A 
ATOM     45  C   UNL A   1      44.313  30.334  32.129  1.00  0.00     0.049 A 
ATOM     46  C   UNL A   1      39.325  32.692  31.195  1.00  0.00     0.074 A 
ATOM     47  C   UNL A   1      45.234  31.083  32.840  1.00  0.00     0.029 A 
ATOM     48  N   UNL A   1      43.166  31.104  32.026  1.00  0.00    -0.354 N 
ATOM     49  N   UNL A   1      40.534  32.278  31.484  1.00  0.00    -0.248 NA
ATOM     50  C   UNL A   1      38.999  34.023  31.728  1.00  0.00     0.031 C 
ATOM     51  C   UNL A   1      44.632  32.295  33.195  1.00  0.00     0.029 A 
ATOM     52  C   UNL A   1      43.350  32.317  32.670  1.00  0.00     0.049 A 
ATOM     53  H   UNL A   1      42.341  30.831  31.562  1.00  0.00     0.167 HD
ATOM     54  C   UNL A   1      41.123  33.307  32.209  1.00  0.00     0.074 A 
ATOM     55  C   UNL A   1      40.144  34.369  32.302  1.00  0.00     0.031 C 
ATOM     56  C   UNL A   1      42.366  33.365  32.748  1.00  0.00     0.037 A 
BRANCH  43  57
ATOM     57  C   UNL A   1      45.750  28.278  31.823  1.00  0.00     0.057 A 
ATOM     58  C   UNL A   1      45.927  27.450  32.939  1.00  0.00     0.134 A 
ATOM     59  C   UNL A   1      46.817  28.383  30.922  1.00  0.00     0.134 A 
ATOM     60  F   UNL A   1      44.947  27.317  33.848  1.00  0.00    -0.206 F 
ATOM     61  C   UNL A   1      47.127  26.775  33.166  1.00  0.00     0.040 A 
ATOM     62  C   UNL A   1      48.013  27.692  31.124  1.00  0.00     0.040 A 
ATOM     63  F   UNL A   1      46.714  29.153  29.829  1.00  0.00    -0.206 F 
ATOM     64  C   UNL A   1      48.173  26.891  32.254  1.00  0.00     0.006 A 
ENDBRANCH  43  57
BRANCH  44  65
ATOM     65  C   UNL A   1      36.937  32.654  30.178  1.00  0.00     0.057 A 
ATOM     66  C   UNL A   1      35.840  32.358  30.997  1.00  0.00     0.134 A 
ATOM     67  C   UNL A   1      36.742  33.578  29.146  1.00  0.00     0.134 A 
ATOM     68  F   UNL A   1      35.962  31.467  31.991  1.00  0.00    -0.206 F 
ATOM     69  C   UNL A   1      34.592  32.944  30.785  1.00  0.00     0.040 A 
ATOM     70  C   UNL A   1      35.505  34.189  28.936  1.00  0.00     0.040 A 
ATOM     71  F   UNL A   1      37.756  33.909  28.332  1.00  0.00    -0.206 F 
ATOM     72  C   UNL A   1      34.422  33.866  29.753  1.00  0.00     0.006 A 
ENDBRANCH  44  65
BRANCH  56  73
ATOM     73  C   UNL A   1      42.743  34.634  33.456  1.00  0.00     0.057 A 
ATOM     74  C   UNL A   1      43.261  35.738  32.768  1.00  0.00     0.134 A 
ATOM     75  C   UNL A   1      42.564  34.757  34.840  1.00  0.00     0.134 A 
ATOM     76  F   UNL A   1      43.470  35.678  31.444  1.00  0.00    -0.206 F 
ATOM     77  C   UNL A   1      43.614  36.911  33.435  1.00  0.00     0.040 A 
ATOM     78  C   UNL A   1      42.889  35.934  35.514  1.00  0.00     0.040 A 
ATOM     79  F   UNL A   1      42.064  33.739  35.555  1.00  0.00    -0.206 F 
ATOM     80  C   UNL A   1      43.423  37.013  34.813  1.00  0.00     0.006 A 
ENDBRANCH  56  73
ENDBRANCH  30  31
ENDBRANCH  22  25
ENDBRANCH  20  21
ENDBRANCH  19  20
ENDBRANCH   1  19
TORSDOF 13
ENDMDL
