MODEL 1
REMARK VINA RESULT:     -10.3      0.000      0.000
REMARK SMILES O=C(NCCCNC(=O)[C@H]1CC2(CCN(S(=O)(=O)N3CCOCC3)CC2)C[NH2+]1)c1ccc(-c2c3nc(c(-c4c(F)cccc4F)c4ccc([nH]4)c(-c4c(F)cccc4F)c4nc(c(-c5c(F)cccc5F)c5ccc2[nH]5)C=C4)C=C3)cc1
REMARK SMILES IDX 5 1 4 2 3 3 1 4 2 5 29 7 30 8 82 9 31 10 81 11 32 12 33 13
REMARK SMILES IDX 34 14 75 15 35 16 80 17 74 18 76 19 36 20 79 21 73 22 72 23
REMARK SMILES IDX 37 25 63 26 46 27 62 28 47 29 50 30 61 31 77 32 48 33 49 34
REMARK SMILES IDX 60 36 78 37 51 38 38 39 39 40 44 41 40 42 41 43 43 44 45 45
REMARK SMILES IDX 42 46 64 47 65 48 70 49 66 50 67 51 69 52 71 53 68 54 52 55
REMARK SMILES IDX 53 56 58 57 54 58 55 59 57 60 59 61 56 62 6 63 7 64 8 65
REMARK SMILES IDX 9 67 10 68 11 69 28 70 12 71 27 72 13 75 26 76 14 77 25 78
REMARK SMILES IDX 15 79 16 80 17 81 18 82 19 83 20 84 24 85 21 86 23 87 22 88
REMARK H PARENT 3 6 76 24 50 35 7 66 28 73 28 74
REMARK Flexibility Score: inf
ROOT
ATOM      1  C   UNL A   1      32.937  36.935  31.345  1.00  0.00     0.042 C 
ENDROOT
BRANCH   1   2
ATOM      2  C   UNL A   1      33.627  36.472  30.062  1.00  0.00     0.118 C 
BRANCH   2   3
ATOM      3  N   UNL A   1      32.822  35.531  29.292  1.00  0.00    -0.352 N 
ATOM      4  O   UNL A   1      32.375  33.804  27.920  1.00  0.00    -0.269 OA
ATOM      5  C   UNL A   1      33.174  34.360  28.668  1.00  0.00     0.251 C 
ATOM      6  H   UNL A   1      31.873  35.775  29.205  1.00  0.00     0.163 HD
BRANCH   5   7
ATOM      7  C   UNL A   1      34.514  33.776  28.876  1.00  0.00     0.039 A 
ATOM      8  C   UNL A   1      34.797  33.028  30.019  1.00  0.00     0.014 A 
ATOM      9  C   UNL A   1      35.495  33.955  27.896  1.00  0.00     0.014 A 
ATOM     10  C   UNL A   1      36.096  32.594  30.258  1.00  0.00     0.010 A 
ATOM     11  C   UNL A   1      36.777  33.436  28.094  1.00  0.00     0.010 A 
ATOM     12  C   UNL A   1      37.097  32.778  29.291  1.00  0.00    -0.014 A 
BRANCH  12  13
ATOM     13  C   UNL A   1      38.453  32.221  29.529  1.00  0.00     0.031 A 
ATOM     14  C   UNL A   1      39.514  33.026  30.224  1.00  0.00     0.074 A 
ATOM     15  C   UNL A   1      38.716  30.964  29.124  1.00  0.00     0.049 A 
ATOM     16  N   UNL A   1      40.748  32.690  30.510  1.00  0.00    -0.248 NA
ATOM     17  C   UNL A   1      39.150  34.387  30.648  1.00  0.00     0.031 C 
ATOM     18  C   UNL A   1      37.768  30.087  28.431  1.00  0.00     0.029 A 
ATOM     19  N   UNL A   1      39.849  30.200  29.241  1.00  0.00    -0.354 N 
ATOM     20  C   UNL A   1      41.310  33.798  31.133  1.00  0.00     0.074 A 
ATOM     21  C   UNL A   1      40.294  34.828  31.152  1.00  0.00     0.031 C 
ATOM     22  C   UNL A   1      38.345  28.895  28.220  1.00  0.00     0.029 A 
ATOM     23  C   UNL A   1      39.722  28.945  28.697  1.00  0.00     0.049 A 
ATOM     24  H   UNL A   1      40.674  30.521  29.672  1.00  0.00     0.167 HD
ATOM     25  C   UNL A   1      42.557  33.937  31.647  1.00  0.00     0.037 A 
ATOM     26  C   UNL A   1      40.619  27.952  28.571  1.00  0.00     0.037 A 
ATOM     27  C   UNL A   1      43.563  32.905  31.622  1.00  0.00     0.049 A 
ATOM     28  C   UNL A   1      42.009  28.152  29.103  1.00  0.00     0.074 A 
ATOM     29  C   UNL A   1      44.844  32.938  32.145  1.00  0.00     0.029 A 
ATOM     30  N   UNL A   1      43.407  31.658  31.032  1.00  0.00    -0.354 N 
ATOM     31  N   UNL A   1      42.513  29.189  29.726  1.00  0.00    -0.248 NA
ATOM     32  C   UNL A   1      42.953  27.044  28.913  1.00  0.00     0.031 C 
ATOM     33  C   UNL A   1      45.484  31.737  31.819  1.00  0.00     0.029 A 
ATOM     34  C   UNL A   1      44.579  30.927  31.150  1.00  0.00     0.049 A 
ATOM     35  H   UNL A   1      42.585  31.340  30.593  1.00  0.00     0.167 HD
ATOM     36  C   UNL A   1      43.825  28.849  30.027  1.00  0.00     0.074 A 
ATOM     37  C   UNL A   1      44.031  27.503  29.533  1.00  0.00     0.031 C 
ATOM     38  C   UNL A   1      44.772  29.586  30.657  1.00  0.00     0.037 A 
BRANCH  25  39
ATOM     39  C   UNL A   1      42.915  35.262  32.259  1.00  0.00     0.057 A 
ATOM     40  C   UNL A   1      43.568  36.266  31.533  1.00  0.00     0.134 A 
ATOM     41  C   UNL A   1      42.560  35.556  33.583  1.00  0.00     0.134 A 
ATOM     42  F   UNL A   1      43.943  36.052  30.262  1.00  0.00    -0.206 F 
ATOM     43  C   UNL A   1      43.880  37.501  32.107  1.00  0.00     0.040 A 
ATOM     44  C   UNL A   1      42.840  36.796  34.159  1.00  0.00     0.040 A 
ATOM     45  F   UNL A   1      41.924  34.645  34.336  1.00  0.00    -0.206 F 
ATOM     46  C   UNL A   1      43.509  37.771  33.422  1.00  0.00     0.006 A 
ENDBRANCH  25  39
BRANCH  26  47
ATOM     47  C   UNL A   1      40.230  26.685  27.901  1.00  0.00     0.057 A 
ATOM     48  C   UNL A   1      40.636  26.401  26.593  1.00  0.00     0.134 A 
ATOM     49  C   UNL A   1      39.445  25.726  28.556  1.00  0.00     0.134 A 
ATOM     50  F   UNL A   1      41.376  27.287  25.909  1.00  0.00    -0.206 F 
ATOM     51  C   UNL A   1      40.260  25.221  25.951  1.00  0.00     0.040 A 
ATOM     52  C   UNL A   1      39.088  24.527  27.938  1.00  0.00     0.040 A 
ATOM     53  F   UNL A   1      39.032  25.933  29.815  1.00  0.00    -0.206 F 
ATOM     54  C   UNL A   1      39.489  24.276  26.628  1.00  0.00     0.006 A 
ENDBRANCH  26  47
BRANCH  38  55
ATOM     55  C   UNL A   1      46.108  28.936  30.885  1.00  0.00     0.057 A 
ATOM     56  C   UNL A   1      47.076  28.850  29.877  1.00  0.00     0.134 A 
ATOM     57  C   UNL A   1      46.436  28.412  32.143  1.00  0.00     0.134 A 
ATOM     58  F   UNL A   1      46.821  29.316  28.646  1.00  0.00    -0.206 F 
ATOM     59  C   UNL A   1      48.313  28.243  30.103  1.00  0.00     0.040 A 
ATOM     60  C   UNL A   1      47.681  27.833  32.390  1.00  0.00     0.040 A 
ATOM     61  F   UNL A   1      45.559  28.468  33.156  1.00  0.00    -0.206 F 
ATOM     62  C   UNL A   1      48.621  27.739  31.366  1.00  0.00     0.006 A 
ENDBRANCH  38  55
ENDBRANCH  12  13
ENDBRANCH   5   7
ENDBRANCH   2   3
ENDBRANCH   1   2
BRANCH   1  63
ATOM     63  C   UNL A   1      33.578  36.386  32.615  1.00  0.00     0.118 C 
BRANCH  63  64
ATOM     64  N   UNL A   1      33.224  35.000  32.840  1.00  0.00    -0.351 N 
ATOM     65  C   UNL A   1      33.925  33.931  33.294  1.00  0.00     0.278 C 
ATOM     66  H   UNL A   1      32.288  34.792  32.621  1.00  0.00     0.163 HD
ATOM     67  O   UNL A   1      33.320  32.851  33.266  1.00  0.00    -0.268 OA
BRANCH  65  68
ATOM     68  C   UNL A   1      35.320  34.014  33.929  1.00  0.00     0.273 C 
ATOM     69  C   UNL A   1      35.876  32.602  34.100  1.00  0.00     0.088 C 
ATOM     70  N   UNL A   1      36.373  34.658  33.123  1.00  0.00    -0.336 N 
ATOM     71  C   UNL A   1      37.404  32.771  34.181  1.00  0.00     0.028 C 
ATOM     72  C   UNL A   1      37.639  34.216  33.717  1.00  0.00     0.268 C 
ATOM     73  H   UNL A   1      36.291  35.673  33.172  1.00  0.00     0.346 HD
ATOM     74  H   UNL A   1      36.307  34.404  32.137  1.00  0.00     0.346 HD
ATOM     75  C   UNL A   1      38.080  31.777  33.217  1.00  0.00     0.030 C 
ATOM     76  C   UNL A   1      37.908  32.588  35.637  1.00  0.00     0.030 C 
ATOM     77  C   UNL A   1      38.049  30.378  33.801  1.00  0.00     0.104 C 
ATOM     78  C   UNL A   1      38.003  31.128  36.090  1.00  0.00     0.104 C 
ATOM     79  N   UNL A   1      38.752  30.311  35.096  1.00  0.00    -0.189 NA
BRANCH  79  80
ATOM     80  S   UNL A   1      40.439  30.490  35.179  1.00  0.00     0.282 S 
ATOM     81  O   UNL A   1      40.896  31.203  34.012  1.00  0.00    -0.195 OA
ATOM     82  O   UNL A   1      40.728  30.996  36.504  1.00  0.00    -0.195 OA
BRANCH  80  83
ATOM     83  N   UNL A   1      41.000  28.936  35.102  1.00  0.00    -0.184 NA
ATOM     84  C   UNL A   1      40.975  28.178  33.845  1.00  0.00     0.132 C 
ATOM     85  C   UNL A   1      41.829  28.314  36.149  1.00  0.00     0.132 C 
ATOM     86  C   UNL A   1      42.408  28.000  33.359  1.00  0.00     0.177 C 
ATOM     87  C   UNL A   1      43.210  27.895  35.621  1.00  0.00     0.177 C 
ATOM     88  O   UNL A   1      43.189  27.277  34.326  1.00  0.00    -0.379 OA
ENDBRANCH  80  83
ENDBRANCH  79  80
ENDBRANCH  65  68
ENDBRANCH  63  64
ENDBRANCH   1  63
TORSDOF 12
ENDMDL
MODEL 2
REMARK VINA RESULT:     -10.3      0.203      6.201
REMARK SMILES O=C(NCCCNC(=O)[C@H]1CC2(CCN(S(=O)(=O)N3CCOCC3)CC2)C[NH2+]1)c1ccc(-c2c3nc(c(-c4c(F)cccc4F)c4ccc([nH]4)c(-c4c(F)cccc4F)c4nc(c(-c5c(F)cccc5F)c5ccc2[nH]5)C=C4)C=C3)cc1
REMARK SMILES IDX 5 1 4 2 3 3 1 4 2 5 29 7 30 8 82 9 31 10 81 11 32 12 33 13
REMARK SMILES IDX 34 14 75 15 35 16 80 17 74 18 76 19 36 20 79 21 73 22 72 23
REMARK SMILES IDX 37 25 63 26 46 27 62 28 47 29 50 30 61 31 77 32 48 33 49 34
REMARK SMILES IDX 60 36 78 37 51 38 38 39 39 40 44 41 40 42 41 43 43 44 45 45
REMARK SMILES IDX 42 46 64 47 65 48 70 49 66 50 67 51 69 52 71 53 68 54 52 55
REMARK SMILES IDX 53 56 58 57 54 58 55 59 57 60 59 61 56 62 6 63 7 64 8 65
REMARK SMILES IDX 9 67 10 68 11 69 28 70 12 71 27 72 13 75 26 76 14 77 25 78
REMARK SMILES IDX 15 79 16 80 17 81 18 82 19 83 20 84 24 85 21 86 23 87 22 88
REMARK H PARENT 3 6 76 24 50 35 7 66 28 73 28 74
REMARK Flexibility Score: inf
ROOT
ATOM      1  C   UNL A   1      32.955  37.044  31.226  1.00  0.00     0.042 C 
ENDROOT
BRANCH   1   2
ATOM      2  C   UNL A   1      33.649  36.482  29.986  1.00  0.00     0.118 C 
BRANCH   2   3
ATOM      3  N   UNL A   1      32.825  35.520  29.261  1.00  0.00    -0.352 N 
ATOM      4  O   UNL A   1      32.344  33.750  27.958  1.00  0.00    -0.269 OA
ATOM      5  C   UNL A   1      33.158  34.325  28.674  1.00  0.00     0.251 C 
ATOM      6  H   UNL A   1      31.877  35.770  29.178  1.00  0.00     0.163 HD
BRANCH   5   7
ATOM      7  C   UNL A   1      34.496  33.738  28.885  1.00  0.00     0.039 A 
ATOM      8  C   UNL A   1      34.758  32.937  29.998  1.00  0.00     0.014 A 
ATOM      9  C   UNL A   1      35.498  33.966  27.937  1.00  0.00     0.014 A 
ATOM     10  C   UNL A   1      36.053  32.498  30.246  1.00  0.00     0.010 A 
ATOM     11  C   UNL A   1      36.778  33.443  28.139  1.00  0.00     0.010 A 
ATOM     12  C   UNL A   1      37.075  32.731  29.311  1.00  0.00    -0.014 A 
BRANCH  12  13
ATOM     13  C   UNL A   1      38.428  32.169  29.553  1.00  0.00     0.031 A 
ATOM     14  C   UNL A   1      38.789  30.784  29.098  1.00  0.00     0.074 A 
ATOM     15  C   UNL A   1      39.343  32.934  30.180  1.00  0.00     0.049 A 
ATOM     16  N   UNL A   1      39.924  30.143  29.231  1.00  0.00    -0.248 NA
ATOM     17  C   UNL A   1      37.742  30.013  28.410  1.00  0.00     0.031 C 
ATOM     18  C   UNL A   1      39.107  34.293  30.676  1.00  0.00     0.029 A 
ATOM     19  N   UNL A   1      40.653  32.688  30.500  1.00  0.00    -0.354 N 
ATOM     20  C   UNL A   1      39.725  28.892  28.658  1.00  0.00     0.074 A 
ATOM     21  C   UNL A   1      38.350  28.852  28.207  1.00  0.00     0.031 C 
ATOM     22  C   UNL A   1      40.243  34.773  31.202  1.00  0.00     0.029 A 
ATOM     23  C   UNL A   1      41.266  33.735  31.144  1.00  0.00     0.049 A 
ATOM     24  H   UNL A   1      41.110  31.841  30.289  1.00  0.00     0.167 HD
ATOM     25  C   UNL A   1      40.611  27.877  28.515  1.00  0.00     0.037 A 
ATOM     26  C   UNL A   1      42.504  33.843  31.655  1.00  0.00     0.037 A 
ATOM     27  C   UNL A   1      41.979  27.926  28.968  1.00  0.00     0.049 A 
ATOM     28  C   UNL A   1      43.449  32.683  31.530  1.00  0.00     0.074 A 
ATOM     29  C   UNL A   1      42.964  26.962  28.841  1.00  0.00     0.029 A 
ATOM     30  N   UNL A   1      42.553  28.992  29.647  1.00  0.00    -0.354 N 
ATOM     31  N   UNL A   1      43.260  31.523  30.949  1.00  0.00    -0.248 NA
ATOM     32  C   UNL A   1      44.778  32.847  32.131  1.00  0.00     0.031 C 
ATOM     33  C   UNL A   1      44.113  27.418  29.495  1.00  0.00     0.029 A 
ATOM     34  C   UNL A   1      43.868  28.696  29.972  1.00  0.00     0.049 A 
ATOM     35  H   UNL A   1      42.094  29.836  29.865  1.00  0.00     0.167 HD
ATOM     36  C   UNL A   1      44.455  30.829  31.091  1.00  0.00     0.074 A 
ATOM     37  C   UNL A   1      45.365  31.706  31.797  1.00  0.00     0.031 C 
ATOM     38  C   UNL A   1      44.767  29.578  30.672  1.00  0.00     0.037 A 
BRANCH  25  39
ATOM     39  C   UNL A   1      40.124  26.612  27.864  1.00  0.00     0.057 A 
ATOM     40  C   UNL A   1      40.476  26.266  26.553  1.00  0.00     0.134 A 
ATOM     41  C   UNL A   1      39.328  25.705  28.576  1.00  0.00     0.134 A 
ATOM     42  F   UNL A   1      41.230  27.092  25.811  1.00  0.00    -0.206 F 
ATOM     43  C   UNL A   1      40.032  25.080  25.965  1.00  0.00     0.040 A 
ATOM     44  C   UNL A   1      38.903  24.501  28.010  1.00  0.00     0.040 A 
ATOM     45  F   UNL A   1      38.961  25.966  29.840  1.00  0.00    -0.206 F 
ATOM     46  C   UNL A   1      39.249  24.190  26.697  1.00  0.00     0.006 A 
ENDBRANCH  25  39
BRANCH  26  47
ATOM     47  C   UNL A   1      42.914  35.093  32.344  1.00  0.00     0.057 A 
ATOM     48  C   UNL A   1      42.640  35.297  33.700  1.00  0.00     0.134 A 
ATOM     49  C   UNL A   1      43.591  36.112  31.661  1.00  0.00     0.134 A 
ATOM     50  F   UNL A   1      41.980  34.365  34.404  1.00  0.00    -0.206 F 
ATOM     51  C   UNL A   1      43.006  36.477  34.350  1.00  0.00     0.040 A 
ATOM     52  C   UNL A   1      43.991  37.283  32.306  1.00  0.00     0.040 A 
ATOM     53  F   UNL A   1      43.892  35.974  30.362  1.00  0.00    -0.206 F 
ATOM     54  C   UNL A   1      43.691  37.472  33.653  1.00  0.00     0.006 A 
ENDBRANCH  26  47
BRANCH  38  55
ATOM     55  C   UNL A   1      46.167  29.099  30.931  1.00  0.00     0.057 A 
ATOM     56  C   UNL A   1      46.548  28.536  32.156  1.00  0.00     0.134 A 
ATOM     57  C   UNL A   1      47.141  29.179  29.927  1.00  0.00     0.134 A 
ATOM     58  F   UNL A   1      45.669  28.445  33.166  1.00  0.00    -0.206 F 
ATOM     59  C   UNL A   1      47.853  28.094  32.382  1.00  0.00     0.040 A 
ATOM     60  C   UNL A   1      48.440  28.710  30.130  1.00  0.00     0.040 A 
ATOM     61  F   UNL A   1      46.844  29.699  28.727  1.00  0.00    -0.206 F 
ATOM     62  C   UNL A   1      48.801  28.174  31.363  1.00  0.00     0.006 A 
ENDBRANCH  38  55
ENDBRANCH  12  13
ENDBRANCH   5   7
ENDBRANCH   2   3
ENDBRANCH   1   2
BRANCH   1  63
ATOM     63  C   UNL A   1      33.541  36.533  32.538  1.00  0.00     0.118 C 
BRANCH  63  64
ATOM     64  N   UNL A   1      33.173  35.155  32.791  1.00  0.00    -0.351 N 
ATOM     65  C   UNL A   1      33.867  34.085  33.252  1.00  0.00     0.278 C 
ATOM     66  H   UNL A   1      32.231  34.956  32.589  1.00  0.00     0.163 HD
ATOM     67  O   UNL A   1      33.248  33.012  33.250  1.00  0.00    -0.268 OA
BRANCH  65  68
ATOM     68  C   UNL A   1      35.272  34.160  33.865  1.00  0.00     0.273 C 
ATOM     69  C   UNL A   1      35.791  32.744  34.103  1.00  0.00     0.088 C 
ATOM     70  N   UNL A   1      36.332  34.731  33.015  1.00  0.00    -0.336 N 
ATOM     71  C   UNL A   1      37.324  32.873  34.157  1.00  0.00     0.028 C 
ATOM     72  C   UNL A   1      37.593  34.284  33.616  1.00  0.00     0.268 C 
ATOM     73  H   UNL A   1      36.279  35.750  33.013  1.00  0.00     0.346 HD
ATOM     74  H   UNL A   1      36.245  34.429  32.044  1.00  0.00     0.346 HD
ATOM     75  C   UNL A   1      37.959  31.811  33.238  1.00  0.00     0.030 C 
ATOM     76  C   UNL A   1      37.842  32.750  35.615  1.00  0.00     0.030 C 
ATOM     77  C   UNL A   1      37.896  30.446  33.893  1.00  0.00     0.104 C 
ATOM     78  C   UNL A   1      37.902  31.314  36.141  1.00  0.00     0.104 C 
ATOM     79  N   UNL A   1      38.614  30.425  35.182  1.00  0.00    -0.189 NA
BRANCH  79  80
ATOM     80  S   UNL A   1      40.307  30.560  35.235  1.00  0.00     0.282 S 
ATOM     81  O   UNL A   1      40.753  31.348  34.114  1.00  0.00    -0.195 OA
ATOM     82  O   UNL A   1      40.639  30.959  36.587  1.00  0.00    -0.195 OA
BRANCH  80  83
ATOM     83  N   UNL A   1      40.828  29.003  35.030  1.00  0.00    -0.184 NA
ATOM     84  C   UNL A   1      40.908  28.397  33.695  1.00  0.00     0.132 C 
ATOM     85  C   UNL A   1      41.530  28.233  36.071  1.00  0.00     0.132 C 
ATOM     86  C   UNL A   1      42.377  28.219  33.331  1.00  0.00     0.177 C 
ATOM     87  C   UNL A   1      42.945  27.823  35.631  1.00  0.00     0.177 C 
ATOM     88  O   UNL A   1      43.035  27.359  34.276  1.00  0.00    -0.379 OA
ENDBRANCH  80  83
ENDBRANCH  79  80
ENDBRANCH  65  68
ENDBRANCH  63  64
ENDBRANCH   1  63
TORSDOF 12
ENDMDL
MODEL 3
REMARK VINA RESULT:     -10.3      5.469     11.154
REMARK SMILES O=C(NCCCNC(=O)[C@H]1CC2(CCN(S(=O)(=O)N3CCOCC3)CC2)C[NH2+]1)c1ccc(-c2c3nc(c(-c4c(F)cccc4F)c4ccc([nH]4)c(-c4c(F)cccc4F)c4nc(c(-c5c(F)cccc5F)c5ccc2[nH]5)C=C4)C=C3)cc1
REMARK SMILES IDX 5 1 4 2 3 3 1 4 2 5 29 7 30 8 82 9 31 10 81 11 32 12 33 13
REMARK SMILES IDX 34 14 75 15 35 16 80 17 74 18 76 19 36 20 79 21 73 22 72 23
REMARK SMILES IDX 37 25 63 26 46 27 62 28 47 29 50 30 61 31 77 32 48 33 49 34
REMARK SMILES IDX 60 36 78 37 51 38 38 39 39 40 44 41 40 42 41 43 43 44 45 45
REMARK SMILES IDX 42 46 64 47 65 48 70 49 66 50 67 51 69 52 71 53 68 54 52 55
REMARK SMILES IDX 53 56 58 57 54 58 55 59 57 60 59 61 56 62 6 63 7 64 8 65
REMARK SMILES IDX 9 67 10 68 11 69 28 70 12 71 27 72 13 75 26 76 14 77 25 78
REMARK SMILES IDX 15 79 16 80 17 81 18 82 19 83 20 84 24 85 21 86 23 87 22 88
REMARK H PARENT 3 6 76 24 50 35 7 66 28 73 28 74
REMARK Flexibility Score: inf
ROOT
ATOM      1  C   UNL A   1      37.428  19.810  24.596  1.00  0.00     0.042 C 
ENDROOT
BRANCH   1   2
ATOM      2  C   UNL A   1      38.454  20.204  25.657  1.00  0.00     0.118 C 
BRANCH   2   3
ATOM      3  N   UNL A   1      39.602  19.304  25.700  1.00  0.00    -0.352 N 
ATOM      4  O   UNL A   1      41.761  18.681  25.817  1.00  0.00    -0.269 OA
ATOM      5  C   UNL A   1      40.915  19.549  26.013  1.00  0.00     0.251 C 
ATOM      6  H   UNL A   1      39.401  18.369  25.465  1.00  0.00     0.163 HD
BRANCH   5   7
ATOM      7  C   UNL A   1      41.320  20.856  26.567  1.00  0.00     0.039 A 
ATOM      8  C   UNL A   1      41.208  21.119  27.933  1.00  0.00     0.014 A 
ATOM      9  C   UNL A   1      41.848  21.826  25.710  1.00  0.00     0.014 A 
ATOM     10  C   UNL A   1      41.474  22.394  28.417  1.00  0.00     0.010 A 
ATOM     11  C   UNL A   1      42.205  23.079  26.214  1.00  0.00     0.010 A 
ATOM     12  C   UNL A   1      41.991  23.384  27.566  1.00  0.00    -0.014 A 
BRANCH  12  13
ATOM     13  C   UNL A   1      42.357  24.710  28.127  1.00  0.00     0.031 A 
ATOM     14  C   UNL A   1      43.771  25.025  28.525  1.00  0.00     0.074 A 
ATOM     15  C   UNL A   1      41.394  25.643  28.261  1.00  0.00     0.049 A 
ATOM     16  N   UNL A   1      44.258  26.131  29.030  1.00  0.00    -0.248 NA
ATOM     17  C   UNL A   1      44.769  23.961  28.339  1.00  0.00     0.031 C 
ATOM     18  C   UNL A   1      39.982  25.452  27.917  1.00  0.00     0.029 A 
ATOM     19  N   UNL A   1      41.452  26.937  28.711  1.00  0.00    -0.354 N 
ATOM     20  C   UNL A   1      45.612  25.894  29.235  1.00  0.00     0.074 A 
ATOM     21  C   UNL A   1      45.863  24.527  28.832  1.00  0.00     0.031 C 
ATOM     22  C   UNL A   1      39.318  26.596  28.131  1.00  0.00     0.029 A 
ATOM     23  C   UNL A   1      40.238  27.579  28.693  1.00  0.00     0.049 A 
ATOM     24  H   UNL A   1      42.285  27.364  29.019  1.00  0.00     0.167 HD
ATOM     25  C   UNL A   1      46.557  26.742  29.708  1.00  0.00     0.037 A 
ATOM     26  C   UNL A   1      39.894  28.811  29.104  1.00  0.00     0.037 A 
ATOM     27  C   UNL A   1      46.297  28.103  30.108  1.00  0.00     0.049 A 
ATOM     28  C   UNL A   1      40.952  29.712  29.673  1.00  0.00     0.074 A 
ATOM     29  C   UNL A   1      47.194  29.051  30.569  1.00  0.00     0.029 A 
ATOM     30  N   UNL A   1      45.047  28.706  30.106  1.00  0.00    -0.354 N 
ATOM     31  N   UNL A   1      42.235  29.488  29.822  1.00  0.00    -0.248 NA
ATOM     32  C   UNL A   1      40.513  31.036  30.132  1.00  0.00     0.031 C 
ATOM     33  C   UNL A   1      46.478  30.206  30.905  1.00  0.00     0.029 A 
ATOM     34  C   UNL A   1      45.144  30.002  30.589  1.00  0.00     0.049 A 
ATOM     35  H   UNL A   1      44.213  28.276  29.806  1.00  0.00     0.167 HD
ATOM     36  C   UNL A   1      42.762  30.652  30.366  1.00  0.00     0.074 A 
ATOM     37  C   UNL A   1      41.662  31.584  30.504  1.00  0.00     0.031 C 
ATOM     38  C   UNL A   1      44.043  30.922  30.718  1.00  0.00     0.037 A 
BRANCH  25  39
ATOM     39  C   UNL A   1      47.959  26.218  29.845  1.00  0.00     0.057 A 
ATOM     40  C   UNL A   1      48.872  26.245  28.783  1.00  0.00     0.134 A 
ATOM     41  C   UNL A   1      48.417  25.720  31.073  1.00  0.00     0.134 A 
ATOM     42  F   UNL A   1      48.499  26.701  27.577  1.00  0.00    -0.206 F 
ATOM     43  C   UNL A   1      50.177  25.770  28.927  1.00  0.00     0.040 A 
ATOM     44  C   UNL A   1      49.729  25.271  31.238  1.00  0.00     0.040 A 
ATOM     45  F   UNL A   1      47.601  25.674  32.137  1.00  0.00    -0.206 F 
ATOM     46  C   UNL A   1      50.612  25.289  30.160  1.00  0.00     0.006 A 
ENDBRANCH  25  39
BRANCH  26  47
ATOM     47  C   UNL A   1      38.481  29.257  29.003  1.00  0.00     0.057 A 
ATOM     48  C   UNL A   1      37.631  29.227  30.113  1.00  0.00     0.134 A 
ATOM     49  C   UNL A   1      37.950  29.727  27.795  1.00  0.00     0.134 A 
ATOM     50  F   UNL A   1      38.076  28.773  31.294  1.00  0.00    -0.206 F 
ATOM     51  C   UNL A   1      36.296  29.627  30.021  1.00  0.00     0.040 A 
ATOM     52  C   UNL A   1      36.628  30.161  27.697  1.00  0.00     0.040 A 
ATOM     53  F   UNL A   1      38.717  29.790  26.696  1.00  0.00    -0.206 F 
ATOM     54  C   UNL A   1      35.794  30.103  28.811  1.00  0.00     0.006 A 
ENDBRANCH  26  47
BRANCH  38  55
ATOM     55  C   UNL A   1      44.331  32.298  31.249  1.00  0.00     0.057 A 
ATOM     56  C   UNL A   1      44.649  33.371  30.406  1.00  0.00     0.134 A 
ATOM     57  C   UNL A   1      44.263  32.557  32.625  1.00  0.00     0.134 A 
ATOM     58  F   UNL A   1      44.748  33.189  29.081  1.00  0.00    -0.206 F 
ATOM     59  C   UNL A   1      44.914  34.644  30.914  1.00  0.00     0.040 A 
ATOM     60  C   UNL A   1      44.493  33.832  33.141  1.00  0.00     0.040 A 
ATOM     61  F   UNL A   1      43.956  31.577  33.489  1.00  0.00    -0.206 F 
ATOM     62  C   UNL A   1      44.829  34.878  32.286  1.00  0.00     0.006 A 
ENDBRANCH  38  55
ENDBRANCH  12  13
ENDBRANCH   5   7
ENDBRANCH   2   3
ENDBRANCH   1   2
BRANCH   1  63
ATOM     63  C   UNL A   1      35.990  20.133  24.988  1.00  0.00     0.118 C 
BRANCH  63  64
ATOM     64  N   UNL A   1      35.144  18.959  24.943  1.00  0.00    -0.351 N 
ATOM     65  C   UNL A   1      33.800  18.793  24.868  1.00  0.00     0.278 C 
ATOM     66  H   UNL A   1      35.644  18.112  24.972  1.00  0.00     0.163 HD
ATOM     67  O   UNL A   1      33.405  17.622  24.951  1.00  0.00    -0.268 OA
BRANCH  65  68
ATOM     68  C   UNL A   1      32.801  19.921  24.573  1.00  0.00     0.273 C 
ATOM     69  C   UNL A   1      33.038  21.067  25.553  1.00  0.00     0.088 C 
ATOM     70  N   UNL A   1      32.941  20.601  23.273  1.00  0.00    -0.336 N 
ATOM     71  C   UNL A   1      32.448  22.316  24.872  1.00  0.00     0.028 C 
ATOM     72  C   UNL A   1      32.221  21.870  23.421  1.00  0.00     0.268 C 
ATOM     73  H   UNL A   1      32.526  20.040  22.529  1.00  0.00     0.346 HD
ATOM     74  H   UNL A   1      33.919  20.746  23.022  1.00  0.00     0.346 HD
ATOM     75  C   UNL A   1      33.476  23.462  24.931  1.00  0.00     0.030 C 
ATOM     76  C   UNL A   1      31.101  22.723  25.526  1.00  0.00     0.030 C 
ATOM     77  C   UNL A   1      33.522  24.055  26.326  1.00  0.00     0.104 C 
ATOM     78  C   UNL A   1      31.247  23.466  26.857  1.00  0.00     0.104 C 
ATOM     79  N   UNL A   1      32.211  24.594  26.733  1.00  0.00    -0.189 NA
BRANCH  79  80
ATOM     80  S   UNL A   1      31.569  25.977  25.984  1.00  0.00     0.282 S 
ATOM     81  O   UNL A   1      31.880  25.939  24.577  1.00  0.00    -0.195 OA
ATOM     82  O   UNL A   1      30.194  26.076  26.425  1.00  0.00    -0.195 OA
BRANCH  80  83
ATOM     83  N   UNL A   1      32.409  27.221  26.678  1.00  0.00    -0.184 NA
ATOM     84  C   UNL A   1      33.744  27.600  26.199  1.00  0.00     0.132 C 
ATOM     85  C   UNL A   1      31.799  28.219  27.574  1.00  0.00     0.132 C 
ATOM     86  C   UNL A   1      33.644  28.953  25.505  1.00  0.00     0.177 C 
ATOM     87  C   UNL A   1      31.901  29.644  27.007  1.00  0.00     0.177 C 
ATOM     88  O   UNL A   1      33.170  29.959  26.416  1.00  0.00    -0.379 OA
ENDBRANCH  80  83
ENDBRANCH  79  80
ENDBRANCH  65  68
ENDBRANCH  63  64
ENDBRANCH   1  63
TORSDOF 12
ENDMDL
