MODEL 1
REMARK VINA RESULT:     -12.8      0.000      0.000
REMARK SMILES O=C(NCCCNC(=O)c1cc(F)c(F)cc1NS(=O)(=O)c1ccc2c(c1)CCC2)c1ccc(-c2c3nc(c(-c4c(F)cccc4F)c4ccc([nH]4)c(-c4c(F)cccc4F)c4nc(c(-c5c(F)cccc5F)c5ccc2[nH]5)C=C4)C=C3)cc1
REMARK SMILES IDX 5 1 4 2 3 3 1 4 2 5 31 7 32 8 84 9 33 10 83 11 34 12 35 13
REMARK SMILES IDX 36 14 77 15 37 16 82 17 76 18 78 19 38 20 81 21 75 22 74 23
REMARK SMILES IDX 39 25 65 26 48 27 64 28 49 29 52 30 63 31 79 32 50 33 51 34
REMARK SMILES IDX 62 36 80 37 53 38 40 39 41 40 46 41 42 42 43 43 45 44 47 45
REMARK SMILES IDX 44 46 66 47 67 48 72 49 68 50 69 51 71 52 73 53 70 54 54 55
REMARK SMILES IDX 55 56 60 57 56 58 57 59 59 60 61 61 58 62 6 63 7 64 8 65
REMARK SMILES IDX 9 67 10 68 11 69 17 70 12 71 16 72 13 73 14 74 15 75 18 76
REMARK SMILES IDX 19 78 20 79 21 80 22 81 23 82 27 83 24 84 26 85 25 86 28 87
REMARK SMILES IDX 30 88 29 89
REMARK H PARENT 3 6 78 24 52 35 7 66 18 77
REMARK Flexibility Score: inf
ROOT
ATOM      1  C   UNL A   1      37.883  19.807  24.863  1.00  0.00     0.042 C 
ENDROOT
BRANCH   1   2
ATOM      2  C   UNL A   1      38.875  20.081  25.988  1.00  0.00     0.118 C 
BRANCH   2   3
ATOM      3  N   UNL A   1      40.072  19.258  25.888  1.00  0.00    -0.352 N 
ATOM      4  O   UNL A   1      42.262  18.789  25.710  1.00  0.00    -0.269 OA
ATOM      5  C   UNL A   1      41.394  19.591  26.042  1.00  0.00     0.251 C 
ATOM      6  H   UNL A   1      39.906  18.311  25.676  1.00  0.00     0.163 HD
BRANCH   5   7
ATOM      7  C   UNL A   1      41.784  20.911  26.585  1.00  0.00     0.039 A 
ATOM      8  C   UNL A   1      41.832  21.145  27.961  1.00  0.00     0.014 A 
ATOM      9  C   UNL A   1      42.161  21.920  25.692  1.00  0.00     0.014 A 
ATOM     10  C   UNL A   1      42.125  22.418  28.440  1.00  0.00     0.010 A 
ATOM     11  C   UNL A   1      42.528  23.178  26.177  1.00  0.00     0.010 A 
ATOM     12  C   UNL A   1      42.483  23.445  27.554  1.00  0.00    -0.014 A 
BRANCH  12  13
ATOM     13  C   UNL A   1      42.846  24.783  28.080  1.00  0.00     0.031 A 
ATOM     14  C   UNL A   1      41.791  25.819  28.343  1.00  0.00     0.074 A 
ATOM     15  C   UNL A   1      44.141  25.061  28.326  1.00  0.00     0.049 A 
ATOM     16  N   UNL A   1      41.931  27.049  28.769  1.00  0.00    -0.248 NA
ATOM     17  C   UNL A   1      40.396  25.427  28.087  1.00  0.00     0.031 C 
ATOM     18  C   UNL A   1      45.258  24.142  28.104  1.00  0.00     0.029 A 
ATOM     19  N   UNL A   1      44.733  26.194  28.822  1.00  0.00    -0.354 N 
ATOM     20  C   UNL A   1      40.652  27.586  28.806  1.00  0.00     0.074 A 
ATOM     21  C   UNL A   1      39.747  26.553  28.347  1.00  0.00     0.031 C 
ATOM     22  C   UNL A   1      46.398  24.736  28.488  1.00  0.00     0.029 A 
ATOM     23  C   UNL A   1      46.097  26.091  28.939  1.00  0.00     0.049 A 
ATOM     24  H   UNL A   1      44.230  27.003  29.070  1.00  0.00     0.167 HD
ATOM     25  C   UNL A   1      40.266  28.825  29.193  1.00  0.00     0.037 A 
ATOM     26  C   UNL A   1      47.009  26.992  29.347  1.00  0.00     0.037 A 
ATOM     27  C   UNL A   1      41.162  29.843  29.676  1.00  0.00     0.049 A 
ATOM     28  C   UNL A   1      46.557  28.357  29.770  1.00  0.00     0.074 A 
ATOM     29  C   UNL A   1      40.858  31.117  30.126  1.00  0.00     0.029 A 
ATOM     30  N   UNL A   1      42.537  29.702  29.773  1.00  0.00    -0.354 N 
ATOM     31  N   UNL A   1      45.341  28.845  29.815  1.00  0.00    -0.248 NA
ATOM     32  C   UNL A   1      47.602  29.300  30.192  1.00  0.00     0.031 C 
ATOM     33  C   UNL A   1      42.055  31.757  30.471  1.00  0.00     0.029 A 
ATOM     34  C   UNL A   1      43.099  30.870  30.262  1.00  0.00     0.049 A 
ATOM     35  H   UNL A   1      43.041  28.892  29.529  1.00  0.00     0.167 HD
ATOM     36  C   UNL A   1      45.471  30.145  30.280  1.00  0.00     0.074 A 
ATOM     37  C   UNL A   1      46.884  30.367  30.515  1.00  0.00     0.031 C 
ATOM     38  C   UNL A   1      44.506  31.072  30.490  1.00  0.00     0.037 A 
BRANCH  25  39
ATOM     39  C   UNL A   1      38.807  29.154  29.095  1.00  0.00     0.057 A 
ATOM     40  C   UNL A   1      37.953  29.064  30.201  1.00  0.00     0.134 A 
ATOM     41  C   UNL A   1      38.256  29.596  27.886  1.00  0.00     0.134 A 
ATOM     42  F   UNL A   1      38.418  28.633  31.384  1.00  0.00    -0.206 F 
ATOM     43  C   UNL A   1      36.599  29.385  30.104  1.00  0.00     0.040 A 
ATOM     44  C   UNL A   1      36.907  29.936  27.780  1.00  0.00     0.040 A 
ATOM     45  F   UNL A   1      39.022  29.706  26.789  1.00  0.00    -0.206 F 
ATOM     46  C   UNL A   1      36.073  29.827  28.891  1.00  0.00     0.006 A 
ENDBRANCH  25  39
BRANCH  26  47
ATOM     47  C   UNL A   1      48.441  26.617  29.371  1.00  0.00     0.057 A 
ATOM     48  C   UNL A   1      48.991  25.944  30.466  1.00  0.00     0.134 A 
ATOM     49  C   UNL A   1      49.281  26.887  28.284  1.00  0.00     0.134 A 
ATOM     50  F   UNL A   1      48.236  25.673  31.540  1.00  0.00    -0.206 F 
ATOM     51  C   UNL A   1      50.331  25.553  30.482  1.00  0.00     0.040 A 
ATOM     52  C   UNL A   1      50.617  26.485  28.278  1.00  0.00     0.040 A 
ATOM     53  F   UNL A   1      48.806  27.524  27.204  1.00  0.00    -0.206 F 
ATOM     54  C   UNL A   1      51.146  25.817  29.381  1.00  0.00     0.006 A 
ENDBRANCH  26  47
BRANCH  38  55
ATOM     55  C   UNL A   1      44.947  32.403  31.017  1.00  0.00     0.057 A 
ATOM     56  C   UNL A   1      45.265  33.461  30.158  1.00  0.00     0.134 A 
ATOM     57  C   UNL A   1      45.019  32.636  32.395  1.00  0.00     0.134 A 
ATOM     58  F   UNL A   1      45.227  33.292  28.828  1.00  0.00    -0.206 F 
ATOM     59  C   UNL A   1      45.655  34.705  30.654  1.00  0.00     0.040 A 
ATOM     60  C   UNL A   1      45.393  33.881  32.902  1.00  0.00     0.040 A 
ATOM     61  F   UNL A   1      44.723  31.661  33.268  1.00  0.00    -0.206 F 
ATOM     62  C   UNL A   1      45.715  34.920  32.030  1.00  0.00     0.006 A 
ENDBRANCH  38  55
ENDBRANCH  12  13
ENDBRANCH   5   7
ENDBRANCH   2   3
ENDBRANCH   1   2
BRANCH   1  63
ATOM     63  C   UNL A   1      36.866  20.923  24.642  1.00  0.00     0.118 C 
BRANCH  63  64
ATOM     64  N   UNL A   1      35.976  21.063  25.785  1.00  0.00    -0.352 N 
ATOM     65  C   UNL A   1      34.611  20.971  25.836  1.00  0.00     0.253 C 
ATOM     66  H   UNL A   1      36.419  21.249  26.644  1.00  0.00     0.163 HD
ATOM     67  O   UNL A   1      34.003  21.529  26.744  1.00  0.00    -0.269 OA
BRANCH  65  68
ATOM     68  C   UNL A   1      33.861  20.218  24.809  1.00  0.00     0.067 A 
ATOM     69  C   UNL A   1      34.035  18.825  24.735  1.00  0.00     0.058 A 
ATOM     70  C   UNL A   1      32.918  20.877  23.988  1.00  0.00     0.065 A 
ATOM     71  C   UNL A   1      33.344  18.097  23.781  1.00  0.00     0.159 A 
ATOM     72  C   UNL A   1      32.228  20.105  23.047  1.00  0.00     0.070 A 
ATOM     73  F   UNL A   1      33.566  16.781  23.666  1.00  0.00    -0.204 F 
ATOM     74  C   UNL A   1      32.448  18.732  22.942  1.00  0.00     0.160 A 
ATOM     75  F   UNL A   1      31.799  18.038  21.997  1.00  0.00    -0.204 F 
BRANCH  70  76
ATOM     76  N   UNL A   1      32.863  22.324  23.971  1.00  0.00    -0.279 N 
ATOM     77  H   UNL A   1      33.661  22.828  23.690  1.00  0.00     0.180 HD
BRANCH  76  78
ATOM     78  S   UNL A   1      31.466  23.178  24.419  1.00  0.00     0.261 S 
ATOM     79  O   UNL A   1      30.604  23.241  23.259  1.00  0.00    -0.201 OA
ATOM     80  O   UNL A   1      31.016  22.607  25.670  1.00  0.00    -0.201 OA
BRANCH  78  81
ATOM     81  C   UNL A   1      32.036  24.822  24.783  1.00  0.00     0.088 A 
ATOM     82  C   UNL A   1      33.364  25.147  24.444  1.00  0.00     0.022 A 
ATOM     83  C   UNL A   1      31.266  25.648  25.613  1.00  0.00     0.026 A 
ATOM     84  C   UNL A   1      33.976  26.262  25.012  1.00  0.00     0.005 A 
ATOM     85  C   UNL A   1      31.899  26.740  26.184  1.00  0.00    -0.043 A 
ATOM     86  C   UNL A   1      33.242  27.026  25.905  1.00  0.00    -0.045 A 
ATOM     87  C   UNL A   1      31.376  27.642  27.260  1.00  0.00     0.036 C 
ATOM     88  C   UNL A   1      33.750  28.125  26.787  1.00  0.00     0.036 C 
ATOM     89  C   UNL A   1      32.440  28.750  27.279  1.00  0.00     0.010 C 
ENDBRANCH  78  81
ENDBRANCH  76  78
ENDBRANCH  70  76
ENDBRANCH  65  68
ENDBRANCH  63  64
ENDBRANCH   1  63
TORSDOF 13
ENDMDL
MODEL 2
REMARK VINA RESULT:     -12.7      4.295      9.123
REMARK SMILES O=C(NCCCNC(=O)c1cc(F)c(F)cc1NS(=O)(=O)c1ccc2c(c1)CCC2)c1ccc(-c2c3nc(c(-c4c(F)cccc4F)c4ccc([nH]4)c(-c4c(F)cccc4F)c4nc(c(-c5c(F)cccc5F)c5ccc2[nH]5)C=C4)C=C3)cc1
REMARK SMILES IDX 5 1 4 2 3 3 1 4 2 5 31 7 32 8 84 9 33 10 83 11 34 12 35 13
REMARK SMILES IDX 36 14 77 15 37 16 82 17 76 18 78 19 38 20 81 21 75 22 74 23
REMARK SMILES IDX 39 25 65 26 48 27 64 28 49 29 52 30 63 31 79 32 50 33 51 34
REMARK SMILES IDX 62 36 80 37 53 38 40 39 41 40 46 41 42 42 43 43 45 44 47 45
REMARK SMILES IDX 44 46 66 47 67 48 72 49 68 50 69 51 71 52 73 53 70 54 54 55
REMARK SMILES IDX 55 56 60 57 56 58 57 59 59 60 61 61 58 62 6 63 7 64 8 65
REMARK SMILES IDX 9 67 10 68 11 69 17 70 12 71 16 72 13 73 14 74 15 75 18 76
REMARK SMILES IDX 19 78 20 79 21 80 22 81 23 82 27 83 24 84 26 85 25 86 28 87
REMARK SMILES IDX 30 88 29 89
REMARK H PARENT 3 6 78 24 52 35 7 66 18 77
REMARK Flexibility Score: inf
ROOT
ATOM      1  C   UNL A   1      31.401  31.815  26.578  1.00  0.00     0.042 C 
ENDROOT
BRANCH   1   2
ATOM      2  C   UNL A   1      32.696  32.564  26.875  1.00  0.00     0.118 C 
BRANCH   2   3
ATOM      3  N   UNL A   1      32.465  33.824  27.565  1.00  0.00    -0.352 N 
ATOM      4  O   UNL A   1      32.661  35.377  29.177  1.00  0.00    -0.269 OA
ATOM      5  C   UNL A   1      33.146  34.405  28.605  1.00  0.00     0.251 C 
ATOM      6  H   UNL A   1      31.698  34.344  27.232  1.00  0.00     0.163 HD
BRANCH   5   7
ATOM      7  C   UNL A   1      34.446  33.862  29.056  1.00  0.00     0.039 A 
ATOM      8  C   UNL A   1      35.641  34.229  28.433  1.00  0.00     0.014 A 
ATOM      9  C   UNL A   1      34.470  33.007  30.164  1.00  0.00     0.014 A 
ATOM     10  C   UNL A   1      36.839  33.641  28.828  1.00  0.00     0.010 A 
ATOM     11  C   UNL A   1      35.683  32.476  30.607  1.00  0.00     0.010 A 
ATOM     12  C   UNL A   1      36.874  32.764  29.923  1.00  0.00    -0.014 A 
BRANCH  12  13
ATOM     13  C   UNL A   1      38.165  32.187  30.368  1.00  0.00     0.031 A 
ATOM     14  C   UNL A   1      38.681  30.908  29.775  1.00  0.00     0.074 A 
ATOM     15  C   UNL A   1      38.879  32.828  31.313  1.00  0.00     0.049 A 
ATOM     16  N   UNL A   1      39.770  30.242  30.068  1.00  0.00    -0.248 NA
ATOM     17  C   UNL A   1      37.864  30.287  28.720  1.00  0.00     0.031 C 
ATOM     18  C   UNL A   1      38.480  34.072  31.972  1.00  0.00     0.029 A 
ATOM     19  N   UNL A   1      40.089  32.523  31.879  1.00  0.00    -0.354 N 
ATOM     20  C   UNL A   1      39.757  29.116  29.257  1.00  0.00     0.074 A 
ATOM     21  C   UNL A   1      38.545  29.177  28.468  1.00  0.00     0.031 C 
ATOM     22  C   UNL A   1      39.441  34.442  32.831  1.00  0.00     0.029 A 
ATOM     23  C   UNL A   1      40.499  33.437  32.819  1.00  0.00     0.049 A 
ATOM     24  H   UNL A   1      40.614  31.726  31.637  1.00  0.00     0.167 HD
ATOM     25  C   UNL A   1      40.674  28.123  29.176  1.00  0.00     0.037 A 
ATOM     26  C   UNL A   1      41.597  33.457  33.596  1.00  0.00     0.037 A 
ATOM     27  C   UNL A   1      41.893  28.075  29.940  1.00  0.00     0.049 A 
ATOM     28  C   UNL A   1      42.597  32.347  33.487  1.00  0.00     0.074 A 
ATOM     29  C   UNL A   1      42.902  27.127  29.898  1.00  0.00     0.029 A 
ATOM     30  N   UNL A   1      42.269  29.016  30.886  1.00  0.00    -0.354 N 
ATOM     31  N   UNL A   1      42.579  31.296  32.704  1.00  0.00    -0.248 NA
ATOM     32  C   UNL A   1      43.767  32.419  34.373  1.00  0.00     0.031 C 
ATOM     33  C   UNL A   1      43.877  27.482  30.838  1.00  0.00     0.029 A 
ATOM     34  C   UNL A   1      43.486  28.666  31.444  1.00  0.00     0.049 A 
ATOM     35  H   UNL A   1      41.746  29.815  31.126  1.00  0.00     0.167 HD
ATOM     36  C   UNL A   1      43.736  30.588  32.992  1.00  0.00     0.074 A 
ATOM     37  C   UNL A   1      44.441  31.335  34.014  1.00  0.00     0.031 C 
ATOM     38  C   UNL A   1      44.173  29.421  32.460  1.00  0.00     0.037 A 
BRANCH  25  39
ATOM     39  C   UNL A   1      40.386  26.995  28.231  1.00  0.00     0.057 A 
ATOM     40  C   UNL A   1      40.953  26.938  26.953  1.00  0.00     0.134 A 
ATOM     41  C   UNL A   1      39.554  25.937  28.619  1.00  0.00     0.134 A 
ATOM     42  F   UNL A   1      41.748  27.929  26.517  1.00  0.00    -0.206 F 
ATOM     43  C   UNL A   1      40.689  25.878  26.085  1.00  0.00     0.040 A 
ATOM     44  C   UNL A   1      39.296  24.863  27.767  1.00  0.00     0.040 A 
ATOM     45  F   UNL A   1      38.981  25.931  29.832  1.00  0.00    -0.206 F 
ATOM     46  C   UNL A   1      39.862  24.833  26.493  1.00  0.00     0.006 A 
ENDBRANCH  25  39
BRANCH  26  47
ATOM     47  C   UNL A   1      41.794  34.577  34.545  1.00  0.00     0.057 A 
ATOM     48  C   UNL A   1      41.364  34.481  35.872  1.00  0.00     0.134 A 
ATOM     49  C   UNL A   1      42.452  35.750  34.158  1.00  0.00     0.134 A 
ATOM     50  F   UNL A   1      40.714  33.386  36.293  1.00  0.00    -0.206 F 
ATOM     51  C   UNL A   1      41.578  35.515  36.783  1.00  0.00     0.040 A 
ATOM     52  C   UNL A   1      42.691  36.784  35.063  1.00  0.00     0.040 A 
ATOM     53  F   UNL A   1      42.893  35.895  32.900  1.00  0.00    -0.206 F 
ATOM     54  C   UNL A   1      42.251  36.668  36.381  1.00  0.00     0.006 A 
ENDBRANCH  26  47
BRANCH  38  55
ATOM     55  C   UNL A   1      45.482  28.895  32.961  1.00  0.00     0.057 A 
ATOM     56  C   UNL A   1      46.695  29.270  32.371  1.00  0.00     0.134 A 
ATOM     57  C   UNL A   1      45.531  28.035  34.063  1.00  0.00     0.134 A 
ATOM     58  F   UNL A   1      46.710  30.082  31.304  1.00  0.00    -0.206 F 
ATOM     59  C   UNL A   1      47.914  28.794  32.855  1.00  0.00     0.040 A 
ATOM     60  C   UNL A   1      46.745  27.565  34.565  1.00  0.00     0.040 A 
ATOM     61  F   UNL A   1      44.401  27.643  34.672  1.00  0.00    -0.206 F 
ATOM     62  C   UNL A   1      47.942  27.942  33.959  1.00  0.00     0.006 A 
ENDBRANCH  38  55
ENDBRANCH  12  13
ENDBRANCH   5   7
ENDBRANCH   2   3
ENDBRANCH   1   2
BRANCH   1  63
ATOM     63  C   UNL A   1      31.581  30.315  26.367  1.00  0.00     0.118 C 
BRANCH  63  64
ATOM     64  N   UNL A   1      32.302  30.035  25.135  1.00  0.00    -0.352 N 
ATOM     65  C   UNL A   1      31.917  29.282  24.059  1.00  0.00     0.253 C 
ATOM     66  H   UNL A   1      33.193  30.447  25.066  1.00  0.00     0.163 HD
ATOM     67  O   UNL A   1      32.773  28.797  23.325  1.00  0.00    -0.269 OA
BRANCH  65  68
ATOM     68  C   UNL A   1      30.487  29.039  23.773  1.00  0.00     0.067 A 
ATOM     69  C   UNL A   1      29.668  30.137  23.460  1.00  0.00     0.058 A 
ATOM     70  C   UNL A   1      29.985  27.718  23.722  1.00  0.00     0.065 A 
ATOM     71  C   UNL A   1      28.325  29.935  23.189  1.00  0.00     0.159 A 
ATOM     72  C   UNL A   1      28.626  27.555  23.429  1.00  0.00     0.070 A 
ATOM     73  F   UNL A   1      27.531  30.990  22.962  1.00  0.00    -0.204 F 
ATOM     74  C   UNL A   1      27.807  28.653  23.175  1.00  0.00     0.160 A 
ATOM     75  F   UNL A   1      26.502  28.455  22.944  1.00  0.00    -0.204 F 
BRANCH  70  76
ATOM     76  N   UNL A   1      30.799  26.618  24.194  1.00  0.00    -0.279 N 
ATOM     77  H   UNL A   1      31.078  26.603  25.138  1.00  0.00     0.180 HD
BRANCH  76  78
ATOM     78  S   UNL A   1      31.286  25.354  23.171  1.00  0.00     0.261 S 
ATOM     79  O   UNL A   1      30.216  24.380  23.144  1.00  0.00    -0.201 OA
ATOM     80  O   UNL A   1      31.782  25.971  21.960  1.00  0.00    -0.201 OA
BRANCH  78  81
ATOM     81  C   UNL A   1      32.688  24.625  23.985  1.00  0.00     0.088 A 
ATOM     82  C   UNL A   1      33.040  25.120  25.256  1.00  0.00     0.022 A 
ATOM     83  C   UNL A   1      33.545  23.787  23.260  1.00  0.00     0.026 A 
ATOM     84  C   UNL A   1      34.304  24.861  25.781  1.00  0.00     0.005 A 
ATOM     85  C   UNL A   1      34.805  23.557  23.788  1.00  0.00    -0.043 A 
ATOM     86  C   UNL A   1      35.185  24.108  25.019  1.00  0.00    -0.045 A 
ATOM     87  C   UNL A   1      35.969  22.891  23.122  1.00  0.00     0.036 C 
ATOM     88  C   UNL A   1      36.643  23.886  25.278  1.00  0.00     0.036 C 
ATOM     89  C   UNL A   1      36.959  22.758  24.290  1.00  0.00     0.010 C 
ENDBRANCH  78  81
ENDBRANCH  76  78
ENDBRANCH  70  76
ENDBRANCH  65  68
ENDBRANCH  63  64
ENDBRANCH   1  63
TORSDOF 13
ENDMDL
MODEL 3
REMARK VINA RESULT:     -12.7      2.950      7.825
REMARK SMILES O=C(NCCCNC(=O)c1cc(F)c(F)cc1NS(=O)(=O)c1ccc2c(c1)CCC2)c1ccc(-c2c3nc(c(-c4c(F)cccc4F)c4ccc([nH]4)c(-c4c(F)cccc4F)c4nc(c(-c5c(F)cccc5F)c5ccc2[nH]5)C=C4)C=C3)cc1
REMARK SMILES IDX 5 1 4 2 3 3 1 4 2 5 31 7 32 8 84 9 33 10 83 11 34 12 35 13
REMARK SMILES IDX 36 14 77 15 37 16 82 17 76 18 78 19 38 20 81 21 75 22 74 23
REMARK SMILES IDX 39 25 65 26 48 27 64 28 49 29 52 30 63 31 79 32 50 33 51 34
REMARK SMILES IDX 62 36 80 37 53 38 40 39 41 40 46 41 42 42 43 43 45 44 47 45
REMARK SMILES IDX 44 46 66 47 67 48 72 49 68 50 69 51 71 52 73 53 70 54 54 55
REMARK SMILES IDX 55 56 60 57 56 58 57 59 59 60 61 61 58 62 6 63 7 64 8 65
REMARK SMILES IDX 9 67 10 68 11 69 17 70 12 71 16 72 13 73 14 74 15 75 18 76
REMARK SMILES IDX 19 78 20 79 21 80 22 81 23 82 27 83 24 84 26 85 25 86 28 87
REMARK SMILES IDX 30 88 29 89
REMARK H PARENT 3 6 78 24 52 35 7 66 18 77
REMARK Flexibility Score: inf
ROOT
ATOM      1  C   UNL A   1      34.181  28.255  25.816  1.00  0.00     0.042 C 
ENDROOT
BRANCH   1   2
ATOM      2  C   UNL A   1      33.786  28.451  27.276  1.00  0.00     0.118 C 
BRANCH   2   3
ATOM      3  N   UNL A   1      33.713  29.856  27.649  1.00  0.00    -0.352 N 
ATOM      4  O   UNL A   1      34.293  31.762  28.687  1.00  0.00    -0.269 OA
ATOM      5  C   UNL A   1      34.633  30.655  28.279  1.00  0.00     0.251 C 
ATOM      6  H   UNL A   1      32.870  30.304  27.411  1.00  0.00     0.163 HD
BRANCH   5   7
ATOM      7  C   UNL A   1      36.022  30.191  28.489  1.00  0.00     0.039 A 
ATOM      8  C   UNL A   1      36.423  29.625  29.702  1.00  0.00     0.014 A 
ATOM      9  C   UNL A   1      36.928  30.278  27.427  1.00  0.00     0.014 A 
ATOM     10  C   UNL A   1      37.755  29.271  29.897  1.00  0.00     0.010 A 
ATOM     11  C   UNL A   1      38.247  29.853  27.599  1.00  0.00     0.010 A 
ATOM     12  C   UNL A   1      38.679  29.375  28.846  1.00  0.00    -0.014 A 
BRANCH  12  13
ATOM     13  C   UNL A   1      40.083  28.943  29.049  1.00  0.00     0.031 A 
ATOM     14  C   UNL A   1      41.081  29.856  29.700  1.00  0.00     0.074 A 
ATOM     15  C   UNL A   1      40.456  27.714  28.646  1.00  0.00     0.049 A 
ATOM     16  N   UNL A   1      42.356  29.658  29.927  1.00  0.00    -0.248 NA
ATOM     17  C   UNL A   1      40.589  31.169  30.149  1.00  0.00     0.031 C 
ATOM     18  C   UNL A   1      39.581  26.739  27.994  1.00  0.00     0.029 A 
ATOM     19  N   UNL A   1      41.665  27.074  28.730  1.00  0.00    -0.354 N 
ATOM     20  C   UNL A   1      42.823  30.824  30.517  1.00  0.00     0.074 A 
ATOM     21  C   UNL A   1      41.699  31.734  30.602  1.00  0.00     0.031 C 
ATOM     22  C   UNL A   1      40.273  25.613  27.763  1.00  0.00     0.029 A 
ATOM     23  C   UNL A   1      41.650  25.805  28.207  1.00  0.00     0.049 A 
ATOM     24  H   UNL A   1      42.467  27.484  29.128  1.00  0.00     0.167 HD
ATOM     25  C   UNL A   1      44.073  31.109  30.952  1.00  0.00     0.037 A 
ATOM     26  C   UNL A   1      42.638  24.900  28.082  1.00  0.00     0.037 A 
ATOM     27  C   UNL A   1      45.184  30.196  30.892  1.00  0.00     0.049 A 
ATOM     28  C   UNL A   1      44.013  25.239  28.571  1.00  0.00     0.074 A 
ATOM     29  C   UNL A   1      46.480  30.382  31.342  1.00  0.00     0.029 A 
ATOM     30  N   UNL A   1      45.130  28.922  30.349  1.00  0.00    -0.354 N 
ATOM     31  N   UNL A   1      44.436  26.341  29.142  1.00  0.00    -0.248 NA
ATOM     32  C   UNL A   1      45.051  24.214  28.394  1.00  0.00     0.031 C 
ATOM     33  C   UNL A   1      47.217  29.229  31.047  1.00  0.00     0.029 A 
ATOM     34  C   UNL A   1      46.371  28.315  30.439  1.00  0.00     0.049 A 
ATOM     35  H   UNL A   1      44.327  28.509  29.955  1.00  0.00     0.167 HD
ATOM     36  C   UNL A   1      45.783  26.140  29.403  1.00  0.00     0.074 A 
ATOM     37  C   UNL A   1      46.106  24.805  28.939  1.00  0.00     0.031 C 
ATOM     38  C   UNL A   1      46.674  26.987  29.973  1.00  0.00     0.037 A 
BRANCH  25  39
ATOM     39  C   UNL A   1      44.310  32.476  31.520  1.00  0.00     0.057 A 
ATOM     40  C   UNL A   1      44.702  33.553  30.716  1.00  0.00     0.134 A 
ATOM     41  C   UNL A   1      44.115  32.723  32.885  1.00  0.00     0.134 A 
ATOM     42  F   UNL A   1      44.920  33.377  29.403  1.00  0.00    -0.206 F 
ATOM     43  C   UNL A   1      44.907  34.825  31.252  1.00  0.00     0.040 A 
ATOM     44  C   UNL A   1      44.300  33.994  33.429  1.00  0.00     0.040 A 
ATOM     45  F   UNL A   1      43.737  31.734  33.708  1.00  0.00    -0.206 F 
ATOM     46  C   UNL A   1      44.702  35.050  32.612  1.00  0.00     0.006 A 
ENDBRANCH  25  39
BRANCH  26  47
ATOM     47  C   UNL A   1      42.346  23.586  27.464  1.00  0.00     0.057 A 
ATOM     48  C   UNL A   1      42.406  23.414  26.078  1.00  0.00     0.134 A 
ATOM     49  C   UNL A   1      42.039  22.467  28.246  1.00  0.00     0.134 A 
ATOM     50  F   UNL A   1      42.681  24.456  25.279  1.00  0.00    -0.206 F 
ATOM     51  C   UNL A   1      42.170  22.172  25.488  1.00  0.00     0.040 A 
ATOM     52  C   UNL A   1      41.820  21.215  27.672  1.00  0.00     0.040 A 
ATOM     53  F   UNL A   1      41.974  22.571  29.581  1.00  0.00    -0.206 F 
ATOM     54  C   UNL A   1      41.883  21.065  26.287  1.00  0.00     0.006 A 
ENDBRANCH  26  47
BRANCH  38  55
ATOM     55  C   UNL A   1      48.074  26.486  30.142  1.00  0.00     0.057 A 
ATOM     56  C   UNL A   1      48.476  25.815  31.303  1.00  0.00     0.134 A 
ATOM     57  C   UNL A   1      49.018  26.645  29.120  1.00  0.00     0.134 A 
ATOM     58  F   UNL A   1      47.619  25.644  32.320  1.00  0.00    -0.206 F 
ATOM     59  C   UNL A   1      49.777  25.331  31.447  1.00  0.00     0.040 A 
ATOM     60  C   UNL A   1      50.316  26.151  29.247  1.00  0.00     0.040 A 
ATOM     61  F   UNL A   1      48.690  27.277  27.983  1.00  0.00    -0.206 F 
ATOM     62  C   UNL A   1      50.700  25.494  30.415  1.00  0.00     0.006 A 
ENDBRANCH  38  55
ENDBRANCH  12  13
ENDBRANCH   5   7
ENDBRANCH   2   3
ENDBRANCH   1   2
BRANCH   1  63
ATOM     63  C   UNL A   1      33.612  29.307  24.868  1.00  0.00     0.118 C 
BRANCH  63  64
ATOM     64  N   UNL A   1      33.836  28.944  23.478  1.00  0.00    -0.352 N 
ATOM     65  C   UNL A   1      33.194  28.007  22.713  1.00  0.00     0.253 C 
ATOM     66  H   UNL A   1      34.551  29.444  23.021  1.00  0.00     0.163 HD
ATOM     67  O   UNL A   1      33.768  27.528  21.740  1.00  0.00    -0.269 OA
BRANCH  65  68
ATOM     68  C   UNL A   1      31.826  27.560  23.048  1.00  0.00     0.067 A 
ATOM     69  C   UNL A   1      30.743  28.372  22.674  1.00  0.00     0.058 A 
ATOM     70  C   UNL A   1      31.615  26.296  23.645  1.00  0.00     0.065 A 
ATOM     71  C   UNL A   1      29.451  27.976  22.977  1.00  0.00     0.159 A 
ATOM     72  C   UNL A   1      30.295  25.924  23.922  1.00  0.00     0.070 A 
ATOM     73  F   UNL A   1      28.425  28.785  22.683  1.00  0.00    -0.204 F 
ATOM     74  C   UNL A   1      29.228  26.761  23.598  1.00  0.00     0.160 A 
ATOM     75  F   UNL A   1      27.983  26.386  23.921  1.00  0.00    -0.204 F 
BRANCH  70  76
ATOM     76  N   UNL A   1      32.741  25.544  24.161  1.00  0.00    -0.279 N 
ATOM     77  H   UNL A   1      33.223  25.889  24.947  1.00  0.00     0.180 HD
BRANCH  76  78
ATOM     78  S   UNL A   1      33.253  24.090  23.453  1.00  0.00     0.261 S 
ATOM     79  O   UNL A   1      32.156  23.151  23.546  1.00  0.00    -0.201 OA
ATOM     80  O   UNL A   1      33.850  24.437  22.182  1.00  0.00    -0.201 OA
BRANCH  78  81
ATOM     81  C   UNL A   1      34.572  23.516  24.498  1.00  0.00     0.088 A 
ATOM     82  C   UNL A   1      35.148  24.437  25.394  1.00  0.00     0.022 A 
ATOM     83  C   UNL A   1      35.171  22.278  24.231  1.00  0.00     0.026 A 
ATOM     84  C   UNL A   1      36.390  24.171  25.967  1.00  0.00     0.005 A 
ATOM     85  C   UNL A   1      36.415  22.040  24.793  1.00  0.00    -0.043 A 
ATOM     86  C   UNL A   1      37.024  22.985  25.629  1.00  0.00    -0.045 A 
ATOM     87  C   UNL A   1      37.352  20.910  24.498  1.00  0.00     0.036 C 
ATOM     88  C   UNL A   1      38.433  22.590  25.946  1.00  0.00     0.036 C 
ATOM     89  C   UNL A   1      38.420  21.101  25.585  1.00  0.00     0.010 C 
ENDBRANCH  78  81
ENDBRANCH  76  78
ENDBRANCH  70  76
ENDBRANCH  65  68
ENDBRANCH  63  64
ENDBRANCH   1  63
TORSDOF 13
ENDMDL
