MODEL 1
REMARK VINA RESULT:     -11.3      0.000      0.000
REMARK SMILES CSCc1ccc(C(=O)N2C[C@@H](O)C[C@@H]2C(=O)NCCCNC(=O)c2ccc(-c3c4nc(c(-c5c(F)cccc5F)c5ccc([nH]5)c(-c5c(F)cccc5F)c5nc(c(-c6c(F)cccc6F)c6ccc3[nH]6)C=C5)C=C4)cc2)o1
REMARK SMILES IDX 19 1 18 2 16 3 17 4 15 6 10 7 11 8 12 9 14 10 8 11 9 12 7 13
REMARK SMILES IDX 4 14 5 15 79 16 6 17 3 18 2 19 1 20 13 21 20 23 21 24 22 25
REMARK SMILES IDX 23 26 24 28 25 29 26 30 78 31 27 32 77 33 28 34 29 35 30 36
REMARK SMILES IDX 71 37 31 38 76 39 70 40 72 41 32 42 75 43 69 44 68 45 33 47
REMARK SMILES IDX 59 48 42 49 58 50 43 51 46 52 57 53 73 54 44 55 45 56 56 58
REMARK SMILES IDX 74 59 47 60 34 61 35 62 40 63 36 64 37 65 39 66 41 67 38 68
REMARK SMILES IDX 60 69 61 70 66 71 62 72 63 73 65 74 67 75 64 76 48 77 49 78
REMARK SMILES IDX 54 79 50 80 51 81 53 82 55 83 52 84
REMARK H PARENT 18 5 13 22 22 27 72 46 46 57
REMARK Flexibility Score: inf
ROOT
ATOM      1  C   UNL A   1      31.731  27.010  26.158  1.00  0.00     0.117 C 
ENDROOT
BRANCH   1   2
ATOM      2  N   UNL A   1      31.446  25.709  26.726  1.00  0.00    -0.354 N 
ATOM      3  C   UNL A   1      32.085  24.521  26.558  1.00  0.00     0.242 C 
ATOM      4  O   UNL A   1      31.816  23.635  27.377  1.00  0.00    -0.273 OA
ATOM      5  H   UNL A   1      30.667  25.681  27.328  1.00  0.00     0.163 HD
BRANCH   3   6
ATOM      6  C   UNL A   1      33.089  24.309  25.399  1.00  0.00     0.177 C 
ATOM      7  N   UNL A   1      33.114  22.879  25.083  1.00  0.00    -0.321 N 
ATOM      8  C   UNL A   1      34.322  22.235  25.573  1.00  0.00     0.152 C 
ATOM      9  C   UNL A   1      34.998  23.295  26.439  1.00  0.00     0.136 C 
ATOM     10  C   UNL A   1      34.526  24.609  25.817  1.00  0.00     0.069 C 
BRANCH   7  11
ATOM     11  C   UNL A   1      32.046  22.271  24.443  1.00  0.00     0.290 C 
ATOM     12  O   UNL A   1      31.021  22.916  24.205  1.00  0.00    -0.265 OA
BRANCH  11  13
ATOM     13  C   UNL A   1      32.166  20.845  24.200  1.00  0.00     0.191 A 
ATOM     14  C   UNL A   1      32.433  18.718  24.740  1.00  0.00     0.114 A 
ATOM     15  C   UNL A   1      32.566  18.796  23.368  1.00  0.00     0.047 A 
ATOM     16  O   UNL A   1      32.193  19.967  25.251  1.00  0.00    -0.455 OA
ATOM     17  C   UNL A   1      32.391  20.152  23.024  1.00  0.00     0.056 A 
BRANCH  14  18
ATOM     18  C   UNL A   1      32.533  17.621  25.739  1.00  0.00     0.144 C 
BRANCH  18  19
ATOM     19  S   UNL A   1      32.971  15.996  25.033  1.00  0.00    -0.157 SA
ATOM     20  C   UNL A   1      34.774  16.159  25.000  1.00  0.00     0.085 C 
ENDBRANCH  18  19
ENDBRANCH  14  18
ENDBRANCH  11  13
ENDBRANCH   7  11
BRANCH   9  21
ATOM     21  O   UNL A   1      36.411  23.207  26.435  1.00  0.00    -0.391 OA
ATOM     22  H   UNL A   1      36.790  24.090  26.300  1.00  0.00     0.211 HD
ENDBRANCH   9  21
ENDBRANCH   3   6
ENDBRANCH   1   2
BRANCH   1  23
ATOM     23  C   UNL A   1      32.058  28.080  27.193  1.00  0.00     0.042 C 
BRANCH  23  24
ATOM     24  C   UNL A   1      33.489  28.609  27.195  1.00  0.00     0.118 C 
BRANCH  24  25
ATOM     25  N   UNL A   1      33.620  29.978  27.672  1.00  0.00    -0.352 N 
ATOM     26  C   UNL A   1      34.675  30.670  28.216  1.00  0.00     0.251 C 
ATOM     27  H   UNL A   1      32.796  30.510  27.589  1.00  0.00     0.163 HD
ATOM     28  O   UNL A   1      34.487  31.818  28.611  1.00  0.00    -0.269 OA
BRANCH  26  29
ATOM     29  C   UNL A   1      36.010  30.056  28.389  1.00  0.00     0.039 A 
ATOM     30  C   UNL A   1      36.895  30.095  27.305  1.00  0.00     0.014 A 
ATOM     31  C   UNL A   1      36.397  29.419  29.570  1.00  0.00     0.014 A 
ATOM     32  C   UNL A   1      38.193  29.593  27.439  1.00  0.00     0.010 A 
ATOM     33  C   UNL A   1      37.714  28.988  29.729  1.00  0.00     0.010 A 
ATOM     34  C   UNL A   1      38.632  29.088  28.671  1.00  0.00    -0.014 A 
BRANCH  34  35
ATOM     35  C   UNL A   1      40.048  28.700  28.890  1.00  0.00     0.031 A 
ATOM     36  C   UNL A   1      41.040  29.691  29.430  1.00  0.00     0.074 A 
ATOM     37  C   UNL A   1      40.468  27.479  28.504  1.00  0.00     0.049 A 
ATOM     38  N   UNL A   1      42.342  29.593  29.512  1.00  0.00    -0.248 NA
ATOM     39  C   UNL A   1      40.500  30.974  29.909  1.00  0.00     0.031 C 
ATOM     40  C   UNL A   1      39.627  26.434  27.918  1.00  0.00     0.029 A 
ATOM     41  N   UNL A   1      41.721  26.918  28.531  1.00  0.00    -0.354 N 
ATOM     42  C   UNL A   1      42.784  30.821  29.986  1.00  0.00     0.074 A 
ATOM     43  C   UNL A   1      41.610  31.644  30.189  1.00  0.00     0.031 C 
ATOM     44  C   UNL A   1      40.381  25.355  27.658  1.00  0.00     0.029 A 
ATOM     45  C   UNL A   1      41.763  25.643  28.023  1.00  0.00     0.049 A 
ATOM     46  H   UNL A   1      42.514  27.385  28.882  1.00  0.00     0.167 HD
ATOM     47  C   UNL A   1      44.053  31.227  30.225  1.00  0.00     0.037 A 
ATOM     48  C   UNL A   1      42.800  24.804  27.854  1.00  0.00     0.037 A 
ATOM     49  C   UNL A   1      45.217  30.392  30.109  1.00  0.00     0.049 A 
ATOM     50  C   UNL A   1      44.184  25.241  28.234  1.00  0.00     0.074 A 
ATOM     51  C   UNL A   1      46.534  30.697  30.414  1.00  0.00     0.029 A 
ATOM     52  N   UNL A   1      45.202  29.079  29.670  1.00  0.00    -0.354 N 
ATOM     53  N   UNL A   1      44.581  26.400  28.694  1.00  0.00    -0.248 NA
ATOM     54  C   UNL A   1      45.260  24.254  28.064  1.00  0.00     0.031 C 
ATOM     55  C   UNL A   1      47.316  29.565  30.156  1.00  0.00     0.029 A 
ATOM     56  C   UNL A   1      46.485  28.557  29.698  1.00  0.00     0.049 A 
ATOM     57  H   UNL A   1      44.399  28.588  29.381  1.00  0.00     0.167 HD
ATOM     58  C   UNL A   1      45.951  26.284  28.873  1.00  0.00     0.074 A 
ATOM     59  C   UNL A   1      46.317  24.938  28.482  1.00  0.00     0.031 C 
ATOM     60  C   UNL A   1      46.829  27.214  29.316  1.00  0.00     0.037 A 
BRANCH  47  61
ATOM     61  C   UNL A   1      44.250  32.653  30.630  1.00  0.00     0.057 A 
ATOM     62  C   UNL A   1      44.271  33.044  31.973  1.00  0.00     0.134 A 
ATOM     63  C   UNL A   1      44.451  33.642  29.659  1.00  0.00     0.134 A 
ATOM     64  F   UNL A   1      44.069  32.142  32.945  1.00  0.00    -0.206 F 
ATOM     65  C   UNL A   1      44.476  34.376  32.338  1.00  0.00     0.040 A 
ATOM     66  C   UNL A   1      44.669  34.974  30.011  1.00  0.00     0.040 A 
ATOM     67  F   UNL A   1      44.439  33.327  28.354  1.00  0.00    -0.206 F 
ATOM     68  C   UNL A   1      44.679  35.344  31.356  1.00  0.00     0.006 A 
ENDBRANCH  47  61
BRANCH  48  69
ATOM     69  C   UNL A   1      42.566  23.452  27.300  1.00  0.00     0.057 A 
ATOM     70  C   UNL A   1      42.261  22.378  28.142  1.00  0.00     0.134 A 
ATOM     71  C   UNL A   1      42.636  23.205  25.926  1.00  0.00     0.134 A 
ATOM     72  F   UNL A   1      42.197  22.558  29.469  1.00  0.00    -0.206 F 
ATOM     73  C   UNL A   1      42.040  21.097  27.636  1.00  0.00     0.040 A 
ATOM     74  C   UNL A   1      42.407  21.931  25.404  1.00  0.00     0.040 A 
ATOM     75  F   UNL A   1      42.923  24.199  25.073  1.00  0.00    -0.206 F 
ATOM     76  C   UNL A   1      42.110  20.872  26.262  1.00  0.00     0.006 A 
ENDBRANCH  48  69
BRANCH  60  77
ATOM     77  C   UNL A   1      48.261  26.800  29.417  1.00  0.00     0.057 A 
ATOM     78  C   UNL A   1      48.744  26.120  30.540  1.00  0.00     0.134 A 
ATOM     79  C   UNL A   1      49.157  27.064  28.375  1.00  0.00     0.134 A 
ATOM     80  F   UNL A   1      47.932  25.853  31.574  1.00  0.00    -0.206 F 
ATOM     81  C   UNL A   1      50.078  25.719  30.627  1.00  0.00     0.040 A 
ATOM     82  C   UNL A   1      50.490  26.661  28.447  1.00  0.00     0.040 A 
ATOM     83  F   UNL A   1      48.749  27.717  27.276  1.00  0.00    -0.206 F 
ATOM     84  C   UNL A   1      50.954  25.987  29.576  1.00  0.00     0.006 A 
ENDBRANCH  60  77
ENDBRANCH  34  35
ENDBRANCH  26  29
ENDBRANCH  24  25
ENDBRANCH  23  24
ENDBRANCH   1  23
TORSDOF 15
ENDMDL
MODEL 2
REMARK VINA RESULT:     -11.1      2.009      3.306
REMARK SMILES CSCc1ccc(C(=O)N2C[C@@H](O)C[C@@H]2C(=O)NCCCNC(=O)c2ccc(-c3c4nc(c(-c5c(F)cccc5F)c5ccc([nH]5)c(-c5c(F)cccc5F)c5nc(c(-c6c(F)cccc6F)c6ccc3[nH]6)C=C5)C=C4)cc2)o1
REMARK SMILES IDX 19 1 18 2 16 3 17 4 15 6 10 7 11 8 12 9 14 10 8 11 9 12 7 13
REMARK SMILES IDX 4 14 5 15 79 16 6 17 3 18 2 19 1 20 13 21 20 23 21 24 22 25
REMARK SMILES IDX 23 26 24 28 25 29 26 30 78 31 27 32 77 33 28 34 29 35 30 36
REMARK SMILES IDX 71 37 31 38 76 39 70 40 72 41 32 42 75 43 69 44 68 45 33 47
REMARK SMILES IDX 59 48 42 49 58 50 43 51 46 52 57 53 73 54 44 55 45 56 56 58
REMARK SMILES IDX 74 59 47 60 34 61 35 62 40 63 36 64 37 65 39 66 41 67 38 68
REMARK SMILES IDX 60 69 61 70 66 71 62 72 63 73 65 74 67 75 64 76 48 77 49 78
REMARK SMILES IDX 54 79 50 80 51 81 53 82 55 83 52 84
REMARK H PARENT 18 5 13 22 22 27 72 46 46 57
REMARK Flexibility Score: inf
ROOT
ATOM      1  C   UNL A   1      31.745  27.125  26.180  1.00  0.00     0.117 C 
ENDROOT
BRANCH   1   2
ATOM      2  N   UNL A   1      31.244  25.834  26.600  1.00  0.00    -0.354 N 
ATOM      3  C   UNL A   1      31.838  24.611  26.569  1.00  0.00     0.242 C 
ATOM      4  O   UNL A   1      31.306  23.728  27.251  1.00  0.00    -0.273 OA
ATOM      5  H   UNL A   1      30.329  25.842  26.964  1.00  0.00     0.163 HD
BRANCH   3   6
ATOM      6  C   UNL A   1      33.109  24.360  25.723  1.00  0.00     0.177 C 
ATOM      7  N   UNL A   1      32.807  23.293  24.765  1.00  0.00    -0.321 N 
ATOM      8  C   UNL A   1      33.424  22.032  25.142  1.00  0.00     0.152 C 
ATOM      9  C   UNL A   1      33.975  22.279  26.544  1.00  0.00     0.136 C 
ATOM     10  C   UNL A   1      34.253  23.782  26.552  1.00  0.00     0.069 C 
BRANCH   7  11
ATOM     11  C   UNL A   1      31.972  23.523  23.683  1.00  0.00     0.290 C 
ATOM     12  O   UNL A   1      31.394  22.578  23.137  1.00  0.00    -0.265 OA
BRANCH  11  13
ATOM     13  C   UNL A   1      31.932  24.882  23.176  1.00  0.00     0.191 A 
ATOM     14  C   UNL A   1      31.015  26.838  22.704  1.00  0.00     0.114 A 
ATOM     15  C   UNL A   1      32.231  26.804  22.050  1.00  0.00     0.047 A 
ATOM     16  O   UNL A   1      30.828  25.665  23.388  1.00  0.00    -0.455 OA
ATOM     17  C   UNL A   1      32.817  25.560  22.356  1.00  0.00     0.056 A 
BRANCH  14  18
ATOM     18  C   UNL A   1      29.898  27.815  22.783  1.00  0.00     0.144 C 
BRANCH  18  19
ATOM     19  S   UNL A   1      30.301  29.475  22.140  1.00  0.00    -0.157 SA
ATOM     20  C   UNL A   1      29.080  30.454  23.051  1.00  0.00     0.085 C 
ENDBRANCH  18  19
ENDBRANCH  14  18
ENDBRANCH  11  13
ENDBRANCH   7  11
BRANCH   9  21
ATOM     21  O   UNL A   1      35.151  21.542  26.824  1.00  0.00    -0.391 OA
ATOM     22  H   UNL A   1      35.484  21.784  27.702  1.00  0.00     0.211 HD
ENDBRANCH   9  21
ENDBRANCH   3   6
ENDBRANCH   1   2
BRANCH   1  23
ATOM     23  C   UNL A   1      32.217  28.010  27.327  1.00  0.00     0.042 C 
BRANCH  23  24
ATOM     24  C   UNL A   1      33.603  28.631  27.181  1.00  0.00     0.118 C 
BRANCH  24  25
ATOM     25  N   UNL A   1      33.719  29.973  27.733  1.00  0.00    -0.352 N 
ATOM     26  C   UNL A   1      34.763  30.644  28.321  1.00  0.00     0.251 C 
ATOM     27  H   UNL A   1      32.890  30.502  27.672  1.00  0.00     0.163 HD
ATOM     28  O   UNL A   1      34.562  31.768  28.776  1.00  0.00    -0.269 OA
BRANCH  26  29
ATOM     29  C   UNL A   1      36.103  30.033  28.470  1.00  0.00     0.039 A 
ATOM     30  C   UNL A   1      36.969  30.076  27.371  1.00  0.00     0.014 A 
ATOM     31  C   UNL A   1      36.512  29.396  29.643  1.00  0.00     0.014 A 
ATOM     32  C   UNL A   1      38.270  29.577  27.482  1.00  0.00     0.010 A 
ATOM     33  C   UNL A   1      37.833  28.967  29.778  1.00  0.00     0.010 A 
ATOM     34  C   UNL A   1      38.731  29.072  28.705  1.00  0.00    -0.014 A 
BRANCH  34  35
ATOM     35  C   UNL A   1      40.153  28.686  28.898  1.00  0.00     0.031 A 
ATOM     36  C   UNL A   1      41.151  29.681  29.420  1.00  0.00     0.074 A 
ATOM     37  C   UNL A   1      40.568  27.467  28.506  1.00  0.00     0.049 A 
ATOM     38  N   UNL A   1      42.455  29.585  29.479  1.00  0.00    -0.248 NA
ATOM     39  C   UNL A   1      40.618  30.962  29.908  1.00  0.00     0.031 C 
ATOM     40  C   UNL A   1      39.719  26.419  27.936  1.00  0.00     0.029 A 
ATOM     41  N   UNL A   1      41.823  26.908  28.512  1.00  0.00    -0.354 N 
ATOM     42  C   UNL A   1      42.903  30.815  29.944  1.00  0.00     0.074 A 
ATOM     43  C   UNL A   1      41.731  31.635  30.168  1.00  0.00     0.031 C 
ATOM     44  C   UNL A   1      40.470  25.341  27.664  1.00  0.00     0.029 A 
ATOM     45  C   UNL A   1      41.858  25.633  28.003  1.00  0.00     0.049 A 
ATOM     46  H   UNL A   1      42.621  27.377  28.848  1.00  0.00     0.167 HD
ATOM     47  C   UNL A   1      44.175  31.223  30.160  1.00  0.00     0.037 A 
ATOM     48  C   UNL A   1      42.894  24.796  27.816  1.00  0.00     0.037 A 
ATOM     49  C   UNL A   1      45.339  30.391  30.024  1.00  0.00     0.049 A 
ATOM     50  C   UNL A   1      44.283  25.236  28.171  1.00  0.00     0.074 A 
ATOM     51  C   UNL A   1      46.660  30.699  30.305  1.00  0.00     0.029 A 
ATOM     52  N   UNL A   1      45.319  29.077  29.586  1.00  0.00    -0.354 N 
ATOM     53  N   UNL A   1      44.686  26.396  28.624  1.00  0.00    -0.248 NA
ATOM     54  C   UNL A   1      45.359  24.252  27.983  1.00  0.00     0.031 C 
ATOM     55  C   UNL A   1      47.440  29.569  30.033  1.00  0.00     0.029 A 
ATOM     56  C   UNL A   1      46.603  28.559  29.592  1.00  0.00     0.049 A 
ATOM     57  H   UNL A   1      44.512  28.585  29.312  1.00  0.00     0.167 HD
ATOM     58  C   UNL A   1      46.059  26.284  28.778  1.00  0.00     0.074 A 
ATOM     59  C   UNL A   1      46.421  24.938  28.382  1.00  0.00     0.031 C 
ATOM     60  C   UNL A   1      46.943  27.216  29.205  1.00  0.00     0.037 A 
BRANCH  47  61
ATOM     61  C   UNL A   1      44.376  32.651  30.560  1.00  0.00     0.057 A 
ATOM     62  C   UNL A   1      44.431  33.040  31.903  1.00  0.00     0.134 A 
ATOM     63  C   UNL A   1      44.546  33.640  29.585  1.00  0.00     0.134 A 
ATOM     64  F   UNL A   1      44.260  32.138  32.879  1.00  0.00    -0.206 F 
ATOM     65  C   UNL A   1      44.639  34.373  32.263  1.00  0.00     0.040 A 
ATOM     66  C   UNL A   1      44.767  34.974  29.932  1.00  0.00     0.040 A 
ATOM     67  F   UNL A   1      44.501  33.326  28.281  1.00  0.00    -0.206 F 
ATOM     68  C   UNL A   1      44.812  35.343  31.276  1.00  0.00     0.006 A 
ENDBRANCH  47  61
BRANCH  48  69
ATOM     69  C   UNL A   1      42.653  23.443  27.268  1.00  0.00     0.057 A 
ATOM     70  C   UNL A   1      42.326  22.377  28.112  1.00  0.00     0.134 A 
ATOM     71  C   UNL A   1      42.739  23.187  25.896  1.00  0.00     0.134 A 
ATOM     72  F   UNL A   1      42.247  22.566  29.437  1.00  0.00    -0.206 F 
ATOM     73  C   UNL A   1      42.098  21.096  27.611  1.00  0.00     0.040 A 
ATOM     74  C   UNL A   1      42.503  21.912  25.380  1.00  0.00     0.040 A 
ATOM     75  F   UNL A   1      43.046  24.173  25.041  1.00  0.00    -0.206 F 
ATOM     76  C   UNL A   1      42.183  20.862  26.239  1.00  0.00     0.006 A 
ENDBRANCH  48  69
BRANCH  60  77
ATOM     77  C   UNL A   1      48.377  26.805  29.280  1.00  0.00     0.057 A 
ATOM     78  C   UNL A   1      49.264  27.064  28.229  1.00  0.00     0.134 A 
ATOM     79  C   UNL A   1      48.880  26.167  30.420  1.00  0.00     0.134 A 
ATOM     80  F   UNL A   1      48.833  27.659  27.107  1.00  0.00    -0.206 F 
ATOM     81  C   UNL A   1      50.607  26.694  28.306  1.00  0.00     0.040 A 
ATOM     82  C   UNL A   1      50.223  25.800  30.512  1.00  0.00     0.040 A 
ATOM     83  F   UNL A   1      48.074  25.891  31.456  1.00  0.00    -0.206 F 
ATOM     84  C   UNL A   1      51.090  26.064  29.452  1.00  0.00     0.006 A 
ENDBRANCH  60  77
ENDBRANCH  34  35
ENDBRANCH  26  29
ENDBRANCH  24  25
ENDBRANCH  23  24
ENDBRANCH   1  23
TORSDOF 15
ENDMDL
MODEL 3
REMARK VINA RESULT:     -11.1      2.653      7.870
REMARK SMILES CSCc1ccc(C(=O)N2C[C@@H](O)C[C@@H]2C(=O)NCCCNC(=O)c2ccc(-c3c4nc(c(-c5c(F)cccc5F)c5ccc([nH]5)c(-c5c(F)cccc5F)c5nc(c(-c6c(F)cccc6F)c6ccc3[nH]6)C=C5)C=C4)cc2)o1
REMARK SMILES IDX 19 1 18 2 16 3 17 4 15 6 10 7 11 8 12 9 14 10 8 11 9 12 7 13
REMARK SMILES IDX 4 14 5 15 79 16 6 17 3 18 2 19 1 20 13 21 20 23 21 24 22 25
REMARK SMILES IDX 23 26 24 28 25 29 26 30 78 31 27 32 77 33 28 34 29 35 30 36
REMARK SMILES IDX 71 37 31 38 76 39 70 40 72 41 32 42 75 43 69 44 68 45 33 47
REMARK SMILES IDX 59 48 42 49 58 50 43 51 46 52 57 53 73 54 44 55 45 56 56 58
REMARK SMILES IDX 74 59 47 60 34 61 35 62 40 63 36 64 37 65 39 66 41 67 38 68
REMARK SMILES IDX 60 69 61 70 66 71 62 72 63 73 65 74 67 75 64 76 48 77 49 78
REMARK SMILES IDX 54 79 50 80 51 81 53 82 55 83 52 84
REMARK H PARENT 18 5 13 22 22 27 72 46 46 57
REMARK Flexibility Score: inf
ROOT
ATOM      1  C   UNL A   1      36.331  20.798  24.849  1.00  0.00     0.117 C 
ENDROOT
BRANCH   1   2
ATOM      2  N   UNL A   1      35.723  21.145  26.115  1.00  0.00    -0.354 N 
ATOM      3  C   UNL A   1      34.451  21.534  26.399  1.00  0.00     0.242 C 
ATOM      4  O   UNL A   1      34.119  21.489  27.588  1.00  0.00    -0.273 OA
ATOM      5  H   UNL A   1      36.324  21.091  26.893  1.00  0.00     0.163 HD
BRANCH   3   6
ATOM      6  C   UNL A   1      33.491  22.004  25.280  1.00  0.00     0.177 C 
ATOM      7  N   UNL A   1      33.323  23.454  25.413  1.00  0.00    -0.321 N 
ATOM      8  C   UNL A   1      32.028  23.803  25.974  1.00  0.00     0.152 C 
ATOM      9  C   UNL A   1      31.431  22.470  26.418  1.00  0.00     0.136 C 
ATOM     10  C   UNL A   1      32.076  21.462  25.468  1.00  0.00     0.069 C 
BRANCH   7  11
ATOM     11  C   UNL A   1      34.348  24.323  25.077  1.00  0.00     0.290 C 
ATOM     12  O   UNL A   1      35.413  24.293  25.701  1.00  0.00    -0.265 OA
BRANCH  11  13
ATOM     13  C   UNL A   1      34.044  25.320  24.066  1.00  0.00     0.191 A 
ATOM     14  C   UNL A   1      33.601  27.342  23.289  1.00  0.00     0.114 A 
ATOM     15  C   UNL A   1      33.330  26.457  22.265  1.00  0.00     0.047 A 
ATOM     16  O   UNL A   1      34.032  26.650  24.391  1.00  0.00    -0.455 OA
ATOM     17  C   UNL A   1      33.618  25.169  22.759  1.00  0.00     0.056 A 
BRANCH  14  18
ATOM     18  C   UNL A   1      33.486  28.814  23.456  1.00  0.00     0.144 C 
BRANCH  18  19
ATOM     19  S   UNL A   1      32.379  29.335  24.810  1.00  0.00    -0.157 SA
ATOM     20  C   UNL A   1      30.896  28.399  24.363  1.00  0.00     0.085 C 
ENDBRANCH  18  19
ENDBRANCH  14  18
ENDBRANCH  11  13
ENDBRANCH   7  11
BRANCH   9  21
ATOM     21  O   UNL A   1      30.018  22.428  26.324  1.00  0.00    -0.391 OA
ATOM     22  H   UNL A   1      29.638  22.318  27.209  1.00  0.00     0.211 HD
ENDBRANCH   9  21
ENDBRANCH   3   6
ENDBRANCH   1   2
BRANCH   1  23
ATOM     23  C   UNL A   1      37.514  19.845  24.969  1.00  0.00     0.042 C 
BRANCH  23  24
ATOM     24  C   UNL A   1      38.734  20.368  25.723  1.00  0.00     0.118 C 
BRANCH  24  25
ATOM     25  N   UNL A   1      39.869  19.457  25.731  1.00  0.00    -0.352 N 
ATOM     26  C   UNL A   1      41.183  19.621  26.096  1.00  0.00     0.251 C 
ATOM     27  H   UNL A   1      39.654  18.549  25.415  1.00  0.00     0.163 HD
ATOM     28  O   UNL A   1      41.963  18.686  25.927  1.00  0.00    -0.269 OA
BRANCH  26  29
ATOM     29  C   UNL A   1      41.694  20.901  26.632  1.00  0.00     0.039 A 
ATOM     30  C   UNL A   1      42.196  21.839  25.721  1.00  0.00     0.014 A 
ATOM     31  C   UNL A   1      41.724  21.186  27.998  1.00  0.00     0.014 A 
ATOM     32  C   UNL A   1      42.626  23.092  26.168  1.00  0.00     0.010 A 
ATOM     33  C   UNL A   1      42.080  22.462  28.436  1.00  0.00     0.010 A 
ATOM     34  C   UNL A   1      42.517  23.435  27.522  1.00  0.00    -0.014 A 
BRANCH  34  35
ATOM     35  C   UNL A   1      42.811  24.810  28.001  1.00  0.00     0.031 A 
ATOM     36  C   UNL A   1      44.205  25.197  28.406  1.00  0.00     0.074 A 
ATOM     37  C   UNL A   1      41.801  25.685  28.168  1.00  0.00     0.049 A 
ATOM     38  N   UNL A   1      44.615  26.280  29.016  1.00  0.00    -0.248 NA
ATOM     39  C   UNL A   1      45.273  24.227  28.119  1.00  0.00     0.031 C 
ATOM     40  C   UNL A   1      40.391  25.427  27.864  1.00  0.00     0.029 A 
ATOM     41  N   UNL A   1      41.804  26.968  28.657  1.00  0.00    -0.354 N 
ATOM     42  C   UNL A   1      45.971  26.093  29.247  1.00  0.00     0.074 A 
ATOM     43  C   UNL A   1      46.320  24.800  28.697  1.00  0.00     0.031 C 
ATOM     44  C   UNL A   1      39.670  26.521  28.155  1.00  0.00     0.029 A 
ATOM     45  C   UNL A   1      40.557  27.542  28.700  1.00  0.00     0.049 A 
ATOM     46  H   UNL A   1      42.622  27.432  28.948  1.00  0.00     0.167 HD
ATOM     47  C   UNL A   1      46.845  26.922  29.865  1.00  0.00     0.037 A 
ATOM     48  C   UNL A   1      40.168  28.750  29.145  1.00  0.00     0.037 A 
ATOM     49  C   UNL A   1      46.529  28.243  30.337  1.00  0.00     0.049 A 
ATOM     50  C   UNL A   1      41.178  29.695  29.723  1.00  0.00     0.074 A 
ATOM     51  C   UNL A   1      47.375  29.185  30.899  1.00  0.00     0.029 A 
ATOM     52  N   UNL A   1      45.271  28.817  30.284  1.00  0.00    -0.354 N 
ATOM     53  N   UNL A   1      42.459  29.507  29.920  1.00  0.00    -0.248 NA
ATOM     54  C   UNL A   1      40.687  31.014  30.145  1.00  0.00     0.031 C 
ATOM     55  C   UNL A   1      46.624  30.330  31.189  1.00  0.00     0.029 A 
ATOM     56  C   UNL A   1      45.315  30.101  30.800  1.00  0.00     0.049 A 
ATOM     57  H   UNL A   1      44.463  28.377  29.932  1.00  0.00     0.167 HD
ATOM     58  C   UNL A   1      42.929  30.683  30.485  1.00  0.00     0.074 A 
ATOM     59  C   UNL A   1      41.799  31.584  30.590  1.00  0.00     0.031 C 
ATOM     60  C   UNL A   1      44.185  30.986  30.887  1.00  0.00     0.037 A 
BRANCH  47  61
ATOM     61  C   UNL A   1      48.236  26.414  30.077  1.00  0.00     0.057 A 
ATOM     62  C   UNL A   1      49.246  26.610  29.128  1.00  0.00     0.134 A 
ATOM     63  C   UNL A   1      48.572  25.748  31.262  1.00  0.00     0.134 A 
ATOM     64  F   UNL A   1      48.978  27.229  27.969  1.00  0.00    -0.206 F 
ATOM     65  C   UNL A   1      50.545  26.148  29.347  1.00  0.00     0.040 A 
ATOM     66  C   UNL A   1      49.869  25.293  31.497  1.00  0.00     0.040 A 
ATOM     67  F   UNL A   1      47.644  25.530  32.207  1.00  0.00    -0.206 F 
ATOM     68  C   UNL A   1      50.860  25.492  30.536  1.00  0.00     0.006 A 
ENDBRANCH  47  61
BRANCH  48  69
ATOM     69  C   UNL A   1      38.743  29.140  29.052  1.00  0.00     0.057 A 
ATOM     70  C   UNL A   1      38.201  29.585  27.842  1.00  0.00     0.134 A 
ATOM     71  C   UNL A   1      37.895  29.073  30.162  1.00  0.00     0.134 A 
ATOM     72  F   UNL A   1      38.976  29.683  26.752  1.00  0.00    -0.206 F 
ATOM     73  C   UNL A   1      36.862  29.958  27.739  1.00  0.00     0.040 A 
ATOM     74  C   UNL A   1      36.550  29.433  30.070  1.00  0.00     0.040 A 
ATOM     75  F   UNL A   1      38.362  28.650  31.346  1.00  0.00    -0.206 F 
ATOM     76  C   UNL A   1      36.031  29.880  28.856  1.00  0.00     0.006 A 
ENDBRANCH  48  69
BRANCH  60  77
ATOM     77  C   UNL A   1      44.403  32.349  31.458  1.00  0.00     0.057 A 
ATOM     78  C   UNL A   1      44.734  33.436  30.642  1.00  0.00     0.134 A 
ATOM     79  C   UNL A   1      44.259  32.581  32.831  1.00  0.00     0.134 A 
ATOM     80  F   UNL A   1      44.898  33.268  29.321  1.00  0.00    -0.206 F 
ATOM     81  C   UNL A   1      44.922  34.712  31.174  1.00  0.00     0.040 A 
ATOM     82  C   UNL A   1      44.436  33.854  33.373  1.00  0.00     0.040 A 
ATOM     83  F   UNL A   1      43.947  31.575  33.661  1.00  0.00    -0.206 F 
ATOM     84  C   UNL A   1      44.769  34.924  32.543  1.00  0.00     0.006 A 
ENDBRANCH  60  77
ENDBRANCH  34  35
ENDBRANCH  26  29
ENDBRANCH  24  25
ENDBRANCH  23  24
ENDBRANCH   1  23
TORSDOF 15
ENDMDL
