MODEL 1
REMARK VINA RESULT:     -11.3      0.000      0.000
REMARK SMILES CCc1nc(C)c(C(=O)NCCCNC(=O)c2ccc(-c3c4nc(c(-c5c(F)cccc5F)c5ccc([nH]5)c(-c5c(F)cccc5F)c5nc(c(-c6c(F)cccc6F)c6ccc3[nH]6)C=C5)C=C4)cc2)c(SCc2cnc(Cl)s2)n1
REMARK SMILES IDX 11 1 10 2 8 3 9 4 7 6 3 7 4 8 80 9 5 10 71 11 6 12 2 13 1 14
REMARK SMILES IDX 72 15 73 16 74 17 75 18 79 19 76 20 77 21 78 22 12 23 13 24
REMARK SMILES IDX 14 25 15 26 16 28 17 29 18 30 70 31 19 32 69 33 20 34 21 35
REMARK SMILES IDX 22 36 63 37 23 38 68 39 62 40 64 41 24 42 67 43 61 44 60 45
REMARK SMILES IDX 25 47 51 48 34 49 50 50 35 51 38 52 49 53 65 54 36 55 37 56
REMARK SMILES IDX 48 58 66 59 39 60 26 61 27 62 32 63 28 64 29 65 31 66 33 67
REMARK SMILES IDX 30 68 52 69 53 70 58 71 54 72 55 73 57 74 59 75 56 76 40 77
REMARK SMILES IDX 41 78 46 79 42 80 43 81 45 82 47 83 44 84
REMARK H PARENT 10 5 14 27 64 46 38 57
REMARK Flexibility Score: inf
ROOT
ATOM      1  C   UNL A   1      36.783  20.458  24.578  1.00  0.00     0.118 C 
ENDROOT
BRANCH   1   2
ATOM      2  N   UNL A   1      35.793  20.471  25.641  1.00  0.00    -0.352 N 
ATOM      3  C   UNL A   1      35.050  21.487  26.184  1.00  0.00     0.255 C 
ATOM      4  O   UNL A   1      34.554  21.297  27.294  1.00  0.00    -0.269 OA
ATOM      5  H   UNL A   1      35.626  19.590  26.047  1.00  0.00     0.163 HD
BRANCH   3   6
ATOM      6  C   UNL A   1      34.710  22.731  25.480  1.00  0.00     0.093 A 
ATOM      7  C   UNL A   1      33.766  25.213  24.852  1.00  0.00     0.129 A 
ATOM      8  N   UNL A   1      35.054  25.095  25.178  1.00  0.00    -0.237 NA
ATOM      9  N   UNL A   1      32.947  24.169  24.701  1.00  0.00    -0.226 NA
ATOM     10  C   UNL A   1      35.521  23.867  25.501  1.00  0.00     0.055 A 
ATOM     11  C   UNL A   1      33.403  22.930  25.026  1.00  0.00     0.113 A 
ATOM     12  C   UNL A   1      36.946  23.927  25.946  1.00  0.00     0.068 C 
BRANCH   7  13
ATOM     13  C   UNL A   1      33.195  26.602  24.795  1.00  0.00     0.074 C 
ATOM     14  C   UNL A   1      33.558  27.405  26.039  1.00  0.00     0.012 C 
ENDBRANCH   7  13
BRANCH  11  15
ATOM     15  S   UNL A   1      32.038  21.781  24.866  1.00  0.00    -0.100 SA
BRANCH  15  16
ATOM     16  C   UNL A   1      32.227  20.852  23.321  1.00  0.00     0.125 C 
BRANCH  16  17
ATOM     17  C   UNL A   1      32.455  19.385  23.480  1.00  0.00     0.036 A 
ATOM     18  C   UNL A   1      32.573  18.380  22.538  1.00  0.00     0.129 A 
ATOM     19  S   UNL A   1      32.733  18.703  25.042  1.00  0.00    -0.107 S 
ATOM     20  N   UNL A   1      32.930  17.133  23.010  1.00  0.00    -0.233 NA
ATOM     21  C   UNL A   1      33.030  17.199  24.314  1.00  0.00     0.183 A 
ATOM     22  Cl  UNL A   1      33.474  15.849  25.273  1.00  0.00    -0.051 Cl
ENDBRANCH  16  17
ENDBRANCH  15  16
ENDBRANCH  11  15
ENDBRANCH   3   6
ENDBRANCH   1   2
BRANCH   1  23
ATOM     23  C   UNL A   1      37.875  19.451  24.944  1.00  0.00     0.042 C 
BRANCH  23  24
ATOM     24  C   UNL A   1      38.972  20.055  25.804  1.00  0.00     0.118 C 
BRANCH  24  25
ATOM     25  N   UNL A   1      40.137  19.186  25.847  1.00  0.00    -0.352 N 
ATOM     26  C   UNL A   1      41.450  19.538  26.042  1.00  0.00     0.251 C 
ATOM     27  H   UNL A   1      39.964  18.226  25.720  1.00  0.00     0.163 HD
ATOM     28  O   UNL A   1      42.347  18.741  25.771  1.00  0.00    -0.269 OA
BRANCH  26  29
ATOM     29  C   UNL A   1      41.785  20.879  26.569  1.00  0.00     0.039 A 
ATOM     30  C   UNL A   1      42.241  21.864  25.690  1.00  0.00     0.014 A 
ATOM     31  C   UNL A   1      41.659  21.158  27.934  1.00  0.00     0.014 A 
ATOM     32  C   UNL A   1      42.533  23.141  26.175  1.00  0.00     0.010 A 
ATOM     33  C   UNL A   1      41.866  22.452  28.399  1.00  0.00     0.010 A 
ATOM     34  C   UNL A   1      42.327  23.450  27.529  1.00  0.00    -0.014 A 
BRANCH  34  35
ATOM     35  C   UNL A   1      42.615  24.802  28.065  1.00  0.00     0.031 A 
ATOM     36  C   UNL A   1      44.011  25.154  28.500  1.00  0.00     0.074 A 
ATOM     37  C   UNL A   1      41.612  25.686  28.224  1.00  0.00     0.049 A 
ATOM     38  N   UNL A   1      44.454  26.254  29.053  1.00  0.00    -0.248 NA
ATOM     39  C   UNL A   1      45.039  24.116  28.323  1.00  0.00     0.031 C 
ATOM     40  C   UNL A   1      40.207  25.439  27.894  1.00  0.00     0.029 A 
ATOM     41  N   UNL A   1      41.619  26.966  28.715  1.00  0.00    -0.354 N 
ATOM     42  C   UNL A   1      45.802  26.031  29.307  1.00  0.00     0.074 A 
ATOM     43  C   UNL A   1      46.090  24.672  28.905  1.00  0.00     0.031 C 
ATOM     44  C   UNL A   1      39.492  26.541  28.170  1.00  0.00     0.029 A 
ATOM     45  C   UNL A   1      40.380  27.557  28.728  1.00  0.00     0.049 A 
ATOM     46  H   UNL A   1      42.436  27.419  29.030  1.00  0.00     0.167 HD
ATOM     47  C   UNL A   1      46.723  26.890  29.806  1.00  0.00     0.037 A 
ATOM     48  C   UNL A   1      40.002  28.780  29.145  1.00  0.00     0.037 A 
ATOM     49  C   UNL A   1      46.434  28.250  30.178  1.00  0.00     0.049 A 
ATOM     50  C   UNL A   1      41.041  29.723  29.679  1.00  0.00     0.074 A 
ATOM     51  C   UNL A   1      47.307  29.227  30.622  1.00  0.00     0.029 A 
ATOM     52  N   UNL A   1      45.171  28.822  30.149  1.00  0.00    -0.354 N 
ATOM     53  N   UNL A   1      42.328  29.528  29.842  1.00  0.00    -0.248 NA
ATOM     54  C   UNL A   1      40.579  31.059  30.082  1.00  0.00     0.031 C 
ATOM     55  C   UNL A   1      46.562  30.377  30.908  1.00  0.00     0.029 A 
ATOM     56  C   UNL A   1      45.234  30.132  30.592  1.00  0.00     0.049 A 
ATOM     57  H   UNL A   1      44.350  28.364  29.856  1.00  0.00     0.167 HD
ATOM     58  C   UNL A   1      42.835  30.719  30.344  1.00  0.00     0.074 A 
ATOM     59  C   UNL A   1      41.717  31.637  30.445  1.00  0.00     0.031 C 
ATOM     60  C   UNL A   1      44.109  31.028  30.689  1.00  0.00     0.037 A 
BRANCH  47  61
ATOM     61  C   UNL A   1      48.124  26.374  29.976  1.00  0.00     0.057 A 
ATOM     62  C   UNL A   1      49.074  26.452  28.949  1.00  0.00     0.134 A 
ATOM     63  C   UNL A   1      48.529  25.791  31.184  1.00  0.00     0.134 A 
ATOM     64  F   UNL A   1      48.751  26.986  27.762  1.00  0.00    -0.206 F 
ATOM     65  C   UNL A   1      50.362  25.933  29.102  1.00  0.00     0.040 A 
ATOM     66  C   UNL A   1      49.822  25.297  31.360  1.00  0.00     0.040 A 
ATOM     67  F   UNL A   1      47.673  25.687  32.212  1.00  0.00    -0.206 F 
ATOM     68  C   UNL A   1      50.740  25.358  30.313  1.00  0.00     0.006 A 
ENDBRANCH  47  61
BRANCH  48  69
ATOM     69  C   UNL A   1      38.578  29.186  29.036  1.00  0.00     0.057 A 
ATOM     70  C   UNL A   1      37.729  29.144  30.147  1.00  0.00     0.134 A 
ATOM     71  C   UNL A   1      38.042  29.652  27.830  1.00  0.00     0.134 A 
ATOM     72  F   UNL A   1      38.182  28.693  31.326  1.00  0.00    -0.206 F 
ATOM     73  C   UNL A   1      36.394  29.542  30.062  1.00  0.00     0.040 A 
ATOM     74  C   UNL A   1      36.715  30.075  27.736  1.00  0.00     0.040 A 
ATOM     75  F   UNL A   1      38.807  29.726  26.731  1.00  0.00    -0.206 F 
ATOM     76  C   UNL A   1      35.885  30.016  28.855  1.00  0.00     0.006 A 
ENDBRANCH  48  69
BRANCH  60  77
ATOM     77  C   UNL A   1      44.365  32.420  31.186  1.00  0.00     0.057 A 
ATOM     78  C   UNL A   1      44.652  33.476  30.311  1.00  0.00     0.134 A 
ATOM     79  C   UNL A   1      44.279  32.717  32.552  1.00  0.00     0.134 A 
ATOM     80  F   UNL A   1      44.760  33.256  28.991  1.00  0.00    -0.206 F 
ATOM     81  C   UNL A   1      44.866  34.773  30.780  1.00  0.00     0.040 A 
ATOM     82  C   UNL A   1      44.465  34.014  33.030  1.00  0.00     0.040 A 
ATOM     83  F   UNL A   1      43.998  31.752  33.441  1.00  0.00    -0.206 F 
ATOM     84  C   UNL A   1      44.765  35.045  32.144  1.00  0.00     0.006 A 
ENDBRANCH  60  77
ENDBRANCH  34  35
ENDBRANCH  26  29
ENDBRANCH  24  25
ENDBRANCH  23  24
ENDBRANCH   1  23
TORSDOF 14
ENDMDL
MODEL 2
REMARK VINA RESULT:     -11.1      1.566      6.281
REMARK SMILES CCc1nc(C)c(C(=O)NCCCNC(=O)c2ccc(-c3c4nc(c(-c5c(F)cccc5F)c5ccc([nH]5)c(-c5c(F)cccc5F)c5nc(c(-c6c(F)cccc6F)c6ccc3[nH]6)C=C5)C=C4)cc2)c(SCc2cnc(Cl)s2)n1
REMARK SMILES IDX 11 1 10 2 8 3 9 4 7 6 3 7 4 8 80 9 5 10 71 11 6 12 2 13 1 14
REMARK SMILES IDX 72 15 73 16 74 17 75 18 79 19 76 20 77 21 78 22 12 23 13 24
REMARK SMILES IDX 14 25 15 26 16 28 17 29 18 30 70 31 19 32 69 33 20 34 21 35
REMARK SMILES IDX 22 36 63 37 23 38 68 39 62 40 64 41 24 42 67 43 61 44 60 45
REMARK SMILES IDX 25 47 51 48 34 49 50 50 35 51 38 52 49 53 65 54 36 55 37 56
REMARK SMILES IDX 48 58 66 59 39 60 26 61 27 62 32 63 28 64 29 65 31 66 33 67
REMARK SMILES IDX 30 68 52 69 53 70 58 71 54 72 55 73 57 74 59 75 56 76 40 77
REMARK SMILES IDX 41 78 46 79 42 80 43 81 45 82 47 83 44 84
REMARK H PARENT 10 5 14 27 64 46 38 57
REMARK Flexibility Score: inf
ROOT
ATOM      1  C   UNL A   1      36.765  20.499  24.630  1.00  0.00     0.118 C 
ENDROOT
BRANCH   1   2
ATOM      2  N   UNL A   1      35.793  20.549  25.708  1.00  0.00    -0.352 N 
ATOM      3  C   UNL A   1      35.005  21.566  26.181  1.00  0.00     0.255 C 
ATOM      4  O   UNL A   1      34.538  21.443  27.312  1.00  0.00    -0.269 OA
ATOM      5  H   UNL A   1      35.681  19.697  26.188  1.00  0.00     0.163 HD
BRANCH   3   6
ATOM      6  C   UNL A   1      34.588  22.728  25.383  1.00  0.00     0.093 A 
ATOM      7  C   UNL A   1      33.487  25.088  24.568  1.00  0.00     0.129 A 
ATOM      8  N   UNL A   1      34.779  25.079  24.901  1.00  0.00    -0.237 NA
ATOM      9  N   UNL A   1      32.738  23.984  24.499  1.00  0.00    -0.226 NA
ATOM     10  C   UNL A   1      35.323  23.913  25.316  1.00  0.00     0.055 A 
ATOM     11  C   UNL A   1      33.272  22.806  24.917  1.00  0.00     0.113 A 
ATOM     12  C   UNL A   1      36.739  24.098  25.754  1.00  0.00     0.068 C 
BRANCH   7  13
ATOM     13  C   UNL A   1      32.827  26.428  24.406  1.00  0.00     0.074 C 
ATOM     14  C   UNL A   1      33.487  27.484  25.284  1.00  0.00     0.012 C 
ENDBRANCH   7  13
BRANCH  11  15
ATOM     15  S   UNL A   1      31.985  21.562  24.847  1.00  0.00    -0.100 SA
BRANCH  15  16
ATOM     16  C   UNL A   1      32.180  20.596  23.326  1.00  0.00     0.125 C 
BRANCH  16  17
ATOM     17  C   UNL A   1      32.511  19.154  23.522  1.00  0.00     0.036 A 
ATOM     18  C   UNL A   1      32.652  18.125  22.608  1.00  0.00     0.129 A 
ATOM     19  S   UNL A   1      32.904  18.547  25.090  1.00  0.00    -0.107 S 
ATOM     20  N   UNL A   1      33.111  16.922  23.102  1.00  0.00    -0.233 NA
ATOM     21  C   UNL A   1      33.265  17.040  24.397  1.00  0.00     0.183 A 
ATOM     22  Cl  UNL A   1      33.841  15.756  25.377  1.00  0.00    -0.051 Cl
ENDBRANCH  16  17
ENDBRANCH  15  16
ENDBRANCH  11  15
ENDBRANCH   3   6
ENDBRANCH   1   2
BRANCH   1  23
ATOM     23  C   UNL A   1      37.840  19.473  24.993  1.00  0.00     0.042 C 
BRANCH  23  24
ATOM     24  C   UNL A   1      39.008  20.081  25.751  1.00  0.00     0.118 C 
BRANCH  24  25
ATOM     25  N   UNL A   1      40.092  19.122  25.895  1.00  0.00    -0.352 N 
ATOM     26  C   UNL A   1      41.433  19.375  26.042  1.00  0.00     0.251 C 
ATOM     27  H   UNL A   1      39.832  18.174  25.885  1.00  0.00     0.163 HD
ATOM     28  O   UNL A   1      42.252  18.474  25.867  1.00  0.00    -0.269 OA
BRANCH  26  29
ATOM     29  C   UNL A   1      41.893  20.734  26.402  1.00  0.00     0.039 A 
ATOM     30  C   UNL A   1      42.105  21.052  27.746  1.00  0.00     0.014 A 
ATOM     31  C   UNL A   1      42.104  21.698  25.410  1.00  0.00     0.014 A 
ATOM     32  C   UNL A   1      42.566  22.323  28.091  1.00  0.00     0.010 A 
ATOM     33  C   UNL A   1      42.647  22.933  25.748  1.00  0.00     0.010 A 
ATOM     34  C   UNL A   1      42.861  23.266  27.093  1.00  0.00    -0.014 A 
BRANCH  34  35
ATOM     35  C   UNL A   1      43.366  24.618  27.433  1.00  0.00     0.031 A 
ATOM     36  C   UNL A   1      42.407  25.685  27.885  1.00  0.00     0.074 A 
ATOM     37  C   UNL A   1      44.672  24.905  27.270  1.00  0.00     0.049 A 
ATOM     38  N   UNL A   1      42.638  26.942  28.165  1.00  0.00    -0.248 NA
ATOM     39  C   UNL A   1      40.993  25.295  28.002  1.00  0.00     0.031 C 
ATOM     40  C   UNL A   1      45.688  23.971  26.782  1.00  0.00     0.029 A 
ATOM     41  N   UNL A   1      45.365  26.068  27.486  1.00  0.00    -0.354 N 
ATOM     42  C   UNL A   1      41.399  27.493  28.470  1.00  0.00     0.074 A 
ATOM     43  C   UNL A   1      40.414  26.452  28.281  1.00  0.00     0.031 C 
ATOM     44  C   UNL A   1      46.878  24.591  26.758  1.00  0.00     0.029 A 
ATOM     45  C   UNL A   1      46.703  25.973  27.195  1.00  0.00     0.049 A 
ATOM     46  H   UNL A   1      44.942  26.894  27.818  1.00  0.00     0.167 HD
ATOM     47  C   UNL A   1      41.111  28.747  28.894  1.00  0.00     0.037 A 
ATOM     48  C   UNL A   1      47.678  26.898  27.269  1.00  0.00     0.037 A 
ATOM     49  C   UNL A   1      42.102  29.770  29.106  1.00  0.00     0.049 A 
ATOM     50  C   UNL A   1      47.342  28.277  27.758  1.00  0.00     0.074 A 
ATOM     51  C   UNL A   1      41.929  31.049  29.604  1.00  0.00     0.029 A 
ATOM     52  N   UNL A   1      43.453  29.626  28.827  1.00  0.00    -0.354 N 
ATOM     53  N   UNL A   1      46.179  28.765  28.117  1.00  0.00    -0.248 NA
ATOM     54  C   UNL A   1      48.452  29.234  27.857  1.00  0.00     0.031 C 
ATOM     55  C   UNL A   1      43.169  31.695  29.582  1.00  0.00     0.029 A 
ATOM     56  C   UNL A   1      44.124  30.802  29.118  1.00  0.00     0.049 A 
ATOM     57  H   UNL A   1      43.874  28.809  28.474  1.00  0.00     0.167 HD
ATOM     58  C   UNL A   1      46.418  30.076  28.507  1.00  0.00     0.074 A 
ATOM     59  C   UNL A   1      47.841  30.302  28.353  1.00  0.00     0.031 C 
ATOM     60  C   UNL A   1      45.541  31.008  28.954  1.00  0.00     0.037 A 
BRANCH  47  61
ATOM     61  C   UNL A   1      39.668  29.072  29.151  1.00  0.00     0.057 A 
ATOM     62  C   UNL A   1      38.805  29.484  28.125  1.00  0.00     0.134 A 
ATOM     63  C   UNL A   1      39.130  28.970  30.441  1.00  0.00     0.134 A 
ATOM     64  F   UNL A   1      39.256  29.616  26.870  1.00  0.00    -0.206 F 
ATOM     65  C   UNL A   1      37.474  29.823  28.380  1.00  0.00     0.040 A 
ATOM     66  C   UNL A   1      37.794  29.275  30.702  1.00  0.00     0.040 A 
ATOM     67  F   UNL A   1      39.896  28.576  31.470  1.00  0.00    -0.206 F 
ATOM     68  C   UNL A   1      36.964  29.713  29.672  1.00  0.00     0.006 A 
ENDBRANCH  47  61
BRANCH  48  69
ATOM     69  C   UNL A   1      49.069  26.529  26.904  1.00  0.00     0.057 A 
ATOM     70  C   UNL A   1      49.931  25.947  27.840  1.00  0.00     0.134 A 
ATOM     71  C   UNL A   1      49.558  26.720  25.606  1.00  0.00     0.134 A 
ATOM     72  F   UNL A   1      49.523  25.753  29.103  1.00  0.00    -0.206 F 
ATOM     73  C   UNL A   1      51.234  25.578  27.503  1.00  0.00     0.040 A 
ATOM     74  C   UNL A   1      50.852  26.334  25.249  1.00  0.00     0.040 A 
ATOM     75  F   UNL A   1      48.778  27.262  24.660  1.00  0.00    -0.206 F 
ATOM     76  C   UNL A   1      51.695  25.764  26.202  1.00  0.00     0.006 A 
ENDBRANCH  48  69
BRANCH  60  77
ATOM     77  C   UNL A   1      46.100  32.349  29.328  1.00  0.00     0.057 A 
ATOM     78  C   UNL A   1      46.167  33.404  28.410  1.00  0.00     0.134 A 
ATOM     79  C   UNL A   1      46.534  32.601  30.636  1.00  0.00     0.134 A 
ATOM     80  F   UNL A   1      45.778  33.225  27.138  1.00  0.00    -0.206 F 
ATOM     81  C   UNL A   1      46.668  34.656  28.773  1.00  0.00     0.040 A 
ATOM     82  C   UNL A   1      47.012  33.855  31.017  1.00  0.00     0.040 A 
ATOM     83  F   UNL A   1      46.487  31.635  31.566  1.00  0.00    -0.206 F 
ATOM     84  C   UNL A   1      47.085  34.885  30.083  1.00  0.00     0.006 A 
ENDBRANCH  60  77
ENDBRANCH  34  35
ENDBRANCH  26  29
ENDBRANCH  24  25
ENDBRANCH  23  24
ENDBRANCH   1  23
TORSDOF 14
ENDMDL
MODEL 3
REMARK VINA RESULT:     -10.8      0.598      1.130
REMARK SMILES CCc1nc(C)c(C(=O)NCCCNC(=O)c2ccc(-c3c4nc(c(-c5c(F)cccc5F)c5ccc([nH]5)c(-c5c(F)cccc5F)c5nc(c(-c6c(F)cccc6F)c6ccc3[nH]6)C=C5)C=C4)cc2)c(SCc2cnc(Cl)s2)n1
REMARK SMILES IDX 11 1 10 2 8 3 9 4 7 6 3 7 4 8 80 9 5 10 71 11 6 12 2 13 1 14
REMARK SMILES IDX 72 15 73 16 74 17 75 18 79 19 76 20 77 21 78 22 12 23 13 24
REMARK SMILES IDX 14 25 15 26 16 28 17 29 18 30 70 31 19 32 69 33 20 34 21 35
REMARK SMILES IDX 22 36 63 37 23 38 68 39 62 40 64 41 24 42 67 43 61 44 60 45
REMARK SMILES IDX 25 47 51 48 34 49 50 50 35 51 38 52 49 53 65 54 36 55 37 56
REMARK SMILES IDX 48 58 66 59 39 60 26 61 27 62 32 63 28 64 29 65 31 66 33 67
REMARK SMILES IDX 30 68 52 69 53 70 58 71 54 72 55 73 57 74 59 75 56 76 40 77
REMARK SMILES IDX 41 78 46 79 42 80 43 81 45 82 47 83 44 84
REMARK H PARENT 10 5 14 27 64 46 38 57
REMARK Flexibility Score: inf
ROOT
ATOM      1  C   UNL A   1      37.025  20.406  24.550  1.00  0.00     0.118 C 
ENDROOT
BRANCH   1   2
ATOM      2  N   UNL A   1      35.948  20.413  25.523  1.00  0.00    -0.352 N 
ATOM      3  C   UNL A   1      35.181  21.429  26.031  1.00  0.00     0.255 C 
ATOM      4  O   UNL A   1      34.587  21.219  27.087  1.00  0.00    -0.269 OA
ATOM      5  H   UNL A   1      35.729  19.525  25.887  1.00  0.00     0.163 HD
BRANCH   3   6
ATOM      6  C   UNL A   1      34.929  22.700  25.337  1.00  0.00     0.093 A 
ATOM      7  C   UNL A   1      34.125  25.233  24.719  1.00  0.00     0.129 A 
ATOM      8  N   UNL A   1      35.390  25.052  25.098  1.00  0.00    -0.237 NA
ATOM      9  N   UNL A   1      33.268  24.230  24.511  1.00  0.00    -0.226 NA
ATOM     10  C   UNL A   1      35.788  23.798  25.417  1.00  0.00     0.055 A 
ATOM     11  C   UNL A   1      33.653  22.966  24.830  1.00  0.00     0.113 A 
ATOM     12  C   UNL A   1      37.192  23.785  25.925  1.00  0.00     0.068 C 
BRANCH   7  13
ATOM     13  C   UNL A   1      33.620  26.648  24.664  1.00  0.00     0.074 C 
ATOM     14  C   UNL A   1      33.592  27.283  26.050  1.00  0.00     0.012 C 
ENDBRANCH   7  13
BRANCH  11  15
ATOM     15  S   UNL A   1      32.247  21.884  24.587  1.00  0.00    -0.100 SA
BRANCH  15  16
ATOM     16  C   UNL A   1      32.772  20.443  23.620  1.00  0.00     0.125 C 
BRANCH  16  17
ATOM     17  C   UNL A   1      32.820  19.153  24.369  1.00  0.00     0.036 A 
ATOM     18  C   UNL A   1      32.648  18.880  25.714  1.00  0.00     0.129 A 
ATOM     19  S   UNL A   1      33.022  17.657  23.531  1.00  0.00    -0.107 S 
ATOM     20  N   UNL A   1      32.610  17.547  26.071  1.00  0.00    -0.233 NA
ATOM     21  C   UNL A   1      32.805  16.827  24.996  1.00  0.00     0.183 A 
ATOM     22  Cl  UNL A   1      32.813  15.112  25.025  1.00  0.00    -0.051 Cl
ENDBRANCH  16  17
ENDBRANCH  15  16
ENDBRANCH  11  15
ENDBRANCH   3   6
ENDBRANCH   1   2
BRANCH   1  23
ATOM     23  C   UNL A   1      38.087  19.405  25.007  1.00  0.00     0.042 C 
BRANCH  23  24
ATOM     24  C   UNL A   1      39.202  20.049  25.813  1.00  0.00     0.118 C 
BRANCH  24  25
ATOM     25  N   UNL A   1      40.371  19.187  25.869  1.00  0.00    -0.352 N 
ATOM     26  C   UNL A   1      41.682  19.547  26.057  1.00  0.00     0.251 C 
ATOM     27  H   UNL A   1      40.201  18.224  25.757  1.00  0.00     0.163 HD
ATOM     28  O   UNL A   1      42.582  18.749  25.798  1.00  0.00    -0.269 OA
BRANCH  26  29
ATOM     29  C   UNL A   1      42.012  20.897  26.561  1.00  0.00     0.039 A 
ATOM     30  C   UNL A   1      42.436  21.879  25.662  1.00  0.00     0.014 A 
ATOM     31  C   UNL A   1      41.914  21.190  27.926  1.00  0.00     0.014 A 
ATOM     32  C   UNL A   1      42.722  23.164  26.126  1.00  0.00     0.010 A 
ATOM     33  C   UNL A   1      42.115  22.491  28.373  1.00  0.00     0.010 A 
ATOM     34  C   UNL A   1      42.543  23.485  27.482  1.00  0.00    -0.014 A 
BRANCH  34  35
ATOM     35  C   UNL A   1      42.826  24.847  27.997  1.00  0.00     0.031 A 
ATOM     36  C   UNL A   1      44.232  25.229  28.370  1.00  0.00     0.074 A 
ATOM     37  C   UNL A   1      41.814  25.712  28.192  1.00  0.00     0.049 A 
ATOM     38  N   UNL A   1      44.676  26.341  28.897  1.00  0.00    -0.248 NA
ATOM     39  C   UNL A   1      45.272  24.211  28.156  1.00  0.00     0.031 C 
ATOM     40  C   UNL A   1      40.402  25.435  27.924  1.00  0.00     0.029 A 
ATOM     41  N   UNL A   1      41.815  26.995  28.675  1.00  0.00    -0.354 N 
ATOM     42  C   UNL A   1      46.038  26.147  29.095  1.00  0.00     0.074 A 
ATOM     43  C   UNL A   1      46.336  24.791  28.690  1.00  0.00     0.031 C 
ATOM     44  C   UNL A   1      39.676  26.524  28.223  1.00  0.00     0.029 A 
ATOM     45  C   UNL A   1      40.566  27.561  28.736  1.00  0.00     0.049 A 
ATOM     46  H   UNL A   1      42.636  27.466  28.952  1.00  0.00     0.167 HD
ATOM     47  C   UNL A   1      46.962  27.027  29.549  1.00  0.00     0.037 A 
ATOM     48  C   UNL A   1      40.182  28.779  29.162  1.00  0.00     0.037 A 
ATOM     49  C   UNL A   1      46.661  28.384  29.925  1.00  0.00     0.049 A 
ATOM     50  C   UNL A   1      41.224  29.747  29.646  1.00  0.00     0.074 A 
ATOM     51  C   UNL A   1      47.532  29.381  30.326  1.00  0.00     0.029 A 
ATOM     52  N   UNL A   1      45.386  28.931  29.946  1.00  0.00    -0.354 N 
ATOM     53  N   UNL A   1      42.520  29.578  29.755  1.00  0.00    -0.248 NA
ATOM     54  C   UNL A   1      40.753  31.076  30.060  1.00  0.00     0.031 C 
ATOM     55  C   UNL A   1      46.777  30.518  30.636  1.00  0.00     0.029 A 
ATOM     56  C   UNL A   1      45.442  30.245  30.378  1.00  0.00     0.049 A 
ATOM     57  H   UNL A   1      44.563  28.455  29.691  1.00  0.00     0.167 HD
ATOM     58  C   UNL A   1      43.023  30.783  30.227  1.00  0.00     0.074 A 
ATOM     59  C   UNL A   1      41.893  31.679  30.370  1.00  0.00     0.031 C 
ATOM     60  C   UNL A   1      44.305  31.119  30.517  1.00  0.00     0.037 A 
BRANCH  47  61
ATOM     61  C   UNL A   1      48.378  26.540  29.664  1.00  0.00     0.057 A 
ATOM     62  C   UNL A   1      48.879  25.987  30.850  1.00  0.00     0.134 A 
ATOM     63  C   UNL A   1      49.253  26.624  28.573  1.00  0.00     0.134 A 
ATOM     64  F   UNL A   1      48.101  25.889  31.937  1.00  0.00    -0.206 F 
ATOM     65  C   UNL A   1      50.209  25.573  30.960  1.00  0.00     0.040 A 
ATOM     66  C   UNL A   1      50.575  26.184  28.661  1.00  0.00     0.040 A 
ATOM     67  F   UNL A   1      48.839  27.137  27.404  1.00  0.00    -0.206 F 
ATOM     68  C   UNL A   1      51.059  25.667  29.861  1.00  0.00     0.006 A 
ENDBRANCH  47  61
BRANCH  48  69
ATOM     69  C   UNL A   1      38.747  29.156  29.110  1.00  0.00     0.057 A 
ATOM     70  C   UNL A   1      37.903  28.930  30.203  1.00  0.00     0.134 A 
ATOM     71  C   UNL A   1      38.194  29.776  27.983  1.00  0.00     0.134 A 
ATOM     72  F   UNL A   1      38.371  28.327  31.305  1.00  0.00    -0.206 F 
ATOM     73  C   UNL A   1      36.556  29.298  30.174  1.00  0.00     0.040 A 
ATOM     74  C   UNL A   1      36.855  30.170  27.950  1.00  0.00     0.040 A 
ATOM     75  F   UNL A   1      38.954  30.030  26.908  1.00  0.00    -0.206 F 
ATOM     76  C   UNL A   1      36.031  29.927  29.047  1.00  0.00     0.006 A 
ENDBRANCH  48  69
BRANCH  60  77
ATOM     77  C   UNL A   1      44.553  32.519  30.993  1.00  0.00     0.057 A 
ATOM     78  C   UNL A   1      44.766  33.577  30.100  1.00  0.00     0.134 A 
ATOM     79  C   UNL A   1      44.534  32.821  32.361  1.00  0.00     0.134 A 
ATOM     80  F   UNL A   1      44.808  33.354  28.778  1.00  0.00    -0.206 F 
ATOM     81  C   UNL A   1      44.974  34.881  30.553  1.00  0.00     0.040 A 
ATOM     82  C   UNL A   1      44.715  34.124  32.824  1.00  0.00     0.040 A 
ATOM     83  F   UNL A   1      44.327  31.854  33.268  1.00  0.00    -0.206 F 
ATOM     84  C   UNL A   1      44.941  35.158  31.918  1.00  0.00     0.006 A 
ENDBRANCH  60  77
ENDBRANCH  34  35
ENDBRANCH  26  29
ENDBRANCH  24  25
ENDBRANCH  23  24
ENDBRANCH   1  23
TORSDOF 14
ENDMDL
