MODEL 1
REMARK VINA RESULT:     -12.4      0.000      0.000
REMARK SMILES COC(=O)c1c(NC(=O)[C@@H]2[C@H]3CC[C@H](CC3)[C@H]2C(=O)NCCCNC(=O)c2ccc(-c3c4nc(c(-c5c(F)cccc5F)c5ccc([nH]5)c(-c5c(F)cccc5F)c5nc(c(-c6c(F)cccc6F)c6ccc3[nH]6)C=C5)C=C4)cc2)sc(C)c1-c1ccc(C)cc1
REMARK SMILES IDX 21 1 20 2 18 3 19 4 17 6 10 7 11 8 16 9 12 10 14 11 15 12
REMARK SMILES IDX 13 13 8 14 7 15 9 17 6 18 5 19 84 20 81 21 82 22 83 23 3 24
REMARK SMILES IDX 4 25 2 26 1 27 85 28 86 29 91 30 87 31 90 32 88 33 89 34
REMARK SMILES IDX 22 35 23 36 24 37 25 38 26 40 27 41 28 42 80 43 29 44 79 45
REMARK SMILES IDX 30 46 31 47 32 48 73 49 33 50 78 51 72 52 74 53 34 54 77 55
REMARK SMILES IDX 71 56 70 57 35 59 61 60 44 61 60 62 45 63 48 64 59 65 75 66
REMARK SMILES IDX 46 67 47 68 58 70 76 71 49 72 36 73 37 74 42 75 38 76 39 77
REMARK SMILES IDX 41 78 43 79 40 80 62 81 63 82 68 83 64 84 65 85 67 86 69 87
REMARK SMILES IDX 66 88 50 89 51 90 56 91 52 92 53 93 55 94 57 95 54 96
REMARK H PARENT 20 5 7 16 24 39 74 58 48 69
REMARK Flexibility Score: inf
ROOT
ATOM      1  C   UNL A   1      36.407  21.983  24.259  1.00  0.00     0.117 C 
ENDROOT
BRANCH   1   2
ATOM      2  N   UNL A   1      36.212  23.344  24.663  1.00  0.00    -0.356 N 
ATOM      3  C   UNL A   1      35.061  24.001  24.951  1.00  0.00     0.224 C 
ATOM      4  O   UNL A   1      35.191  25.155  25.376  1.00  0.00    -0.275 OA
ATOM      5  H   UNL A   1      37.034  23.881  24.745  1.00  0.00     0.163 HD
BRANCH   3   6
ATOM      6  C   UNL A   1      33.671  23.347  24.923  1.00  0.00     0.094 C 
ATOM      7  C   UNL A   1      33.331  22.194  23.901  1.00  0.00     0.094 C 
ATOM      8  C   UNL A   1      32.560  21.160  24.722  1.00  0.00     0.002 C 
ATOM      9  C   UNL A   1      33.367  20.509  25.841  1.00  0.00     0.005 C 
ATOM     10  C   UNL A   1      31.303  21.825  25.317  1.00  0.00     0.005 C 
ATOM     11  C   UNL A   1      33.242  22.953  26.391  1.00  0.00     0.002 C 
ATOM     12  C   UNL A   1      33.733  21.566  26.867  1.00  0.00     0.005 C 
ATOM     13  C   UNL A   1      31.708  22.848  26.379  1.00  0.00     0.005 C 
BRANCH   7  14
ATOM     14  C   UNL A   1      32.593  22.695  22.601  1.00  0.00     0.229 C 
ATOM     15  N   UNL A   1      31.665  23.718  22.479  1.00  0.00    -0.317 N 
ATOM     16  H   UNL A   1      31.057  23.645  21.707  1.00  0.00     0.170 HD
ATOM     17  O   UNL A   1      32.798  22.059  21.555  1.00  0.00    -0.274 OA
BRANCH  15  18
ATOM     18  C   UNL A   1      31.470  24.828  23.283  1.00  0.00     0.111 A 
ATOM     19  C   UNL A   1      32.200  26.007  23.442  1.00  0.00     0.102 A 
ATOM     20  C   UNL A   1      31.798  26.619  24.699  1.00  0.00     0.012 A 
ATOM     21  S   UNL A   1      29.892  25.203  23.876  1.00  0.00    -0.122 S 
ATOM     22  C   UNL A   1      30.671  25.992  25.209  1.00  0.00     0.012 A 
ATOM     23  C   UNL A   1      30.092  26.010  26.583  1.00  0.00     0.057 C 
BRANCH  19  24
ATOM     24  C   UNL A   1      33.233  26.450  22.509  1.00  0.00     0.341 C 
ATOM     25  O   UNL A   1      34.032  25.694  22.001  1.00  0.00    -0.246 OA
BRANCH  24  26
ATOM     26  O   UNL A   1      33.116  27.779  22.210  1.00  0.00    -0.465 OA
ATOM     27  C   UNL A   1      34.266  28.578  22.473  1.00  0.00     0.282 C 
ENDBRANCH  24  26
ENDBRANCH  19  24
BRANCH  20  28
ATOM     28  C   UNL A   1      32.285  27.824  25.356  1.00  0.00    -0.016 A 
ATOM     29  C   UNL A   1      31.581  29.009  25.116  1.00  0.00     0.009 A 
ATOM     30  C   UNL A   1      33.335  27.815  26.278  1.00  0.00     0.009 A 
ATOM     31  C   UNL A   1      31.907  30.175  25.802  1.00  0.00     0.004 A 
ATOM     32  C   UNL A   1      33.664  28.991  26.966  1.00  0.00     0.004 A 
ATOM     33  C   UNL A   1      32.945  30.174  26.740  1.00  0.00    -0.051 A 
ATOM     34  C   UNL A   1      33.253  31.441  27.482  1.00  0.00     0.044 C 
ENDBRANCH  20  28
ENDBRANCH  15  18
ENDBRANCH   7  14
ENDBRANCH   3   6
ENDBRANCH   1   2
BRANCH   1  35
ATOM     35  C   UNL A   1      36.949  21.099  25.351  1.00  0.00     0.042 C 
BRANCH  35  36
ATOM     36  C   UNL A   1      38.424  21.351  25.563  1.00  0.00     0.118 C 
BRANCH  36  37
ATOM     37  N   UNL A   1      39.210  20.115  25.632  1.00  0.00    -0.352 N 
ATOM     38  C   UNL A   1      40.523  19.922  25.995  1.00  0.00     0.251 C 
ATOM     39  H   UNL A   1      38.725  19.298  25.378  1.00  0.00     0.163 HD
ATOM     40  O   UNL A   1      41.056  18.828  25.851  1.00  0.00    -0.269 OA
BRANCH  38  41
ATOM     41  C   UNL A   1      41.291  21.065  26.523  1.00  0.00     0.039 A 
ATOM     42  C   UNL A   1      41.908  21.953  25.641  1.00  0.00     0.014 A 
ATOM     43  C   UNL A   1      41.311  21.302  27.895  1.00  0.00     0.014 A 
ATOM     44  C   UNL A   1      42.453  23.139  26.138  1.00  0.00     0.010 A 
ATOM     45  C   UNL A   1      41.695  22.545  28.359  1.00  0.00     0.010 A 
ATOM     46  C   UNL A   1      42.296  23.468  27.492  1.00  0.00    -0.014 A 
BRANCH  46  47
ATOM     47  C   UNL A   1      42.782  24.745  28.068  1.00  0.00     0.031 A 
ATOM     48  C   UNL A   1      41.781  25.815  28.412  1.00  0.00     0.074 A 
ATOM     49  C   UNL A   1      44.102  24.991  28.157  1.00  0.00     0.049 A 
ATOM     50  N   UNL A   1      41.982  27.065  28.739  1.00  0.00    -0.248 NA
ATOM     51  C   UNL A   1      40.359  25.446  28.305  1.00  0.00     0.031 C 
ATOM     52  C   UNL A   1      45.170  24.062  27.782  1.00  0.00     0.029 A 
ATOM     53  N   UNL A   1      44.770  26.116  28.569  1.00  0.00    -0.354 N 
ATOM     54  C   UNL A   1      40.717  27.633  28.826  1.00  0.00     0.074 A 
ATOM     55  C   UNL A   1      39.765  26.620  28.438  1.00  0.00     0.031 C 
ATOM     56  C   UNL A   1      46.358  24.647  28.001  1.00  0.00     0.029 A 
ATOM     57  C   UNL A   1      46.137  26.005  28.486  1.00  0.00     0.049 A 
ATOM     58  H   UNL A   1      44.314  26.925  28.893  1.00  0.00     0.167 HD
ATOM     59  C   UNL A   1      40.376  28.880  29.229  1.00  0.00     0.037 A 
ATOM     60  C   UNL A   1      47.101  26.905  28.758  1.00  0.00     0.037 A 
ATOM     61  C   UNL A   1      41.329  29.860  29.668  1.00  0.00     0.049 A 
ATOM     62  C   UNL A   1      46.706  28.269  29.249  1.00  0.00     0.074 A 
ATOM     63  C   UNL A   1      41.094  31.118  30.190  1.00  0.00     0.029 A 
ATOM     64  N   UNL A   1      42.704  29.684  29.640  1.00  0.00    -0.354 N 
ATOM     65  N   UNL A   1      45.505  28.771  29.409  1.00  0.00    -0.248 NA
ATOM     66  C   UNL A   1      47.795  29.188  29.605  1.00  0.00     0.031 C 
ATOM     67  C   UNL A   1      42.332  31.722  30.435  1.00  0.00     0.029 A 
ATOM     68  C   UNL A   1      43.336  30.819  30.115  1.00  0.00     0.049 A 
ATOM     69  H   UNL A   1      43.165  28.871  29.326  1.00  0.00     0.167 HD
ATOM     70  C   UNL A   1      45.691  30.055  29.907  1.00  0.00     0.074 A 
ATOM     71  C   UNL A   1      47.123  30.249  30.029  1.00  0.00     0.031 C 
ATOM     72  C   UNL A   1      44.763  30.986  30.236  1.00  0.00     0.037 A 
BRANCH  59  73
ATOM     73  C   UNL A   1      38.915  29.229  29.211  1.00  0.00     0.057 A 
ATOM     74  C   UNL A   1      38.259  29.629  28.037  1.00  0.00     0.134 A 
ATOM     75  C   UNL A   1      38.158  29.191  30.388  1.00  0.00     0.134 A 
ATOM     76  F   UNL A   1      38.926  29.703  26.876  1.00  0.00    -0.206 F 
ATOM     77  C   UNL A   1      36.921  30.029  28.045  1.00  0.00     0.040 A 
ATOM     78  C   UNL A   1      36.810  29.553  30.402  1.00  0.00     0.040 A 
ATOM     79  F   UNL A   1      38.717  28.812  31.547  1.00  0.00    -0.206 F 
ATOM     80  C   UNL A   1      36.192  29.989  29.231  1.00  0.00     0.006 A 
ENDBRANCH  59  73
BRANCH  60  81
ATOM     81  C   UNL A   1      48.525  26.520  28.599  1.00  0.00     0.057 A 
ATOM     82  C   UNL A   1      49.226  26.820  27.425  1.00  0.00     0.134 A 
ATOM     83  C   UNL A   1      49.232  25.887  29.628  1.00  0.00     0.134 A 
ATOM     84  F   UNL A   1      48.601  27.414  26.399  1.00  0.00    -0.206 F 
ATOM     85  C   UNL A   1      50.577  26.499  27.278  1.00  0.00     0.040 A 
ATOM     86  C   UNL A   1      50.588  25.580  29.504  1.00  0.00     0.040 A 
ATOM     87  F   UNL A   1      48.619  25.585  30.783  1.00  0.00    -0.206 F 
ATOM     88  C   UNL A   1      51.264  25.885  28.323  1.00  0.00     0.006 A 
ENDBRANCH  60  81
BRANCH  72  89
ATOM     89  C   UNL A   1      45.257  32.287  30.793  1.00  0.00     0.057 A 
ATOM     90  C   UNL A   1      45.535  33.386  29.972  1.00  0.00     0.134 A 
ATOM     91  C   UNL A   1      45.378  32.463  32.178  1.00  0.00     0.134 A 
ATOM     92  F   UNL A   1      45.447  33.277  28.638  1.00  0.00    -0.206 F 
ATOM     93  C   UNL A   1      45.928  34.613  30.509  1.00  0.00     0.040 A 
ATOM     94  C   UNL A   1      45.744  33.691  32.727  1.00  0.00     0.040 A 
ATOM     95  F   UNL A   1      45.115  31.451  33.019  1.00  0.00    -0.206 F 
ATOM     96  C   UNL A   1      46.023  34.771  31.891  1.00  0.00     0.006 A 
ENDBRANCH  72  89
ENDBRANCH  46  47
ENDBRANCH  38  41
ENDBRANCH  36  37
ENDBRANCH  35  36
ENDBRANCH   1  35
TORSDOF 15
ENDMDL
MODEL 2
REMARK VINA RESULT:     -12.3      1.770      2.851
REMARK SMILES COC(=O)c1c(NC(=O)[C@@H]2[C@H]3CC[C@H](CC3)[C@H]2C(=O)NCCCNC(=O)c2ccc(-c3c4nc(c(-c5c(F)cccc5F)c5ccc([nH]5)c(-c5c(F)cccc5F)c5nc(c(-c6c(F)cccc6F)c6ccc3[nH]6)C=C5)C=C4)cc2)sc(C)c1-c1ccc(C)cc1
REMARK SMILES IDX 21 1 20 2 18 3 19 4 17 6 10 7 11 8 16 9 12 10 14 11 15 12
REMARK SMILES IDX 13 13 8 14 7 15 9 17 6 18 5 19 84 20 81 21 82 22 83 23 3 24
REMARK SMILES IDX 4 25 2 26 1 27 85 28 86 29 91 30 87 31 90 32 88 33 89 34
REMARK SMILES IDX 22 35 23 36 24 37 25 38 26 40 27 41 28 42 80 43 29 44 79 45
REMARK SMILES IDX 30 46 31 47 32 48 73 49 33 50 78 51 72 52 74 53 34 54 77 55
REMARK SMILES IDX 71 56 70 57 35 59 61 60 44 61 60 62 45 63 48 64 59 65 75 66
REMARK SMILES IDX 46 67 47 68 58 70 76 71 49 72 36 73 37 74 42 75 38 76 39 77
REMARK SMILES IDX 41 78 43 79 40 80 62 81 63 82 68 83 64 84 65 85 67 86 69 87
REMARK SMILES IDX 66 88 50 89 51 90 56 91 52 92 53 93 55 94 57 95 54 96
REMARK H PARENT 20 5 7 16 24 39 74 58 48 69
REMARK Flexibility Score: inf
ROOT
ATOM      1  C   UNL A   1      36.920  20.620  24.962  1.00  0.00     0.117 C 
ENDROOT
BRANCH   1   2
ATOM      2  N   UNL A   1      36.776  21.578  23.905  1.00  0.00    -0.356 N 
ATOM      3  C   UNL A   1      35.716  22.366  23.596  1.00  0.00     0.224 C 
ATOM      4  O   UNL A   1      35.900  23.182  22.685  1.00  0.00    -0.275 OA
ATOM      5  H   UNL A   1      37.560  21.679  23.319  1.00  0.00     0.163 HD
BRANCH   3   6
ATOM      6  C   UNL A   1      34.406  22.395  24.398  1.00  0.00     0.094 C 
ATOM      7  C   UNL A   1      33.622  23.743  24.635  1.00  0.00     0.094 C 
ATOM      8  C   UNL A   1      32.154  23.387  24.400  1.00  0.00     0.002 C 
ATOM      9  C   UNL A   1      31.827  22.951  22.975  1.00  0.00     0.005 C 
ATOM     10  C   UNL A   1      31.743  22.273  25.383  1.00  0.00     0.005 C 
ATOM     11  C   UNL A   1      33.442  21.257  23.877  1.00  0.00     0.002 C 
ATOM     12  C   UNL A   1      32.553  21.652  22.676  1.00  0.00     0.005 C 
ATOM     13  C   UNL A   1      32.457  20.970  25.022  1.00  0.00     0.005 C 
BRANCH   7  14
ATOM     14  C   UNL A   1      33.928  24.421  26.025  1.00  0.00     0.229 C 
ATOM     15  N   UNL A   1      34.005  25.773  26.324  1.00  0.00    -0.317 N 
ATOM     16  H   UNL A   1      34.552  26.000  27.111  1.00  0.00     0.170 HD
ATOM     17  O   UNL A   1      34.214  23.667  26.970  1.00  0.00    -0.274 OA
BRANCH  15  18
ATOM     18  C   UNL A   1      33.421  26.849  25.679  1.00  0.00     0.111 A 
ATOM     19  C   UNL A   1      32.158  27.432  25.788  1.00  0.00     0.102 A 
ATOM     20  C   UNL A   1      31.930  28.238  24.598  1.00  0.00     0.012 A 
ATOM     21  S   UNL A   1      34.411  28.071  24.963  1.00  0.00    -0.122 S 
ATOM     22  C   UNL A   1      33.101  28.373  23.868  1.00  0.00     0.012 A 
ATOM     23  C   UNL A   1      33.317  28.791  22.452  1.00  0.00     0.057 C 
BRANCH  19  24
ATOM     24  C   UNL A   1      31.240  27.172  26.893  1.00  0.00     0.341 C 
ATOM     25  O   UNL A   1      30.927  28.017  27.704  1.00  0.00    -0.246 OA
BRANCH  24  26
ATOM     26  O   UNL A   1      30.711  25.913  26.834  1.00  0.00    -0.465 OA
ATOM     27  C   UNL A   1      29.777  25.680  25.784  1.00  0.00     0.282 C 
ENDBRANCH  24  26
ENDBRANCH  19  24
BRANCH  20  28
ATOM     28  C   UNL A   1      30.762  29.006  24.193  1.00  0.00    -0.016 A 
ATOM     29  C   UNL A   1      30.675  30.324  24.654  1.00  0.00     0.009 A 
ATOM     30  C   UNL A   1      29.807  28.521  23.294  1.00  0.00     0.009 A 
ATOM     31  C   UNL A   1      29.655  31.161  24.212  1.00  0.00     0.004 A 
ATOM     32  C   UNL A   1      28.779  29.365  22.852  1.00  0.00     0.004 A 
ATOM     33  C   UNL A   1      28.704  30.692  23.300  1.00  0.00    -0.051 A 
ATOM     34  C   UNL A   1      27.634  31.629  22.822  1.00  0.00     0.044 C 
ENDBRANCH  20  28
ENDBRANCH  15  18
ENDBRANCH   7  14
ENDBRANCH   3   6
ENDBRANCH   1   2
BRANCH   1  35
ATOM     35  C   UNL A   1      38.088  19.688  24.778  1.00  0.00     0.042 C 
BRANCH  35  36
ATOM     36  C   UNL A   1      38.942  19.645  26.024  1.00  0.00     0.118 C 
BRANCH  36  37
ATOM     37  N   UNL A   1      40.203  18.922  25.827  1.00  0.00    -0.352 N 
ATOM     38  C   UNL A   1      41.501  19.359  25.959  1.00  0.00     0.251 C 
ATOM     39  H   UNL A   1      40.106  17.982  25.555  1.00  0.00     0.163 HD
ATOM     40  O   UNL A   1      42.437  18.650  25.608  1.00  0.00    -0.269 OA
BRANCH  38  41
ATOM     41  C   UNL A   1      41.747  20.711  26.494  1.00  0.00     0.039 A 
ATOM     42  C   UNL A   1      42.081  20.876  27.838  1.00  0.00     0.014 A 
ATOM     43  C   UNL A   1      41.738  21.802  25.628  1.00  0.00     0.014 A 
ATOM     44  C   UNL A   1      42.513  22.126  28.285  1.00  0.00     0.010 A 
ATOM     45  C   UNL A   1      42.324  22.986  26.030  1.00  0.00     0.010 A 
ATOM     46  C   UNL A   1      42.693  23.173  27.369  1.00  0.00    -0.014 A 
BRANCH  46  47
ATOM     47  C   UNL A   1      43.221  24.501  27.763  1.00  0.00     0.031 A 
ATOM     48  C   UNL A   1      42.254  25.565  28.209  1.00  0.00     0.074 A 
ATOM     49  C   UNL A   1      44.524  24.790  27.598  1.00  0.00     0.049 A 
ATOM     50  N   UNL A   1      42.458  26.840  28.412  1.00  0.00    -0.248 NA
ATOM     51  C   UNL A   1      40.852  25.149  28.383  1.00  0.00     0.031 C 
ATOM     52  C   UNL A   1      45.546  23.867  27.100  1.00  0.00     0.029 A 
ATOM     53  N   UNL A   1      45.209  25.960  27.809  1.00  0.00    -0.354 N 
ATOM     54  C   UNL A   1      41.207  27.377  28.687  1.00  0.00     0.074 A 
ATOM     55  C   UNL A   1      40.244  26.312  28.543  1.00  0.00     0.031 C 
ATOM     56  C   UNL A   1      46.730  24.499  27.064  1.00  0.00     0.029 A 
ATOM     57  C   UNL A   1      46.544  25.882  27.491  1.00  0.00     0.049 A 
ATOM     58  H   UNL A   1      44.785  26.777  28.156  1.00  0.00     0.167 HD
ATOM     59  C   UNL A   1      40.892  28.640  29.062  1.00  0.00     0.037 A 
ATOM     60  C   UNL A   1      47.503  26.826  27.526  1.00  0.00     0.037 A 
ATOM     61  C   UNL A   1      41.868  29.675  29.258  1.00  0.00     0.049 A 
ATOM     62  C   UNL A   1      47.146  28.210  27.989  1.00  0.00     0.074 A 
ATOM     63  C   UNL A   1      41.677  30.960  29.730  1.00  0.00     0.029 A 
ATOM     64  N   UNL A   1      43.222  29.536  28.996  1.00  0.00    -0.354 N 
ATOM     65  N   UNL A   1      45.973  28.689  28.328  1.00  0.00    -0.248 NA
ATOM     66  C   UNL A   1      48.243  29.182  28.084  1.00  0.00     0.031 C 
ATOM     67  C   UNL A   1      42.914  31.615  29.709  1.00  0.00     0.029 A 
ATOM     68  C   UNL A   1      43.881  30.720  29.275  1.00  0.00     0.049 A 
ATOM     69  H   UNL A   1      43.653  28.717  28.659  1.00  0.00     0.167 HD
ATOM     70  C   UNL A   1      46.192  30.009  28.699  1.00  0.00     0.074 A 
ATOM     71  C   UNL A   1      47.614  30.252  28.551  1.00  0.00     0.031 C 
ATOM     72  C   UNL A   1      45.299  30.935  29.127  1.00  0.00     0.037 A 
BRANCH  59  73
ATOM     73  C   UNL A   1      39.438  28.946  29.282  1.00  0.00     0.057 A 
ATOM     74  C   UNL A   1      38.613  29.426  28.254  1.00  0.00     0.134 A 
ATOM     75  C   UNL A   1      38.859  28.783  30.547  1.00  0.00     0.134 A 
ATOM     76  F   UNL A   1      39.105  29.619  27.021  1.00  0.00    -0.206 F 
ATOM     77  C   UNL A   1      37.284  29.783  28.487  1.00  0.00     0.040 A 
ATOM     78  C   UNL A   1      37.521  29.103  30.784  1.00  0.00     0.040 A 
ATOM     79  F   UNL A   1      39.586  28.323  31.576  1.00  0.00    -0.206 F 
ATOM     80  C   UNL A   1      36.734  29.619  29.756  1.00  0.00     0.006 A 
ENDBRANCH  59  73
BRANCH  60  81
ATOM     81  C   UNL A   1      48.891  26.470  27.140  1.00  0.00     0.057 A 
ATOM     82  C   UNL A   1      49.772  25.896  28.064  1.00  0.00     0.134 A 
ATOM     83  C   UNL A   1      49.356  26.651  25.832  1.00  0.00     0.134 A 
ATOM     84  F   UNL A   1      49.389  25.709  29.335  1.00  0.00    -0.206 F 
ATOM     85  C   UNL A   1      51.067  25.520  27.703  1.00  0.00     0.040 A 
ATOM     86  C   UNL A   1      50.641  26.261  25.452  1.00  0.00     0.040 A 
ATOM     87  F   UNL A   1      48.555  27.185  24.898  1.00  0.00    -0.206 F 
ATOM     88  C   UNL A   1      51.502  25.695  26.391  1.00  0.00     0.006 A 
ENDBRANCH  60  81
BRANCH  72  89
ATOM     89  C   UNL A   1      45.831  32.286  29.501  1.00  0.00     0.057 A 
ATOM     90  C   UNL A   1      45.880  33.342  28.583  1.00  0.00     0.134 A 
ATOM     91  C   UNL A   1      46.223  32.553  30.819  1.00  0.00     0.134 A 
ATOM     92  F   UNL A   1      45.527  33.147  27.303  1.00  0.00    -0.206 F 
ATOM     93  C   UNL A   1      46.312  34.614  28.960  1.00  0.00     0.040 A 
ATOM     94  C   UNL A   1      46.632  33.826  31.214  1.00  0.00     0.040 A 
ATOM     95  F   UNL A   1      46.189  31.586  31.749  1.00  0.00    -0.206 F 
ATOM     96  C   UNL A   1      46.680  34.861  30.283  1.00  0.00     0.006 A 
ENDBRANCH  72  89
ENDBRANCH  46  47
ENDBRANCH  38  41
ENDBRANCH  36  37
ENDBRANCH  35  36
ENDBRANCH   1  35
TORSDOF 15
ENDMDL
MODEL 3
REMARK VINA RESULT:     -12.3      3.363      8.535
REMARK SMILES COC(=O)c1c(NC(=O)[C@@H]2[C@H]3CC[C@H](CC3)[C@H]2C(=O)NCCCNC(=O)c2ccc(-c3c4nc(c(-c5c(F)cccc5F)c5ccc([nH]5)c(-c5c(F)cccc5F)c5nc(c(-c6c(F)cccc6F)c6ccc3[nH]6)C=C5)C=C4)cc2)sc(C)c1-c1ccc(C)cc1
REMARK SMILES IDX 21 1 20 2 18 3 19 4 17 6 10 7 11 8 16 9 12 10 14 11 15 12
REMARK SMILES IDX 13 13 8 14 7 15 9 17 6 18 5 19 84 20 81 21 82 22 83 23 3 24
REMARK SMILES IDX 4 25 2 26 1 27 85 28 86 29 91 30 87 31 90 32 88 33 89 34
REMARK SMILES IDX 22 35 23 36 24 37 25 38 26 40 27 41 28 42 80 43 29 44 79 45
REMARK SMILES IDX 30 46 31 47 32 48 73 49 33 50 78 51 72 52 74 53 34 54 77 55
REMARK SMILES IDX 71 56 70 57 35 59 61 60 44 61 60 62 45 63 48 64 59 65 75 66
REMARK SMILES IDX 46 67 47 68 58 70 76 71 49 72 36 73 37 74 42 75 38 76 39 77
REMARK SMILES IDX 41 78 43 79 40 80 62 81 63 82 68 83 64 84 65 85 67 86 69 87
REMARK SMILES IDX 66 88 50 89 51 90 56 91 52 92 53 93 55 94 57 95 54 96
REMARK H PARENT 20 5 7 16 24 39 74 58 48 69
REMARK Flexibility Score: inf
ROOT
ATOM      1  C   UNL A   1      31.773  29.094  26.552  1.00  0.00     0.117 C 
ENDROOT
BRANCH   1   2
ATOM      2  N   UNL A   1      32.848  28.149  26.623  1.00  0.00    -0.356 N 
ATOM      3  C   UNL A   1      33.155  27.128  25.784  1.00  0.00     0.224 C 
ATOM      4  O   UNL A   1      34.207  26.527  26.030  1.00  0.00    -0.275 OA
ATOM      5  H   UNL A   1      33.454  28.258  27.392  1.00  0.00     0.163 HD
BRANCH   3   6
ATOM      6  C   UNL A   1      32.366  26.803  24.506  1.00  0.00     0.094 C 
ATOM      7  C   UNL A   1      30.828  27.130  24.390  1.00  0.00     0.094 C 
ATOM      8  C   UNL A   1      30.660  27.726  22.992  1.00  0.00     0.002 C 
ATOM      9  C   UNL A   1      31.391  29.046  22.773  1.00  0.00     0.005 C 
ATOM     10  C   UNL A   1      31.136  26.697  21.947  1.00  0.00     0.005 C 
ATOM     11  C   UNL A   1      33.159  27.331  23.246  1.00  0.00     0.002 C 
ATOM     12  C   UNL A   1      32.886  28.806  22.873  1.00  0.00     0.005 C 
ATOM     13  C   UNL A   1      32.650  26.518  22.045  1.00  0.00     0.005 C 
BRANCH   7  14
ATOM     14  C   UNL A   1      29.891  25.902  24.707  1.00  0.00     0.229 C 
ATOM     15  N   UNL A   1      30.116  24.558  24.445  1.00  0.00    -0.317 N 
ATOM     16  H   UNL A   1      29.307  24.003  24.366  1.00  0.00     0.170 HD
ATOM     17  O   UNL A   1      28.772  26.153  25.183  1.00  0.00    -0.274 OA
BRANCH  15  18
ATOM     18  C   UNL A   1      31.315  23.885  24.282  1.00  0.00     0.111 A 
ATOM     19  C   UNL A   1      32.295  23.488  25.192  1.00  0.00     0.102 A 
ATOM     20  C   UNL A   1      33.514  23.211  24.447  1.00  0.00     0.012 A 
ATOM     21  S   UNL A   1      31.563  22.880  22.899  1.00  0.00    -0.122 S 
ATOM     22  C   UNL A   1      33.259  23.186  23.085  1.00  0.00     0.012 A 
ATOM     23  C   UNL A   1      34.190  23.286  21.923  1.00  0.00     0.057 C 
BRANCH  19  24
ATOM     24  C   UNL A   1      32.091  23.455  26.638  1.00  0.00     0.341 C 
ATOM     25  O   UNL A   1      31.587  24.369  27.254  1.00  0.00    -0.246 OA
BRANCH  24  26
ATOM     26  O   UNL A   1      32.437  22.247  27.177  1.00  0.00    -0.465 OA
ATOM     27  C   UNL A   1      33.559  22.257  28.055  1.00  0.00     0.282 C 
ENDBRANCH  24  26
ENDBRANCH  19  24
BRANCH  20  28
ATOM     28  C   UNL A   1      34.834  22.816  24.919  1.00  0.00    -0.016 A 
ATOM     29  C   UNL A   1      35.157  21.457  24.843  1.00  0.00     0.009 A 
ATOM     30  C   UNL A   1      35.802  23.738  25.329  1.00  0.00     0.009 A 
ATOM     31  C   UNL A   1      36.440  21.018  25.156  1.00  0.00     0.004 A 
ATOM     32  C   UNL A   1      37.093  23.293  25.646  1.00  0.00     0.004 A 
ATOM     33  C   UNL A   1      37.422  21.933  25.552  1.00  0.00    -0.051 A 
ATOM     34  C   UNL A   1      38.802  21.430  25.856  1.00  0.00     0.044 C 
ENDBRANCH  20  28
ENDBRANCH  15  18
ENDBRANCH   7  14
ENDBRANCH   3   6
ENDBRANCH   1   2
BRANCH   1  35
ATOM     35  C   UNL A   1      32.203  30.470  26.118  1.00  0.00     0.042 C 
BRANCH  35  36
ATOM     36  C   UNL A   1      32.878  31.205  27.253  1.00  0.00     0.118 C 
BRANCH  36  37
ATOM     37  N   UNL A   1      32.444  32.602  27.365  1.00  0.00    -0.352 N 
ATOM     38  C   UNL A   1      33.006  33.647  28.061  1.00  0.00     0.251 C 
ATOM     39  H   UNL A   1      31.626  32.826  26.867  1.00  0.00     0.163 HD
ATOM     40  O   UNL A   1      32.419  34.719  28.157  1.00  0.00    -0.269 OA
BRANCH  38  41
ATOM     41  C   UNL A   1      34.306  33.444  28.724  1.00  0.00     0.039 A 
ATOM     42  C   UNL A   1      34.369  32.756  29.937  1.00  0.00     0.014 A 
ATOM     43  C   UNL A   1      35.474  33.856  28.085  1.00  0.00     0.014 A 
ATOM     44  C   UNL A   1      35.613  32.389  30.449  1.00  0.00     0.010 A 
ATOM     45  C   UNL A   1      36.687  33.347  28.502  1.00  0.00     0.010 A 
ATOM     46  C   UNL A   1      36.777  32.631  29.704  1.00  0.00    -0.014 A 
BRANCH  46  47
ATOM     47  C   UNL A   1      38.122  32.199  30.155  1.00  0.00     0.031 A 
ATOM     48  C   UNL A   1      38.719  30.949  29.566  1.00  0.00     0.074 A 
ATOM     49  C   UNL A   1      38.737  32.837  31.166  1.00  0.00     0.049 A 
ATOM     50  N   UNL A   1      39.777  30.279  29.939  1.00  0.00    -0.248 NA
ATOM     51  C   UNL A   1      37.984  30.332  28.448  1.00  0.00     0.031 C 
ATOM     52  C   UNL A   1      38.223  34.014  31.870  1.00  0.00     0.029 A 
ATOM     53  N   UNL A   1      39.925  32.566  31.797  1.00  0.00    -0.354 N 
ATOM     54  C   UNL A   1      39.802  29.145  29.137  1.00  0.00     0.074 A 
ATOM     55  C   UNL A   1      38.613  29.176  28.318  1.00  0.00     0.031 C 
ATOM     56  C   UNL A   1      39.100  34.376  32.820  1.00  0.00     0.029 A 
ATOM     57  C   UNL A   1      40.213  33.432  32.824  1.00  0.00     0.049 A 
ATOM     58  H   UNL A   1      40.515  31.823  31.537  1.00  0.00     0.167 HD
ATOM     59  C   UNL A   1      40.749  28.181  29.062  1.00  0.00     0.037 A 
ATOM     60  C   UNL A   1      41.250  33.450  33.681  1.00  0.00     0.037 A 
ATOM     61  C   UNL A   1      41.956  28.194  29.841  1.00  0.00     0.049 A 
ATOM     62  C   UNL A   1      42.318  32.400  33.556  1.00  0.00     0.074 A 
ATOM     63  C   UNL A   1      43.030  27.327  29.780  1.00  0.00     0.029 A 
ATOM     64  N   UNL A   1      42.246  29.130  30.822  1.00  0.00    -0.354 N 
ATOM     65  N   UNL A   1      42.375  31.377  32.736  1.00  0.00    -0.248 NA
ATOM     66  C   UNL A   1      43.467  32.509  34.463  1.00  0.00     0.031 C 
ATOM     67  C   UNL A   1      43.953  27.713  30.759  1.00  0.00     0.029 A 
ATOM     68  C   UNL A   1      43.476  28.852  31.392  1.00  0.00     0.049 A 
ATOM     69  H   UNL A   1      41.664  29.883  31.077  1.00  0.00     0.167 HD
ATOM     70  C   UNL A   1      43.575  30.735  33.011  1.00  0.00     0.074 A 
ATOM     71  C   UNL A   1      44.218  31.489  34.068  1.00  0.00     0.031 C 
ATOM     72  C   UNL A   1      44.099  29.623  32.438  1.00  0.00     0.037 A 
BRANCH  59  73
ATOM     73  C   UNL A   1      40.504  27.052  28.103  1.00  0.00     0.057 A 
ATOM     74  C   UNL A   1      39.701  25.951  28.436  1.00  0.00     0.134 A 
ATOM     75  C   UNL A   1      41.099  27.052  26.835  1.00  0.00     0.134 A 
ATOM     76  F   UNL A   1      39.112  25.879  29.639  1.00  0.00    -0.206 F 
ATOM     77  C   UNL A   1      39.543  24.869  27.569  1.00  0.00     0.040 A 
ATOM     78  C   UNL A   1      40.919  25.993  25.944  1.00  0.00     0.040 A 
ATOM     79  F   UNL A   1      41.874  28.075  26.445  1.00  0.00    -0.206 F 
ATOM     80  C   UNL A   1      40.152  24.890  26.316  1.00  0.00     0.006 A 
ENDBRANCH  59  73
BRANCH  60  81
ATOM     81  C   UNL A   1      41.333  34.521  34.706  1.00  0.00     0.057 A 
ATOM     82  C   UNL A   1      41.925  35.755  34.413  1.00  0.00     0.134 A 
ATOM     83  C   UNL A   1      40.782  34.357  35.982  1.00  0.00     0.134 A 
ATOM     84  F   UNL A   1      42.481  35.968  33.212  1.00  0.00    -0.206 F 
ATOM     85  C   UNL A   1      41.973  36.784  35.355  1.00  0.00     0.040 A 
ATOM     86  C   UNL A   1      40.804  35.385  36.926  1.00  0.00     0.040 A 
ATOM     87  F   UNL A   1      40.189  33.202  36.319  1.00  0.00    -0.206 F 
ATOM     88  C   UNL A   1      41.403  36.603  36.613  1.00  0.00     0.006 A 
ENDBRANCH  60  81
BRANCH  72  89
ATOM     89  C   UNL A   1      45.447  29.171  32.913  1.00  0.00     0.057 A 
ATOM     90  C   UNL A   1      45.594  28.232  33.940  1.00  0.00     0.134 A 
ATOM     91  C   UNL A   1      46.611  29.626  32.277  1.00  0.00     0.134 A 
ATOM     92  F   UNL A   1      44.519  27.766  34.593  1.00  0.00    -0.206 F 
ATOM     93  C   UNL A   1      46.852  27.767  34.326  1.00  0.00     0.040 A 
ATOM     94  C   UNL A   1      47.870  29.150  32.637  1.00  0.00     0.040 A 
ATOM     95  F   UNL A   1      46.537  30.519  31.279  1.00  0.00    -0.206 F 
ATOM     96  C   UNL A   1      47.994  28.219  33.666  1.00  0.00     0.006 A 
ENDBRANCH  72  89
ENDBRANCH  46  47
ENDBRANCH  38  41
ENDBRANCH  36  37
ENDBRANCH  35  36
ENDBRANCH   1  35
TORSDOF 15
ENDMDL
