MODEL 1
REMARK VINA RESULT:     -13.6      0.000      0.000
REMARK SMILES Cc1ccc(NC(=O)CN2C(=O)S/C(=C\c3cc(Cl)c(OCC(=O)NCCCNC(=O)c4ccc(-c5c6nc(c(-c7c(F)cccc7F)c7ccc([nH]7)c(-c7c(F)cccc7F)c7nc(c(-c8c(F)cccc8F)c8ccc5[nH]8)C=C7)C=C6)cc4)c(Cl)c3)C2=O)cc1
REMARK SMILES IDX 23 1 24 2 25 3 22 5 21 6 20 7 16 8 17 9 88 10 18 11 86 12
REMARK SMILES IDX 19 13 87 14 15 15 10 16 11 17 89 18 12 19 13 20 14 21 90 22
REMARK SMILES IDX 9 23 7 24 6 25 8 27 5 28 1 29 2 30 3 31 92 32 4 33 91 34
REMARK SMILES IDX 26 35 27 36 28 37 29 38 30 39 31 41 32 42 33 43 85 44 34 45
REMARK SMILES IDX 84 46 35 47 36 48 37 49 78 50 38 51 83 52 77 53 79 54 39 55
REMARK SMILES IDX 82 56 76 57 75 58 40 60 66 61 49 62 65 63 50 64 53 65 64 66
REMARK SMILES IDX 80 67 51 68 52 69 63 71 81 72 54 73 41 74 42 75 47 76 43 77
REMARK SMILES IDX 44 78 46 79 48 80 45 81 67 82 68 83 73 84 69 85 70 86 72 87
REMARK SMILES IDX 74 88 71 89 55 90 56 91 61 92 57 93 58 94 60 95 62 96 59 97
REMARK H PARENT 25 4 6 26 29 40 79 59 53 70
REMARK Flexibility Score: inf
ROOT
ATOM      1  C   UNL A   1      35.138  34.131  29.043  1.00  0.00     0.257 C 
ATOM      2  O   UNL A   1      36.354  34.082  28.859  1.00  0.00    -0.271 OA
ATOM      3  N   UNL A   1      34.634  35.304  29.529  1.00  0.00    -0.353 N 
ATOM      4  H   UNL A   1      35.304  35.974  29.793  1.00  0.00     0.163 HD
ENDROOT
BRANCH   1   5
ATOM      5  C   UNL A   1      34.199  32.955  28.721  1.00  0.00     0.329 C 
BRANCH   5   6
ATOM      6  O   UNL A   1      34.434  32.234  27.524  1.00  0.00    -0.481 OA
BRANCH   6   7
ATOM      7  C   UNL A   1      33.850  31.027  27.244  1.00  0.00     0.157 A 
ATOM      8  C   UNL A   1      32.999  28.342  26.698  1.00  0.00    -0.021 A 
ATOM      9  C   UNL A   1      34.300  28.588  27.115  1.00  0.00     0.032 A 
ATOM     10  C   UNL A   1      32.156  29.446  26.527  1.00  0.00     0.032 A 
ATOM     11  C   UNL A   1      34.717  29.910  27.370  1.00  0.00     0.085 A 
ATOM     12  C   UNL A   1      32.534  30.753  26.864  1.00  0.00     0.085 A 
ATOM     13  Cl  UNL A   1      36.369  30.121  27.872  1.00  0.00    -0.080 Cl
ATOM     14  Cl  UNL A   1      31.208  31.856  26.867  1.00  0.00    -0.080 Cl
BRANCH   8  15
ATOM     15  C   UNL A   1      32.494  26.994  26.361  1.00  0.00     0.029 C 
ATOM     16  N   UNL A   1      33.066  24.833  23.593  1.00  0.00    -0.259 N 
ATOM     17  C   UNL A   1      33.485  25.966  22.945  1.00  0.00     0.294 C 
ATOM     18  C   UNL A   1      32.468  25.034  24.822  1.00  0.00     0.268 C 
ATOM     19  O   UNL A   1      34.331  26.064  22.074  1.00  0.00    -0.261 OA
ATOM     20  S   UNL A   1      32.690  27.359  23.636  1.00  0.00    -0.022 SA
ATOM     21  C   UNL A   1      32.427  26.504  25.109  1.00  0.00     0.083 C 
ATOM     22  O   UNL A   1      32.165  24.171  25.635  1.00  0.00    -0.268 OA
BRANCH  16  23
ATOM     23  C   UNL A   1      33.649  23.547  23.238  1.00  0.00     0.230 C 
BRANCH  23  24
ATOM     24  C   UNL A   1      33.012  22.916  21.997  1.00  0.00     0.244 C 
ATOM     25  N   UNL A   1      32.229  21.801  22.093  1.00  0.00    -0.325 N 
ATOM     26  H   UNL A   1      31.520  21.743  21.412  1.00  0.00     0.169 HD
ATOM     27  O   UNL A   1      33.178  23.424  20.885  1.00  0.00    -0.273 OA
BRANCH  25  28
ATOM     28  C   UNL A   1      32.260  20.727  22.991  1.00  0.00     0.041 A 
ATOM     29  C   UNL A   1      32.715  17.294  25.565  1.00  0.00     0.044 C 
ATOM     30  C   UNL A   1      32.547  18.476  24.660  1.00  0.00    -0.051 A 
ATOM     31  C   UNL A   1      32.584  19.769  25.192  1.00  0.00     0.005 A 
ATOM     32  C   UNL A   1      32.368  18.317  23.283  1.00  0.00     0.005 A 
ATOM     33  C   UNL A   1      32.442  20.886  24.363  1.00  0.00     0.026 A 
ATOM     34  C   UNL A   1      32.240  19.436  22.454  1.00  0.00     0.026 A 
ENDBRANCH  25  28
ENDBRANCH  23  24
ENDBRANCH  16  23
ENDBRANCH   8  15
ENDBRANCH   6   7
ENDBRANCH   5   6
ENDBRANCH   1   5
BRANCH   3  35
ATOM     35  C   UNL A   1      33.252  35.701  29.710  1.00  0.00     0.117 C 
BRANCH  35  36
ATOM     36  C   UNL A   1      33.097  36.844  30.696  1.00  0.00     0.042 C 
BRANCH  36  37
ATOM     37  C   UNL A   1      33.398  36.462  32.137  1.00  0.00     0.118 C 
BRANCH  37  38
ATOM     38  N   UNL A   1      33.016  35.094  32.494  1.00  0.00    -0.352 N 
ATOM     39  C   UNL A   1      33.771  34.048  33.005  1.00  0.00     0.251 C 
ATOM     40  H   UNL A   1      32.066  34.881  32.347  1.00  0.00     0.163 HD
ATOM     41  O   UNL A   1      33.226  32.977  33.261  1.00  0.00    -0.269 OA
BRANCH  39  42
ATOM     42  C   UNL A   1      35.179  34.272  33.421  1.00  0.00     0.039 A 
ATOM     43  C   UNL A   1      36.032  34.863  32.478  1.00  0.00     0.014 A 
ATOM     44  C   UNL A   1      35.708  33.581  34.498  1.00  0.00     0.014 A 
ATOM     45  C   UNL A   1      37.350  34.437  32.408  1.00  0.00     0.010 A 
ATOM     46  C   UNL A   1      36.952  33.025  34.337  1.00  0.00     0.010 A 
ATOM     47  C   UNL A   1      37.734  33.395  33.239  1.00  0.00    -0.014 A 
BRANCH  47  48
ATOM     48  C   UNL A   1      38.920  32.586  33.045  1.00  0.00     0.031 A 
ATOM     49  C   UNL A   1      38.779  31.322  32.306  1.00  0.00     0.074 A 
ATOM     50  C   UNL A   1      40.123  33.108  33.369  1.00  0.00     0.049 A 
ATOM     51  N   UNL A   1      39.700  30.434  32.212  1.00  0.00    -0.248 NA
ATOM     52  C   UNL A   1      37.532  30.925  31.654  1.00  0.00     0.031 C 
ATOM     53  C   UNL A   1      41.442  32.668  32.922  1.00  0.00     0.029 A 
ATOM     54  N   UNL A   1      40.399  34.061  34.362  1.00  0.00    -0.354 N 
ATOM     55  C   UNL A   1      39.299  29.515  31.271  1.00  0.00     0.074 A 
ATOM     56  C   UNL A   1      37.903  29.789  31.058  1.00  0.00     0.031 C 
ATOM     57  C   UNL A   1      42.367  33.100  33.797  1.00  0.00     0.029 A 
ATOM     58  C   UNL A   1      41.646  33.684  34.914  1.00  0.00     0.049 A 
ATOM     59  H   UNL A   1      39.841  34.830  34.620  1.00  0.00     0.167 HD
ATOM     60  C   UNL A   1      40.257  28.736  30.700  1.00  0.00     0.037 A 
ATOM     61  C   UNL A   1      41.735  33.238  36.203  1.00  0.00     0.037 A 
ATOM     62  C   UNL A   1      41.498  28.836  31.474  1.00  0.00     0.049 A 
ATOM     63  C   UNL A   1      42.235  31.815  36.301  1.00  0.00     0.074 A 
ATOM     64  C   UNL A   1      42.677  29.535  31.285  1.00  0.00     0.029 A 
ATOM     65  N   UNL A   1      41.491  28.422  32.804  1.00  0.00    -0.354 N 
ATOM     66  N   UNL A   1      42.127  30.936  35.339  1.00  0.00    -0.248 NA
ATOM     67  C   UNL A   1      42.925  31.280  37.470  1.00  0.00     0.031 C 
ATOM     68  C   UNL A   1      43.330  29.628  32.547  1.00  0.00     0.029 A 
ATOM     69  C   UNL A   1      42.572  28.945  33.486  1.00  0.00     0.049 A 
ATOM     70  H   UNL A   1      40.809  27.835  33.203  1.00  0.00     0.167 HD
ATOM     71  C   UNL A   1      42.720  29.760  35.723  1.00  0.00     0.074 A 
ATOM     72  C   UNL A   1      43.207  30.030  37.064  1.00  0.00     0.031 C 
ATOM     73  C   UNL A   1      42.767  28.666  34.904  1.00  0.00     0.037 A 
BRANCH  60  74
ATOM     74  C   UNL A   1      40.166  28.063  29.343  1.00  0.00     0.057 A 
ATOM     75  C   UNL A   1      39.486  26.833  29.217  1.00  0.00     0.134 A 
ATOM     76  C   UNL A   1      40.809  28.477  28.158  1.00  0.00     0.134 A 
ATOM     77  F   UNL A   1      38.812  26.296  30.244  1.00  0.00    -0.206 F 
ATOM     78  C   UNL A   1      39.480  26.073  28.037  1.00  0.00     0.040 A 
ATOM     79  C   UNL A   1      40.786  27.741  26.963  1.00  0.00     0.040 A 
ATOM     80  F   UNL A   1      41.532  29.594  28.075  1.00  0.00    -0.206 F 
ATOM     81  C   UNL A   1      40.132  26.525  26.902  1.00  0.00     0.006 A 
ENDBRANCH  60  74
BRANCH  61  82
ATOM     82  C   UNL A   1      40.734  33.884  37.097  1.00  0.00     0.057 A 
ATOM     83  C   UNL A   1      39.590  33.140  37.442  1.00  0.00     0.134 A 
ATOM     84  C   UNL A   1      41.083  34.939  37.946  1.00  0.00     0.134 A 
ATOM     85  F   UNL A   1      39.188  32.126  36.658  1.00  0.00    -0.206 F 
ATOM     86  C   UNL A   1      38.925  33.324  38.657  1.00  0.00     0.040 A 
ATOM     87  C   UNL A   1      40.407  35.148  39.156  1.00  0.00     0.040 A 
ATOM     88  F   UNL A   1      42.162  35.693  37.694  1.00  0.00    -0.206 F 
ATOM     89  C   UNL A   1      39.365  34.303  39.540  1.00  0.00     0.006 A 
ENDBRANCH  61  82
BRANCH  73  90
ATOM     90  C   UNL A   1      43.089  27.246  35.331  1.00  0.00     0.057 A 
ATOM     91  C   UNL A   1      42.365  26.519  36.287  1.00  0.00     0.134 A 
ATOM     92  C   UNL A   1      44.079  26.497  34.649  1.00  0.00     0.134 A 
ATOM     93  F   UNL A   1      41.312  27.043  36.927  1.00  0.00    -0.206 F 
ATOM     94  C   UNL A   1      42.646  25.179  36.592  1.00  0.00     0.040 A 
ATOM     95  C   UNL A   1      44.323  25.143  34.898  1.00  0.00     0.040 A 
ATOM     96  F   UNL A   1      44.838  27.035  33.683  1.00  0.00    -0.206 F 
ATOM     97  C   UNL A   1      43.618  24.482  35.888  1.00  0.00     0.006 A 
ENDBRANCH  73  90
ENDBRANCH  47  48
ENDBRANCH  39  42
ENDBRANCH  37  38
ENDBRANCH  36  37
ENDBRANCH  35  36
ENDBRANCH   3  35
TORSDOF 16
ENDMDL
MODEL 2
REMARK VINA RESULT:     -13.6      5.974     11.589
REMARK SMILES Cc1ccc(NC(=O)CN2C(=O)S/C(=C\c3cc(Cl)c(OCC(=O)NCCCNC(=O)c4ccc(-c5c6nc(c(-c7c(F)cccc7F)c7ccc([nH]7)c(-c7c(F)cccc7F)c7nc(c(-c8c(F)cccc8F)c8ccc5[nH]8)C=C7)C=C6)cc4)c(Cl)c3)C2=O)cc1
REMARK SMILES IDX 23 1 24 2 25 3 22 5 21 6 20 7 16 8 17 9 88 10 18 11 86 12
REMARK SMILES IDX 19 13 87 14 15 15 10 16 11 17 89 18 12 19 13 20 14 21 90 22
REMARK SMILES IDX 9 23 7 24 6 25 8 27 5 28 1 29 2 30 3 31 92 32 4 33 91 34
REMARK SMILES IDX 26 35 27 36 28 37 29 38 30 39 31 41 32 42 33 43 85 44 34 45
REMARK SMILES IDX 84 46 35 47 36 48 37 49 78 50 38 51 83 52 77 53 79 54 39 55
REMARK SMILES IDX 82 56 76 57 75 58 40 60 66 61 49 62 65 63 50 64 53 65 64 66
REMARK SMILES IDX 80 67 51 68 52 69 63 71 81 72 54 73 41 74 42 75 47 76 43 77
REMARK SMILES IDX 44 78 46 79 48 80 45 81 67 82 68 83 73 84 69 85 70 86 72 87
REMARK SMILES IDX 74 88 71 89 55 90 56 91 61 92 57 93 58 94 60 95 62 96 59 97
REMARK H PARENT 25 4 6 26 29 40 79 59 53 70
REMARK Flexibility Score: inf
ROOT
ATOM      1  C   UNL A   1      41.587  20.097  27.162  1.00  0.00     0.257 C 
ATOM      2  O   UNL A   1      41.119  19.838  28.270  1.00  0.00    -0.271 OA
ATOM      3  N   UNL A   1      42.557  19.259  26.690  1.00  0.00    -0.353 N 
ATOM      4  H   UNL A   1      42.876  18.581  27.327  1.00  0.00     0.163 HD
ENDROOT
BRANCH   1   5
ATOM      5  C   UNL A   1      41.101  21.283  26.309  1.00  0.00     0.329 C 
BRANCH   5   6
ATOM      6  O   UNL A   1      39.902  21.928  26.700  1.00  0.00    -0.481 OA
BRANCH   6   7
ATOM      7  C   UNL A   1      38.755  21.905  25.953  1.00  0.00     0.157 A 
ATOM      8  C   UNL A   1      36.318  22.253  24.479  1.00  0.00    -0.021 A 
ATOM      9  C   UNL A   1      36.961  23.354  25.029  1.00  0.00     0.032 A 
ATOM     10  C   UNL A   1      36.885  20.993  24.705  1.00  0.00     0.032 A 
ATOM     11  C   UNL A   1      38.151  23.176  25.763  1.00  0.00     0.085 A 
ATOM     12  C   UNL A   1      38.115  20.817  25.356  1.00  0.00     0.085 A 
ATOM     13  Cl  UNL A   1      38.874  24.611  26.428  1.00  0.00    -0.080 Cl
ATOM     14  Cl  UNL A   1      38.731  19.213  25.204  1.00  0.00    -0.080 Cl
BRANCH   8  15
ATOM     15  C   UNL A   1      35.041  22.342  23.739  1.00  0.00     0.029 C 
ATOM     16  N   UNL A   1      32.488  24.817  23.638  1.00  0.00    -0.259 N 
ATOM     17  C   UNL A   1      33.020  25.248  24.826  1.00  0.00     0.294 C 
ATOM     18  C   UNL A   1      32.979  23.617  23.163  1.00  0.00     0.268 C 
ATOM     19  O   UNL A   1      33.051  26.383  25.267  1.00  0.00    -0.261 OA
ATOM     20  S   UNL A   1      33.795  23.909  25.635  1.00  0.00    -0.022 SA
ATOM     21  C   UNL A   1      33.991  23.087  24.132  1.00  0.00     0.083 C 
ATOM     22  O   UNL A   1      32.766  23.127  22.062  1.00  0.00    -0.268 OA
BRANCH  16  23
ATOM     23  C   UNL A   1      31.850  25.777  22.748  1.00  0.00     0.230 C 
BRANCH  23  24
ATOM     24  C   UNL A   1      32.811  26.848  22.225  1.00  0.00     0.244 C 
ATOM     25  N   UNL A   1      32.638  28.167  22.536  1.00  0.00    -0.325 N 
ATOM     26  H   UNL A   1      33.473  28.686  22.583  1.00  0.00     0.169 HD
ATOM     27  O   UNL A   1      33.780  26.530  21.529  1.00  0.00    -0.273 OA
BRANCH  25  28
ATOM     28  C   UNL A   1      31.479  28.909  22.796  1.00  0.00     0.041 A 
ATOM     29  C   UNL A   1      28.162  31.514  23.708  1.00  0.00     0.044 C 
ATOM     30  C   UNL A   1      29.314  30.603  23.408  1.00  0.00    -0.051 A 
ATOM     31  C   UNL A   1      29.508  30.135  22.105  1.00  0.00     0.005 A 
ATOM     32  C   UNL A   1      30.215  30.219  24.405  1.00  0.00     0.005 A 
ATOM     33  C   UNL A   1      30.583  29.295  21.800  1.00  0.00     0.026 A 
ATOM     34  C   UNL A   1      31.297  29.389  24.096  1.00  0.00     0.026 A 
ENDBRANCH  25  28
ENDBRANCH  23  24
ENDBRANCH  16  23
ENDBRANCH   8  15
ENDBRANCH   6   7
ENDBRANCH   5   6
ENDBRANCH   1   5
BRANCH   3  35
ATOM     35  C   UNL A   1      43.184  19.228  25.384  1.00  0.00     0.117 C 
BRANCH  35  36
ATOM     36  C   UNL A   1      44.633  18.779  25.441  1.00  0.00     0.042 C 
BRANCH  36  37
ATOM     37  C   UNL A   1      45.574  19.621  24.592  1.00  0.00     0.118 C 
BRANCH  37  38
ATOM     38  N   UNL A   1      44.904  20.604  23.739  1.00  0.00    -0.352 N 
ATOM     39  C   UNL A   1      44.801  21.983  23.856  1.00  0.00     0.251 C 
ATOM     40  H   UNL A   1      44.454  20.225  22.950  1.00  0.00     0.163 HD
ATOM     41  O   UNL A   1      44.206  22.621  22.992  1.00  0.00    -0.269 OA
BRANCH  39  42
ATOM     42  C   UNL A   1      45.561  22.706  24.908  1.00  0.00     0.039 A 
ATOM     43  C   UNL A   1      45.199  22.452  26.238  1.00  0.00     0.014 A 
ATOM     44  C   UNL A   1      46.286  23.841  24.590  1.00  0.00     0.014 A 
ATOM     45  C   UNL A   1      45.224  23.498  27.150  1.00  0.00     0.010 A 
ATOM     46  C   UNL A   1      46.156  24.923  25.424  1.00  0.00     0.010 A 
ATOM     47  C   UNL A   1      45.544  24.760  26.671  1.00  0.00    -0.014 A 
BRANCH  47  48
ATOM     48  C   UNL A   1      45.257  25.997  27.367  1.00  0.00     0.031 A 
ATOM     49  C   UNL A   1      43.903  26.558  27.247  1.00  0.00     0.074 A 
ATOM     50  C   UNL A   1      46.167  26.475  28.245  1.00  0.00     0.049 A 
ATOM     51  N   UNL A   1      43.565  27.723  27.663  1.00  0.00    -0.248 NA
ATOM     52  C   UNL A   1      42.815  25.853  26.571  1.00  0.00     0.031 C 
ATOM     53  C   UNL A   1      45.956  27.446  29.316  1.00  0.00     0.029 A 
ATOM     54  N   UNL A   1      47.559  26.305  28.207  1.00  0.00    -0.354 N 
ATOM     55  C   UNL A   1      42.194  27.810  27.591  1.00  0.00     0.074 A 
ATOM     56  C   UNL A   1      41.794  26.685  26.789  1.00  0.00     0.031 C 
ATOM     57  C   UNL A   1      47.136  28.004  29.638  1.00  0.00     0.029 A 
ATOM     58  C   UNL A   1      48.104  27.528  28.666  1.00  0.00     0.049 A 
ATOM     59  H   UNL A   1      48.054  25.503  27.919  1.00  0.00     0.167 HD
ATOM     60  C   UNL A   1      41.580  28.758  28.350  1.00  0.00     0.037 A 
ATOM     61  C   UNL A   1      48.811  28.340  27.824  1.00  0.00     0.037 A 
ATOM     62  C   UNL A   1      42.576  29.712  28.845  1.00  0.00     0.049 A 
ATOM     63  C   UNL A   1      48.166  29.693  27.631  1.00  0.00     0.074 A 
ATOM     64  C   UNL A   1      43.207  29.875  30.066  1.00  0.00     0.029 A 
ATOM     65  N   UNL A   1      43.305  30.457  27.920  1.00  0.00    -0.354 N 
ATOM     66  N   UNL A   1      46.890  29.924  27.801  1.00  0.00    -0.248 NA
ATOM     67  C   UNL A   1      48.907  30.896  27.268  1.00  0.00     0.031 C 
ATOM     68  C   UNL A   1      44.387  30.640  29.843  1.00  0.00     0.029 A 
ATOM     69  C   UNL A   1      44.443  30.981  28.500  1.00  0.00     0.049 A 
ATOM     70  H   UNL A   1      43.044  30.592  26.981  1.00  0.00     0.167 HD
ATOM     71  C   UNL A   1      46.633  31.256  27.596  1.00  0.00     0.074 A 
ATOM     72  C   UNL A   1      47.930  31.821  27.269  1.00  0.00     0.031 C 
ATOM     73  C   UNL A   1      45.378  31.784  27.720  1.00  0.00     0.037 A 
BRANCH  60  74
ATOM     74  C   UNL A   1      40.142  28.718  28.834  1.00  0.00     0.057 A 
ATOM     75  C   UNL A   1      39.104  29.139  27.978  1.00  0.00     0.134 A 
ATOM     76  C   UNL A   1      39.707  28.406  30.139  1.00  0.00     0.134 A 
ATOM     77  F   UNL A   1      39.340  29.466  26.698  1.00  0.00    -0.206 F 
ATOM     78  C   UNL A   1      37.770  29.274  28.391  1.00  0.00     0.040 A 
ATOM     79  C   UNL A   1      38.371  28.509  30.558  1.00  0.00     0.040 A 
ATOM     80  F   UNL A   1      40.536  28.019  31.109  1.00  0.00    -0.206 F 
ATOM     81  C   UNL A   1      37.397  28.958  29.688  1.00  0.00     0.006 A 
ENDBRANCH  60  74
BRANCH  61  82
ATOM     82  C   UNL A   1      49.570  27.571  26.800  1.00  0.00     0.057 A 
ATOM     83  C   UNL A   1      49.060  27.550  25.487  1.00  0.00     0.134 A 
ATOM     84  C   UNL A   1      50.932  27.289  26.954  1.00  0.00     0.134 A 
ATOM     85  F   UNL A   1      47.757  27.793  25.270  1.00  0.00    -0.206 F 
ATOM     86  C   UNL A   1      49.891  27.427  24.371  1.00  0.00     0.040 A 
ATOM     87  C   UNL A   1      51.770  27.138  25.841  1.00  0.00     0.040 A 
ATOM     88  F   UNL A   1      51.497  27.294  28.168  1.00  0.00    -0.206 F 
ATOM     89  C   UNL A   1      51.261  27.266  24.548  1.00  0.00     0.006 A 
ENDBRANCH  61  82
BRANCH  73  90
ATOM     90  C   UNL A   1      44.926  33.138  27.207  1.00  0.00     0.057 A 
ATOM     91  C   UNL A   1      44.236  33.342  26.002  1.00  0.00     0.134 A 
ATOM     92  C   UNL A   1      45.042  34.291  28.020  1.00  0.00     0.134 A 
ATOM     93  F   UNL A   1      43.930  32.330  25.181  1.00  0.00    -0.206 F 
ATOM     94  C   UNL A   1      43.763  34.601  25.605  1.00  0.00     0.040 A 
ATOM     95  C   UNL A   1      44.515  35.537  27.664  1.00  0.00     0.040 A 
ATOM     96  F   UNL A   1      45.644  34.259  29.217  1.00  0.00    -0.206 F 
ATOM     97  C   UNL A   1      43.888  35.701  26.441  1.00  0.00     0.006 A 
ENDBRANCH  73  90
ENDBRANCH  47  48
ENDBRANCH  39  42
ENDBRANCH  37  38
ENDBRANCH  36  37
ENDBRANCH  35  36
ENDBRANCH   3  35
TORSDOF 16
ENDMDL
MODEL 3
REMARK VINA RESULT:     -13.4      2.108      3.463
REMARK SMILES Cc1ccc(NC(=O)CN2C(=O)S/C(=C\c3cc(Cl)c(OCC(=O)NCCCNC(=O)c4ccc(-c5c6nc(c(-c7c(F)cccc7F)c7ccc([nH]7)c(-c7c(F)cccc7F)c7nc(c(-c8c(F)cccc8F)c8ccc5[nH]8)C=C7)C=C6)cc4)c(Cl)c3)C2=O)cc1
REMARK SMILES IDX 23 1 24 2 25 3 22 5 21 6 20 7 16 8 17 9 88 10 18 11 86 12
REMARK SMILES IDX 19 13 87 14 15 15 10 16 11 17 89 18 12 19 13 20 14 21 90 22
REMARK SMILES IDX 9 23 7 24 6 25 8 27 5 28 1 29 2 30 3 31 92 32 4 33 91 34
REMARK SMILES IDX 26 35 27 36 28 37 29 38 30 39 31 41 32 42 33 43 85 44 34 45
REMARK SMILES IDX 84 46 35 47 36 48 37 49 78 50 38 51 83 52 77 53 79 54 39 55
REMARK SMILES IDX 82 56 76 57 75 58 40 60 66 61 49 62 65 63 50 64 53 65 64 66
REMARK SMILES IDX 80 67 51 68 52 69 63 71 81 72 54 73 41 74 42 75 47 76 43 77
REMARK SMILES IDX 44 78 46 79 48 80 45 81 67 82 68 83 73 84 69 85 70 86 72 87
REMARK SMILES IDX 74 88 71 89 55 90 56 91 61 92 57 93 58 94 60 95 62 96 59 97
REMARK H PARENT 25 4 6 26 29 40 79 59 53 70
REMARK Flexibility Score: inf
ROOT
ATOM      1  C   UNL A   1      33.825  36.026  28.959  1.00  0.00     0.257 C 
ATOM      2  O   UNL A   1      34.362  36.458  27.939  1.00  0.00    -0.271 OA
ATOM      3  N   UNL A   1      33.512  36.938  29.926  1.00  0.00    -0.353 N 
ATOM      4  H   UNL A   1      33.843  37.851  29.769  1.00  0.00     0.163 HD
ENDROOT
BRANCH   1   5
ATOM      5  C   UNL A   1      33.479  34.538  29.150  1.00  0.00     0.329 C 
BRANCH   5   6
ATOM      6  O   UNL A   1      33.048  33.811  28.014  1.00  0.00    -0.481 OA
BRANCH   6   7
ATOM      7  C   UNL A   1      33.478  32.544  27.722  1.00  0.00     0.157 A 
ATOM      8  C   UNL A   1      34.008  29.831  26.953  1.00  0.00    -0.021 A 
ATOM      9  C   UNL A   1      32.822  30.442  26.571  1.00  0.00     0.032 A 
ATOM     10  C   UNL A   1      34.894  30.575  27.742  1.00  0.00     0.032 A 
ATOM     11  C   UNL A   1      32.560  31.771  26.962  1.00  0.00     0.085 A 
ATOM     12  C   UNL A   1      34.683  31.924  28.059  1.00  0.00     0.085 A 
ATOM     13  Cl  UNL A   1      31.041  32.446  26.452  1.00  0.00    -0.080 Cl
ATOM     14  Cl  UNL A   1      36.073  32.676  28.751  1.00  0.00    -0.080 Cl
BRANCH   8  15
ATOM     15  C   UNL A   1      34.341  28.427  26.630  1.00  0.00     0.029 C 
ATOM     16  N   UNL A   1      32.380  25.699  25.461  1.00  0.00    -0.259 N 
ATOM     17  C   UNL A   1      31.310  26.423  25.920  1.00  0.00     0.294 C 
ATOM     18  C   UNL A   1      33.625  26.186  25.808  1.00  0.00     0.268 C 
ATOM     19  O   UNL A   1      30.173  26.444  25.482  1.00  0.00    -0.261 OA
ATOM     20  S   UNL A   1      31.827  27.462  27.224  1.00  0.00    -0.022 SA
ATOM     21  C   UNL A   1      33.450  27.418  26.643  1.00  0.00     0.083 C 
ATOM     22  O   UNL A   1      34.704  25.797  25.383  1.00  0.00    -0.268 OA
BRANCH  16  23
ATOM     23  C   UNL A   1      32.208  24.811  24.320  1.00  0.00     0.230 C 
BRANCH  23  24
ATOM     24  C   UNL A   1      33.000  25.250  23.086  1.00  0.00     0.244 C 
ATOM     25  N   UNL A   1      33.005  26.553  22.675  1.00  0.00    -0.325 N 
ATOM     26  H   UNL A   1      33.836  26.835  22.228  1.00  0.00     0.169 HD
ATOM     27  O   UNL A   1      33.673  24.431  22.453  1.00  0.00    -0.273 OA
BRANCH  25  28
ATOM     28  C   UNL A   1      32.032  27.555  22.777  1.00  0.00     0.041 A 
ATOM     29  C   UNL A   1      28.811  30.373  23.327  1.00  0.00     0.044 C 
ATOM     30  C   UNL A   1      29.922  29.389  23.120  1.00  0.00    -0.051 A 
ATOM     31  C   UNL A   1      31.199  29.669  23.617  1.00  0.00     0.005 A 
ATOM     32  C   UNL A   1      29.707  28.181  22.451  1.00  0.00     0.005 A 
ATOM     33  C   UNL A   1      32.246  28.758  23.447  1.00  0.00     0.026 A 
ATOM     34  C   UNL A   1      30.752  27.265  22.294  1.00  0.00     0.026 A 
ENDBRANCH  25  28
ENDBRANCH  23  24
ENDBRANCH  16  23
ENDBRANCH   8  15
ENDBRANCH   6   7
ENDBRANCH   5   6
ENDBRANCH   1   5
BRANCH   3  35
ATOM     35  C   UNL A   1      32.762  36.751  31.152  1.00  0.00     0.117 C 
BRANCH  35  36
ATOM     36  C   UNL A   1      33.565  37.106  32.389  1.00  0.00     0.042 C 
BRANCH  36  37
ATOM     37  C   UNL A   1      33.653  35.983  33.411  1.00  0.00     0.118 C 
BRANCH  37  38
ATOM     38  N   UNL A   1      33.471  34.641  32.854  1.00  0.00    -0.352 N 
ATOM     39  C   UNL A   1      34.396  33.648  32.568  1.00  0.00     0.251 C 
ATOM     40  H   UNL A   1      32.537  34.404  32.650  1.00  0.00     0.163 HD
ATOM     41  O   UNL A   1      34.008  32.569  32.125  1.00  0.00    -0.269 OA
BRANCH  39  42
ATOM     42  C   UNL A   1      35.817  33.807  32.968  1.00  0.00     0.039 A 
ATOM     43  C   UNL A   1      36.686  34.356  32.014  1.00  0.00     0.014 A 
ATOM     44  C   UNL A   1      36.325  33.094  34.041  1.00  0.00     0.014 A 
ATOM     45  C   UNL A   1      37.983  33.870  31.932  1.00  0.00     0.010 A 
ATOM     46  C   UNL A   1      37.540  32.481  33.868  1.00  0.00     0.010 A 
ATOM     47  C   UNL A   1      38.327  32.813  32.761  1.00  0.00    -0.014 A 
BRANCH  47  48
ATOM     48  C   UNL A   1      39.472  31.950  32.556  1.00  0.00     0.031 A 
ATOM     49  C   UNL A   1      39.282  30.731  31.755  1.00  0.00     0.074 A 
ATOM     50  C   UNL A   1      40.693  32.390  32.931  1.00  0.00     0.049 A 
ATOM     51  N   UNL A   1      40.156  29.799  31.641  1.00  0.00    -0.248 NA
ATOM     52  C   UNL A   1      38.032  30.432  31.058  1.00  0.00     0.031 C 
ATOM     53  C   UNL A   1      41.997  31.899  32.493  1.00  0.00     0.029 A 
ATOM     54  N   UNL A   1      40.995  33.281  33.973  1.00  0.00    -0.354 N 
ATOM     55  C   UNL A   1      39.730  28.947  30.649  1.00  0.00     0.074 A 
ATOM     56  C   UNL A   1      38.357  29.306  30.418  1.00  0.00     0.031 C 
ATOM     57  C   UNL A   1      42.922  32.240  33.408  1.00  0.00     0.029 A 
ATOM     58  C   UNL A   1      42.205  32.811  34.535  1.00  0.00     0.049 A 
ATOM     59  H   UNL A   1      40.473  34.067  34.254  1.00  0.00     0.167 HD
ATOM     60  C   UNL A   1      40.659  28.143  30.064  1.00  0.00     0.037 A 
ATOM     61  C   UNL A   1      42.238  32.303  35.804  1.00  0.00     0.037 A 
ATOM     62  C   UNL A   1      41.884  28.140  30.869  1.00  0.00     0.049 A 
ATOM     63  C   UNL A   1      42.659  30.851  35.846  1.00  0.00     0.074 A 
ATOM     64  C   UNL A   1      43.103  28.781  30.741  1.00  0.00     0.029 A 
ATOM     65  N   UNL A   1      41.821  27.667  32.179  1.00  0.00    -0.354 N 
ATOM     66  N   UNL A   1      42.528  30.024  34.842  1.00  0.00    -0.248 NA
ATOM     67  C   UNL A   1      43.290  30.227  37.004  1.00  0.00     0.031 C 
ATOM     68  C   UNL A   1      43.728  28.781  32.020  1.00  0.00     0.029 A 
ATOM     69  C   UNL A   1      42.911  28.098  32.908  1.00  0.00     0.049 A 
ATOM     70  H   UNL A   1      41.099  27.101  32.534  1.00  0.00     0.167 HD
ATOM     71  C   UNL A   1      43.047  28.801  35.184  1.00  0.00     0.074 A 
ATOM     72  C   UNL A   1      43.514  28.983  36.546  1.00  0.00     0.031 C 
ATOM     73  C   UNL A   1      43.056  27.744  34.316  1.00  0.00     0.037 A 
BRANCH  60  74
ATOM     74  C   UNL A   1      40.566  27.538  28.675  1.00  0.00     0.057 A 
ATOM     75  C   UNL A   1      39.811  26.364  28.474  1.00  0.00     0.134 A 
ATOM     76  C   UNL A   1      41.271  27.961  27.529  1.00  0.00     0.134 A 
ATOM     77  F   UNL A   1      39.072  25.828  29.456  1.00  0.00    -0.206 F 
ATOM     78  C   UNL A   1      39.792  25.658  27.260  1.00  0.00     0.040 A 
ATOM     79  C   UNL A   1      41.237  27.281  26.302  1.00  0.00     0.040 A 
ATOM     80  F   UNL A   1      42.067  29.030  27.518  1.00  0.00    -0.206 F 
ATOM     81  C   UNL A   1      40.507  26.116  26.166  1.00  0.00     0.006 A 
ENDBRANCH  60  74
BRANCH  61  82
ATOM     82  C   UNL A   1      41.252  32.962  36.704  1.00  0.00     0.057 A 
ATOM     83  C   UNL A   1      41.546  34.263  37.155  1.00  0.00     0.134 A 
ATOM     84  C   UNL A   1      39.909  32.571  36.732  1.00  0.00     0.134 A 
ATOM     85  F   UNL A   1      42.818  34.695  37.173  1.00  0.00    -0.206 F 
ATOM     86  C   UNL A   1      40.542  35.187  37.455  1.00  0.00     0.040 A 
ATOM     87  C   UNL A   1      38.896  33.484  37.056  1.00  0.00     0.040 A 
ATOM     88  F   UNL A   1      39.544  31.351  36.314  1.00  0.00    -0.206 F 
ATOM     89  C   UNL A   1      39.208  34.809  37.361  1.00  0.00     0.006 A 
ENDBRANCH  61  82
BRANCH  73  90
ATOM     90  C   UNL A   1      43.291  26.292  34.683  1.00  0.00     0.057 A 
ATOM     91  C   UNL A   1      42.289  25.406  35.108  1.00  0.00     0.134 A 
ATOM     92  C   UNL A   1      44.552  25.688  34.458  1.00  0.00     0.134 A 
ATOM     93  F   UNL A   1      41.014  25.792  35.242  1.00  0.00    -0.206 F 
ATOM     94  C   UNL A   1      42.535  24.049  35.357  1.00  0.00     0.040 A 
ATOM     95  C   UNL A   1      44.791  24.322  34.640  1.00  0.00     0.040 A 
ATOM     96  F   UNL A   1      45.607  26.388  34.019  1.00  0.00    -0.206 F 
ATOM     97  C   UNL A   1      43.784  23.498  35.110  1.00  0.00     0.006 A 
ENDBRANCH  73  90
ENDBRANCH  47  48
ENDBRANCH  39  42
ENDBRANCH  37  38
ENDBRANCH  36  37
ENDBRANCH  35  36
ENDBRANCH   3  35
TORSDOF 16
ENDMDL
