MODEL 1
REMARK VINA RESULT:     -12.7      0.000      0.000
REMARK SMILES Cc1ccccc1N[C@H](C(=O)NCCCNC(=O)c1ccc(-c2c3nc(c(-c4c(F)cccc4F)c4ccc([nH]4)c(-c4c(F)cccc4F)c4nc(c(-c5c(F)cccc5F)c5ccc2[nH]5)C=C4)C=C3)cc1)c1ccccc1
REMARK SMILES IDX 14 1 13 2 12 3 10 4 11 5 9 7 8 8 7 10 1 11 2 12 3 13 4 14
REMARK SMILES IDX 6 15 5 16 73 17 74 18 78 19 75 20 77 21 76 22 15 23 16 24
REMARK SMILES IDX 17 25 18 27 19 28 20 29 72 30 21 31 71 32 22 33 23 34 24 35
REMARK SMILES IDX 65 36 25 37 70 38 64 39 66 40 26 41 69 42 63 43 62 44 27 46
REMARK SMILES IDX 53 47 36 48 52 49 37 50 40 51 51 52 67 53 38 54 39 55 50 57
REMARK SMILES IDX 68 58 41 59 28 60 29 61 34 62 30 63 31 64 33 65 35 66 32 67
REMARK SMILES IDX 54 68 55 69 60 70 56 71 57 72 59 73 61 74 58 75 42 76 43 77
REMARK SMILES IDX 48 78 44 79 45 80 47 81 49 82 46 83
REMARK H PARENT 12 6 8 9 16 26 66 45 40 56
REMARK Flexibility Score: inf
ROOT
ATOM      1  C   UNL A   1      32.322  30.662  26.866  1.00  0.00     0.042 C 
ENDROOT
BRANCH   1   2
ATOM      2  C   UNL A   1      31.979  29.937  25.580  1.00  0.00     0.117 C 
BRANCH   2   3
ATOM      3  N   UNL A   1      33.131  29.729  24.719  1.00  0.00    -0.354 N 
ATOM      4  C   UNL A   1      33.354  28.664  23.880  1.00  0.00     0.247 C 
ATOM      5  O   UNL A   1      34.336  28.710  23.133  1.00  0.00    -0.272 OA
ATOM      6  H   UNL A   1      33.827  30.426  24.739  1.00  0.00     0.163 HD
BRANCH   4   7
ATOM      7  C   UNL A   1      32.422  27.411  23.929  1.00  0.00     0.200 C 
BRANCH   7   8
ATOM      8  N   UNL A   1      31.350  27.651  22.926  1.00  0.00    -0.370 N 
ATOM      9  H   UNL A   1      31.506  27.113  22.116  1.00  0.00     0.161 HD
BRANCH   8  10
ATOM     10  C   UNL A   1      30.205  28.402  22.795  1.00  0.00     0.038 A 
ATOM     11  C   UNL A   1      28.801  26.640  24.055  1.00  0.00     0.046 C 
ATOM     12  C   UNL A   1      28.952  27.879  23.205  1.00  0.00    -0.028 A 
ATOM     13  C   UNL A   1      27.747  28.534  22.863  1.00  0.00     0.005 A 
ATOM     14  C   UNL A   1      27.758  29.746  22.190  1.00  0.00     0.000 A 
ATOM     15  C   UNL A   1      30.168  29.689  22.251  1.00  0.00     0.026 A 
ATOM     16  C   UNL A   1      28.974  30.344  21.921  1.00  0.00     0.002 A 
ENDBRANCH   8  10
ENDBRANCH   7   8
BRANCH   7  17
ATOM     17  C   UNL A   1      33.157  26.070  23.984  1.00  0.00    -0.016 A 
ATOM     18  C   UNL A   1      32.979  25.098  22.992  1.00  0.00     0.006 A 
ATOM     19  C   UNL A   1      34.032  25.750  25.044  1.00  0.00     0.006 A 
ATOM     20  C   UNL A   1      33.836  23.994  22.916  1.00  0.00     0.000 A 
ATOM     21  C   UNL A   1      34.885  24.648  24.975  1.00  0.00     0.000 A 
ATOM     22  C   UNL A   1      34.818  23.795  23.883  1.00  0.00     0.000 A 
ENDBRANCH   7  17
ENDBRANCH   4   7
ENDBRANCH   2   3
ENDBRANCH   1   2
BRANCH   1  23
ATOM     23  C   UNL A   1      33.736  30.326  27.300  1.00  0.00     0.118 C 
BRANCH  23  24
ATOM     24  N   UNL A   1      34.382  31.339  28.119  1.00  0.00    -0.352 N 
ATOM     25  C   UNL A   1      35.540  31.251  28.907  1.00  0.00     0.251 C 
ATOM     26  H   UNL A   1      33.939  32.219  28.123  1.00  0.00     0.163 HD
ATOM     27  O   UNL A   1      35.913  32.213  29.549  1.00  0.00    -0.269 OA
BRANCH  25  28
ATOM     28  C   UNL A   1      36.379  30.030  28.820  1.00  0.00     0.039 A 
ATOM     29  C   UNL A   1      36.623  29.319  30.002  1.00  0.00     0.014 A 
ATOM     30  C   UNL A   1      37.135  29.769  27.687  1.00  0.00     0.014 A 
ATOM     31  C   UNL A   1      37.807  28.594  30.126  1.00  0.00     0.010 A 
ATOM     32  C   UNL A   1      38.380  29.207  27.859  1.00  0.00     0.010 A 
ATOM     33  C   UNL A   1      38.742  28.672  29.096  1.00  0.00    -0.014 A 
BRANCH  33  34
ATOM     34  C   UNL A   1      40.152  28.335  29.257  1.00  0.00     0.031 A 
ATOM     35  C   UNL A   1      40.680  27.076  28.688  1.00  0.00     0.074 A 
ATOM     36  C   UNL A   1      40.989  29.247  29.802  1.00  0.00     0.049 A 
ATOM     37  N   UNL A   1      41.775  26.506  29.059  1.00  0.00    -0.248 NA
ATOM     38  C   UNL A   1      39.973  26.330  27.654  1.00  0.00     0.031 C 
ATOM     39  C   UNL A   1      42.450  29.246  29.760  1.00  0.00     0.029 A 
ATOM     40  N   UNL A   1      40.667  30.294  30.679  1.00  0.00    -0.354 N 
ATOM     41  C   UNL A   1      42.053  25.496  28.163  1.00  0.00     0.074 A 
ATOM     42  C   UNL A   1      40.877  25.403  27.333  1.00  0.00     0.031 C 
ATOM     43  C   UNL A   1      42.911  30.025  30.752  1.00  0.00     0.029 A 
ATOM     44  C   UNL A   1      41.767  30.426  31.554  1.00  0.00     0.049 A 
ATOM     45  H   UNL A   1      39.840  30.828  30.683  1.00  0.00     0.167 HD
ATOM     46  C   UNL A   1      43.298  24.938  28.149  1.00  0.00     0.037 A 
ATOM     47  C   UNL A   1      41.638  30.182  32.891  1.00  0.00     0.037 A 
ATOM     48  C   UNL A   1      44.123  25.485  29.226  1.00  0.00     0.049 A 
ATOM     49  C   UNL A   1      42.480  29.031  33.389  1.00  0.00     0.074 A 
ATOM     50  C   UNL A   1      45.061  26.505  29.255  1.00  0.00     0.029 A 
ATOM     51  N   UNL A   1      43.798  25.213  30.550  1.00  0.00    -0.354 N 
ATOM     52  N   UNL A   1      43.026  28.135  32.613  1.00  0.00    -0.248 NA
ATOM     53  C   UNL A   1      42.739  28.773  34.805  1.00  0.00     0.031 C 
ATOM     54  C   UNL A   1      45.236  26.901  30.604  1.00  0.00     0.029 A 
ATOM     55  C   UNL A   1      44.427  26.106  31.397  1.00  0.00     0.049 A 
ATOM     56  H   UNL A   1      43.202  24.485  30.844  1.00  0.00     0.167 HD
ATOM     57  C   UNL A   1      43.630  27.175  33.379  1.00  0.00     0.074 A 
ATOM     58  C   UNL A   1      43.453  27.636  34.743  1.00  0.00     0.031 C 
ATOM     59  C   UNL A   1      44.201  26.063  32.834  1.00  0.00     0.037 A 
BRANCH  46  60
ATOM     60  C   UNL A   1      43.853  24.142  26.985  1.00  0.00     0.057 A 
ATOM     61  C   UNL A   1      44.607  24.774  25.974  1.00  0.00     0.134 A 
ATOM     62  C   UNL A   1      43.631  22.773  26.756  1.00  0.00     0.134 A 
ATOM     63  F   UNL A   1      45.018  26.043  26.091  1.00  0.00    -0.206 F 
ATOM     64  C   UNL A   1      44.982  24.135  24.784  1.00  0.00     0.040 A 
ATOM     65  C   UNL A   1      43.948  22.134  25.547  1.00  0.00     0.040 A 
ATOM     66  F   UNL A   1      43.159  21.968  27.716  1.00  0.00    -0.206 F 
ATOM     67  C   UNL A   1      44.613  22.821  24.545  1.00  0.00     0.006 A 
ENDBRANCH  46  60
BRANCH  47  68
ATOM     68  C   UNL A   1      40.301  30.546  33.428  1.00  0.00     0.057 A 
ATOM     69  C   UNL A   1      40.018  31.901  33.673  1.00  0.00     0.134 A 
ATOM     70  C   UNL A   1      39.210  29.675  33.336  1.00  0.00     0.134 A 
ATOM     71  F   UNL A   1      41.020  32.789  33.776  1.00  0.00    -0.206 F 
ATOM     72  C   UNL A   1      38.709  32.387  33.711  1.00  0.00     0.040 A 
ATOM     73  C   UNL A   1      37.894  30.152  33.378  1.00  0.00     0.040 A 
ATOM     74  F   UNL A   1      39.398  28.373  33.079  1.00  0.00    -0.206 F 
ATOM     75  C   UNL A   1      37.643  31.515  33.525  1.00  0.00     0.006 A 
ENDBRANCH  47  68
BRANCH  59  76
ATOM     76  C   UNL A   1      44.661  24.863  33.616  1.00  0.00     0.057 A 
ATOM     77  C   UNL A   1      46.005  24.482  33.738  1.00  0.00     0.134 A 
ATOM     78  C   UNL A   1      43.749  24.134  34.409  1.00  0.00     0.134 A 
ATOM     79  F   UNL A   1      46.983  25.159  33.122  1.00  0.00    -0.206 F 
ATOM     80  C   UNL A   1      46.408  23.410  34.545  1.00  0.00     0.040 A 
ATOM     81  C   UNL A   1      44.146  23.096  35.255  1.00  0.00     0.040 A 
ATOM     82  F   UNL A   1      42.437  24.418  34.407  1.00  0.00    -0.206 F 
ATOM     83  C   UNL A   1      45.480  22.721  35.315  1.00  0.00     0.006 A 
ENDBRANCH  59  76
ENDBRANCH  33  34
ENDBRANCH  25  28
ENDBRANCH  23  24
ENDBRANCH   1  23
TORSDOF 13
ENDMDL
MODEL 2
REMARK VINA RESULT:     -12.4      1.521      3.377
REMARK SMILES Cc1ccccc1N[C@H](C(=O)NCCCNC(=O)c1ccc(-c2c3nc(c(-c4c(F)cccc4F)c4ccc([nH]4)c(-c4c(F)cccc4F)c4nc(c(-c5c(F)cccc5F)c5ccc2[nH]5)C=C4)C=C3)cc1)c1ccccc1
REMARK SMILES IDX 14 1 13 2 12 3 10 4 11 5 9 7 8 8 7 10 1 11 2 12 3 13 4 14
REMARK SMILES IDX 6 15 5 16 73 17 74 18 78 19 75 20 77 21 76 22 15 23 16 24
REMARK SMILES IDX 17 25 18 27 19 28 20 29 72 30 21 31 71 32 22 33 23 34 24 35
REMARK SMILES IDX 65 36 25 37 70 38 64 39 66 40 26 41 69 42 63 43 62 44 27 46
REMARK SMILES IDX 53 47 36 48 52 49 37 50 40 51 51 52 67 53 38 54 39 55 50 57
REMARK SMILES IDX 68 58 41 59 28 60 29 61 34 62 30 63 31 64 33 65 35 66 32 67
REMARK SMILES IDX 54 68 55 69 60 70 56 71 57 72 59 73 61 74 58 75 42 76 43 77
REMARK SMILES IDX 48 78 44 79 45 80 47 81 49 82 46 83
REMARK H PARENT 12 6 8 9 16 26 66 45 40 56
REMARK Flexibility Score: inf
ROOT
ATOM      1  C   UNL A   1      34.051  30.849  27.788  1.00  0.00     0.042 C 
ENDROOT
BRANCH   1   2
ATOM      2  C   UNL A   1      34.321  29.432  27.320  1.00  0.00     0.117 C 
BRANCH   2   3
ATOM      3  N   UNL A   1      33.246  28.510  27.645  1.00  0.00    -0.354 N 
ATOM      4  C   UNL A   1      32.447  27.829  26.759  1.00  0.00     0.247 C 
ATOM      5  O   UNL A   1      31.658  26.996  27.214  1.00  0.00    -0.272 OA
ATOM      6  H   UNL A   1      33.072  28.358  28.601  1.00  0.00     0.163 HD
BRANCH   4   7
ATOM      7  C   UNL A   1      32.499  28.158  25.233  1.00  0.00     0.200 C 
BRANCH   7   8
ATOM      8  N   UNL A   1      33.604  27.337  24.668  1.00  0.00    -0.370 N 
ATOM      9  H   UNL A   1      34.385  27.901  24.462  1.00  0.00     0.161 HD
BRANCH   8  10
ATOM     10  C   UNL A   1      33.858  26.023  24.349  1.00  0.00     0.038 A 
ATOM     11  C   UNL A   1      33.131  26.387  21.899  1.00  0.00     0.046 C 
ATOM     12  C   UNL A   1      33.511  25.515  23.072  1.00  0.00    -0.028 A 
ATOM     13  C   UNL A   1      33.543  24.126  22.812  1.00  0.00     0.005 A 
ATOM     14  C   UNL A   1      33.994  23.230  23.770  1.00  0.00     0.000 A 
ATOM     15  C   UNL A   1      34.437  25.101  25.225  1.00  0.00     0.026 A 
ATOM     16  C   UNL A   1      34.480  23.725  24.964  1.00  0.00     0.002 A 
ENDBRANCH   8  10
ENDBRANCH   7   8
BRANCH   7  17
ATOM     17  C   UNL A   1      31.134  28.212  24.544  1.00  0.00    -0.016 A 
ATOM     18  C   UNL A   1      30.603  29.416  24.065  1.00  0.00     0.006 A 
ATOM     19  C   UNL A   1      30.346  27.054  24.375  1.00  0.00     0.006 A 
ATOM     20  C   UNL A   1      29.486  29.416  23.222  1.00  0.00     0.000 A 
ATOM     21  C   UNL A   1      29.229  27.049  23.538  1.00  0.00     0.000 A 
ATOM     22  C   UNL A   1      28.827  28.226  22.923  1.00  0.00     0.000 A 
ENDBRANCH   7  17
ENDBRANCH   4   7
ENDBRANCH   2   3
ENDBRANCH   1   2
BRANCH   1  23
ATOM     23  C   UNL A   1      35.305  31.693  27.666  1.00  0.00     0.118 C 
BRANCH  23  24
ATOM     24  N   UNL A   1      35.887  32.110  28.932  1.00  0.00    -0.352 N 
ATOM     25  C   UNL A   1      36.761  31.421  29.787  1.00  0.00     0.251 C 
ATOM     26  H   UNL A   1      35.628  33.011  29.235  1.00  0.00     0.163 HD
ATOM     27  O   UNL A   1      37.121  31.933  30.829  1.00  0.00    -0.269 OA
BRANCH  25  28
ATOM     28  C   UNL A   1      37.353  30.140  29.332  1.00  0.00     0.039 A 
ATOM     29  C   UNL A   1      37.415  29.084  30.250  1.00  0.00     0.014 A 
ATOM     30  C   UNL A   1      38.085  30.076  28.155  1.00  0.00     0.014 A 
ATOM     31  C   UNL A   1      38.433  28.140  30.133  1.00  0.00     0.010 A 
ATOM     32  C   UNL A   1      39.194  29.259  28.129  1.00  0.00     0.010 A 
ATOM     33  C   UNL A   1      39.402  28.330  29.150  1.00  0.00    -0.014 A 
BRANCH  33  34
ATOM     34  C   UNL A   1      40.715  27.696  29.175  1.00  0.00     0.031 A 
ATOM     35  C   UNL A   1      40.857  26.276  28.785  1.00  0.00     0.074 A 
ATOM     36  C   UNL A   1      41.809  28.454  29.418  1.00  0.00     0.049 A 
ATOM     37  N   UNL A   1      41.856  25.525  29.101  1.00  0.00    -0.248 NA
ATOM     38  C   UNL A   1      39.837  25.572  28.017  1.00  0.00     0.031 C 
ATOM     39  C   UNL A   1      43.206  28.099  29.176  1.00  0.00     0.029 A 
ATOM     40  N   UNL A   1      41.875  29.667  30.119  1.00  0.00    -0.354 N 
ATOM     41  C   UNL A   1      41.752  24.354  28.382  1.00  0.00     0.074 A 
ATOM     42  C   UNL A   1      40.455  24.419  27.754  1.00  0.00     0.031 C 
ATOM     43  C   UNL A   1      43.989  28.886  29.931  1.00  0.00     0.029 A 
ATOM     44  C   UNL A   1      43.115  29.665  30.794  1.00  0.00     0.049 A 
ATOM     45  H   UNL A   1      41.193  30.377  30.137  1.00  0.00     0.167 HD
ATOM     46  C   UNL A   1      42.829  23.520  28.301  1.00  0.00     0.037 A 
ATOM     47  C   UNL A   1      43.176  29.664  32.157  1.00  0.00     0.037 A 
ATOM     48  C   UNL A   1      43.927  24.012  29.131  1.00  0.00     0.049 A 
ATOM     49  C   UNL A   1      43.832  28.434  32.741  1.00  0.00     0.074 A 
ATOM     50  C   UNL A   1      45.049  24.771  28.839  1.00  0.00     0.029 A 
ATOM     51  N   UNL A   1      43.792  24.028  30.515  1.00  0.00    -0.354 N 
ATOM     52  N   UNL A   1      44.030  27.328  32.079  1.00  0.00    -0.248 NA
ATOM     53  C   UNL A   1      44.277  28.340  34.131  1.00  0.00     0.031 C 
ATOM     54  C   UNL A   1      45.540  25.314  30.053  1.00  0.00     0.029 A 
ATOM     55  C   UNL A   1      44.735  24.864  31.085  1.00  0.00     0.049 A 
ATOM     56  H   UNL A   1      43.118  23.516  31.020  1.00  0.00     0.167 HD
ATOM     57  C   UNL A   1      44.545  26.379  32.921  1.00  0.00     0.074 A 
ATOM     58  C   UNL A   1      44.712  27.070  34.186  1.00  0.00     0.031 C 
ATOM     59  C   UNL A   1      44.762  25.093  32.521  1.00  0.00     0.037 A 
BRANCH  46  60
ATOM     60  C   UNL A   1      42.989  22.448  27.241  1.00  0.00     0.057 A 
ATOM     61  C   UNL A   1      42.209  21.274  27.281  1.00  0.00     0.134 A 
ATOM     62  C   UNL A   1      43.931  22.469  26.199  1.00  0.00     0.134 A 
ATOM     63  F   UNL A   1      41.181  21.139  28.129  1.00  0.00    -0.206 F 
ATOM     64  C   UNL A   1      42.441  20.170  26.449  1.00  0.00     0.040 A 
ATOM     65  C   UNL A   1      44.214  21.353  25.396  1.00  0.00     0.040 A 
ATOM     66  F   UNL A   1      44.575  23.591  25.858  1.00  0.00    -0.206 F 
ATOM     67  C   UNL A   1      43.478  20.188  25.531  1.00  0.00     0.006 A 
ENDBRANCH  46  60
BRANCH  47  68
ATOM     68  C   UNL A   1      42.062  30.413  32.795  1.00  0.00     0.057 A 
ATOM     69  C   UNL A   1      42.158  31.812  32.891  1.00  0.00     0.134 A 
ATOM     70  C   UNL A   1      40.791  29.849  32.949  1.00  0.00     0.134 A 
ATOM     71  F   UNL A   1      43.349  32.416  32.756  1.00  0.00    -0.206 F 
ATOM     72  C   UNL A   1      41.026  32.622  33.019  1.00  0.00     0.040 A 
ATOM     73  C   UNL A   1      39.652  30.652  33.083  1.00  0.00     0.040 A 
ATOM     74  F   UNL A   1      40.616  28.524  32.846  1.00  0.00    -0.206 F 
ATOM     75  C   UNL A   1      39.764  32.042  33.077  1.00  0.00     0.006 A 
ENDBRANCH  47  68
BRANCH  59  76
ATOM     76  C   UNL A   1      45.090  23.952  33.444  1.00  0.00     0.057 A 
ATOM     77  C   UNL A   1      44.175  22.950  33.799  1.00  0.00     0.134 A 
ATOM     78  C   UNL A   1      46.414  23.749  33.887  1.00  0.00     0.134 A 
ATOM     79  F   UNL A   1      42.912  22.967  33.355  1.00  0.00    -0.206 F 
ATOM     80  C   UNL A   1      44.537  21.853  34.592  1.00  0.00     0.040 A 
ATOM     81  C   UNL A   1      46.797  22.634  34.636  1.00  0.00     0.040 A 
ATOM     82  F   UNL A   1      47.393  24.618  33.591  1.00  0.00    -0.206 F 
ATOM     83  C   UNL A   1      45.853  21.686  35.004  1.00  0.00     0.006 A 
ENDBRANCH  59  76
ENDBRANCH  33  34
ENDBRANCH  25  28
ENDBRANCH  23  24
ENDBRANCH   1  23
TORSDOF 13
ENDMDL
MODEL 3
REMARK VINA RESULT:     -12.3      0.754      2.975
REMARK SMILES Cc1ccccc1N[C@H](C(=O)NCCCNC(=O)c1ccc(-c2c3nc(c(-c4c(F)cccc4F)c4ccc([nH]4)c(-c4c(F)cccc4F)c4nc(c(-c5c(F)cccc5F)c5ccc2[nH]5)C=C4)C=C3)cc1)c1ccccc1
REMARK SMILES IDX 14 1 13 2 12 3 10 4 11 5 9 7 8 8 7 10 1 11 2 12 3 13 4 14
REMARK SMILES IDX 6 15 5 16 73 17 74 18 78 19 75 20 77 21 76 22 15 23 16 24
REMARK SMILES IDX 17 25 18 27 19 28 20 29 72 30 21 31 71 32 22 33 23 34 24 35
REMARK SMILES IDX 65 36 25 37 70 38 64 39 66 40 26 41 69 42 63 43 62 44 27 46
REMARK SMILES IDX 53 47 36 48 52 49 37 50 40 51 51 52 67 53 38 54 39 55 50 57
REMARK SMILES IDX 68 58 41 59 28 60 29 61 34 62 30 63 31 64 33 65 35 66 32 67
REMARK SMILES IDX 54 68 55 69 60 70 56 71 57 72 59 73 61 74 58 75 42 76 43 77
REMARK SMILES IDX 48 78 44 79 45 80 47 81 49 82 46 83
REMARK H PARENT 12 6 8 9 16 26 66 45 40 56
REMARK Flexibility Score: inf
ROOT
ATOM      1  C   UNL A   1      32.265  30.798  26.891  1.00  0.00     0.042 C 
ENDROOT
BRANCH   1   2
ATOM      2  C   UNL A   1      31.791  29.898  25.766  1.00  0.00     0.117 C 
BRANCH   2   3
ATOM      3  N   UNL A   1      32.782  29.730  24.716  1.00  0.00    -0.354 N 
ATOM      4  C   UNL A   1      32.659  28.968  23.579  1.00  0.00     0.247 C 
ATOM      5  O   UNL A   1      33.560  29.035  22.737  1.00  0.00    -0.272 OA
ATOM      6  H   UNL A   1      33.632  30.213  24.832  1.00  0.00     0.163 HD
BRANCH   4   7
ATOM      7  C   UNL A   1      31.445  28.002  23.403  1.00  0.00     0.200 C 
BRANCH   7   8
ATOM      8  N   UNL A   1      31.397  27.166  24.634  1.00  0.00    -0.370 N 
ATOM      9  H   UNL A   1      31.049  27.687  25.394  1.00  0.00     0.161 HD
BRANCH   8  10
ATOM     10  C   UNL A   1      31.696  25.881  25.023  1.00  0.00     0.038 A 
ATOM     11  C   UNL A   1      33.933  26.625  26.074  1.00  0.00     0.046 C 
ATOM     12  C   UNL A   1      32.959  25.577  25.589  1.00  0.00    -0.028 A 
ATOM     13  C   UNL A   1      33.368  24.236  25.772  1.00  0.00     0.005 A 
ATOM     14  C   UNL A   1      32.514  23.182  25.481  1.00  0.00     0.000 A 
ATOM     15  C   UNL A   1      30.825  24.796  24.883  1.00  0.00     0.026 A 
ATOM     16  C   UNL A   1      31.225  23.467  25.074  1.00  0.00     0.002 A 
ENDBRANCH   8  10
ENDBRANCH   7   8
BRANCH   7  17
ATOM     17  C   UNL A   1      30.177  28.661  22.857  1.00  0.00    -0.016 A 
ATOM     18  C   UNL A   1      28.904  28.167  23.165  1.00  0.00     0.006 A 
ATOM     19  C   UNL A   1      30.237  29.786  22.005  1.00  0.00     0.006 A 
ATOM     20  C   UNL A   1      27.759  28.917  22.873  1.00  0.00     0.000 A 
ATOM     21  C   UNL A   1      29.099  30.535  21.707  1.00  0.00     0.000 A 
ATOM     22  C   UNL A   1      27.862  30.123  22.184  1.00  0.00     0.000 A 
ENDBRANCH   7  17
ENDBRANCH   4   7
ENDBRANCH   2   3
ENDBRANCH   1   2
BRANCH   1  23
ATOM     23  C   UNL A   1      33.709  30.494  27.237  1.00  0.00     0.118 C 
BRANCH  23  24
ATOM     24  N   UNL A   1      34.357  31.484  28.082  1.00  0.00    -0.352 N 
ATOM     25  C   UNL A   1      35.517  31.372  28.864  1.00  0.00     0.251 C 
ATOM     26  H   UNL A   1      33.915  32.363  28.112  1.00  0.00     0.163 HD
ATOM     27  O   UNL A   1      35.893  32.316  29.533  1.00  0.00    -0.269 OA
BRANCH  25  28
ATOM     28  C   UNL A   1      36.355  30.154  28.743  1.00  0.00     0.039 A 
ATOM     29  C   UNL A   1      36.558  29.382  29.894  1.00  0.00     0.014 A 
ATOM     30  C   UNL A   1      37.147  29.948  27.623  1.00  0.00     0.014 A 
ATOM     31  C   UNL A   1      37.735  28.646  30.019  1.00  0.00     0.010 A 
ATOM     32  C   UNL A   1      38.385  29.372  27.806  1.00  0.00     0.010 A 
ATOM     33  C   UNL A   1      38.704  28.772  29.026  1.00  0.00    -0.014 A 
BRANCH  33  34
ATOM     34  C   UNL A   1      40.107  28.421  29.215  1.00  0.00     0.031 A 
ATOM     35  C   UNL A   1      40.628  27.146  28.676  1.00  0.00     0.074 A 
ATOM     36  C   UNL A   1      40.947  29.332  29.757  1.00  0.00     0.049 A 
ATOM     37  N   UNL A   1      41.710  26.570  29.074  1.00  0.00    -0.248 NA
ATOM     38  C   UNL A   1      39.928  26.391  27.644  1.00  0.00     0.031 C 
ATOM     39  C   UNL A   1      42.408  29.313  29.739  1.00  0.00     0.029 A 
ATOM     40  N   UNL A   1      40.624  30.398  30.610  1.00  0.00    -0.354 N 
ATOM     41  C   UNL A   1      41.990  25.540  28.201  1.00  0.00     0.074 A 
ATOM     42  C   UNL A   1      40.826  25.447  27.353  1.00  0.00     0.031 C 
ATOM     43  C   UNL A   1      42.863  30.103  30.724  1.00  0.00     0.029 A 
ATOM     44  C   UNL A   1      41.711  30.532  31.501  1.00  0.00     0.049 A 
ATOM     45  H   UNL A   1      39.804  30.942  30.593  1.00  0.00     0.167 HD
ATOM     46  C   UNL A   1      43.228  24.967  28.217  1.00  0.00     0.037 A 
ATOM     47  C   UNL A   1      41.558  30.313  32.839  1.00  0.00     0.037 A 
ATOM     48  C   UNL A   1      44.042  25.523  29.297  1.00  0.00     0.049 A 
ATOM     49  C   UNL A   1      42.378  29.161  33.371  1.00  0.00     0.074 A 
ATOM     50  C   UNL A   1      44.992  26.531  29.323  1.00  0.00     0.029 A 
ATOM     51  N   UNL A   1      43.692  25.277  30.620  1.00  0.00    -0.354 N 
ATOM     52  N   UNL A   1      42.924  28.245  32.619  1.00  0.00    -0.248 NA
ATOM     53  C   UNL A   1      42.611  28.924  34.795  1.00  0.00     0.031 C 
ATOM     54  C   UNL A   1      45.150  26.949  30.669  1.00  0.00     0.029 A 
ATOM     55  C   UNL A   1      44.319  26.178  31.462  1.00  0.00     0.049 A 
ATOM     56  H   UNL A   1      43.083  24.562  30.917  1.00  0.00     0.167 HD
ATOM     57  C   UNL A   1      43.504  27.291  33.412  1.00  0.00     0.074 A 
ATOM     58  C   UNL A   1      43.311  27.778  34.764  1.00  0.00     0.031 C 
ATOM     59  C   UNL A   1      44.069  26.162  32.895  1.00  0.00     0.037 A 
BRANCH  46  60
ATOM     60  C   UNL A   1      43.791  24.144  27.075  1.00  0.00     0.057 A 
ATOM     61  C   UNL A   1      44.538  24.755  26.047  1.00  0.00     0.134 A 
ATOM     62  C   UNL A   1      43.583  22.767  26.886  1.00  0.00     0.134 A 
ATOM     63  F   UNL A   1      44.936  26.031  26.127  1.00  0.00    -0.206 F 
ATOM     64  C   UNL A   1      44.920  24.086  24.876  1.00  0.00     0.040 A 
ATOM     65  C   UNL A   1      43.907  22.097  25.695  1.00  0.00     0.040 A 
ATOM     66  F   UNL A   1      43.119  21.985  27.868  1.00  0.00    -0.206 F 
ATOM     67  C   UNL A   1      44.564  22.762  24.674  1.00  0.00     0.006 A 
ENDBRANCH  46  60
BRANCH  47  68
ATOM     68  C   UNL A   1      40.217  30.703  33.348  1.00  0.00     0.057 A 
ATOM     69  C   UNL A   1      39.949  32.065  33.570  1.00  0.00     0.134 A 
ATOM     70  C   UNL A   1      39.116  29.845  33.251  1.00  0.00     0.134 A 
ATOM     71  F   UNL A   1      40.961  32.941  33.677  1.00  0.00    -0.206 F 
ATOM     72  C   UNL A   1      38.646  32.569  33.579  1.00  0.00     0.040 A 
ATOM     73  C   UNL A   1      37.806  30.340  33.264  1.00  0.00     0.040 A 
ATOM     74  F   UNL A   1      39.290  28.537  33.015  1.00  0.00    -0.206 F 
ATOM     75  C   UNL A   1      37.571  31.709  33.387  1.00  0.00     0.006 A 
ENDBRANCH  47  68
BRANCH  59  76
ATOM     76  C   UNL A   1      44.502  24.971  33.706  1.00  0.00     0.057 A 
ATOM     77  C   UNL A   1      43.614  24.148  34.415  1.00  0.00     0.134 A 
ATOM     78  C   UNL A   1      45.840  24.528  33.667  1.00  0.00     0.134 A 
ATOM     79  F   UNL A   1      42.299  24.398  34.441  1.00  0.00    -0.206 F 
ATOM     80  C   UNL A   1      44.039  22.996  35.089  1.00  0.00     0.040 A 
ATOM     81  C   UNL A   1      46.266  23.355  34.294  1.00  0.00     0.040 A 
ATOM     82  F   UNL A   1      46.784  25.208  32.998  1.00  0.00    -0.206 F 
ATOM     83  C   UNL A   1      45.366  22.590  35.021  1.00  0.00     0.006 A 
ENDBRANCH  59  76
ENDBRANCH  33  34
ENDBRANCH  25  28
ENDBRANCH  23  24
ENDBRANCH   1  23
TORSDOF 13
ENDMDL
