MODEL 1
REMARK VINA RESULT:     -12.7      0.000      0.000
REMARK SMILES COc1ccc2c(c1)c(CC(=O)NCCCNC(=O)c1ccc(-c3c4nc(c(-c5c(F)cccc5F)c5ccc([nH]5)c(-c5c(F)cccc5F)c5nc(c(-c6c(F)cccc6F)c6ccc3[nH]6)C=C5)C=C4)cc1)c(C)n2C(=O)c1ccc(Cl)cc1
REMARK SMILES IDX 14 1 13 2 11 3 12 4 10 6 9 7 3 8 4 9 8 10 5 11 7 12 6 13
REMARK SMILES IDX 76 14 74 15 75 16 2 17 1 18 77 19 78 20 79 21 80 22 85 23
REMARK SMILES IDX 81 24 84 25 82 26 83 27 15 28 16 29 17 30 18 31 19 33 20 34
REMARK SMILES IDX 21 35 73 36 22 37 72 38 23 39 24 40 25 41 66 42 26 43 71 44
REMARK SMILES IDX 65 45 67 46 27 47 70 48 64 49 63 50 28 52 54 53 37 54 53 55
REMARK SMILES IDX 38 56 41 57 52 58 68 59 39 60 40 61 51 63 69 64 42 65 29 66
REMARK SMILES IDX 30 67 35 68 31 69 32 70 34 71 36 72 33 73 55 74 56 75 61 76
REMARK SMILES IDX 57 77 58 78 60 79 62 80 59 81 43 82 44 83 49 84 45 85 46 86
REMARK SMILES IDX 48 87 50 88 47 89
REMARK H PARENT 13 5 17 32 67 51 41 62
REMARK Flexibility Score: inf
ROOT
ATOM      1  C   UNL A   1      32.363  28.494  26.625  1.00  0.00     0.117 C 
ENDROOT
BRANCH   1   2
ATOM      2  N   UNL A   1      32.887  28.079  25.337  1.00  0.00    -0.356 N 
ATOM      3  C   UNL A   1      33.238  26.835  24.904  1.00  0.00     0.224 C 
ATOM      4  O   UNL A   1      33.683  26.725  23.760  1.00  0.00    -0.275 OA
ATOM      5  H   UNL A   1      33.005  28.802  24.679  1.00  0.00     0.163 HD
BRANCH   3   6
ATOM      6  C   UNL A   1      33.025  25.621  25.793  1.00  0.00     0.138 C 
BRANCH   6   7
ATOM      7  C   UNL A   1      33.371  24.319  25.128  1.00  0.00    -0.009 A 
ATOM      8  C   UNL A   1      37.007  23.231  25.537  1.00  0.00     0.119 A 
ATOM      9  C   UNL A   1      36.917  22.100  24.742  1.00  0.00     0.048 A 
ATOM     10  C   UNL A   1      35.877  24.018  25.756  1.00  0.00     0.057 A 
ATOM     11  C   UNL A   1      35.710  21.755  24.130  1.00  0.00     0.031 A 
ATOM     12  C   UNL A   1      34.641  23.681  25.154  1.00  0.00     0.008 A 
ATOM     13  C   UNL A   1      34.554  22.527  24.368  1.00  0.00     0.057 A 
ATOM     14  N   UNL A   1      33.210  22.371  23.975  1.00  0.00    -0.280 N 
ATOM     15  C   UNL A   1      32.544  23.561  24.306  1.00  0.00     0.028 A 
ATOM     16  C   UNL A   1      31.161  23.925  23.856  1.00  0.00     0.065 C 
BRANCH   8  17
ATOM     17  O   UNL A   1      38.156  23.628  26.166  1.00  0.00    -0.497 OA
ATOM     18  C   UNL A   1      39.095  22.572  26.362  1.00  0.00     0.278 C 
ENDBRANCH   8  17
BRANCH  14  19
ATOM     19  C   UNL A   1      32.634  21.219  23.364  1.00  0.00     0.262 C 
ATOM     20  O   UNL A   1      32.085  21.331  22.265  1.00  0.00    -0.268 OA
BRANCH  19  21
ATOM     21  C   UNL A   1      32.622  19.865  23.940  1.00  0.00     0.040 A 
ATOM     22  C   UNL A   1      32.784  19.672  25.317  1.00  0.00     0.015 A 
ATOM     23  C   UNL A   1      32.488  18.775  23.074  1.00  0.00     0.015 A 
ATOM     24  C   UNL A   1      32.908  18.372  25.814  1.00  0.00     0.021 A 
ATOM     25  C   UNL A   1      32.600  17.479  23.578  1.00  0.00     0.021 A 
ATOM     26  C   UNL A   1      32.832  17.284  24.940  1.00  0.00     0.041 A 
ATOM     27  Cl  UNL A   1      33.056  15.690  25.545  1.00  0.00    -0.084 Cl
ENDBRANCH  19  21
ENDBRANCH  14  19
ENDBRANCH   6   7
ENDBRANCH   3   6
ENDBRANCH   1   2
BRANCH   1  28
ATOM     28  C   UNL A   1      33.159  29.653  27.229  1.00  0.00     0.042 C 
BRANCH  28  29
ATOM     29  C   UNL A   1      34.604  29.276  27.560  1.00  0.00     0.118 C 
BRANCH  29  30
ATOM     30  N   UNL A   1      35.128  29.988  28.709  1.00  0.00    -0.352 N 
ATOM     31  C   UNL A   1      36.337  30.086  29.329  1.00  0.00     0.251 C 
ATOM     32  H   UNL A   1      34.440  30.538  29.149  1.00  0.00     0.163 HD
ATOM     33  O   UNL A   1      36.391  30.872  30.279  1.00  0.00    -0.269 OA
BRANCH  31  34
ATOM     34  C   UNL A   1      37.541  29.279  29.006  1.00  0.00     0.039 A 
ATOM     35  C   UNL A   1      38.113  28.307  29.827  1.00  0.00     0.014 A 
ATOM     36  C   UNL A   1      38.206  29.644  27.819  1.00  0.00     0.014 A 
ATOM     37  C   UNL A   1      39.392  27.840  29.560  1.00  0.00     0.010 A 
ATOM     38  C   UNL A   1      39.470  29.160  27.534  1.00  0.00     0.010 A 
ATOM     39  C   UNL A   1      40.094  28.335  28.460  1.00  0.00    -0.014 A 
BRANCH  39  40
ATOM     40  C   UNL A   1      41.504  27.999  28.340  1.00  0.00     0.031 A 
ATOM     41  C   UNL A   1      41.805  26.726  27.629  1.00  0.00     0.074 A 
ATOM     42  C   UNL A   1      42.466  28.819  28.805  1.00  0.00     0.049 A 
ATOM     43  N   UNL A   1      42.353  25.656  28.107  1.00  0.00    -0.248 NA
ATOM     44  C   UNL A   1      41.322  26.587  26.248  1.00  0.00     0.031 C 
ATOM     45  C   UNL A   1      42.347  30.179  29.341  1.00  0.00     0.029 A 
ATOM     46  N   UNL A   1      43.809  28.604  28.829  1.00  0.00    -0.354 N 
ATOM     47  C   UNL A   1      42.445  24.761  27.042  1.00  0.00     0.074 A 
ATOM     48  C   UNL A   1      41.683  25.335  25.962  1.00  0.00     0.031 C 
ATOM     49  C   UNL A   1      43.574  30.744  29.415  1.00  0.00     0.029 A 
ATOM     50  C   UNL A   1      44.565  29.741  29.073  1.00  0.00     0.049 A 
ATOM     51  H   UNL A   1      44.209  27.717  28.685  1.00  0.00     0.167 HD
ATOM     52  C   UNL A   1      43.295  23.698  27.064  1.00  0.00     0.037 A 
ATOM     53  C   UNL A   1      45.909  29.847  28.927  1.00  0.00     0.037 A 
ATOM     54  C   UNL A   1      43.732  23.389  28.399  1.00  0.00     0.049 A 
ATOM     55  C   UNL A   1      46.467  28.471  28.994  1.00  0.00     0.074 A 
ATOM     56  C   UNL A   1      43.108  22.951  29.552  1.00  0.00     0.029 A 
ATOM     57  N   UNL A   1      44.962  23.847  28.800  1.00  0.00    -0.354 N 
ATOM     58  N   UNL A   1      46.450  27.751  30.085  1.00  0.00    -0.248 NA
ATOM     59  C   UNL A   1      46.571  27.718  27.752  1.00  0.00     0.031 C 
ATOM     60  C   UNL A   1      43.773  23.639  30.612  1.00  0.00     0.029 A 
ATOM     61  C   UNL A   1      44.788  24.407  30.040  1.00  0.00     0.049 A 
ATOM     62  H   UNL A   1      45.806  23.786  28.295  1.00  0.00     0.167 HD
ATOM     63  C   UNL A   1      46.129  26.468  29.663  1.00  0.00     0.074 A 
ATOM     64  C   UNL A   1      46.276  26.496  28.208  1.00  0.00     0.031 C 
ATOM     65  C   UNL A   1      45.491  25.584  30.488  1.00  0.00     0.037 A 
BRANCH  52  66
ATOM     66  C   UNL A   1      44.009  23.157  25.851  1.00  0.00     0.057 A 
ATOM     67  C   UNL A   1      44.982  23.882  25.136  1.00  0.00     0.134 A 
ATOM     68  C   UNL A   1      43.967  21.777  25.582  1.00  0.00     0.134 A 
ATOM     69  F   UNL A   1      45.186  25.190  25.330  1.00  0.00    -0.206 F 
ATOM     70  C   UNL A   1      45.878  23.275  24.253  1.00  0.00     0.040 A 
ATOM     71  C   UNL A   1      44.890  21.153  24.734  1.00  0.00     0.040 A 
ATOM     72  F   UNL A   1      43.081  20.981  26.199  1.00  0.00    -0.206 F 
ATOM     73  C   UNL A   1      45.860  21.900  24.078  1.00  0.00     0.006 A 
ENDBRANCH  52  66
BRANCH  53  74
ATOM     74  C   UNL A   1      46.643  31.009  28.378  1.00  0.00     0.057 A 
ATOM     75  C   UNL A   1      47.213  31.977  29.228  1.00  0.00     0.134 A 
ATOM     76  C   UNL A   1      46.608  31.335  27.017  1.00  0.00     0.134 A 
ATOM     77  F   UNL A   1      47.213  31.816  30.559  1.00  0.00    -0.206 F 
ATOM     78  C   UNL A   1      47.728  33.187  28.756  1.00  0.00     0.040 A 
ATOM     79  C   UNL A   1      47.117  32.549  26.529  1.00  0.00     0.040 A 
ATOM     80  F   UNL A   1      46.035  30.505  26.134  1.00  0.00    -0.206 F 
ATOM     81  C   UNL A   1      47.675  33.481  27.401  1.00  0.00     0.006 A 
ENDBRANCH  53  74
BRANCH  65  82
ATOM     82  C   UNL A   1      45.276  26.003  31.916  1.00  0.00     0.057 A 
ATOM     83  C   UNL A   1      46.161  25.572  32.907  1.00  0.00     0.134 A 
ATOM     84  C   UNL A   1      44.131  26.691  32.350  1.00  0.00     0.134 A 
ATOM     85  F   UNL A   1      47.238  24.842  32.579  1.00  0.00    -0.206 F 
ATOM     86  C   UNL A   1      45.934  25.837  34.261  1.00  0.00     0.040 A 
ATOM     87  C   UNL A   1      43.907  26.991  33.695  1.00  0.00     0.040 A 
ATOM     88  F   UNL A   1      43.167  27.033  31.487  1.00  0.00    -0.206 F 
ATOM     89  C   UNL A   1      44.811  26.561  34.658  1.00  0.00     0.006 A 
ENDBRANCH  65  82
ENDBRANCH  39  40
ENDBRANCH  31  34
ENDBRANCH  29  30
ENDBRANCH  28  29
ENDBRANCH   1  28
TORSDOF 14
ENDMDL
MODEL 2
REMARK VINA RESULT:     -12.7      2.998      7.361
REMARK SMILES COc1ccc2c(c1)c(CC(=O)NCCCNC(=O)c1ccc(-c3c4nc(c(-c5c(F)cccc5F)c5ccc([nH]5)c(-c5c(F)cccc5F)c5nc(c(-c6c(F)cccc6F)c6ccc3[nH]6)C=C5)C=C4)cc1)c(C)n2C(=O)c1ccc(Cl)cc1
REMARK SMILES IDX 14 1 13 2 11 3 12 4 10 6 9 7 3 8 4 9 8 10 5 11 7 12 6 13
REMARK SMILES IDX 76 14 74 15 75 16 2 17 1 18 77 19 78 20 79 21 80 22 85 23
REMARK SMILES IDX 81 24 84 25 82 26 83 27 15 28 16 29 17 30 18 31 19 33 20 34
REMARK SMILES IDX 21 35 73 36 22 37 72 38 23 39 24 40 25 41 66 42 26 43 71 44
REMARK SMILES IDX 65 45 67 46 27 47 70 48 64 49 63 50 28 52 54 53 37 54 53 55
REMARK SMILES IDX 38 56 41 57 52 58 68 59 39 60 40 61 51 63 69 64 42 65 29 66
REMARK SMILES IDX 30 67 35 68 31 69 32 70 34 71 36 72 33 73 55 74 56 75 61 76
REMARK SMILES IDX 57 77 58 78 60 79 62 80 59 81 43 82 44 83 49 84 45 85 46 86
REMARK SMILES IDX 48 87 50 88 47 89
REMARK H PARENT 13 5 17 32 67 51 41 62
REMARK Flexibility Score: inf
ROOT
ATOM      1  C   UNL A   1      39.511  21.438  26.327  1.00  0.00     0.117 C 
ENDROOT
BRANCH   1   2
ATOM      2  N   UNL A   1      38.777  21.932  25.177  1.00  0.00    -0.356 N 
ATOM      3  C   UNL A   1      37.432  21.973  24.959  1.00  0.00     0.224 C 
ATOM      4  O   UNL A   1      37.034  22.427  23.884  1.00  0.00    -0.275 OA
ATOM      5  H   UNL A   1      39.332  22.293  24.448  1.00  0.00     0.163 HD
BRANCH   3   6
ATOM      6  C   UNL A   1      36.462  21.527  26.040  1.00  0.00     0.138 C 
BRANCH   6   7
ATOM      7  C   UNL A   1      35.030  21.487  25.586  1.00  0.00    -0.009 A 
ATOM      8  C   UNL A   1      33.927  18.172  24.049  1.00  0.00     0.119 A 
ATOM      9  C   UNL A   1      32.649  18.580  23.708  1.00  0.00     0.048 A 
ATOM     10  C   UNL A   1      34.786  19.052  24.708  1.00  0.00     0.057 A 
ATOM     11  C   UNL A   1      32.219  19.880  23.989  1.00  0.00     0.031 A 
ATOM     12  C   UNL A   1      34.367  20.369  25.011  1.00  0.00     0.008 A 
ATOM     13  C   UNL A   1      33.068  20.769  24.679  1.00  0.00     0.057 A 
ATOM     14  N   UNL A   1      32.878  22.075  25.172  1.00  0.00    -0.280 N 
ATOM     15  C   UNL A   1      34.136  22.553  25.568  1.00  0.00     0.028 A 
ATOM     16  C   UNL A   1      34.439  23.976  25.930  1.00  0.00     0.065 C 
BRANCH   8  17
ATOM     17  O   UNL A   1      34.414  16.916  23.806  1.00  0.00    -0.497 OA
ATOM     18  C   UNL A   1      34.588  16.132  24.985  1.00  0.00     0.278 C 
ENDBRANCH   8  17
BRANCH  14  19
ATOM     19  C   UNL A   1      31.639  22.775  25.260  1.00  0.00     0.262 C 
ATOM     20  O   UNL A   1      30.772  22.370  26.039  1.00  0.00    -0.268 OA
BRANCH  19  21
ATOM     21  C   UNL A   1      31.277  23.968  24.480  1.00  0.00     0.040 A 
ATOM     22  C   UNL A   1      31.753  24.141  23.174  1.00  0.00     0.015 A 
ATOM     23  C   UNL A   1      30.481  24.945  25.088  1.00  0.00     0.015 A 
ATOM     24  C   UNL A   1      31.507  25.346  22.513  1.00  0.00     0.021 A 
ATOM     25  C   UNL A   1      30.228  26.141  24.416  1.00  0.00     0.021 A 
ATOM     26  C   UNL A   1      30.760  26.346  23.143  1.00  0.00     0.041 A 
ATOM     27  Cl  UNL A   1      30.520  27.855  22.353  1.00  0.00    -0.084 Cl
ENDBRANCH  19  21
ENDBRANCH  14  19
ENDBRANCH   6   7
ENDBRANCH   3   6
ENDBRANCH   1   2
BRANCH   1  28
ATOM     28  C   UNL A   1      40.175  20.086  26.054  1.00  0.00     0.042 C 
BRANCH  28  29
ATOM     29  C   UNL A   1      41.571  19.972  26.667  1.00  0.00     0.118 C 
BRANCH  29  30
ATOM     30  N   UNL A   1      42.619  19.849  25.673  1.00  0.00    -0.352 N 
ATOM     31  C   UNL A   1      43.632  20.640  25.218  1.00  0.00     0.251 C 
ATOM     32  H   UNL A   1      42.593  18.979  25.213  1.00  0.00     0.163 HD
ATOM     33  O   UNL A   1      44.370  20.131  24.371  1.00  0.00    -0.269 OA
BRANCH  31  34
ATOM     34  C   UNL A   1      43.857  22.057  25.597  1.00  0.00     0.039 A 
ATOM     35  C   UNL A   1      44.691  22.504  26.622  1.00  0.00     0.014 A 
ATOM     36  C   UNL A   1      43.045  22.993  24.925  1.00  0.00     0.014 A 
ATOM     37  C   UNL A   1      44.591  23.810  27.079  1.00  0.00     0.010 A 
ATOM     38  C   UNL A   1      42.962  24.304  25.359  1.00  0.00     0.010 A 
ATOM     39  C   UNL A   1      43.664  24.677  26.497  1.00  0.00    -0.014 A 
BRANCH  39  40
ATOM     40  C   UNL A   1      43.425  25.958  27.143  1.00  0.00     0.031 A 
ATOM     41  C   UNL A   1      44.426  27.022  26.854  1.00  0.00     0.074 A 
ATOM     42  C   UNL A   1      42.340  26.168  27.913  1.00  0.00     0.049 A 
ATOM     43  N   UNL A   1      45.240  27.596  27.680  1.00  0.00    -0.248 NA
ATOM     44  C   UNL A   1      44.628  27.403  25.449  1.00  0.00     0.031 C 
ATOM     45  C   UNL A   1      41.176  25.302  28.131  1.00  0.00     0.029 A 
ATOM     46  N   UNL A   1      42.026  27.278  28.633  1.00  0.00    -0.354 N 
ATOM     47  C   UNL A   1      45.944  28.540  26.933  1.00  0.00     0.074 A 
ATOM     48  C   UNL A   1      45.620  28.289  25.552  1.00  0.00     0.031 C 
ATOM     49  C   UNL A   1      40.193  26.011  28.732  1.00  0.00     0.029 A 
ATOM     50  C   UNL A   1      40.711  27.324  29.068  1.00  0.00     0.049 A 
ATOM     51  H   UNL A   1      42.679  27.988  28.828  1.00  0.00     0.167 HD
ATOM     52  C   UNL A   1      46.599  29.580  27.519  1.00  0.00     0.037 A 
ATOM     53  C   UNL A   1      40.089  28.405  29.600  1.00  0.00     0.037 A 
ATOM     54  C   UNL A   1      46.823  29.351  28.920  1.00  0.00     0.049 A 
ATOM     55  C   UNL A   1      41.147  29.309  30.120  1.00  0.00     0.074 A 
ATOM     56  C   UNL A   1      47.557  28.438  29.654  1.00  0.00     0.029 A 
ATOM     57  N   UNL A   1      45.963  29.934  29.817  1.00  0.00    -0.354 N 
ATOM     58  N   UNL A   1      41.903  29.003  31.141  1.00  0.00    -0.248 NA
ATOM     59  C   UNL A   1      41.702  30.301  29.209  1.00  0.00     0.031 C 
ATOM     60  C   UNL A   1      46.754  28.161  30.801  1.00  0.00     0.029 A 
ATOM     61  C   UNL A   1      45.614  28.960  30.717  1.00  0.00     0.049 A 
ATOM     62  H   UNL A   1      45.657  30.871  29.815  1.00  0.00     0.167 HD
ATOM     63  C   UNL A   1      43.174  29.439  30.790  1.00  0.00     0.074 A 
ATOM     64  C   UNL A   1      42.976  30.287  29.615  1.00  0.00     0.031 C 
ATOM     65  C   UNL A   1      44.297  28.846  31.295  1.00  0.00     0.037 A 
BRANCH  52  66
ATOM     66  C   UNL A   1      46.728  30.953  26.909  1.00  0.00     0.057 A 
ATOM     67  C   UNL A   1      45.627  31.791  26.645  1.00  0.00     0.134 A 
ATOM     68  C   UNL A   1      47.985  31.583  26.883  1.00  0.00     0.134 A 
ATOM     69  F   UNL A   1      44.365  31.351  26.697  1.00  0.00    -0.206 F 
ATOM     70  C   UNL A   1      45.760  33.163  26.418  1.00  0.00     0.040 A 
ATOM     71  C   UNL A   1      48.125  32.965  26.702  1.00  0.00     0.040 A 
ATOM     72  F   UNL A   1      49.110  30.889  27.116  1.00  0.00    -0.206 F 
ATOM     73  C   UNL A   1      47.008  33.762  26.484  1.00  0.00     0.006 A 
ENDBRANCH  52  66
BRANCH  53  74
ATOM     74  C   UNL A   1      38.694  28.830  29.342  1.00  0.00     0.057 A 
ATOM     75  C   UNL A   1      38.320  29.381  28.101  1.00  0.00     0.134 A 
ATOM     76  C   UNL A   1      37.746  28.931  30.366  1.00  0.00     0.134 A 
ATOM     77  F   UNL A   1      39.182  29.427  27.075  1.00  0.00    -0.206 F 
ATOM     78  C   UNL A   1      37.077  29.982  27.885  1.00  0.00     0.040 A 
ATOM     79  C   UNL A   1      36.496  29.538  30.167  1.00  0.00     0.040 A 
ATOM     80  F   UNL A   1      38.029  28.489  31.601  1.00  0.00    -0.206 F 
ATOM     81  C   UNL A   1      36.161  30.070  28.924  1.00  0.00     0.006 A 
ENDBRANCH  53  74
BRANCH  65  82
ATOM     82  C   UNL A   1      44.108  27.795  32.354  1.00  0.00     0.057 A 
ATOM     83  C   UNL A   1      44.160  28.152  33.704  1.00  0.00     0.134 A 
ATOM     84  C   UNL A   1      44.029  26.423  32.068  1.00  0.00     0.134 A 
ATOM     85  F   UNL A   1      44.314  29.438  34.056  1.00  0.00    -0.206 F 
ATOM     86  C   UNL A   1      44.109  27.193  34.720  1.00  0.00     0.040 A 
ATOM     87  C   UNL A   1      43.945  25.456  33.072  1.00  0.00     0.040 A 
ATOM     88  F   UNL A   1      44.099  25.979  30.808  1.00  0.00    -0.206 F 
ATOM     89  C   UNL A   1      43.987  25.842  34.407  1.00  0.00     0.006 A 
ENDBRANCH  65  82
ENDBRANCH  39  40
ENDBRANCH  31  34
ENDBRANCH  29  30
ENDBRANCH  28  29
ENDBRANCH   1  28
TORSDOF 14
ENDMDL
MODEL 3
REMARK VINA RESULT:     -12.6      1.800      5.815
REMARK SMILES COc1ccc2c(c1)c(CC(=O)NCCCNC(=O)c1ccc(-c3c4nc(c(-c5c(F)cccc5F)c5ccc([nH]5)c(-c5c(F)cccc5F)c5nc(c(-c6c(F)cccc6F)c6ccc3[nH]6)C=C5)C=C4)cc1)c(C)n2C(=O)c1ccc(Cl)cc1
REMARK SMILES IDX 14 1 13 2 11 3 12 4 10 6 9 7 3 8 4 9 8 10 5 11 7 12 6 13
REMARK SMILES IDX 76 14 74 15 75 16 2 17 1 18 77 19 78 20 79 21 80 22 85 23
REMARK SMILES IDX 81 24 84 25 82 26 83 27 15 28 16 29 17 30 18 31 19 33 20 34
REMARK SMILES IDX 21 35 73 36 22 37 72 38 23 39 24 40 25 41 66 42 26 43 71 44
REMARK SMILES IDX 65 45 67 46 27 47 70 48 64 49 63 50 28 52 54 53 37 54 53 55
REMARK SMILES IDX 38 56 41 57 52 58 68 59 39 60 40 61 51 63 69 64 42 65 29 66
REMARK SMILES IDX 30 67 35 68 31 69 32 70 34 71 36 72 33 73 55 74 56 75 61 76
REMARK SMILES IDX 57 77 58 78 60 79 62 80 59 81 43 82 44 83 49 84 45 85 46 86
REMARK SMILES IDX 48 87 50 88 47 89
REMARK H PARENT 13 5 17 32 67 51 41 62
REMARK Flexibility Score: inf
ROOT
ATOM      1  C   UNL A   1      31.779  28.494  26.440  1.00  0.00     0.117 C 
ENDROOT
BRANCH   1   2
ATOM      2  N   UNL A   1      32.585  28.174  25.276  1.00  0.00    -0.356 N 
ATOM      3  C   UNL A   1      33.221  27.012  24.955  1.00  0.00     0.224 C 
ATOM      4  O   UNL A   1      33.871  26.978  23.908  1.00  0.00    -0.275 OA
ATOM      5  H   UNL A   1      32.685  28.902  24.622  1.00  0.00     0.163 HD
BRANCH   3   6
ATOM      6  C   UNL A   1      33.075  25.784  25.838  1.00  0.00     0.138 C 
BRANCH   6   7
ATOM      7  C   UNL A   1      33.401  24.495  25.138  1.00  0.00    -0.009 A 
ATOM      8  C   UNL A   1      37.042  23.386  25.443  1.00  0.00     0.119 A 
ATOM      9  C   UNL A   1      36.930  22.273  24.627  1.00  0.00     0.048 A 
ATOM     10  C   UNL A   1      35.919  24.172  25.704  1.00  0.00     0.057 A 
ATOM     11  C   UNL A   1      35.708  21.945  24.034  1.00  0.00     0.031 A 
ATOM     12  C   UNL A   1      34.669  23.853  25.122  1.00  0.00     0.008 A 
ATOM     13  C   UNL A   1      34.560  22.716  24.313  1.00  0.00     0.057 A 
ATOM     14  N   UNL A   1      33.208  22.574  23.946  1.00  0.00    -0.280 N 
ATOM     15  C   UNL A   1      32.554  23.759  24.317  1.00  0.00     0.028 A 
ATOM     16  C   UNL A   1      31.163  24.137  23.906  1.00  0.00     0.065 C 
BRANCH   8  17
ATOM     17  O   UNL A   1      38.205  23.765  26.056  1.00  0.00    -0.497 OA
ATOM     18  C   UNL A   1      39.058  22.671  26.390  1.00  0.00     0.278 C 
ENDBRANCH   8  17
BRANCH  14  19
ATOM     19  C   UNL A   1      32.614  21.437  23.323  1.00  0.00     0.262 C 
ATOM     20  O   UNL A   1      32.066  21.570  22.226  1.00  0.00    -0.268 OA
BRANCH  19  21
ATOM     21  C   UNL A   1      32.582  20.078  23.884  1.00  0.00     0.040 A 
ATOM     22  C   UNL A   1      32.727  19.868  25.261  1.00  0.00     0.015 A 
ATOM     23  C   UNL A   1      32.446  18.998  23.004  1.00  0.00     0.015 A 
ATOM     24  C   UNL A   1      32.832  18.562  25.744  1.00  0.00     0.021 A 
ATOM     25  C   UNL A   1      32.539  17.696  23.496  1.00  0.00     0.021 A 
ATOM     26  C   UNL A   1      32.754  17.483  24.858  1.00  0.00     0.041 A 
ATOM     27  Cl  UNL A   1      32.955  15.881  25.448  1.00  0.00    -0.084 Cl
ENDBRANCH  19  21
ENDBRANCH  14  19
ENDBRANCH   6   7
ENDBRANCH   3   6
ENDBRANCH   1   2
BRANCH   1  28
ATOM     28  C   UNL A   1      31.932  29.956  26.867  1.00  0.00     0.042 C 
BRANCH  28  29
ATOM     29  C   UNL A   1      33.390  30.418  26.900  1.00  0.00     0.118 C 
BRANCH  29  30
ATOM     30  N   UNL A   1      33.707  31.212  28.071  1.00  0.00    -0.352 N 
ATOM     31  C   UNL A   1      34.838  31.514  28.768  1.00  0.00     0.251 C 
ATOM     32  H   UNL A   1      32.908  31.639  28.456  1.00  0.00     0.163 HD
ATOM     33  O   UNL A   1      34.694  32.301  29.708  1.00  0.00    -0.269 OA
BRANCH  31  34
ATOM     34  C   UNL A   1      36.179  30.920  28.539  1.00  0.00     0.039 A 
ATOM     35  C   UNL A   1      36.429  29.646  28.029  1.00  0.00     0.014 A 
ATOM     36  C   UNL A   1      37.263  31.689  29.006  1.00  0.00     0.014 A 
ATOM     37  C   UNL A   1      37.695  29.089  28.141  1.00  0.00     0.010 A 
ATOM     38  C   UNL A   1      38.534  31.149  29.094  1.00  0.00     0.010 A 
ATOM     39  C   UNL A   1      38.718  29.816  28.751  1.00  0.00    -0.014 A 
BRANCH  39  40
ATOM     40  C   UNL A   1      39.960  29.125  29.057  1.00  0.00     0.031 A 
ATOM     41  C   UNL A   1      40.271  28.967  30.504  1.00  0.00     0.074 A 
ATOM     42  C   UNL A   1      40.747  28.625  28.084  1.00  0.00     0.049 A 
ATOM     43  N   UNL A   1      41.256  29.479  31.169  1.00  0.00    -0.248 NA
ATOM     44  C   UNL A   1      39.292  28.253  31.336  1.00  0.00     0.031 C 
ATOM     45  C   UNL A   1      40.489  28.521  26.644  1.00  0.00     0.029 A 
ATOM     46  N   UNL A   1      41.961  28.026  28.215  1.00  0.00    -0.354 N 
ATOM     47  C   UNL A   1      41.124  29.011  32.476  1.00  0.00     0.074 A 
ATOM     48  C   UNL A   1      39.835  28.371  32.549  1.00  0.00     0.031 C 
ATOM     49  C   UNL A   1      41.401  27.696  26.081  1.00  0.00     0.029 A 
ATOM     50  C   UNL A   1      42.383  27.338  27.087  1.00  0.00     0.049 A 
ATOM     51  H   UNL A   1      42.494  28.076  29.040  1.00  0.00     0.167 HD
ATOM     52  C   UNL A   1      42.164  29.021  33.355  1.00  0.00     0.037 A 
ATOM     53  C   UNL A   1      43.430  26.479  27.027  1.00  0.00     0.037 A 
ATOM     54  C   UNL A   1      43.212  29.911  32.934  1.00  0.00     0.049 A 
ATOM     55  C   UNL A   1      44.332  26.807  28.162  1.00  0.00     0.074 A 
ATOM     56  C   UNL A   1      43.316  31.277  32.750  1.00  0.00     0.029 A 
ATOM     57  N   UNL A   1      44.302  29.372  32.297  1.00  0.00    -0.354 N 
ATOM     58  N   UNL A   1      45.005  27.924  28.233  1.00  0.00    -0.248 NA
ATOM     59  C   UNL A   1      44.091  26.142  29.436  1.00  0.00     0.031 C 
ATOM     60  C   UNL A   1      44.149  31.429  31.601  1.00  0.00     0.029 A 
ATOM     61  C   UNL A   1      44.538  30.153  31.194  1.00  0.00     0.049 A 
ATOM     62  H   UNL A   1      44.815  28.579  32.578  1.00  0.00     0.167 HD
ATOM     63  C   UNL A   1      44.917  28.313  29.563  1.00  0.00     0.074 A 
ATOM     64  C   UNL A   1      44.394  27.143  30.269  1.00  0.00     0.031 C 
ATOM     65  C   UNL A   1      44.993  29.628  29.930  1.00  0.00     0.037 A 
BRANCH  52  66
ATOM     66  C   UNL A   1      42.392  27.970  34.411  1.00  0.00     0.057 A 
ATOM     67  C   UNL A   1      41.905  28.075  35.728  1.00  0.00     0.134 A 
ATOM     68  C   UNL A   1      42.822  26.687  34.028  1.00  0.00     0.134 A 
ATOM     69  F   UNL A   1      41.402  29.215  36.216  1.00  0.00    -0.206 F 
ATOM     70  C   UNL A   1      41.808  26.978  36.588  1.00  0.00     0.040 A 
ATOM     71  C   UNL A   1      42.687  25.572  34.866  1.00  0.00     0.040 A 
ATOM     72  F   UNL A   1      43.310  26.461  32.799  1.00  0.00    -0.206 F 
ATOM     73  C   UNL A   1      42.164  25.713  36.144  1.00  0.00     0.006 A 
ENDBRANCH  52  66
BRANCH  53  74
ATOM     74  C   UNL A   1      43.477  25.203  26.278  1.00  0.00     0.057 A 
ATOM     75  C   UNL A   1      42.735  24.083  26.702  1.00  0.00     0.134 A 
ATOM     76  C   UNL A   1      44.421  24.965  25.273  1.00  0.00     0.134 A 
ATOM     77  F   UNL A   1      41.871  24.172  27.724  1.00  0.00    -0.206 F 
ATOM     78  C   UNL A   1      42.908  22.811  26.153  1.00  0.00     0.040 A 
ATOM     79  C   UNL A   1      44.610  23.691  24.715  1.00  0.00     0.040 A 
ATOM     80  F   UNL A   1      45.217  25.954  24.840  1.00  0.00    -0.206 F 
ATOM     81  C   UNL A   1      43.855  22.608  25.159  1.00  0.00     0.006 A 
ENDBRANCH  53  74
BRANCH  65  82
ATOM     82  C   UNL A   1      45.318  30.627  28.855  1.00  0.00     0.057 A 
ATOM     83  C   UNL A   1      46.630  31.083  28.704  1.00  0.00     0.134 A 
ATOM     84  C   UNL A   1      44.337  31.259  28.074  1.00  0.00     0.134 A 
ATOM     85  F   UNL A   1      47.611  30.583  29.471  1.00  0.00    -0.206 F 
ATOM     86  C   UNL A   1      46.955  32.098  27.799  1.00  0.00     0.040 A 
ATOM     87  C   UNL A   1      44.652  32.252  27.143  1.00  0.00     0.040 A 
ATOM     88  F   UNL A   1      43.041  30.977  28.239  1.00  0.00    -0.206 F 
ATOM     89  C   UNL A   1      45.968  32.677  27.005  1.00  0.00     0.006 A 
ENDBRANCH  65  82
ENDBRANCH  39  40
ENDBRANCH  31  34
ENDBRANCH  29  30
ENDBRANCH  28  29
ENDBRANCH   1  28
TORSDOF 14
ENDMDL
