MODEL 1
REMARK VINA RESULT:     -11.4      0.000      0.000
REMARK SMILES CO[C@@H]1C[C@H](C(=O)NCCCNC(=O)c2ccc(-c3c4nc(c(-c5c(F)cccc5F)c5ccc([nH]5)c(-c5c(F)cccc5F)c5nc(c(-c6c(F)cccc6F)c6ccc3[nH]6)C=C5)C=C4)cc2)N(C(=O)c2ccn(C)c(=O)c2)C1
REMARK SMILES IDX 10 1 9 2 8 3 6 4 7 5 5 7 3 8 4 9 80 10 69 11 2 12 1 13 70 14
REMARK SMILES IDX 71 15 72 16 73 17 79 18 74 19 77 20 75 21 78 22 76 23 11 24
REMARK SMILES IDX 12 25 13 26 14 28 15 29 16 30 68 31 17 32 67 33 18 34 19 35
REMARK SMILES IDX 20 36 61 37 21 38 66 39 60 40 62 41 22 42 65 43 59 44 58 45
REMARK SMILES IDX 23 47 49 48 32 49 48 50 33 51 36 52 47 53 63 54 34 55 35 56
REMARK SMILES IDX 46 58 64 59 37 60 24 61 25 62 30 63 26 64 27 65 29 66 31 67
REMARK SMILES IDX 28 68 50 69 51 70 56 71 52 72 53 73 55 74 57 75 54 76 38 77
REMARK SMILES IDX 39 78 44 79 40 80 41 81 43 82 45 83 42 84
REMARK H PARENT 8 6 12 27 62 46 36 57
REMARK Flexibility Score: inf
ROOT
ATOM      1  C   UNL A   1      38.400  20.829  24.836  1.00  0.00     0.042 C 
ENDROOT
BRANCH   1   2
ATOM      2  C   UNL A   1      37.927  22.223  25.255  1.00  0.00     0.117 C 
BRANCH   2   3
ATOM      3  N   UNL A   1      37.033  22.794  24.263  1.00  0.00    -0.354 N 
ATOM      4  C   UNL A   1      35.716  22.634  23.987  1.00  0.00     0.242 C 
ATOM      5  O   UNL A   1      35.349  23.121  22.906  1.00  0.00    -0.273 OA
ATOM      6  H   UNL A   1      37.478  23.435  23.664  1.00  0.00     0.163 HD
BRANCH   4   7
ATOM      7  C   UNL A   1      34.681  21.835  24.818  1.00  0.00     0.177 C 
ATOM      8  C   UNL A   1      33.299  23.195  26.247  1.00  0.00     0.139 C 
ATOM      9  C   UNL A   1      34.549  22.318  26.259  1.00  0.00     0.069 C 
ATOM     10  C   UNL A   1      32.405  22.533  25.182  1.00  0.00     0.152 C 
ATOM     11  N   UNL A   1      33.295  21.694  24.382  1.00  0.00    -0.324 N 
BRANCH   8  12
ATOM     12  O   UNL A   1      33.581  24.546  25.887  1.00  0.00    -0.380 OA
ATOM     13  C   UNL A   1      32.480  25.431  26.079  1.00  0.00     0.195 C 
ENDBRANCH   8  12
BRANCH  11  14
ATOM     14  C   UNL A   1      32.762  20.676  23.614  1.00  0.00     0.254 C 
ATOM     15  O   UNL A   1      32.075  20.874  22.616  1.00  0.00    -0.269 OA
BRANCH  14  16
ATOM     16  C   UNL A   1      32.938  19.291  24.135  1.00  0.00     0.046 A 
ATOM     17  C   UNL A   1      32.556  18.914  25.471  1.00  0.00     0.032 A 
ATOM     18  C   UNL A   1      33.496  18.400  23.300  1.00  0.00     0.085 A 
ATOM     19  C   UNL A   1      32.651  17.630  25.843  1.00  0.00     0.089 A 
ATOM     20  C   UNL A   1      33.575  16.971  23.690  1.00  0.00     0.251 A 
ATOM     21  N   UNL A   1      33.115  16.661  24.968  1.00  0.00    -0.319 N 
ATOM     22  O   UNL A   1      34.005  16.162  22.873  1.00  0.00    -0.269 OA
ATOM     23  C   UNL A   1      33.135  15.273  25.403  1.00  0.00     0.153 C 
ENDBRANCH  14  16
ENDBRANCH  11  14
ENDBRANCH   4   7
ENDBRANCH   2   3
ENDBRANCH   1   2
BRANCH   1  24
ATOM     24  C   UNL A   1      38.678  19.877  25.993  1.00  0.00     0.118 C 
BRANCH  24  25
ATOM     25  N   UNL A   1      39.920  19.141  25.829  1.00  0.00    -0.352 N 
ATOM     26  C   UNL A   1      41.229  19.546  25.952  1.00  0.00     0.251 C 
ATOM     27  H   UNL A   1      39.806  18.193  25.588  1.00  0.00     0.163 HD
ATOM     28  O   UNL A   1      42.123  18.790  25.581  1.00  0.00    -0.269 OA
BRANCH  26  29
ATOM     29  C   UNL A   1      41.589  20.877  26.503  1.00  0.00     0.039 A 
ATOM     30  C   UNL A   1      41.488  21.078  27.885  1.00  0.00     0.014 A 
ATOM     31  C   UNL A   1      41.960  21.946  25.685  1.00  0.00     0.014 A 
ATOM     32  C   UNL A   1      41.809  22.320  28.445  1.00  0.00     0.010 A 
ATOM     33  C   UNL A   1      42.363  23.158  26.250  1.00  0.00     0.010 A 
ATOM     34  C   UNL A   1      42.281  23.364  27.635  1.00  0.00    -0.014 A 
BRANCH  34  35
ATOM     35  C   UNL A   1      42.666  24.683  28.211  1.00  0.00     0.031 A 
ATOM     36  C   UNL A   1      41.624  25.749  28.428  1.00  0.00     0.074 A 
ATOM     37  C   UNL A   1      43.959  24.950  28.481  1.00  0.00     0.049 A 
ATOM     38  N   UNL A   1      41.776  26.988  28.825  1.00  0.00    -0.248 NA
ATOM     39  C   UNL A   1      40.230  25.384  28.131  1.00  0.00     0.031 C 
ATOM     40  C   UNL A   1      45.076  24.025  28.278  1.00  0.00     0.029 A 
ATOM     41  N   UNL A   1      44.555  26.085  28.974  1.00  0.00    -0.354 N 
ATOM     42  C   UNL A   1      40.506  27.554  28.797  1.00  0.00     0.074 A 
ATOM     43  C   UNL A   1      39.604  26.539  28.300  1.00  0.00     0.031 C 
ATOM     44  C   UNL A   1      46.216  24.621  28.666  1.00  0.00     0.029 A 
ATOM     45  C   UNL A   1      45.919  25.980  29.106  1.00  0.00     0.049 A 
ATOM     46  H   UNL A   1      44.052  26.897  29.211  1.00  0.00     0.167 HD
ATOM     47  C   UNL A   1      40.121  28.797  29.173  1.00  0.00     0.037 A 
ATOM     48  C   UNL A   1      46.829  26.879  29.526  1.00  0.00     0.037 A 
ATOM     49  C   UNL A   1      41.008  29.795  29.710  1.00  0.00     0.049 A 
ATOM     50  C   UNL A   1      46.376  28.247  29.954  1.00  0.00     0.074 A 
ATOM     51  C   UNL A   1      40.702  31.060  30.181  1.00  0.00     0.029 A 
ATOM     52  N   UNL A   1      42.378  29.636  29.856  1.00  0.00    -0.354 N 
ATOM     53  N   UNL A   1      45.164  28.747  29.971  1.00  0.00    -0.248 NA
ATOM     54  C   UNL A   1      47.415  29.173  30.425  1.00  0.00     0.031 C 
ATOM     55  C   UNL A   1      41.890  31.680  30.579  1.00  0.00     0.029 A 
ATOM     56  C   UNL A   1      42.932  30.786  30.394  1.00  0.00     0.049 A 
ATOM     57  H   UNL A   1      42.882  28.827  29.612  1.00  0.00     0.167 HD
ATOM     58  C   UNL A   1      45.292  30.034  30.479  1.00  0.00     0.074 A 
ATOM     59  C   UNL A   1      46.697  30.233  30.768  1.00  0.00     0.031 C 
ATOM     60  C   UNL A   1      44.331  30.966  30.687  1.00  0.00     0.037 A 
BRANCH  47  61
ATOM     61  C   UNL A   1      38.668  29.148  29.021  1.00  0.00     0.057 A 
ATOM     62  C   UNL A   1      37.775  29.080  30.099  1.00  0.00     0.134 A 
ATOM     63  C   UNL A   1      38.163  29.588  27.791  1.00  0.00     0.134 A 
ATOM     64  F   UNL A   1      38.192  28.655  31.301  1.00  0.00    -0.206 F 
ATOM     65  C   UNL A   1      36.426  29.407  29.952  1.00  0.00     0.040 A 
ATOM     66  C   UNL A   1      36.822  29.944  27.638  1.00  0.00     0.040 A 
ATOM     67  F   UNL A   1      38.964  29.685  26.720  1.00  0.00    -0.206 F 
ATOM     68  C   UNL A   1      35.948  29.847  28.720  1.00  0.00     0.006 A 
ENDBRANCH  47  61
BRANCH  48  69
ATOM     69  C   UNL A   1      48.265  26.505  29.591  1.00  0.00     0.057 A 
ATOM     70  C   UNL A   1      49.114  26.716  28.499  1.00  0.00     0.134 A 
ATOM     71  C   UNL A   1      48.821  25.929  30.739  1.00  0.00     0.134 A 
ATOM     72  F   UNL A   1      48.633  27.247  27.364  1.00  0.00    -0.206 F 
ATOM     73  C   UNL A   1      50.460  26.351  28.537  1.00  0.00     0.040 A 
ATOM     74  C   UNL A   1      50.172  25.581  30.801  1.00  0.00     0.040 A 
ATOM     75  F   UNL A   1      48.062  25.708  31.822  1.00  0.00    -0.206 F 
ATOM     76  C   UNL A   1      50.994  25.787  29.694  1.00  0.00     0.006 A 
ENDBRANCH  48  69
BRANCH  60  77
ATOM     77  C   UNL A   1      44.758  32.271  31.288  1.00  0.00     0.057 A 
ATOM     78  C   UNL A   1      45.122  33.366  30.495  1.00  0.00     0.134 A 
ATOM     79  C   UNL A   1      44.765  32.446  32.678  1.00  0.00     0.134 A 
ATOM     80  F   UNL A   1      45.148  33.259  29.158  1.00  0.00    -0.206 F 
ATOM     81  C   UNL A   1      45.497  34.585  31.064  1.00  0.00     0.040 A 
ATOM     82  C   UNL A   1      45.115  33.666  33.258  1.00  0.00     0.040 A 
ATOM     83  F   UNL A   1      44.420  31.438  33.493  1.00  0.00    -0.206 F 
ATOM     84  C   UNL A   1      45.487  34.739  32.449  1.00  0.00     0.006 A 
ENDBRANCH  60  77
ENDBRANCH  34  35
ENDBRANCH  26  29
ENDBRANCH  24  25
ENDBRANCH   1  24
TORSDOF 13
ENDMDL
MODEL 2
REMARK VINA RESULT:     -11.3      1.326      3.684
REMARK SMILES CO[C@@H]1C[C@H](C(=O)NCCCNC(=O)c2ccc(-c3c4nc(c(-c5c(F)cccc5F)c5ccc([nH]5)c(-c5c(F)cccc5F)c5nc(c(-c6c(F)cccc6F)c6ccc3[nH]6)C=C5)C=C4)cc2)N(C(=O)c2ccn(C)c(=O)c2)C1
REMARK SMILES IDX 10 1 9 2 8 3 6 4 7 5 5 7 3 8 4 9 80 10 69 11 2 12 1 13 70 14
REMARK SMILES IDX 71 15 72 16 73 17 79 18 74 19 77 20 75 21 78 22 76 23 11 24
REMARK SMILES IDX 12 25 13 26 14 28 15 29 16 30 68 31 17 32 67 33 18 34 19 35
REMARK SMILES IDX 20 36 61 37 21 38 66 39 60 40 62 41 22 42 65 43 59 44 58 45
REMARK SMILES IDX 23 47 49 48 32 49 48 50 33 51 36 52 47 53 63 54 34 55 35 56
REMARK SMILES IDX 46 58 64 59 37 60 24 61 25 62 30 63 26 64 27 65 29 66 31 67
REMARK SMILES IDX 28 68 50 69 51 70 56 71 52 72 53 73 55 74 57 75 54 76 38 77
REMARK SMILES IDX 39 78 44 79 40 80 41 81 43 82 45 83 42 84
REMARK H PARENT 8 6 12 27 62 46 36 57
REMARK Flexibility Score: inf
ROOT
ATOM      1  C   UNL A   1      37.821  19.963  24.807  1.00  0.00     0.042 C 
ENDROOT
BRANCH   1   2
ATOM      2  C   UNL A   1      36.739  21.044  24.746  1.00  0.00     0.117 C 
BRANCH   2   3
ATOM      3  N   UNL A   1      35.974  21.092  25.980  1.00  0.00    -0.354 N 
ATOM      4  C   UNL A   1      34.790  21.651  26.326  1.00  0.00     0.242 C 
ATOM      5  O   UNL A   1      34.566  21.680  27.546  1.00  0.00    -0.273 OA
ATOM      6  H   UNL A   1      36.408  20.616  26.724  1.00  0.00     0.163 HD
BRANCH   4   7
ATOM      7  C   UNL A   1      33.769  22.331  25.378  1.00  0.00     0.177 C 
ATOM      8  C   UNL A   1      32.111  20.836  24.476  1.00  0.00     0.139 C 
ATOM      9  C   UNL A   1      33.441  21.505  24.138  1.00  0.00     0.069 C 
ATOM     10  C   UNL A   1      31.406  21.868  25.375  1.00  0.00     0.152 C 
ATOM     11  N   UNL A   1      32.458  22.764  25.852  1.00  0.00    -0.324 N 
BRANCH   8  12
ATOM     12  O   UNL A   1      32.279  19.604  25.174  1.00  0.00    -0.380 OA
ATOM     13  C   UNL A   1      33.235  18.732  24.575  1.00  0.00     0.195 C 
ENDBRANCH   8  12
BRANCH  11  14
ATOM     14  C   UNL A   1      32.119  24.010  26.344  1.00  0.00     0.254 C 
ATOM     15  O   UNL A   1      31.438  24.175  27.352  1.00  0.00    -0.269 OA
BRANCH  14  16
ATOM     16  C   UNL A   1      32.500  25.181  25.504  1.00  0.00     0.046 A 
ATOM     17  C   UNL A   1      32.073  25.324  24.136  1.00  0.00     0.032 A 
ATOM     18  C   UNL A   1      33.290  26.102  26.078  1.00  0.00     0.085 A 
ATOM     19  C   UNL A   1      32.370  26.447  23.469  1.00  0.00     0.089 A 
ATOM     20  C   UNL A   1      33.598  27.363  25.361  1.00  0.00     0.251 A 
ATOM     21  N   UNL A   1      33.087  27.470  24.069  1.00  0.00    -0.319 N 
ATOM     22  O   UNL A   1      34.245  28.228  25.943  1.00  0.00    -0.269 OA
ATOM     23  C   UNL A   1      33.324  28.695  23.320  1.00  0.00     0.153 C 
ENDBRANCH  14  16
ENDBRANCH  11  14
ENDBRANCH   4   7
ENDBRANCH   2   3
ENDBRANCH   1   2
BRANCH   1  24
ATOM     24  C   UNL A   1      38.741  20.053  26.019  1.00  0.00     0.118 C 
BRANCH  24  25
ATOM     25  N   UNL A   1      39.955  19.270  25.861  1.00  0.00    -0.352 N 
ATOM     26  C   UNL A   1      41.277  19.619  26.011  1.00  0.00     0.251 C 
ATOM     27  H   UNL A   1      39.807  18.332  25.602  1.00  0.00     0.163 HD
ATOM     28  O   UNL A   1      42.145  18.833  25.640  1.00  0.00    -0.269 OA
BRANCH  26  29
ATOM     29  C   UNL A   1      41.682  20.925  26.591  1.00  0.00     0.039 A 
ATOM     30  C   UNL A   1      42.032  21.963  25.720  1.00  0.00     0.014 A 
ATOM     31  C   UNL A   1      41.788  21.126  27.968  1.00  0.00     0.014 A 
ATOM     32  C   UNL A   1      42.430  23.207  26.225  1.00  0.00     0.010 A 
ATOM     33  C   UNL A   1      42.099  22.390  28.473  1.00  0.00     0.010 A 
ATOM     34  C   UNL A   1      42.437  23.443  27.609  1.00  0.00    -0.014 A 
BRANCH  34  35
ATOM     35  C   UNL A   1      42.818  24.768  28.169  1.00  0.00     0.031 A 
ATOM     36  C   UNL A   1      41.767  25.821  28.412  1.00  0.00     0.074 A 
ATOM     37  C   UNL A   1      44.115  25.055  28.403  1.00  0.00     0.049 A 
ATOM     38  N   UNL A   1      41.912  27.063  28.800  1.00  0.00    -0.248 NA
ATOM     39  C   UNL A   1      40.371  25.435  28.154  1.00  0.00     0.031 C 
ATOM     40  C   UNL A   1      45.238  24.146  28.173  1.00  0.00     0.029 A 
ATOM     41  N   UNL A   1      44.707  26.200  28.876  1.00  0.00    -0.354 N 
ATOM     42  C   UNL A   1      40.634  27.611  28.805  1.00  0.00     0.074 A 
ATOM     43  C   UNL A   1      39.734  26.581  28.337  1.00  0.00     0.031 C 
ATOM     44  C   UNL A   1      46.379  24.759  28.527  1.00  0.00     0.029 A 
ATOM     45  C   UNL A   1      46.075  26.115  28.971  1.00  0.00     0.049 A 
ATOM     46  H   UNL A   1      44.199  27.006  29.124  1.00  0.00     0.167 HD
ATOM     47  C   UNL A   1      40.242  28.850  29.187  1.00  0.00     0.037 A 
ATOM     48  C   UNL A   1      46.984  27.028  29.363  1.00  0.00     0.037 A 
ATOM     49  C   UNL A   1      41.129  29.862  29.696  1.00  0.00     0.049 A 
ATOM     50  C   UNL A   1      46.523  28.391  29.798  1.00  0.00     0.074 A 
ATOM     51  C   UNL A   1      40.817  31.125  30.171  1.00  0.00     0.029 A 
ATOM     52  N   UNL A   1      42.505  29.724  29.805  1.00  0.00    -0.354 N 
ATOM     53  N   UNL A   1      45.305  28.875  29.846  1.00  0.00    -0.248 NA
ATOM     54  C   UNL A   1      47.562  29.334  30.238  1.00  0.00     0.031 C 
ATOM     55  C   UNL A   1      42.007  31.763  30.534  1.00  0.00     0.029 A 
ATOM     56  C   UNL A   1      43.057  30.883  30.324  1.00  0.00     0.049 A 
ATOM     57  H   UNL A   1      43.013  28.920  29.550  1.00  0.00     0.167 HD
ATOM     58  C   UNL A   1      45.428  30.165  30.346  1.00  0.00     0.074 A 
ATOM     59  C   UNL A   1      46.838  30.385  30.596  1.00  0.00     0.031 C 
ATOM     60  C   UNL A   1      44.460  31.084  30.578  1.00  0.00     0.037 A 
BRANCH  47  61
ATOM     61  C   UNL A   1      38.780  29.179  29.074  1.00  0.00     0.057 A 
ATOM     62  C   UNL A   1      37.919  29.104  30.176  1.00  0.00     0.134 A 
ATOM     63  C   UNL A   1      38.236  29.606  27.856  1.00  0.00     0.134 A 
ATOM     64  F   UNL A   1      38.375  28.692  31.369  1.00  0.00    -0.206 F 
ATOM     65  C   UNL A   1      36.562  29.412  30.065  1.00  0.00     0.040 A 
ATOM     66  C   UNL A   1      36.886  29.943  27.739  1.00  0.00     0.040 A 
ATOM     67  F   UNL A   1      39.005  29.709  26.763  1.00  0.00    -0.206 F 
ATOM     68  C   UNL A   1      36.043  29.839  28.845  1.00  0.00     0.006 A 
ENDBRANCH  47  61
BRANCH  48  69
ATOM     69  C   UNL A   1      48.426  26.675  29.390  1.00  0.00     0.057 A 
ATOM     70  C   UNL A   1      48.991  26.039  30.501  1.00  0.00     0.134 A 
ATOM     71  C   UNL A   1      49.272  26.966  28.313  1.00  0.00     0.134 A 
ATOM     72  F   UNL A   1      48.234  25.753  31.571  1.00  0.00    -0.206 F 
ATOM     73  C   UNL A   1      50.348  25.720  30.550  1.00  0.00     0.040 A 
ATOM     74  C   UNL A   1      50.627  26.632  28.338  1.00  0.00     0.040 A 
ATOM     75  F   UNL A   1      48.790  27.569  27.217  1.00  0.00    -0.206 F 
ATOM     76  C   UNL A   1      51.170  26.012  29.462  1.00  0.00     0.006 A 
ENDBRANCH  48  69
BRANCH  60  77
ATOM     77  C   UNL A   1      44.885  32.398  31.163  1.00  0.00     0.057 A 
ATOM     78  C   UNL A   1      45.198  33.499  30.356  1.00  0.00     0.134 A 
ATOM     79  C   UNL A   1      44.942  32.573  32.551  1.00  0.00     0.134 A 
ATOM     80  F   UNL A   1      45.175  33.392  29.019  1.00  0.00    -0.206 F 
ATOM     81  C   UNL A   1      45.571  34.725  30.911  1.00  0.00     0.040 A 
ATOM     82  C   UNL A   1      45.290  33.800  33.117  1.00  0.00     0.040 A 
ATOM     83  F   UNL A   1      44.647  31.559  33.379  1.00  0.00    -0.206 F 
ATOM     84  C   UNL A   1      45.611  34.879  32.296  1.00  0.00     0.006 A 
ENDBRANCH  60  77
ENDBRANCH  34  35
ENDBRANCH  26  29
ENDBRANCH  24  25
ENDBRANCH   1  24
TORSDOF 13
ENDMDL
MODEL 3
REMARK VINA RESULT:     -11.3      4.379      6.834
REMARK SMILES CO[C@@H]1C[C@H](C(=O)NCCCNC(=O)c2ccc(-c3c4nc(c(-c5c(F)cccc5F)c5ccc([nH]5)c(-c5c(F)cccc5F)c5nc(c(-c6c(F)cccc6F)c6ccc3[nH]6)C=C5)C=C4)cc2)N(C(=O)c2ccn(C)c(=O)c2)C1
REMARK SMILES IDX 10 1 9 2 8 3 6 4 7 5 5 7 3 8 4 9 80 10 69 11 2 12 1 13 70 14
REMARK SMILES IDX 71 15 72 16 73 17 79 18 74 19 77 20 75 21 78 22 76 23 11 24
REMARK SMILES IDX 12 25 13 26 14 28 15 29 16 30 68 31 17 32 67 33 18 34 19 35
REMARK SMILES IDX 20 36 61 37 21 38 66 39 60 40 62 41 22 42 65 43 59 44 58 45
REMARK SMILES IDX 23 47 49 48 32 49 48 50 33 51 36 52 47 53 63 54 34 55 35 56
REMARK SMILES IDX 46 58 64 59 37 60 24 61 25 62 30 63 26 64 27 65 29 66 31 67
REMARK SMILES IDX 28 68 50 69 51 70 56 71 52 72 53 73 55 74 57 75 54 76 38 77
REMARK SMILES IDX 39 78 44 79 40 80 41 81 43 82 45 83 42 84
REMARK H PARENT 8 6 12 27 62 46 36 57
REMARK Flexibility Score: inf
ROOT
ATOM      1  C   UNL A   1      37.429  23.674  25.711  1.00  0.00     0.042 C 
ENDROOT
BRANCH   1   2
ATOM      2  C   UNL A   1      36.996  22.240  25.397  1.00  0.00     0.117 C 
BRANCH   2   3
ATOM      3  N   UNL A   1      36.042  21.753  26.379  1.00  0.00    -0.354 N 
ATOM      4  C   UNL A   1      34.698  21.860  26.512  1.00  0.00     0.242 C 
ATOM      5  O   UNL A   1      34.256  21.504  27.616  1.00  0.00    -0.273 OA
ATOM      6  H   UNL A   1      36.462  21.234  27.102  1.00  0.00     0.163 HD
BRANCH   4   7
ATOM      7  C   UNL A   1      33.706  22.463  25.486  1.00  0.00     0.177 C 
ATOM      8  C   UNL A   1      32.125  20.881  24.594  1.00  0.00     0.139 C 
ATOM      9  C   UNL A   1      33.453  21.564  24.279  1.00  0.00     0.069 C 
ATOM     10  C   UNL A   1      31.357  21.941  25.404  1.00  0.00     0.152 C 
ATOM     11  N   UNL A   1      32.365  22.887  25.878  1.00  0.00    -0.324 N 
BRANCH   8  12
ATOM     12  O   UNL A   1      32.289  19.692  25.364  1.00  0.00    -0.380 OA
ATOM     13  C   UNL A   1      33.092  18.703  24.724  1.00  0.00     0.195 C 
ENDBRANCH   8  12
BRANCH  11  14
ATOM     14  C   UNL A   1      31.976  24.148  26.287  1.00  0.00     0.254 C 
ATOM     15  O   UNL A   1      31.240  24.348  27.249  1.00  0.00    -0.269 OA
BRANCH  14  16
ATOM     16  C   UNL A   1      32.378  25.284  25.409  1.00  0.00     0.046 A 
ATOM     17  C   UNL A   1      33.449  26.184  25.752  1.00  0.00     0.032 A 
ATOM     18  C   UNL A   1      31.675  25.449  24.277  1.00  0.00     0.085 A 
ATOM     19  C   UNL A   1      33.823  27.124  24.873  1.00  0.00     0.089 A 
ATOM     20  C   UNL A   1      32.101  26.464  23.284  1.00  0.00     0.251 A 
ATOM     21  N   UNL A   1      33.194  27.249  23.644  1.00  0.00    -0.319 N 
ATOM     22  O   UNL A   1      31.498  26.532  22.217  1.00  0.00    -0.269 OA
ATOM     23  C   UNL A   1      33.685  28.243  22.702  1.00  0.00     0.153 C 
ENDBRANCH  14  16
ENDBRANCH  11  14
ENDBRANCH   4   7
ENDBRANCH   2   3
ENDBRANCH   1   2
BRANCH   1  24
ATOM     24  C   UNL A   1      38.639  23.786  26.631  1.00  0.00     0.118 C 
BRANCH  24  25
ATOM     25  N   UNL A   1      39.846  24.182  25.925  1.00  0.00    -0.352 N 
ATOM     26  C   UNL A   1      40.674  25.266  26.098  1.00  0.00     0.251 C 
ATOM     27  H   UNL A   1      40.116  23.573  25.201  1.00  0.00     0.163 HD
ATOM     28  O   UNL A   1      41.538  25.495  25.255  1.00  0.00    -0.269 OA
BRANCH  26  29
ATOM     29  C   UNL A   1      40.542  26.177  27.264  1.00  0.00     0.039 A 
ATOM     30  C   UNL A   1      41.272  27.371  27.265  1.00  0.00     0.014 A 
ATOM     31  C   UNL A   1      39.769  25.849  28.380  1.00  0.00     0.014 A 
ATOM     32  C   UNL A   1      41.184  28.253  28.349  1.00  0.00     0.010 A 
ATOM     33  C   UNL A   1      39.612  26.766  29.420  1.00  0.00     0.010 A 
ATOM     34  C   UNL A   1      40.327  27.973  29.425  1.00  0.00    -0.014 A 
BRANCH  34  35
ATOM     35  C   UNL A   1      40.186  28.914  30.571  1.00  0.00     0.031 A 
ATOM     36  C   UNL A   1      39.141  29.999  30.539  1.00  0.00     0.074 A 
ATOM     37  C   UNL A   1      41.036  28.838  31.615  1.00  0.00     0.049 A 
ATOM     38  N   UNL A   1      38.928  30.970  31.391  1.00  0.00    -0.248 NA
ATOM     39  C   UNL A   1      38.235  30.012  29.379  1.00  0.00     0.031 C 
ATOM     40  C   UNL A   1      42.120  27.865  31.756  1.00  0.00     0.029 A 
ATOM     41  N   UNL A   1      41.127  29.602  32.752  1.00  0.00    -0.354 N 
ATOM     42  C   UNL A   1      37.887  31.722  30.857  1.00  0.00     0.074 A 
ATOM     43  C   UNL A   1      37.544  31.122  29.586  1.00  0.00     0.031 C 
ATOM     44  C   UNL A   1      42.751  28.075  32.922  1.00  0.00     0.029 A 
ATOM     45  C   UNL A   1      42.144  29.220  33.594  1.00  0.00     0.049 A 
ATOM     46  H   UNL A   1      40.520  30.352  32.946  1.00  0.00     0.167 HD
ATOM     47  C   UNL A   1      37.258  32.799  31.386  1.00  0.00     0.037 A 
ATOM     48  C   UNL A   1      42.549  29.738  34.769  1.00  0.00     0.037 A 
ATOM     49  C   UNL A   1      37.566  33.370  32.670  1.00  0.00     0.049 A 
ATOM     50  C   UNL A   1      41.824  30.923  35.344  1.00  0.00     0.074 A 
ATOM     51  C   UNL A   1      36.941  34.420  33.321  1.00  0.00     0.029 A 
ATOM     52  N   UNL A   1      38.584  32.933  33.504  1.00  0.00    -0.354 N 
ATOM     53  N   UNL A   1      40.808  31.589  34.850  1.00  0.00    -0.248 NA
ATOM     54  C   UNL A   1      42.299  31.426  36.641  1.00  0.00     0.031 C 
ATOM     55  C   UNL A   1      37.602  34.641  34.533  1.00  0.00     0.029 A 
ATOM     56  C   UNL A   1      38.615  33.703  34.656  1.00  0.00     0.049 A 
ATOM     57  H   UNL A   1      39.196  32.188  33.306  1.00  0.00     0.167 HD
ATOM     58  C   UNL A   1      40.505  32.569  35.787  1.00  0.00     0.074 A 
ATOM     59  C   UNL A   1      41.438  32.405  36.883  1.00  0.00     0.031 C 
ATOM     60  C   UNL A   1      39.541  33.520  35.743  1.00  0.00     0.037 A 
BRANCH  47  61
ATOM     61  C   UNL A   1      36.162  33.428  30.574  1.00  0.00     0.057 A 
ATOM     62  C   UNL A   1      36.436  34.203  29.439  1.00  0.00     0.134 A 
ATOM     63  C   UNL A   1      34.817  33.232  30.912  1.00  0.00     0.134 A 
ATOM     64  F   UNL A   1      37.703  34.439  29.067  1.00  0.00    -0.206 F 
ATOM     65  C   UNL A   1      35.414  34.785  28.687  1.00  0.00     0.040 A 
ATOM     66  C   UNL A   1      33.785  33.786  30.153  1.00  0.00     0.040 A 
ATOM     67  F   UNL A   1      34.483  32.494  31.981  1.00  0.00    -0.206 F 
ATOM     68  C   UNL A   1      34.083  34.571  29.040  1.00  0.00     0.006 A 
ENDBRANCH  47  61
BRANCH  48  69
ATOM     69  C   UNL A   1      43.685  29.121  35.500  1.00  0.00     0.057 A 
ATOM     70  C   UNL A   1      44.998  29.559  35.292  1.00  0.00     0.134 A 
ATOM     71  C   UNL A   1      43.488  28.083  36.417  1.00  0.00     0.134 A 
ATOM     72  F   UNL A   1      45.250  30.538  34.410  1.00  0.00    -0.206 F 
ATOM     73  C   UNL A   1      46.077  28.975  35.955  1.00  0.00     0.040 A 
ATOM     74  C   UNL A   1      44.556  27.505  37.106  1.00  0.00     0.040 A 
ATOM     75  F   UNL A   1      42.254  27.623  36.666  1.00  0.00    -0.206 F 
ATOM     76  C   UNL A   1      45.856  27.948  36.871  1.00  0.00     0.006 A 
ENDBRANCH  48  69
BRANCH  60  77
ATOM     77  C   UNL A   1      39.420  34.432  36.927  1.00  0.00     0.057 A 
ATOM     78  C   UNL A   1      38.741  34.047  38.089  1.00  0.00     0.134 A 
ATOM     79  C   UNL A   1      40.025  35.696  36.917  1.00  0.00     0.134 A 
ATOM     80  F   UNL A   1      38.129  32.854  38.157  1.00  0.00    -0.206 F 
ATOM     81  C   UNL A   1      38.652  34.894  39.195  1.00  0.00     0.040 A 
ATOM     82  C   UNL A   1      39.963  36.541  38.025  1.00  0.00     0.040 A 
ATOM     83  F   UNL A   1      40.695  36.121  35.837  1.00  0.00    -0.206 F 
ATOM     84  C   UNL A   1      39.270  36.143  39.167  1.00  0.00     0.006 A 
ENDBRANCH  60  77
ENDBRANCH  34  35
ENDBRANCH  26  29
ENDBRANCH  24  25
ENDBRANCH   1  24
TORSDOF 13
ENDMDL
