MODEL 1
REMARK VINA RESULT:     -12.7      0.000      0.000
REMARK SMILES Cc1ccc(C(=O)NCCCNC(=O)c2ccc(-c3c4nc(c(-c5c(F)cccc5F)c5ccc([nH]5)c(-c5c(F)cccc5F)c5nc(c(-c6c(F)cccc6F)c6ccc3[nH]6)C=C5)C=C4)cc2)cc1/[NH+]=C1\NCCS1
REMARK SMILES IDX 10 1 9 2 8 3 6 4 7 5 5 7 1 8 2 9 3 10 70 11 4 12 69 13 71 14
REMARK SMILES IDX 72 15 73 17 76 18 74 19 75 21 11 22 12 23 13 24 14 26 15 27
REMARK SMILES IDX 16 28 68 29 17 30 67 31 18 32 19 33 20 34 61 35 21 36 66 37
REMARK SMILES IDX 60 38 62 39 22 40 65 41 59 42 58 43 23 45 49 46 32 47 48 48
REMARK SMILES IDX 33 49 36 50 47 51 63 52 34 53 35 54 46 56 64 57 37 58 24 59
REMARK SMILES IDX 25 60 30 61 26 62 27 63 29 64 31 65 28 66 50 67 51 68 56 69
REMARK SMILES IDX 52 70 53 71 55 72 57 73 54 74 38 75 39 76 44 77 40 78 41 79
REMARK SMILES IDX 43 80 45 81 42 82
REMARK H PARENT 8 6 71 16 73 20 12 25 62 44 36 55
REMARK Flexibility Score: inf
ROOT
ATOM      1  C   UNL A   1      33.646  31.193  27.632  1.00  0.00     0.042 C 
ENDROOT
BRANCH   1   2
ATOM      2  C   UNL A   1      33.153  29.816  27.180  1.00  0.00     0.118 C 
BRANCH   2   3
ATOM      3  N   UNL A   1      33.937  29.290  26.072  1.00  0.00    -0.352 N 
ATOM      4  C   UNL A   1      33.604  28.598  24.932  1.00  0.00     0.251 C 
ATOM      5  O   UNL A   1      34.521  28.365  24.141  1.00  0.00    -0.269 OA
ATOM      6  H   UNL A   1      34.903  29.464  26.157  1.00  0.00     0.163 HD
BRANCH   4   7
ATOM      7  C   UNL A   1      32.229  28.117  24.589  1.00  0.00     0.044 A 
ATOM      8  C   UNL A   1      28.246  26.553  23.854  1.00  0.00     0.049 C 
ATOM      9  C   UNL A   1      29.619  27.111  24.091  1.00  0.00    -0.004 A 
ATOM     10  C   UNL A   1      30.432  26.539  25.079  1.00  0.00     0.008 A 
ATOM     11  C   UNL A   1      30.101  28.219  23.382  1.00  0.00     0.129 A 
ATOM     12  C   UNL A   1      31.718  27.037  25.322  1.00  0.00     0.014 A 
ATOM     13  C   UNL A   1      31.396  28.692  23.633  1.00  0.00     0.065 A 
BRANCH  11  14
ATOM     14  N   UNL A   1      29.374  28.865  22.373  1.00  0.00    -0.235 N 
ATOM     15  C   UNL A   1      29.131  30.122  22.486  1.00  0.00     0.309 C 
ATOM     16  H   UNL A   1      29.055  28.363  21.588  1.00  0.00     0.313 HD
ATOM     17  N   UNL A   1      29.431  31.015  23.469  1.00  0.00    -0.268 N 
ATOM     18  S   UNL A   1      28.250  30.925  21.189  1.00  0.00    -0.035 SA
ATOM     19  C   UNL A   1      29.040  32.389  23.260  1.00  0.00     0.246 C 
ATOM     20  H   UNL A   1      29.897  30.735  24.290  1.00  0.00     0.305 HD
ATOM     21  C   UNL A   1      27.906  32.371  22.238  1.00  0.00     0.128 C 
ENDBRANCH  11  14
ENDBRANCH   4   7
ENDBRANCH   2   3
ENDBRANCH   1   2
BRANCH   1  22
ATOM     22  C   UNL A   1      35.159  31.316  27.654  1.00  0.00     0.118 C 
BRANCH  22  23
ATOM     23  N   UNL A   1      35.700  31.794  28.922  1.00  0.00    -0.352 N 
ATOM     24  C   UNL A   1      36.651  31.186  29.730  1.00  0.00     0.251 C 
ATOM     25  H   UNL A   1      35.346  32.654  29.245  1.00  0.00     0.163 HD
ATOM     26  O   UNL A   1      37.020  31.699  30.768  1.00  0.00    -0.269 OA
BRANCH  24  27
ATOM     27  C   UNL A   1      37.292  29.950  29.223  1.00  0.00     0.039 A 
ATOM     28  C   UNL A   1      37.545  28.932  30.145  1.00  0.00     0.014 A 
ATOM     29  C   UNL A   1      37.876  29.932  27.958  1.00  0.00     0.014 A 
ATOM     30  C   UNL A   1      38.584  28.041  29.895  1.00  0.00     0.010 A 
ATOM     31  C   UNL A   1      38.957  29.098  27.741  1.00  0.00     0.010 A 
ATOM     32  C   UNL A   1      39.355  28.206  28.740  1.00  0.00    -0.014 A 
BRANCH  32  33
ATOM     33  C   UNL A   1      40.656  27.563  28.583  1.00  0.00     0.031 A 
ATOM     34  C   UNL A   1      40.745  26.123  28.284  1.00  0.00     0.074 A 
ATOM     35  C   UNL A   1      41.798  28.264  28.759  1.00  0.00     0.049 A 
ATOM     36  N   UNL A   1      41.646  25.340  28.778  1.00  0.00    -0.248 NA
ATOM     37  C   UNL A   1      39.791  25.446  27.416  1.00  0.00     0.031 C 
ATOM     38  C   UNL A   1      43.159  27.804  28.501  1.00  0.00     0.029 A 
ATOM     39  N   UNL A   1      41.959  29.489  29.415  1.00  0.00    -0.354 N 
ATOM     40  C   UNL A   1      41.564  24.143  28.106  1.00  0.00     0.074 A 
ATOM     41  C   UNL A   1      40.351  24.235  27.321  1.00  0.00     0.031 C 
ATOM     42  C   UNL A   1      44.012  28.556  29.213  1.00  0.00     0.029 A 
ATOM     43  C   UNL A   1      43.225  29.457  30.036  1.00  0.00     0.049 A 
ATOM     44  H   UNL A   1      41.312  30.231  29.439  1.00  0.00     0.167 HD
ATOM     45  C   UNL A   1      42.598  23.254  28.163  1.00  0.00     0.037 A 
ATOM     46  C   UNL A   1      43.370  29.630  31.380  1.00  0.00     0.037 A 
ATOM     47  C   UNL A   1      43.709  23.768  28.960  1.00  0.00     0.049 A 
ATOM     48  C   UNL A   1      43.988  28.452  32.090  1.00  0.00     0.074 A 
ATOM     49  C   UNL A   1      44.876  24.421  28.597  1.00  0.00     0.029 A 
ATOM     50  N   UNL A   1      43.581  23.926  30.335  1.00  0.00    -0.354 N 
ATOM     51  N   UNL A   1      44.126  27.273  31.552  1.00  0.00    -0.248 NA
ATOM     52  C   UNL A   1      44.436  28.486  33.480  1.00  0.00     0.031 C 
ATOM     53  C   UNL A   1      45.436  25.004  29.755  1.00  0.00     0.029 A 
ATOM     54  C   UNL A   1      44.615  24.704  30.827  1.00  0.00     0.049 A 
ATOM     55  H   UNL A   1      42.860  23.540  30.882  1.00  0.00     0.167 HD
ATOM     56  C   UNL A   1      44.579  26.391  32.499  1.00  0.00     0.074 A 
ATOM     57  C   UNL A   1      44.802  27.208  33.676  1.00  0.00     0.031 C 
ATOM     58  C   UNL A   1      44.695  25.057  32.236  1.00  0.00     0.037 A 
BRANCH  45  59
ATOM     59  C   UNL A   1      42.722  22.084  27.213  1.00  0.00     0.057 A 
ATOM     60  C   UNL A   1      41.934  20.927  27.368  1.00  0.00     0.134 A 
ATOM     61  C   UNL A   1      43.641  22.022  26.153  1.00  0.00     0.134 A 
ATOM     62  F   UNL A   1      40.920  20.871  28.240  1.00  0.00    -0.206 F 
ATOM     63  C   UNL A   1      42.148  19.756  26.631  1.00  0.00     0.040 A 
ATOM     64  C   UNL A   1      43.904  20.842  25.442  1.00  0.00     0.040 A 
ATOM     65  F   UNL A   1      44.298  23.115  25.737  1.00  0.00    -0.206 F 
ATOM     66  C   UNL A   1      43.169  19.693  25.696  1.00  0.00     0.006 A 
ENDBRANCH  45  59
BRANCH  46  67
ATOM     67  C   UNL A   1      42.337  30.520  31.965  1.00  0.00     0.057 A 
ATOM     68  C   UNL A   1      42.516  31.910  31.860  1.00  0.00     0.134 A 
ATOM     69  C   UNL A   1      41.047  30.057  32.235  1.00  0.00     0.134 A 
ATOM     70  F   UNL A   1      43.733  32.415  31.608  1.00  0.00    -0.206 F 
ATOM     71  C   UNL A   1      41.436  32.794  31.889  1.00  0.00     0.040 A 
ATOM     72  C   UNL A   1      39.960  30.936  32.275  1.00  0.00     0.040 A 
ATOM     73  F   UNL A   1      40.800  28.744  32.340  1.00  0.00    -0.206 F 
ATOM     74  C   UNL A   1      40.146  32.300  32.056  1.00  0.00     0.006 A 
ENDBRANCH  46  67
BRANCH  58  75
ATOM     75  C   UNL A   1      44.988  23.987  33.255  1.00  0.00     0.057 A 
ATOM     76  C   UNL A   1      44.077  22.991  33.636  1.00  0.00     0.134 A 
ATOM     77  C   UNL A   1      46.283  23.858  33.803  1.00  0.00     0.134 A 
ATOM     78  F   UNL A   1      42.850  22.923  33.102  1.00  0.00    -0.206 F 
ATOM     79  C   UNL A   1      44.406  21.983  34.552  1.00  0.00     0.040 A 
ATOM     80  C   UNL A   1      46.637  22.827  34.677  1.00  0.00     0.040 A 
ATOM     81  F   UNL A   1      47.265  24.719  33.496  1.00  0.00    -0.206 F 
ATOM     82  C   UNL A   1      45.691  21.893  35.071  1.00  0.00     0.006 A 
ENDBRANCH  58  75
ENDBRANCH  32  33
ENDBRANCH  24  27
ENDBRANCH  22  23
ENDBRANCH   1  22
TORSDOF 11
ENDMDL
MODEL 2
REMARK VINA RESULT:     -12.6      3.898      9.489
REMARK SMILES Cc1ccc(C(=O)NCCCNC(=O)c2ccc(-c3c4nc(c(-c5c(F)cccc5F)c5ccc([nH]5)c(-c5c(F)cccc5F)c5nc(c(-c6c(F)cccc6F)c6ccc3[nH]6)C=C5)C=C4)cc2)cc1/[NH+]=C1\NCCS1
REMARK SMILES IDX 10 1 9 2 8 3 6 4 7 5 5 7 1 8 2 9 3 10 70 11 4 12 69 13 71 14
REMARK SMILES IDX 72 15 73 17 76 18 74 19 75 21 11 22 12 23 13 24 14 26 15 27
REMARK SMILES IDX 16 28 68 29 17 30 67 31 18 32 19 33 20 34 61 35 21 36 66 37
REMARK SMILES IDX 60 38 62 39 22 40 65 41 59 42 58 43 23 45 49 46 32 47 48 48
REMARK SMILES IDX 33 49 36 50 47 51 63 52 34 53 35 54 46 56 64 57 37 58 24 59
REMARK SMILES IDX 25 60 30 61 26 62 27 63 29 64 31 65 28 66 50 67 51 68 56 69
REMARK SMILES IDX 52 70 53 71 55 72 57 73 54 74 38 75 39 76 44 77 40 78 41 79
REMARK SMILES IDX 43 80 45 81 42 82
REMARK H PARENT 8 6 71 16 73 20 12 25 62 44 36 55
REMARK Flexibility Score: inf
ROOT
ATOM      1  C   UNL A   1      39.008  21.808  25.930  1.00  0.00     0.042 C 
ENDROOT
BRANCH   1   2
ATOM      2  C   UNL A   1      37.675  22.024  25.211  1.00  0.00     0.118 C 
BRANCH   2   3
ATOM      3  N   UNL A   1      36.537  21.833  26.098  1.00  0.00    -0.352 N 
ATOM      4  C   UNL A   1      35.218  22.215  26.028  1.00  0.00     0.251 C 
ATOM      5  O   UNL A   1      34.479  21.814  26.932  1.00  0.00    -0.269 OA
ATOM      6  H   UNL A   1      36.756  21.328  26.915  1.00  0.00     0.163 HD
BRANCH   4   7
ATOM      7  C   UNL A   1      34.626  23.068  24.951  1.00  0.00     0.044 A 
ATOM      8  C   UNL A   1      32.773  25.288  21.712  1.00  0.00     0.049 C 
ATOM      9  C   UNL A   1      33.419  24.542  22.843  1.00  0.00    -0.004 A 
ATOM     10  C   UNL A   1      33.425  23.140  22.826  1.00  0.00     0.008 A 
ATOM     11  C   UNL A   1      33.981  25.203  23.942  1.00  0.00     0.129 A 
ATOM     12  C   UNL A   1      34.021  22.416  23.866  1.00  0.00     0.014 A 
ATOM     13  C   UNL A   1      34.583  24.459  24.965  1.00  0.00     0.065 A 
BRANCH  11  14
ATOM     14  N   UNL A   1      34.030  26.599  24.060  1.00  0.00    -0.235 N 
ATOM     15  C   UNL A   1      33.162  27.194  24.796  1.00  0.00     0.309 C 
ATOM     16  H   UNL A   1      34.722  27.116  23.586  1.00  0.00     0.313 HD
ATOM     17  N   UNL A   1      32.109  26.718  25.515  1.00  0.00    -0.268 N 
ATOM     18  S   UNL A   1      33.264  28.945  24.963  1.00  0.00    -0.035 SA
ATOM     19  C   UNL A   1      31.342  27.672  26.280  1.00  0.00     0.246 C 
ATOM     20  H   UNL A   1      31.880  25.760  25.514  1.00  0.00     0.305 HD
ATOM     21  C   UNL A   1      31.579  29.038  25.642  1.00  0.00     0.128 C 
ENDBRANCH  11  14
ENDBRANCH   4   7
ENDBRANCH   2   3
ENDBRANCH   1   2
BRANCH   1  22
ATOM     22  C   UNL A   1      39.463  23.011  26.737  1.00  0.00     0.118 C 
BRANCH  22  23
ATOM     23  N   UNL A   1      40.858  23.382  26.519  1.00  0.00    -0.352 N 
ATOM     24  C   UNL A   1      41.413  24.653  26.504  1.00  0.00     0.251 C 
ATOM     25  H   UNL A   1      41.483  22.637  26.364  1.00  0.00     0.163 HD
ATOM     26  O   UNL A   1      42.602  24.822  26.316  1.00  0.00    -0.269 OA
BRANCH  24  27
ATOM     27  C   UNL A   1      40.529  25.792  26.848  1.00  0.00     0.039 A 
ATOM     28  C   UNL A   1      40.829  27.033  26.283  1.00  0.00     0.014 A 
ATOM     29  C   UNL A   1      39.632  25.685  27.909  1.00  0.00     0.014 A 
ATOM     30  C   UNL A   1      40.434  28.189  26.949  1.00  0.00     0.010 A 
ATOM     31  C   UNL A   1      39.304  26.828  28.614  1.00  0.00     0.010 A 
ATOM     32  C   UNL A   1      39.769  28.071  28.174  1.00  0.00    -0.014 A 
BRANCH  32  33
ATOM     33  C   UNL A   1      39.643  29.197  29.094  1.00  0.00     0.031 A 
ATOM     34  C   UNL A   1      38.583  30.202  28.904  1.00  0.00     0.074 A 
ATOM     35  C   UNL A   1      40.527  29.363  30.104  1.00  0.00     0.049 A 
ATOM     36  N   UNL A   1      38.745  31.466  29.116  1.00  0.00    -0.248 NA
ATOM     37  C   UNL A   1      37.254  29.852  28.425  1.00  0.00     0.031 C 
ATOM     38  C   UNL A   1      40.454  30.347  31.180  1.00  0.00     0.029 A 
ATOM     39  N   UNL A   1      41.798  28.792  30.234  1.00  0.00    -0.354 N 
ATOM     40  C   UNL A   1      37.502  32.053  29.065  1.00  0.00     0.074 A 
ATOM     41  C   UNL A   1      36.619  31.021  28.562  1.00  0.00     0.031 C 
ATOM     42  C   UNL A   1      41.684  30.525  31.687  1.00  0.00     0.029 A 
ATOM     43  C   UNL A   1      42.609  29.745  30.885  1.00  0.00     0.049 A 
ATOM     44  H   UNL A   1      42.072  27.897  29.930  1.00  0.00     0.167 HD
ATOM     45  C   UNL A   1      37.312  33.300  29.588  1.00  0.00     0.037 A 
ATOM     46  C   UNL A   1      43.758  30.215  30.321  1.00  0.00     0.037 A 
ATOM     47  C   UNL A   1      38.538  33.829  30.180  1.00  0.00     0.049 A 
ATOM     48  C   UNL A   1      43.760  31.703  30.077  1.00  0.00     0.074 A 
ATOM     49  C   UNL A   1      38.997  33.837  31.488  1.00  0.00     0.029 A 
ATOM     50  N   UNL A   1      39.621  34.174  29.380  1.00  0.00    -0.354 N 
ATOM     51  N   UNL A   1      42.693  32.448  30.131  1.00  0.00    -0.248 NA
ATOM     52  C   UNL A   1      44.948  32.459  29.686  1.00  0.00     0.031 C 
ATOM     53  C   UNL A   1      40.373  34.155  31.472  1.00  0.00     0.029 A 
ATOM     54  C   UNL A   1      40.754  34.347  30.156  1.00  0.00     0.049 A 
ATOM     55  H   UNL A   1      39.588  34.281  28.403  1.00  0.00     0.167 HD
ATOM     56  C   UNL A   1      43.002  33.717  29.716  1.00  0.00     0.074 A 
ATOM     57  C   UNL A   1      44.434  33.685  29.493  1.00  0.00     0.031 C 
ATOM     58  C   UNL A   1      42.040  34.672  29.558  1.00  0.00     0.037 A 
BRANCH  45  59
ATOM     59  C   UNL A   1      35.938  33.871  29.857  1.00  0.00     0.057 A 
ATOM     60  C   UNL A   1      35.122  34.342  28.810  1.00  0.00     0.134 A 
ATOM     61  C   UNL A   1      35.387  34.029  31.138  1.00  0.00     0.134 A 
ATOM     62  F   UNL A   1      35.435  34.147  27.524  1.00  0.00    -0.206 F 
ATOM     63  C   UNL A   1      33.931  35.046  29.031  1.00  0.00     0.040 A 
ATOM     64  C   UNL A   1      34.224  34.777  31.380  1.00  0.00     0.040 A 
ATOM     65  F   UNL A   1      35.933  33.433  32.209  1.00  0.00    -0.206 F 
ATOM     66  C   UNL A   1      33.502  35.308  30.322  1.00  0.00     0.006 A 
ENDBRANCH  45  59
BRANCH  46  67
ATOM     67  C   UNL A   1      44.427  29.216  29.451  1.00  0.00     0.057 A 
ATOM     68  C   UNL A   1      45.206  28.217  30.059  1.00  0.00     0.134 A 
ATOM     69  C   UNL A   1      43.997  28.988  28.142  1.00  0.00     0.134 A 
ATOM     70  F   UNL A   1      45.654  28.382  31.314  1.00  0.00    -0.206 F 
ATOM     71  C   UNL A   1      45.435  26.987  29.442  1.00  0.00     0.040 A 
ATOM     72  C   UNL A   1      44.230  27.762  27.511  1.00  0.00     0.040 A 
ATOM     73  F   UNL A   1      43.244  29.893  27.502  1.00  0.00    -0.206 F 
ATOM     74  C   UNL A   1      44.909  26.742  28.177  1.00  0.00     0.006 A 
ENDBRANCH  46  67
BRANCH  58  75
ATOM     75  C   UNL A   1      42.244  36.022  28.923  1.00  0.00     0.057 A 
ATOM     76  C   UNL A   1      42.953  37.075  29.520  1.00  0.00     0.134 A 
ATOM     77  C   UNL A   1      41.821  36.259  27.596  1.00  0.00     0.134 A 
ATOM     78  F   UNL A   1      43.514  36.944  30.730  1.00  0.00    -0.206 F 
ATOM     79  C   UNL A   1      43.164  38.300  28.874  1.00  0.00     0.040 A 
ATOM     80  C   UNL A   1      42.071  37.458  26.924  1.00  0.00     0.040 A 
ATOM     81  F   UNL A   1      41.165  35.326  26.891  1.00  0.00    -0.206 F 
ATOM     82  C   UNL A   1      42.729  38.494  27.569  1.00  0.00     0.006 A 
ENDBRANCH  58  75
ENDBRANCH  32  33
ENDBRANCH  24  27
ENDBRANCH  22  23
ENDBRANCH   1  22
TORSDOF 11
ENDMDL
MODEL 3
REMARK VINA RESULT:     -12.6      2.061      3.259
REMARK SMILES Cc1ccc(C(=O)NCCCNC(=O)c2ccc(-c3c4nc(c(-c5c(F)cccc5F)c5ccc([nH]5)c(-c5c(F)cccc5F)c5nc(c(-c6c(F)cccc6F)c6ccc3[nH]6)C=C5)C=C4)cc2)cc1/[NH+]=C1\NCCS1
REMARK SMILES IDX 10 1 9 2 8 3 6 4 7 5 5 7 1 8 2 9 3 10 70 11 4 12 69 13 71 14
REMARK SMILES IDX 72 15 73 17 76 18 74 19 75 21 11 22 12 23 13 24 14 26 15 27
REMARK SMILES IDX 16 28 68 29 17 30 67 31 18 32 19 33 20 34 61 35 21 36 66 37
REMARK SMILES IDX 60 38 62 39 22 40 65 41 59 42 58 43 23 45 49 46 32 47 48 48
REMARK SMILES IDX 33 49 36 50 47 51 63 52 34 53 35 54 46 56 64 57 37 58 24 59
REMARK SMILES IDX 25 60 30 61 26 62 27 63 29 64 31 65 28 66 50 67 51 68 56 69
REMARK SMILES IDX 52 70 53 71 55 72 57 73 54 74 38 75 39 76 44 77 40 78 41 79
REMARK SMILES IDX 43 80 45 81 42 82
REMARK H PARENT 8 6 71 16 73 20 12 25 62 44 36 55
REMARK Flexibility Score: inf
ROOT
ATOM      1  C   UNL A   1      33.304  31.351  27.447  1.00  0.00     0.042 C 
ENDROOT
BRANCH   1   2
ATOM      2  C   UNL A   1      32.386  30.418  26.654  1.00  0.00     0.118 C 
BRANCH   2   3
ATOM      3  N   UNL A   1      32.926  30.106  25.339  1.00  0.00    -0.352 N 
ATOM      4  C   UNL A   1      32.972  28.952  24.593  1.00  0.00     0.251 C 
ATOM      5  O   UNL A   1      33.444  29.048  23.457  1.00  0.00    -0.269 OA
ATOM      6  H   UNL A   1      33.345  30.878  24.893  1.00  0.00     0.163 HD
BRANCH   4   7
ATOM      7  C   UNL A   1      32.499  27.610  25.056  1.00  0.00     0.044 A 
ATOM      8  C   UNL A   1      30.848  23.784  26.278  1.00  0.00     0.049 C 
ATOM      9  C   UNL A   1      31.441  25.099  25.860  1.00  0.00    -0.004 A 
ATOM     10  C   UNL A   1      30.596  26.121  25.408  1.00  0.00     0.008 A 
ATOM     11  C   UNL A   1      32.824  25.323  25.866  1.00  0.00     0.129 A 
ATOM     12  C   UNL A   1      31.120  27.359  25.013  1.00  0.00     0.014 A 
ATOM     13  C   UNL A   1      33.325  26.572  25.479  1.00  0.00     0.065 A 
BRANCH  11  14
ATOM     14  N   UNL A   1      33.757  24.371  26.300  1.00  0.00    -0.235 N 
ATOM     15  C   UNL A   1      34.488  23.772  25.429  1.00  0.00     0.309 C 
ATOM     16  H   UNL A   1      33.853  24.166  27.258  1.00  0.00     0.313 HD
ATOM     17  N   UNL A   1      34.526  23.856  24.071  1.00  0.00    -0.268 N 
ATOM     18  S   UNL A   1      35.683  22.609  25.996  1.00  0.00    -0.035 SA
ATOM     19  C   UNL A   1      35.515  23.060  23.385  1.00  0.00     0.246 C 
ATOM     20  H   UNL A   1      33.903  24.437  23.576  1.00  0.00     0.305 HD
ATOM     21  C   UNL A   1      35.890  21.918  24.326  1.00  0.00     0.128 C 
ENDBRANCH  11  14
ENDBRANCH   4   7
ENDBRANCH   2   3
ENDBRANCH   1   2
BRANCH   1  22
ATOM     22  C   UNL A   1      34.579  30.680  27.928  1.00  0.00     0.118 C 
BRANCH  22  23
ATOM     23  N   UNL A   1      35.301  31.434  28.947  1.00  0.00    -0.352 N 
ATOM     24  C   UNL A   1      36.459  31.071  29.621  1.00  0.00     0.251 C 
ATOM     25  H   UNL A   1      34.920  32.310  29.187  1.00  0.00     0.163 HD
ATOM     26  O   UNL A   1      36.965  31.802  30.449  1.00  0.00    -0.269 OA
BRANCH  24  27
ATOM     27  C   UNL A   1      37.128  29.815  29.206  1.00  0.00     0.039 A 
ATOM     28  C   UNL A   1      37.487  28.915  30.212  1.00  0.00     0.014 A 
ATOM     29  C   UNL A   1      37.634  29.685  27.914  1.00  0.00     0.014 A 
ATOM     30  C   UNL A   1      38.551  28.047  29.989  1.00  0.00     0.010 A 
ATOM     31  C   UNL A   1      38.739  28.879  27.715  1.00  0.00     0.010 A 
ATOM     32  C   UNL A   1      39.242  28.119  28.775  1.00  0.00    -0.014 A 
BRANCH  32  33
ATOM     33  C   UNL A   1      40.560  27.517  28.601  1.00  0.00     0.031 A 
ATOM     34  C   UNL A   1      40.691  26.084  28.283  1.00  0.00     0.074 A 
ATOM     35  C   UNL A   1      41.681  28.251  28.779  1.00  0.00     0.049 A 
ATOM     36  N   UNL A   1      41.619  25.324  28.761  1.00  0.00    -0.248 NA
ATOM     37  C   UNL A   1      39.753  25.390  27.413  1.00  0.00     0.031 C 
ATOM     38  C   UNL A   1      43.054  27.836  28.507  1.00  0.00     0.029 A 
ATOM     39  N   UNL A   1      41.809  29.473  29.449  1.00  0.00    -0.354 N 
ATOM     40  C   UNL A   1      41.569  24.133  28.074  1.00  0.00     0.074 A 
ATOM     41  C   UNL A   1      40.348  24.198  27.299  1.00  0.00     0.031 C 
ATOM     42  C   UNL A   1      43.888  28.605  29.222  1.00  0.00     0.029 A 
ATOM     43  C   UNL A   1      43.079  29.471  30.062  1.00  0.00     0.049 A 
ATOM     44  H   UNL A   1      41.140  30.193  29.487  1.00  0.00     0.167 HD
ATOM     45  C   UNL A   1      42.631  23.276  28.113  1.00  0.00     0.037 A 
ATOM     46  C   UNL A   1      43.228  29.632  31.407  1.00  0.00     0.037 A 
ATOM     47  C   UNL A   1      43.730  23.814  28.910  1.00  0.00     0.049 A 
ATOM     48  C   UNL A   1      43.887  28.464  32.098  1.00  0.00     0.074 A 
ATOM     49  C   UNL A   1      44.875  24.507  28.548  1.00  0.00     0.029 A 
ATOM     50  N   UNL A   1      43.607  23.950  30.288  1.00  0.00    -0.354 N 
ATOM     51  N   UNL A   1      44.057  27.297  31.544  1.00  0.00    -0.248 NA
ATOM     52  C   UNL A   1      44.343  28.495  33.486  1.00  0.00     0.031 C 
ATOM     53  C   UNL A   1      45.424  25.092  29.710  1.00  0.00     0.029 A 
ATOM     54  C   UNL A   1      44.620  24.753  30.783  1.00  0.00     0.049 A 
ATOM     55  H   UNL A   1      42.902  23.535  30.835  1.00  0.00     0.167 HD
ATOM     56  C   UNL A   1      44.544  26.417  32.477  1.00  0.00     0.074 A 
ATOM     57  C   UNL A   1      44.749  27.226  33.663  1.00  0.00     0.031 C 
ATOM     58  C   UNL A   1      44.698  25.091  32.196  1.00  0.00     0.037 A 
BRANCH  45  59
ATOM     59  C   UNL A   1      42.784  22.123  27.148  1.00  0.00     0.057 A 
ATOM     60  C   UNL A   1      42.020  20.947  27.283  1.00  0.00     0.134 A 
ATOM     61  C   UNL A   1      43.708  22.095  26.092  1.00  0.00     0.134 A 
ATOM     62  F   UNL A   1      41.005  20.856  28.150  1.00  0.00    -0.206 F 
ATOM     63  C   UNL A   1      42.263  19.790  26.531  1.00  0.00     0.040 A 
ATOM     64  C   UNL A   1      44.000  20.931  25.365  1.00  0.00     0.040 A 
ATOM     65  F   UNL A   1      44.342  23.208  25.694  1.00  0.00    -0.206 F 
ATOM     66  C   UNL A   1      43.289  19.763  25.600  1.00  0.00     0.006 A 
ENDBRANCH  45  59
BRANCH  46  67
ATOM     67  C   UNL A   1      42.172  30.482  32.010  1.00  0.00     0.057 A 
ATOM     68  C   UNL A   1      42.288  31.877  31.889  1.00  0.00     0.134 A 
ATOM     69  C   UNL A   1      40.910  29.966  32.317  1.00  0.00     0.134 A 
ATOM     70  F   UNL A   1      43.476  32.432  31.601  1.00  0.00    -0.206 F 
ATOM     71  C   UNL A   1      41.173  32.714  31.937  1.00  0.00     0.040 A 
ATOM     72  C   UNL A   1      39.788  30.798  32.376  1.00  0.00     0.040 A 
ATOM     73  F   UNL A   1      40.723  28.645  32.440  1.00  0.00    -0.206 F 
ATOM     74  C   UNL A   1      39.910  32.167  32.140  1.00  0.00     0.006 A 
ENDBRANCH  46  67
BRANCH  58  75
ATOM     75  C   UNL A   1      45.031  24.018  33.199  1.00  0.00     0.057 A 
ATOM     76  C   UNL A   1      46.279  23.884  33.826  1.00  0.00     0.134 A 
ATOM     77  C   UNL A   1      44.028  23.140  33.666  1.00  0.00     0.134 A 
ATOM     78  F   UNL A   1      47.287  24.729  33.566  1.00  0.00    -0.206 F 
ATOM     79  C   UNL A   1      46.533  22.903  34.792  1.00  0.00     0.040 A 
ATOM     80  C   UNL A   1      44.256  22.191  34.666  1.00  0.00     0.040 A 
ATOM     81  F   UNL A   1      42.778  23.182  33.182  1.00  0.00    -0.206 F 
ATOM     82  C   UNL A   1      45.520  22.056  35.221  1.00  0.00     0.006 A 
ENDBRANCH  58  75
ENDBRANCH  32  33
ENDBRANCH  24  27
ENDBRANCH  22  23
ENDBRANCH   1  22
TORSDOF 11
ENDMDL
