MODEL 1
REMARK VINA RESULT:     -11.2      0.000      0.000
REMARK SMILES O=C(NCCCNC(=O)c1ccccc1/C=N\NC(=S)NCc1ccccc1)c1ccc(-c2c3nc(c(-c4c(F)cccc4F)c4ccc([nH]4)c(-c4c(F)cccc4F)c4nc(c(-c5c(F)cccc5F)c5ccc2[nH]5)C=C4)C=C3)cc1
REMARK SMILES IDX 7 1 8 2 9 3 6 5 5 6 4 7 3 8 1 9 2 10 29 12 30 13 82 14 31 15
REMARK SMILES IDX 81 16 32 17 33 18 34 19 75 20 35 21 80 22 74 23 76 24 36 25
REMARK SMILES IDX 79 26 73 27 72 28 37 30 63 31 46 32 62 33 47 34 50 35 61 36
REMARK SMILES IDX 77 37 48 38 49 39 60 41 78 42 51 43 38 44 39 45 44 46 40 47
REMARK SMILES IDX 41 48 43 49 45 50 42 51 64 52 65 53 70 54 66 55 67 56 69 57
REMARK SMILES IDX 71 58 68 59 52 60 53 61 58 62 54 63 55 64 57 65 59 66 56 67
REMARK SMILES IDX 10 68 11 69 15 70 12 71 14 72 13 73 16 74 17 75 18 76 19 78
REMARK SMILES IDX 20 79 21 80 22 82 23 83 24 84 28 85 25 86 27 87 26 88
REMARK H PARENT 7 4 3 11 76 29 50 40 18 77 21 81
REMARK Flexibility Score: inf
ROOT
ATOM      1  N   UNL A   1      32.636  29.312  25.924  1.00  0.00    -0.352 N 
ATOM      2  C   UNL A   1      33.397  28.152  25.758  1.00  0.00     0.251 C 
ATOM      3  O   UNL A   1      34.242  28.263  26.688  1.00  0.00    -0.269 OA
ATOM      4  H   UNL A   1      32.978  29.572  26.809  1.00  0.00     0.163 HD
ENDROOT
BRANCH   1   5
ATOM      5  C   UNL A   1      31.635  30.497  25.725  1.00  0.00     0.118 C 
BRANCH   5   6
ATOM      6  C   UNL A   1      31.493  31.773  26.600  1.00  0.00     0.042 C 
BRANCH   6   7
ATOM      7  C   UNL A   1      32.725  32.285  27.372  1.00  0.00     0.118 C 
BRANCH   7   8
ATOM      8  N   UNL A   1      32.638  33.732  27.555  1.00  0.00    -0.352 N 
ATOM      9  O   UNL A   1      32.528  35.657  28.668  1.00  0.00    -0.269 OA
ATOM     10  C   UNL A   1      33.102  34.579  28.536  1.00  0.00     0.251 C 
ATOM     11  H   UNL A   1      32.152  34.193  26.835  1.00  0.00     0.163 HD
BRANCH  10  12
ATOM     12  C   UNL A   1      34.297  34.303  29.386  1.00  0.00     0.039 A 
ATOM     13  C   UNL A   1      34.203  33.700  30.641  1.00  0.00     0.014 A 
ATOM     14  C   UNL A   1      35.572  34.443  28.802  1.00  0.00     0.014 A 
ATOM     15  C   UNL A   1      35.356  33.245  31.298  1.00  0.00     0.010 A 
ATOM     16  C   UNL A   1      36.720  33.940  29.434  1.00  0.00     0.010 A 
ATOM     17  C   UNL A   1      36.617  33.305  30.678  1.00  0.00    -0.014 A 
BRANCH  17  18
ATOM     18  C   UNL A   1      37.758  32.523  31.239  1.00  0.00     0.031 A 
ATOM     19  C   UNL A   1      38.402  31.392  30.489  1.00  0.00     0.074 A 
ATOM     20  C   UNL A   1      38.195  32.837  32.478  1.00  0.00     0.049 A 
ATOM     21  N   UNL A   1      39.399  30.623  30.857  1.00  0.00    -0.248 NA
ATOM     22  C   UNL A   1      37.860  31.072  29.162  1.00  0.00     0.031 C 
ATOM     23  C   UNL A   1      37.618  33.882  33.330  1.00  0.00     0.029 A 
ATOM     24  N   UNL A   1      39.213  32.319  33.241  1.00  0.00    -0.354 N 
ATOM     25  C   UNL A   1      39.596  29.724  29.817  1.00  0.00     0.074 A 
ATOM     26  C   UNL A   1      38.606  30.033  28.805  1.00  0.00     0.031 C 
ATOM     27  C   UNL A   1      38.306  33.948  34.478  1.00  0.00     0.029 A 
ATOM     28  C   UNL A   1      39.335  32.914  34.475  1.00  0.00     0.049 A 
ATOM     29  H   UNL A   1      39.800  31.592  32.933  1.00  0.00     0.167 HD
ATOM     30  C   UNL A   1      40.522  28.738  29.718  1.00  0.00     0.037 A 
ATOM     31  C   UNL A   1      40.159  32.646  35.506  1.00  0.00     0.037 A 
ATOM     32  C   UNL A   1      41.516  28.447  30.721  1.00  0.00     0.049 A 
ATOM     33  C   UNL A   1      41.157  31.533  35.372  1.00  0.00     0.074 A 
ATOM     34  C   UNL A   1      42.549  27.525  30.668  1.00  0.00     0.029 A 
ATOM     35  N   UNL A   1      41.592  29.057  31.963  1.00  0.00    -0.354 N 
ATOM     36  N   UNL A   1      41.386  30.754  34.343  1.00  0.00    -0.248 NA
ATOM     37  C   UNL A   1      42.002  31.251  36.541  1.00  0.00     0.031 C 
ATOM     38  C   UNL A   1      43.215  27.540  31.898  1.00  0.00     0.029 A 
ATOM     39  C   UNL A   1      42.625  28.501  32.702  1.00  0.00     0.049 A 
ATOM     40  H   UNL A   1      40.999  29.778  32.276  1.00  0.00     0.167 HD
ATOM     41  C   UNL A   1      42.399  29.892  34.739  1.00  0.00     0.074 A 
ATOM     42  C   UNL A   1      42.764  30.265  36.090  1.00  0.00     0.031 C 
ATOM     43  C   UNL A   1      42.968  28.874  34.049  1.00  0.00     0.037 A 
BRANCH  30  44
ATOM     44  C   UNL A   1      40.512  27.876  28.489  1.00  0.00     0.057 A 
ATOM     45  C   UNL A   1      41.251  28.208  27.347  1.00  0.00     0.134 A 
ATOM     46  C   UNL A   1      39.839  26.646  28.488  1.00  0.00     0.134 A 
ATOM     47  F   UNL A   1      41.918  29.370  27.282  1.00  0.00    -0.206 F 
ATOM     48  C   UNL A   1      41.314  27.351  26.244  1.00  0.00     0.040 A 
ATOM     49  C   UNL A   1      39.911  25.774  27.400  1.00  0.00     0.040 A 
ATOM     50  F   UNL A   1      39.125  26.261  29.556  1.00  0.00    -0.206 F 
ATOM     51  C   UNL A   1      40.651  26.126  26.273  1.00  0.00     0.006 A 
ENDBRANCH  30  44
BRANCH  31  52
ATOM     52  C   UNL A   1      40.045  33.414  36.773  1.00  0.00     0.057 A 
ATOM     53  C   UNL A   1      40.832  34.547  37.014  1.00  0.00     0.134 A 
ATOM     54  C   UNL A   1      39.155  33.022  37.781  1.00  0.00     0.134 A 
ATOM     55  F   UNL A   1      41.720  34.959  36.097  1.00  0.00    -0.206 F 
ATOM     56  C   UNL A   1      40.749  35.251  38.217  1.00  0.00     0.040 A 
ATOM     57  C   UNL A   1      39.041  33.735  38.975  1.00  0.00     0.040 A 
ATOM     58  F   UNL A   1      38.371  31.948  37.612  1.00  0.00    -0.206 F 
ATOM     59  C   UNL A   1      39.847  34.848  39.199  1.00  0.00     0.006 A 
ENDBRANCH  31  52
BRANCH  43  60
ATOM     60  C   UNL A   1      44.039  28.094  34.748  1.00  0.00     0.057 A 
ATOM     61  C   UNL A   1      45.379  28.500  34.713  1.00  0.00     0.134 A 
ATOM     62  C   UNL A   1      43.728  26.945  35.485  1.00  0.00     0.134 A 
ATOM     63  F   UNL A   1      45.744  29.582  34.008  1.00  0.00    -0.206 F 
ATOM     64  C   UNL A   1      46.376  27.780  35.374  1.00  0.00     0.040 A 
ATOM     65  C   UNL A   1      44.712  26.230  36.170  1.00  0.00     0.040 A 
ATOM     66  F   UNL A   1      42.463  26.507  35.561  1.00  0.00    -0.206 F 
ATOM     67  C   UNL A   1      46.041  26.646  36.111  1.00  0.00     0.006 A 
ENDBRANCH  43  60
ENDBRANCH  17  18
ENDBRANCH  10  12
ENDBRANCH   7   8
ENDBRANCH   6   7
ENDBRANCH   5   6
ENDBRANCH   1   5
BRANCH   2  68
ATOM     68  C   UNL A   1      33.646  26.805  24.918  1.00  0.00     0.048 A 
ATOM     69  C   UNL A   1      34.051  25.810  25.888  1.00  0.00     0.014 A 
ATOM     70  C   UNL A   1      33.684  26.242  23.591  1.00  0.00     0.007 A 
ATOM     71  C   UNL A   1      34.521  24.504  25.633  1.00  0.00     0.001 A 
ATOM     72  C   UNL A   1      34.234  24.924  23.351  1.00  0.00     0.010 A 
ATOM     73  C   UNL A   1      34.647  24.065  24.346  1.00  0.00     0.001 A 
BRANCH  70  74
ATOM     74  C   UNL A   1      33.072  26.470  22.245  1.00  0.00     0.142 C 
ATOM     75  N   UNL A   1      32.570  27.504  21.632  1.00  0.00    -0.181 NA
BRANCH  75  76
ATOM     76  N   UNL A   1      32.128  28.502  22.394  1.00  0.00    -0.254 N 
ATOM     77  H   UNL A   1      32.769  29.178  22.716  1.00  0.00     0.193 HD
BRANCH  76  78
ATOM     78  C   UNL A   1      30.829  28.615  22.737  1.00  0.00     0.187 C 
ATOM     79  S   UNL A   1      29.909  29.801  22.002  1.00  0.00    -0.039 S 
BRANCH  78  80
ATOM     80  N   UNL A   1      30.321  27.832  23.732  1.00  0.00    -0.357 N 
ATOM     81  H   UNL A   1      30.518  28.191  24.627  1.00  0.00     0.163 HD
BRANCH  80  82
ATOM     82  C   UNL A   1      29.540  26.568  23.792  1.00  0.00     0.151 C 
BRANCH  82  83
ATOM     83  C   UNL A   1      30.177  25.323  24.480  1.00  0.00    -0.029 A 
ATOM     84  C   UNL A   1      30.348  25.105  25.866  1.00  0.00     0.005 A 
ATOM     85  C   UNL A   1      30.556  24.241  23.674  1.00  0.00     0.005 A 
ATOM     86  C   UNL A   1      30.863  23.924  26.419  1.00  0.00     0.000 A 
ATOM     87  C   UNL A   1      31.112  23.066  24.211  1.00  0.00     0.000 A 
ATOM     88  C   UNL A   1      31.257  22.902  25.584  1.00  0.00     0.000 A 
ENDBRANCH  82  83
ENDBRANCH  80  82
ENDBRANCH  78  80
ENDBRANCH  76  78
ENDBRANCH  75  76
ENDBRANCH  70  74
ENDBRANCH   2  68
TORSDOF 16
ENDMDL
MODEL 2
REMARK VINA RESULT:     -11.1      1.718      6.689
REMARK SMILES O=C(NCCCNC(=O)c1ccccc1/C=N\NC(=S)NCc1ccccc1)c1ccc(-c2c3nc(c(-c4c(F)cccc4F)c4ccc([nH]4)c(-c4c(F)cccc4F)c4nc(c(-c5c(F)cccc5F)c5ccc2[nH]5)C=C4)C=C3)cc1
REMARK SMILES IDX 7 1 8 2 9 3 6 5 5 6 4 7 3 8 1 9 2 10 29 12 30 13 82 14 31 15
REMARK SMILES IDX 81 16 32 17 33 18 34 19 75 20 35 21 80 22 74 23 76 24 36 25
REMARK SMILES IDX 79 26 73 27 72 28 37 30 63 31 46 32 62 33 47 34 50 35 61 36
REMARK SMILES IDX 77 37 48 38 49 39 60 41 78 42 51 43 38 44 39 45 44 46 40 47
REMARK SMILES IDX 41 48 43 49 45 50 42 51 64 52 65 53 70 54 66 55 67 56 69 57
REMARK SMILES IDX 71 58 68 59 52 60 53 61 58 62 54 63 55 64 57 65 59 66 56 67
REMARK SMILES IDX 10 68 11 69 15 70 12 71 14 72 13 73 16 74 17 75 18 76 19 78
REMARK SMILES IDX 20 79 21 80 22 82 23 83 24 84 28 85 25 86 27 87 26 88
REMARK H PARENT 7 4 3 11 76 29 50 40 18 77 21 81
REMARK Flexibility Score: inf
ROOT
ATOM      1  N   UNL A   1      33.003  29.159  27.514  1.00  0.00    -0.352 N 
ATOM      2  C   UNL A   1      32.059  28.242  27.042  1.00  0.00     0.251 C 
ATOM      3  O   UNL A   1      31.772  27.604  28.091  1.00  0.00    -0.269 OA
ATOM      4  H   UNL A   1      32.854  29.021  28.477  1.00  0.00     0.163 HD
ENDROOT
BRANCH   1   5
ATOM      5  C   UNL A   1      34.122  30.246  27.623  1.00  0.00     0.118 C 
BRANCH   5   6
ATOM      6  C   UNL A   1      33.945  31.790  27.625  1.00  0.00     0.042 C 
BRANCH   6   7
ATOM      7  C   UNL A   1      32.519  32.375  27.626  1.00  0.00     0.118 C 
BRANCH   7   8
ATOM      8  N   UNL A   1      32.574  33.834  27.616  1.00  0.00    -0.352 N 
ATOM      9  O   UNL A   1      32.620  35.892  28.465  1.00  0.00    -0.269 OA
ATOM     10  C   UNL A   1      33.085  34.756  28.502  1.00  0.00     0.251 C 
ATOM     11  H   UNL A   1      32.164  34.240  26.818  1.00  0.00     0.163 HD
BRANCH  10  12
ATOM     12  C   UNL A   1      34.213  34.481  29.439  1.00  0.00     0.039 A 
ATOM     13  C   UNL A   1      34.027  33.868  30.679  1.00  0.00     0.014 A 
ATOM     14  C   UNL A   1      35.527  34.636  28.957  1.00  0.00     0.014 A 
ATOM     15  C   UNL A   1      35.129  33.415  31.420  1.00  0.00     0.010 A 
ATOM     16  C   UNL A   1      36.627  34.136  29.672  1.00  0.00     0.010 A 
ATOM     17  C   UNL A   1      36.434  33.490  30.900  1.00  0.00    -0.014 A 
BRANCH  17  18
ATOM     18  C   UNL A   1      37.534  32.712  31.542  1.00  0.00     0.031 A 
ATOM     19  C   UNL A   1      38.096  33.077  32.886  1.00  0.00     0.074 A 
ATOM     20  C   UNL A   1      38.053  31.666  30.862  1.00  0.00     0.049 A 
ATOM     21  N   UNL A   1      39.056  32.493  33.563  1.00  0.00    -0.248 NA
ATOM     22  C   UNL A   1      37.517  34.247  33.560  1.00  0.00     0.031 C 
ATOM     23  C   UNL A   1      37.629  31.243  29.525  1.00  0.00     0.029 A 
ATOM     24  N   UNL A   1      39.042  30.771  31.190  1.00  0.00    -0.354 N 
ATOM     25  C   UNL A   1      39.205  33.228  34.732  1.00  0.00     0.074 A 
ATOM     26  C   UNL A   1      38.245  34.311  34.670  1.00  0.00     0.031 C 
ATOM     27  C   UNL A   1      38.327  30.158  29.160  1.00  0.00     0.029 A 
ATOM     28  C   UNL A   1      39.291  29.841  30.208  1.00  0.00     0.049 A 
ATOM     29  H   UNL A   1      39.526  30.793  32.047  1.00  0.00     0.167 HD
ATOM     30  C   UNL A   1      40.062  33.011  35.761  1.00  0.00     0.037 A 
ATOM     31  C   UNL A   1      40.209  28.857  30.137  1.00  0.00     0.037 A 
ATOM     32  C   UNL A   1      41.003  31.921  35.824  1.00  0.00     0.049 A 
ATOM     33  C   UNL A   1      41.156  28.659  31.284  1.00  0.00     0.074 A 
ATOM     34  C   UNL A   1      41.849  31.573  36.865  1.00  0.00     0.029 A 
ATOM     35  N   UNL A   1      41.239  31.016  34.802  1.00  0.00    -0.354 N 
ATOM     36  N   UNL A   1      41.220  29.311  32.420  1.00  0.00    -0.248 NA
ATOM     37  C   UNL A   1      42.167  27.602  31.138  1.00  0.00     0.031 C 
ATOM     38  C   UNL A   1      42.633  30.491  36.452  1.00  0.00     0.029 A 
ATOM     39  C   UNL A   1      42.246  30.137  35.170  1.00  0.00     0.049 A 
ATOM     40  H   UNL A   1      40.762  30.999  33.941  1.00  0.00     0.167 HD
ATOM     41  C   UNL A   1      42.273  28.743  33.122  1.00  0.00     0.074 A 
ATOM     42  C   UNL A   1      42.800  27.674  32.301  1.00  0.00     0.031 C 
ATOM     43  C   UNL A   1      42.768  29.086  34.337  1.00  0.00     0.037 A 
BRANCH  30  44
ATOM     44  C   UNL A   1      40.046  33.975  36.912  1.00  0.00     0.057 A 
ATOM     45  C   UNL A   1      39.216  33.785  38.024  1.00  0.00     0.134 A 
ATOM     46  C   UNL A   1      40.948  35.047  36.956  1.00  0.00     0.134 A 
ATOM     47  F   UNL A   1      38.329  32.777  38.047  1.00  0.00    -0.206 F 
ATOM     48  C   UNL A   1      39.278  34.631  39.134  1.00  0.00     0.040 A 
ATOM     49  C   UNL A   1      41.031  35.887  38.067  1.00  0.00     0.040 A 
ATOM     50  F   UNL A   1      41.781  35.276  35.930  1.00  0.00    -0.206 F 
ATOM     51  C   UNL A   1      40.194  35.680  39.162  1.00  0.00     0.006 A 
ENDBRANCH  30  44
BRANCH  31  52
ATOM     52  C   UNL A   1      40.306  28.013  28.918  1.00  0.00     0.057 A 
ATOM     53  C   UNL A   1      41.057  28.417  27.807  1.00  0.00     0.134 A 
ATOM     54  C   UNL A   1      39.636  26.786  28.830  1.00  0.00     0.134 A 
ATOM     55  F   UNL A   1      41.702  29.593  27.820  1.00  0.00    -0.206 F 
ATOM     56  C   UNL A   1      41.123  27.641  26.649  1.00  0.00     0.040 A 
ATOM     57  C   UNL A   1      39.718  25.986  27.690  1.00  0.00     0.040 A 
ATOM     58  F   UNL A   1      38.903  26.340  29.860  1.00  0.00    -0.206 F 
ATOM     59  C   UNL A   1      40.457  26.418  26.591  1.00  0.00     0.006 A 
ENDBRANCH  31  52
BRANCH  43  60
ATOM     60  C   UNL A   1      43.939  28.298  34.841  1.00  0.00     0.057 A 
ATOM     61  C   UNL A   1      45.254  28.741  34.650  1.00  0.00     0.134 A 
ATOM     62  C   UNL A   1      43.752  27.102  35.544  1.00  0.00     0.134 A 
ATOM     63  F   UNL A   1      45.499  29.870  33.968  1.00  0.00    -0.206 F 
ATOM     64  C   UNL A   1      46.344  28.013  35.129  1.00  0.00     0.040 A 
ATOM     65  C   UNL A   1      44.832  26.377  36.048  1.00  0.00     0.040 A 
ATOM     66  F   UNL A   1      42.517  26.626  35.763  1.00  0.00    -0.206 F 
ATOM     67  C   UNL A   1      46.134  26.831  35.838  1.00  0.00     0.006 A 
ENDBRANCH  43  60
ENDBRANCH  17  18
ENDBRANCH  10  12
ENDBRANCH   7   8
ENDBRANCH   6   7
ENDBRANCH   5   6
ENDBRANCH   1   5
BRANCH   2  68
ATOM     68  C   UNL A   1      31.232  27.677  25.785  1.00  0.00     0.048 A 
ATOM     69  C   UNL A   1      31.334  28.696  24.762  1.00  0.00     0.014 A 
ATOM     70  C   UNL A   1      30.392  26.600  25.325  1.00  0.00     0.007 A 
ATOM     71  C   UNL A   1      30.658  28.739  23.524  1.00  0.00     0.001 A 
ATOM     72  C   UNL A   1      29.658  26.701  24.080  1.00  0.00     0.010 A 
ATOM     73  C   UNL A   1      29.782  27.746  23.192  1.00  0.00     0.001 A 
BRANCH  70  74
ATOM     74  C   UNL A   1      30.162  25.147  25.594  1.00  0.00     0.142 C 
ATOM     75  N   UNL A   1      30.619  24.296  26.469  1.00  0.00    -0.181 NA
BRANCH  75  76
ATOM     76  N   UNL A   1      31.793  24.577  27.029  1.00  0.00    -0.254 N 
ATOM     77  H   UNL A   1      31.876  25.387  27.584  1.00  0.00     0.193 HD
BRANCH  76  78
ATOM     78  C   UNL A   1      32.872  23.786  26.858  1.00  0.00     0.187 C 
ATOM     79  S   UNL A   1      32.901  22.301  27.625  1.00  0.00    -0.039 S 
BRANCH  78  80
ATOM     80  N   UNL A   1      33.943  24.244  26.150  1.00  0.00    -0.357 N 
ATOM     81  H   UNL A   1      34.710  23.627  26.191  1.00  0.00     0.163 HD
BRANCH  80  82
ATOM     82  C   UNL A   1      34.235  25.451  25.331  1.00  0.00     0.151 C 
BRANCH  82  83
ATOM     83  C   UNL A   1      33.634  25.549  23.897  1.00  0.00    -0.029 A 
ATOM     84  C   UNL A   1      32.825  24.594  23.240  1.00  0.00     0.005 A 
ATOM     85  C   UNL A   1      33.821  26.737  23.179  1.00  0.00     0.005 A 
ATOM     86  C   UNL A   1      32.256  24.782  21.973  1.00  0.00     0.000 A 
ATOM     87  C   UNL A   1      33.290  26.926  21.890  1.00  0.00     0.000 A 
ATOM     88  C   UNL A   1      32.499  25.953  21.289  1.00  0.00     0.000 A 
ENDBRANCH  82  83
ENDBRANCH  80  82
ENDBRANCH  78  80
ENDBRANCH  76  78
ENDBRANCH  75  76
ENDBRANCH  70  74
ENDBRANCH   2  68
TORSDOF 16
ENDMDL
MODEL 3
REMARK VINA RESULT:     -11.1      0.526      6.272
REMARK SMILES O=C(NCCCNC(=O)c1ccccc1/C=N\NC(=S)NCc1ccccc1)c1ccc(-c2c3nc(c(-c4c(F)cccc4F)c4ccc([nH]4)c(-c4c(F)cccc4F)c4nc(c(-c5c(F)cccc5F)c5ccc2[nH]5)C=C4)C=C3)cc1
REMARK SMILES IDX 7 1 8 2 9 3 6 5 5 6 4 7 3 8 1 9 2 10 29 12 30 13 82 14 31 15
REMARK SMILES IDX 81 16 32 17 33 18 34 19 75 20 35 21 80 22 74 23 76 24 36 25
REMARK SMILES IDX 79 26 73 27 72 28 37 30 63 31 46 32 62 33 47 34 50 35 61 36
REMARK SMILES IDX 77 37 48 38 49 39 60 41 78 42 51 43 38 44 39 45 44 46 40 47
REMARK SMILES IDX 41 48 43 49 45 50 42 51 64 52 65 53 70 54 66 55 67 56 69 57
REMARK SMILES IDX 71 58 68 59 52 60 53 61 58 62 54 63 55 64 57 65 59 66 56 67
REMARK SMILES IDX 10 68 11 69 15 70 12 71 14 72 13 73 16 74 17 75 18 76 19 78
REMARK SMILES IDX 20 79 21 80 22 82 23 83 24 84 28 85 25 86 27 87 26 88
REMARK H PARENT 7 4 3 11 76 29 50 40 18 77 21 81
REMARK Flexibility Score: inf
ROOT
ATOM      1  N   UNL A   1      32.641  29.632  25.959  1.00  0.00    -0.352 N 
ATOM      2  C   UNL A   1      33.432  28.506  25.714  1.00  0.00     0.251 C 
ATOM      3  O   UNL A   1      34.423  28.719  26.466  1.00  0.00    -0.269 OA
ATOM      4  H   UNL A   1      33.121  29.964  26.752  1.00  0.00     0.163 HD
ENDROOT
BRANCH   1   5
ATOM      5  C   UNL A   1      31.547  30.747  25.889  1.00  0.00     0.118 C 
BRANCH   5   6
ATOM      6  C   UNL A   1      31.451  32.035  26.753  1.00  0.00     0.042 C 
BRANCH   6   7
ATOM      7  C   UNL A   1      32.741  32.622  27.359  1.00  0.00     0.118 C 
BRANCH   7   8
ATOM      8  N   UNL A   1      32.587  34.058  27.575  1.00  0.00    -0.352 N 
ATOM      9  O   UNL A   1      32.393  35.950  28.734  1.00  0.00    -0.269 OA
ATOM     10  C   UNL A   1      33.017  34.903  28.573  1.00  0.00     0.251 C 
ATOM     11  H   UNL A   1      32.074  34.511  26.869  1.00  0.00     0.163 HD
BRANCH  10  12
ATOM     12  C   UNL A   1      34.230  34.665  29.409  1.00  0.00     0.039 A 
ATOM     13  C   UNL A   1      34.155  34.324  30.760  1.00  0.00     0.014 A 
ATOM     14  C   UNL A   1      35.473  34.554  28.756  1.00  0.00     0.014 A 
ATOM     15  C   UNL A   1      35.297  33.879  31.444  1.00  0.00     0.010 A 
ATOM     16  C   UNL A   1      36.603  34.058  29.425  1.00  0.00     0.010 A 
ATOM     17  C   UNL A   1      36.517  33.684  30.772  1.00  0.00    -0.014 A 
BRANCH  17  18
ATOM     18  C   UNL A   1      37.609  32.905  31.425  1.00  0.00     0.031 A 
ATOM     19  C   UNL A   1      38.176  33.285  32.764  1.00  0.00     0.074 A 
ATOM     20  C   UNL A   1      38.115  31.842  30.763  1.00  0.00     0.049 A 
ATOM     21  N   UNL A   1      39.129  32.700  33.449  1.00  0.00    -0.248 NA
ATOM     22  C   UNL A   1      37.611  34.472  33.419  1.00  0.00     0.031 C 
ATOM     23  C   UNL A   1      37.685  31.402  29.432  1.00  0.00     0.029 A 
ATOM     24  N   UNL A   1      39.093  30.941  31.104  1.00  0.00    -0.354 N 
ATOM     25  C   UNL A   1      39.288  33.452  34.606  1.00  0.00     0.074 A 
ATOM     26  C   UNL A   1      38.341  34.545  34.527  1.00  0.00     0.031 C 
ATOM     27  C   UNL A   1      38.370  30.303  29.085  1.00  0.00     0.029 A 
ATOM     28  C   UNL A   1      39.330  29.992  30.137  1.00  0.00     0.049 A 
ATOM     29  H   UNL A   1      39.578  30.970  31.960  1.00  0.00     0.167 HD
ATOM     30  C   UNL A   1      40.143  33.242  35.637  1.00  0.00     0.037 A 
ATOM     31  C   UNL A   1      40.237  28.996  30.081  1.00  0.00     0.037 A 
ATOM     32  C   UNL A   1      41.072  32.142  35.718  1.00  0.00     0.049 A 
ATOM     33  C   UNL A   1      41.183  28.806  31.231  1.00  0.00     0.074 A 
ATOM     34  C   UNL A   1      41.914  31.801  36.764  1.00  0.00     0.029 A 
ATOM     35  N   UNL A   1      41.296  31.218  34.710  1.00  0.00    -0.354 N 
ATOM     36  N   UNL A   1      41.255  29.475  32.356  1.00  0.00    -0.248 NA
ATOM     37  C   UNL A   1      42.181  27.735  31.101  1.00  0.00     0.031 C 
ATOM     38  C   UNL A   1      42.685  30.704  36.368  1.00  0.00     0.029 A 
ATOM     39  C   UNL A   1      42.293  30.333  35.092  1.00  0.00     0.049 A 
ATOM     40  H   UNL A   1      40.818  31.193  33.850  1.00  0.00     0.167 HD
ATOM     41  C   UNL A   1      42.302  28.906  33.067  1.00  0.00     0.074 A 
ATOM     42  C   UNL A   1      42.815  27.818  32.262  1.00  0.00     0.031 C 
ATOM     43  C   UNL A   1      42.802  29.263  34.275  1.00  0.00     0.037 A 
BRANCH  30  44
ATOM     44  C   UNL A   1      40.139  34.224  36.773  1.00  0.00     0.057 A 
ATOM     45  C   UNL A   1      39.293  34.073  37.878  1.00  0.00     0.134 A 
ATOM     46  C   UNL A   1      41.068  35.274  36.810  1.00  0.00     0.134 A 
ATOM     47  F   UNL A   1      38.380  33.089  37.907  1.00  0.00    -0.206 F 
ATOM     48  C   UNL A   1      39.364  34.936  38.976  1.00  0.00     0.040 A 
ATOM     49  C   UNL A   1      41.161  36.130  37.909  1.00  0.00     0.040 A 
ATOM     50  F   UNL A   1      41.918  35.465  35.790  1.00  0.00    -0.206 F 
ATOM     51  C   UNL A   1      40.307  35.961  38.997  1.00  0.00     0.006 A 
ENDBRANCH  30  44
BRANCH  31  52
ATOM     52  C   UNL A   1      40.323  28.132  28.876  1.00  0.00     0.057 A 
ATOM     53  C   UNL A   1      39.647  26.908  28.804  1.00  0.00     0.134 A 
ATOM     54  C   UNL A   1      41.099  28.505  27.771  1.00  0.00     0.134 A 
ATOM     55  F   UNL A   1      38.907  26.484  29.838  1.00  0.00    -0.206 F 
ATOM     56  C   UNL A   1      39.754  26.080  27.685  1.00  0.00     0.040 A 
ATOM     57  C   UNL A   1      41.190  27.701  26.634  1.00  0.00     0.040 A 
ATOM     58  F   UNL A   1      41.769  29.666  27.775  1.00  0.00    -0.206 F 
ATOM     59  C   UNL A   1      40.523  26.479  26.593  1.00  0.00     0.006 A 
ENDBRANCH  31  52
BRANCH  43  60
ATOM     60  C   UNL A   1      43.964  28.469  34.791  1.00  0.00     0.057 A 
ATOM     61  C   UNL A   1      43.774  27.300  35.538  1.00  0.00     0.134 A 
ATOM     62  C   UNL A   1      45.280  28.860  34.518  1.00  0.00     0.134 A 
ATOM     63  F   UNL A   1      42.537  26.884  35.848  1.00  0.00    -0.206 F 
ATOM     64  C   UNL A   1      44.856  26.554  36.009  1.00  0.00     0.040 A 
ATOM     65  C   UNL A   1      46.369  28.110  34.963  1.00  0.00     0.040 A 
ATOM     66  F   UNL A   1      45.528  29.968  33.805  1.00  0.00    -0.206 F 
ATOM     67  C   UNL A   1      46.158  26.955  35.715  1.00  0.00     0.006 A 
ENDBRANCH  43  60
ENDBRANCH  17  18
ENDBRANCH  10  12
ENDBRANCH   7   8
ENDBRANCH   6   7
ENDBRANCH   5   6
ENDBRANCH   1   5
BRANCH   2  68
ATOM     68  C   UNL A   1      33.609  27.125  24.912  1.00  0.00     0.048 A 
ATOM     69  C   UNL A   1      34.008  26.148  25.902  1.00  0.00     0.014 A 
ATOM     70  C   UNL A   1      33.589  26.520  23.604  1.00  0.00     0.007 A 
ATOM     71  C   UNL A   1      34.426  24.819  25.677  1.00  0.00     0.001 A 
ATOM     72  C   UNL A   1      34.086  25.176  23.392  1.00  0.00     0.010 A 
ATOM     73  C   UNL A   1      34.499  24.335  24.402  1.00  0.00     0.001 A 
BRANCH  70  74
ATOM     74  C   UNL A   1      32.946  26.726  22.269  1.00  0.00     0.142 C 
ATOM     75  N   UNL A   1      32.417  27.747  21.657  1.00  0.00    -0.181 NA
BRANCH  75  76
ATOM     76  N   UNL A   1      31.975  28.745  22.419  1.00  0.00    -0.254 N 
ATOM     77  H   UNL A   1      32.623  29.395  22.778  1.00  0.00     0.193 HD
BRANCH  76  78
ATOM     78  C   UNL A   1      30.667  28.892  22.714  1.00  0.00     0.187 C 
ATOM     79  S   UNL A   1      29.799  30.080  21.921  1.00  0.00    -0.039 S 
BRANCH  78  80
ATOM     80  N   UNL A   1      30.108  28.143  23.707  1.00  0.00    -0.357 N 
ATOM     81  H   UNL A   1      30.247  28.539  24.597  1.00  0.00     0.163 HD
BRANCH  80  82
ATOM     82  C   UNL A   1      29.339  26.871  23.770  1.00  0.00     0.151 C 
BRANCH  82  83
ATOM     83  C   UNL A   1      30.023  25.609  24.376  1.00  0.00    -0.029 A 
ATOM     84  C   UNL A   1      30.262  25.338  25.742  1.00  0.00     0.005 A 
ATOM     85  C   UNL A   1      30.375  24.565  23.510  1.00  0.00     0.005 A 
ATOM     86  C   UNL A   1      30.817  24.143  26.222  1.00  0.00     0.000 A 
ATOM     87  C   UNL A   1      30.970  23.377  23.972  1.00  0.00     0.000 A 
ATOM     88  C   UNL A   1      31.183  23.160  25.328  1.00  0.00     0.000 A 
ENDBRANCH  82  83
ENDBRANCH  80  82
ENDBRANCH  78  80
ENDBRANCH  76  78
ENDBRANCH  75  76
ENDBRANCH  70  74
ENDBRANCH   2  68
TORSDOF 16
ENDMDL
