MODEL 1
REMARK VINA RESULT:     -12.4      0.000      0.000
REMARK SMILES CC1=NN(c2ccc(C(=O)NCCCNC(=O)c3ccc(-c4c5nc(c(-c6c(F)cccc6F)c6ccc([nH]6)c(-c6c(F)cccc6F)c6nc(c(-c7c(F)cccc7F)c7ccc4[nH]7)C=C6)C=C5)cc3)cc2)C(=O)/C1=C\c1ccc(N2CCCC2)cc1
REMARK SMILES IDX 12 1 11 2 9 3 10 4 8 6 5 7 6 8 73 9 7 10 72 11 4 12 1 13
REMARK SMILES IDX 2 14 3 15 76 16 74 17 77 18 75 19 78 20 79 21 88 22 80 23
REMARK SMILES IDX 87 24 81 25 82 26 83 27 86 28 84 29 85 30 13 31 14 32 15 33
REMARK SMILES IDX 16 34 17 36 18 37 19 38 71 39 20 40 70 41 21 42 22 43 23 44
REMARK SMILES IDX 64 45 24 46 69 47 63 48 65 49 25 50 68 51 62 52 61 53 26 55
REMARK SMILES IDX 52 56 35 57 51 58 36 59 39 60 50 61 66 62 37 63 38 64 49 66
REMARK SMILES IDX 67 67 40 68 27 69 28 70 33 71 29 72 30 73 32 74 34 75 31 76
REMARK SMILES IDX 53 77 54 78 59 79 55 80 56 81 58 82 60 83 57 84 41 85 42 86
REMARK SMILES IDX 47 87 43 88 44 89 46 90 48 91 45 92
REMARK H PARENT 11 5 15 35 65 54 39 65
REMARK Flexibility Score: inf
ROOT
ATOM      1  C   UNL A   1      40.703  26.831  27.890  1.00  0.00     0.118 C 
ENDROOT
BRANCH   1   2
ATOM      2  N   UNL A   1      41.015  27.277  29.236  1.00  0.00    -0.352 N 
ATOM      3  C   UNL A   1      40.431  28.187  30.082  1.00  0.00     0.251 C 
ATOM      4  O   UNL A   1      40.946  28.335  31.190  1.00  0.00    -0.269 OA
ATOM      5  H   UNL A   1      41.807  26.837  29.621  1.00  0.00     0.163 HD
BRANCH   3   6
ATOM      6  C   UNL A   1      39.191  28.945  29.750  1.00  0.00     0.039 A 
ATOM      7  C   UNL A   1      36.721  30.114  29.093  1.00  0.00     0.069 A 
ATOM      8  C   UNL A   1      36.814  29.282  30.209  1.00  0.00     0.029 A 
ATOM      9  C   UNL A   1      37.871  30.429  28.371  1.00  0.00     0.029 A 
ATOM     10  C   UNL A   1      38.039  28.671  30.508  1.00  0.00     0.016 A 
ATOM     11  C   UNL A   1      39.105  29.900  28.738  1.00  0.00     0.016 A 
BRANCH   7  12
ATOM     12  N   UNL A   1      35.489  30.618  28.663  1.00  0.00    -0.196 N 
ATOM     13  C   UNL A   1      33.491  33.551  28.137  1.00  0.00     0.069 C 
ATOM     14  C   UNL A   1      34.111  32.198  28.226  1.00  0.00     0.071 C 
ATOM     15  N   UNL A   1      35.157  31.928  28.965  1.00  0.00    -0.169 NA
ATOM     16  C   UNL A   1      33.630  31.020  27.476  1.00  0.00     0.065 C 
ATOM     17  C   UNL A   1      34.668  29.992  27.717  1.00  0.00     0.280 C 
ATOM     18  C   UNL A   1      32.478  30.893  26.807  1.00  0.00     0.024 C 
ATOM     19  O   UNL A   1      34.769  28.901  27.195  1.00  0.00    -0.267 OA
BRANCH  18  20
ATOM     20  C   UNL A   1      31.986  29.604  26.302  1.00  0.00    -0.025 A 
ATOM     21  C   UNL A   1      31.887  29.346  24.936  1.00  0.00     0.010 A 
ATOM     22  C   UNL A   1      31.610  28.605  27.205  1.00  0.00     0.010 A 
ATOM     23  C   UNL A   1      31.446  28.090  24.488  1.00  0.00     0.026 A 
ATOM     24  C   UNL A   1      31.162  27.362  26.747  1.00  0.00     0.026 A 
ATOM     25  C   UNL A   1      31.068  27.077  25.381  1.00  0.00     0.037 A 
BRANCH  25  26
ATOM     26  N   UNL A   1      30.654  25.847  24.918  1.00  0.00    -0.372 N 
ATOM     27  C   UNL A   1      30.639  24.632  25.723  1.00  0.00     0.116 C 
ATOM     28  C   UNL A   1      30.744  25.550  23.488  1.00  0.00     0.116 C 
ATOM     29  C   UNL A   1      31.138  23.558  24.765  1.00  0.00     0.023 C 
ATOM     30  C   UNL A   1      30.607  24.027  23.418  1.00  0.00     0.023 C 
ENDBRANCH  25  26
ENDBRANCH  18  20
ENDBRANCH   7  12
ENDBRANCH   3   6
ENDBRANCH   1   2
BRANCH   1  31
ATOM     31  C   UNL A   1      40.051  25.448  27.914  1.00  0.00     0.042 C 
BRANCH  31  32
ATOM     32  C   UNL A   1      39.943  24.825  26.525  1.00  0.00     0.118 C 
BRANCH  32  33
ATOM     33  N   UNL A   1      40.753  23.617  26.412  1.00  0.00    -0.352 N 
ATOM     34  C   UNL A   1      42.096  23.475  26.172  1.00  0.00     0.251 C 
ATOM     35  H   UNL A   1      40.259  22.773  26.527  1.00  0.00     0.163 HD
ATOM     36  O   UNL A   1      42.548  22.379  25.858  1.00  0.00    -0.269 OA
BRANCH  34  37
ATOM     37  C   UNL A   1      42.995  24.640  26.279  1.00  0.00     0.039 A 
ATOM     38  C   UNL A   1      43.610  24.910  27.505  1.00  0.00     0.014 A 
ATOM     39  C   UNL A   1      43.215  25.478  25.183  1.00  0.00     0.014 A 
ATOM     40  C   UNL A   1      44.504  25.976  27.610  1.00  0.00     0.010 A 
ATOM     41  C   UNL A   1      44.161  26.494  25.268  1.00  0.00     0.010 A 
ATOM     42  C   UNL A   1      44.820  26.747  26.479  1.00  0.00    -0.014 A 
BRANCH  42  43
ATOM     43  C   UNL A   1      45.869  27.797  26.532  1.00  0.00     0.031 A 
ATOM     44  C   UNL A   1      45.489  29.244  26.666  1.00  0.00     0.074 A 
ATOM     45  C   UNL A   1      47.158  27.445  26.375  1.00  0.00     0.049 A 
ATOM     46  N   UNL A   1      46.255  30.305  26.633  1.00  0.00    -0.248 NA
ATOM     47  C   UNL A   1      44.058  29.541  26.836  1.00  0.00     0.031 C 
ATOM     48  C   UNL A   1      47.646  26.075  26.197  1.00  0.00     0.029 A 
ATOM     49  N   UNL A   1      48.296  28.210  26.322  1.00  0.00    -0.354 N 
ATOM     50  C   UNL A   1      45.402  31.391  26.769  1.00  0.00     0.074 A 
ATOM     51  C   UNL A   1      44.055  30.866  26.833  1.00  0.00     0.031 C 
ATOM     52  C   UNL A   1      48.982  26.095  26.074  1.00  0.00     0.029 A 
ATOM     53  C   UNL A   1      49.442  27.480  26.112  1.00  0.00     0.049 A 
ATOM     54  H   UNL A   1      48.293  29.190  26.424  1.00  0.00     0.167 HD
ATOM     55  C   UNL A   1      45.717  32.706  26.852  1.00  0.00     0.037 A 
ATOM     56  C   UNL A   1      50.716  27.882  25.948  1.00  0.00     0.037 A 
ATOM     57  C   UNL A   1      47.060  33.220  26.793  1.00  0.00     0.049 A 
ATOM     58  C   UNL A   1      51.031  29.350  25.999  1.00  0.00     0.074 A 
ATOM     59  C   UNL A   1      47.488  34.530  26.921  1.00  0.00     0.029 A 
ATOM     60  N   UNL A   1      48.194  32.449  26.578  1.00  0.00    -0.354 N 
ATOM     61  N   UNL A   1      50.224  30.364  26.199  1.00  0.00    -0.248 NA
ATOM     62  C   UNL A   1      52.437  29.734  25.799  1.00  0.00     0.031 C 
ATOM     63  C   UNL A   1      48.871  34.560  26.723  1.00  0.00     0.029 A 
ATOM     64  C   UNL A   1      49.315  33.261  26.534  1.00  0.00     0.049 A 
ATOM     65  H   UNL A   1      48.199  31.471  26.472  1.00  0.00     0.167 HD
ATOM     66  C   UNL A   1      51.023  31.499  26.176  1.00  0.00     0.074 A 
ATOM     67  C   UNL A   1      52.383  31.048  25.961  1.00  0.00     0.031 C 
ATOM     68  C   UNL A   1      50.663  32.798  26.322  1.00  0.00     0.037 A 
BRANCH  55  69
ATOM     69  C   UNL A   1      44.586  33.683  27.010  1.00  0.00     0.057 A 
ATOM     70  C   UNL A   1      44.113  34.071  28.271  1.00  0.00     0.134 A 
ATOM     71  C   UNL A   1      43.991  34.275  25.888  1.00  0.00     0.134 A 
ATOM     72  F   UNL A   1      44.632  33.536  29.386  1.00  0.00    -0.206 F 
ATOM     73  C   UNL A   1      43.070  34.990  28.409  1.00  0.00     0.040 A 
ATOM     74  C   UNL A   1      42.969  35.219  26.016  1.00  0.00     0.040 A 
ATOM     75  F   UNL A   1      44.400  33.958  24.651  1.00  0.00    -0.206 F 
ATOM     76  C   UNL A   1      42.501  35.573  27.280  1.00  0.00     0.006 A 
ENDBRANCH  55  69
BRANCH  56  77
ATOM     77  C   UNL A   1      51.789  26.880  25.722  1.00  0.00     0.057 A 
ATOM     78  C   UNL A   1      52.181  26.521  24.427  1.00  0.00     0.134 A 
ATOM     79  C   UNL A   1      52.441  26.250  26.789  1.00  0.00     0.134 A 
ATOM     80  F   UNL A   1      51.582  27.076  23.363  1.00  0.00    -0.206 F 
ATOM     81  C   UNL A   1      53.166  25.558  24.201  1.00  0.00     0.040 A 
ATOM     82  C   UNL A   1      53.449  25.307  26.578  1.00  0.00     0.040 A 
ATOM     83  F   UNL A   1      52.120  26.554  28.055  1.00  0.00    -0.206 F 
ATOM     84  C   UNL A   1      53.807  24.952  25.280  1.00  0.00     0.006 A 
ENDBRANCH  56  77
BRANCH  68  85
ATOM     85  C   UNL A   1      51.758  33.824  26.282  1.00  0.00     0.057 A 
ATOM     86  C   UNL A   1      52.134  34.462  25.093  1.00  0.00     0.134 A 
ATOM     87  C   UNL A   1      52.409  34.219  27.459  1.00  0.00     0.134 A 
ATOM     88  F   UNL A   1      51.560  34.121  23.929  1.00  0.00    -0.206 F 
ATOM     89  C   UNL A   1      53.129  35.440  25.072  1.00  0.00     0.040 A 
ATOM     90  C   UNL A   1      53.383  35.216  27.456  1.00  0.00     0.040 A 
ATOM     91  F   UNL A   1      52.092  33.655  28.634  1.00  0.00    -0.206 F 
ATOM     92  C   UNL A   1      53.750  35.827  26.258  1.00  0.00     0.006 A 
ENDBRANCH  68  85
ENDBRANCH  42  43
ENDBRANCH  34  37
ENDBRANCH  32  33
ENDBRANCH  31  32
ENDBRANCH   1  31
TORSDOF 13
ENDMDL
MODEL 2
REMARK VINA RESULT:     -12.4      3.088      6.541
REMARK SMILES CC1=NN(c2ccc(C(=O)NCCCNC(=O)c3ccc(-c4c5nc(c(-c6c(F)cccc6F)c6ccc([nH]6)c(-c6c(F)cccc6F)c6nc(c(-c7c(F)cccc7F)c7ccc4[nH]7)C=C6)C=C5)cc3)cc2)C(=O)/C1=C\c1ccc(N2CCCC2)cc1
REMARK SMILES IDX 12 1 11 2 9 3 10 4 8 6 5 7 6 8 73 9 7 10 72 11 4 12 1 13
REMARK SMILES IDX 2 14 3 15 76 16 74 17 77 18 75 19 78 20 79 21 88 22 80 23
REMARK SMILES IDX 87 24 81 25 82 26 83 27 86 28 84 29 85 30 13 31 14 32 15 33
REMARK SMILES IDX 16 34 17 36 18 37 19 38 71 39 20 40 70 41 21 42 22 43 23 44
REMARK SMILES IDX 64 45 24 46 69 47 63 48 65 49 25 50 68 51 62 52 61 53 26 55
REMARK SMILES IDX 52 56 35 57 51 58 36 59 39 60 50 61 66 62 37 63 38 64 49 66
REMARK SMILES IDX 67 67 40 68 27 69 28 70 33 71 29 72 30 73 32 74 34 75 31 76
REMARK SMILES IDX 53 77 54 78 59 79 55 80 56 81 58 82 60 83 57 84 41 85 42 86
REMARK SMILES IDX 47 87 43 88 44 89 46 90 48 91 45 92
REMARK H PARENT 11 5 15 35 65 54 39 65
REMARK Flexibility Score: inf
ROOT
ATOM      1  C   UNL A   1      36.805  20.774  25.020  1.00  0.00     0.118 C 
ENDROOT
BRANCH   1   2
ATOM      2  N   UNL A   1      35.517  20.104  25.011  1.00  0.00    -0.352 N 
ATOM      3  C   UNL A   1      34.223  20.560  24.957  1.00  0.00     0.251 C 
ATOM      4  O   UNL A   1      33.329  19.713  24.958  1.00  0.00    -0.269 OA
ATOM      5  H   UNL A   1      35.584  19.123  25.051  1.00  0.00     0.163 HD
BRANCH   3   6
ATOM      6  C   UNL A   1      33.859  22.000  24.838  1.00  0.00     0.039 A 
ATOM      7  C   UNL A   1      32.892  24.631  24.634  1.00  0.00     0.069 A 
ATOM      8  C   UNL A   1      32.601  23.877  25.770  1.00  0.00     0.029 A 
ATOM      9  C   UNL A   1      33.735  24.106  23.655  1.00  0.00     0.029 A 
ATOM     10  C   UNL A   1      33.052  22.553  25.848  1.00  0.00     0.016 A 
ATOM     11  C   UNL A   1      34.265  22.826  23.791  1.00  0.00     0.016 A 
BRANCH   7  12
ATOM     12  N   UNL A   1      32.332  25.898  24.440  1.00  0.00    -0.196 N 
ATOM     13  C   UNL A   1      29.645  27.777  22.983  1.00  0.00     0.069 C 
ATOM     14  C   UNL A   1      30.833  27.241  23.707  1.00  0.00     0.071 C 
ATOM     15  N   UNL A   1      31.345  26.058  23.482  1.00  0.00    -0.169 NA
ATOM     16  C   UNL A   1      31.550  27.974  24.769  1.00  0.00     0.065 C 
ATOM     17  C   UNL A   1      32.496  26.976  25.320  1.00  0.00     0.280 C 
ATOM     18  C   UNL A   1      31.428  29.266  25.095  1.00  0.00     0.024 C 
ATOM     19  O   UNL A   1      33.203  27.083  26.300  1.00  0.00    -0.267 OA
BRANCH  18  20
ATOM     20  C   UNL A   1      32.359  29.953  26.000  1.00  0.00    -0.025 A 
ATOM     21  C   UNL A   1      33.691  29.556  26.113  1.00  0.00     0.010 A 
ATOM     22  C   UNL A   1      31.911  31.033  26.766  1.00  0.00     0.010 A 
ATOM     23  C   UNL A   1      34.563  30.258  26.962  1.00  0.00     0.026 A 
ATOM     24  C   UNL A   1      32.786  31.716  27.616  1.00  0.00     0.026 A 
ATOM     25  C   UNL A   1      34.129  31.345  27.735  1.00  0.00     0.037 A 
BRANCH  25  26
ATOM     26  N   UNL A   1      35.007  32.027  28.549  1.00  0.00    -0.372 N 
ATOM     27  C   UNL A   1      34.790  32.262  29.971  1.00  0.00     0.116 C 
ATOM     28  C   UNL A   1      35.900  33.027  27.963  1.00  0.00     0.116 C 
ATOM     29  C   UNL A   1      35.261  33.696  30.176  1.00  0.00     0.023 C 
ATOM     30  C   UNL A   1      36.393  33.833  29.168  1.00  0.00     0.023 C 
ENDBRANCH  25  26
ENDBRANCH  18  20
ENDBRANCH   7  12
ENDBRANCH   3   6
ENDBRANCH   1   2
BRANCH   1  31
ATOM     31  C   UNL A   1      37.946  19.756  24.993  1.00  0.00     0.042 C 
BRANCH  31  32
ATOM     32  C   UNL A   1      39.177  20.233  25.759  1.00  0.00     0.118 C 
BRANCH  32  33
ATOM     33  N   UNL A   1      40.162  19.168  25.912  1.00  0.00    -0.352 N 
ATOM     34  C   UNL A   1      41.519  19.241  26.096  1.00  0.00     0.251 C 
ATOM     35  H   UNL A   1      39.795  18.255  25.879  1.00  0.00     0.163 HD
ATOM     36  O   UNL A   1      42.211  18.239  25.948  1.00  0.00    -0.269 OA
BRANCH  34  37
ATOM     37  C   UNL A   1      42.149  20.524  26.462  1.00  0.00     0.039 A 
ATOM     38  C   UNL A   1      42.695  21.322  25.454  1.00  0.00     0.014 A 
ATOM     39  C   UNL A   1      42.222  20.930  27.797  1.00  0.00     0.014 A 
ATOM     40  C   UNL A   1      43.247  22.563  25.776  1.00  0.00     0.010 A 
ATOM     41  C   UNL A   1      42.706  22.197  28.109  1.00  0.00     0.010 A 
ATOM     42  C   UNL A   1      43.214  23.028  27.101  1.00  0.00    -0.014 A 
BRANCH  42  43
ATOM     43  C   UNL A   1      43.669  24.398  27.447  1.00  0.00     0.031 A 
ATOM     44  C   UNL A   1      42.678  25.442  27.873  1.00  0.00     0.074 A 
ATOM     45  C   UNL A   1      44.969  24.716  27.296  1.00  0.00     0.049 A 
ATOM     46  N   UNL A   1      42.873  26.713  28.122  1.00  0.00    -0.248 NA
ATOM     47  C   UNL A   1      41.279  25.010  28.016  1.00  0.00     0.031 C 
ATOM     48  C   UNL A   1      46.019  23.796  26.852  1.00  0.00     0.029 A 
ATOM     49  N   UNL A   1      45.628  25.905  27.483  1.00  0.00    -0.354 N 
ATOM     50  C   UNL A   1      41.626  27.232  28.440  1.00  0.00     0.074 A 
ATOM     51  C   UNL A   1      40.672  26.152  28.305  1.00  0.00     0.031 C 
ATOM     52  C   UNL A   1      47.191  24.448  26.819  1.00  0.00     0.029 A 
ATOM     53  C   UNL A   1      46.969  25.843  27.188  1.00  0.00     0.049 A 
ATOM     54  H   UNL A   1      45.183  26.725  27.798  1.00  0.00     0.167 HD
ATOM     55  C   UNL A   1      41.309  28.489  28.830  1.00  0.00     0.037 A 
ATOM     56  C   UNL A   1      47.910  26.805  27.195  1.00  0.00     0.037 A 
ATOM     57  C   UNL A   1      42.265  29.557  28.969  1.00  0.00     0.049 A 
ATOM     58  C   UNL A   1      47.523  28.204  27.587  1.00  0.00     0.074 A 
ATOM     59  C   UNL A   1      42.053  30.852  29.408  1.00  0.00     0.029 A 
ATOM     60  N   UNL A   1      43.614  29.456  28.659  1.00  0.00    -0.354 N 
ATOM     61  N   UNL A   1      46.353  28.665  27.955  1.00  0.00    -0.248 NA
ATOM     62  C   UNL A   1      48.587  29.217  27.563  1.00  0.00     0.031 C 
ATOM     63  C   UNL A   1      43.260  31.551  29.306  1.00  0.00     0.029 A 
ATOM     64  C   UNL A   1      44.238  30.675  28.864  1.00  0.00     0.049 A 
ATOM     65  H   UNL A   1      44.061  28.638  28.341  1.00  0.00     0.167 HD
ATOM     66  C   UNL A   1      46.543  30.012  28.233  1.00  0.00     0.074 A 
ATOM     67  C   UNL A   1      47.947  30.290  28.007  1.00  0.00     0.031 C 
ATOM     68  C   UNL A   1      45.638  30.936  28.638  1.00  0.00     0.037 A 
BRANCH  55  69
ATOM     69  C   UNL A   1      39.866  28.783  29.129  1.00  0.00     0.057 A 
ATOM     70  C   UNL A   1      38.972  29.195  28.132  1.00  0.00     0.134 A 
ATOM     71  C   UNL A   1      39.354  28.611  30.422  1.00  0.00     0.134 A 
ATOM     72  F   UNL A   1      39.398  29.389  26.875  1.00  0.00    -0.206 F 
ATOM     73  C   UNL A   1      37.629  29.453  28.416  1.00  0.00     0.040 A 
ATOM     74  C   UNL A   1      38.006  28.835  30.710  1.00  0.00     0.040 A 
ATOM     75  F   UNL A   1      40.151  28.209  31.424  1.00  0.00    -0.206 F 
ATOM     76  C   UNL A   1      37.141  29.265  29.707  1.00  0.00     0.006 A 
ENDBRANCH  55  69
BRANCH  56  77
ATOM     77  C   UNL A   1      49.310  26.480  26.821  1.00  0.00     0.057 A 
ATOM     78  C   UNL A   1      49.777  26.691  25.518  1.00  0.00     0.134 A 
ATOM     79  C   UNL A   1      50.212  25.943  27.748  1.00  0.00     0.134 A 
ATOM     80  F   UNL A   1      48.957  27.186  24.580  1.00  0.00    -0.206 F 
ATOM     81  C   UNL A   1      51.081  26.359  25.145  1.00  0.00     0.040 A 
ATOM     82  C   UNL A   1      51.527  25.635  27.397  1.00  0.00     0.040 A 
ATOM     83  F   UNL A   1      49.832  25.724  29.016  1.00  0.00    -0.206 F 
ATOM     84  C   UNL A   1      51.962  25.835  26.089  1.00  0.00     0.006 A 
ENDBRANCH  56  77
BRANCH  68  85
ATOM     85  C   UNL A   1      46.140  32.328  28.892  1.00  0.00     0.057 A 
ATOM     86  C   UNL A   1      46.148  33.308  27.891  1.00  0.00     0.134 A 
ATOM     87  C   UNL A   1      46.572  32.707  30.171  1.00  0.00     0.134 A 
ATOM     88  F   UNL A   1      45.761  33.007  26.643  1.00  0.00    -0.206 F 
ATOM     89  C   UNL A   1      46.585  34.608  28.147  1.00  0.00     0.040 A 
ATOM     90  C   UNL A   1      46.982  34.011  30.446  1.00  0.00     0.040 A 
ATOM     91  F   UNL A   1      46.582  31.821  31.177  1.00  0.00    -0.206 F 
ATOM     92  C   UNL A   1      46.993  34.966  29.431  1.00  0.00     0.006 A 
ENDBRANCH  68  85
ENDBRANCH  42  43
ENDBRANCH  34  37
ENDBRANCH  32  33
ENDBRANCH  31  32
ENDBRANCH   1  31
TORSDOF 13
ENDMDL
MODEL 3
REMARK VINA RESULT:     -12.3      4.900     10.943
REMARK SMILES CC1=NN(c2ccc(C(=O)NCCCNC(=O)c3ccc(-c4c5nc(c(-c6c(F)cccc6F)c6ccc([nH]6)c(-c6c(F)cccc6F)c6nc(c(-c7c(F)cccc7F)c7ccc4[nH]7)C=C6)C=C5)cc3)cc2)C(=O)/C1=C\c1ccc(N2CCCC2)cc1
REMARK SMILES IDX 12 1 11 2 9 3 10 4 8 6 5 7 6 8 73 9 7 10 72 11 4 12 1 13
REMARK SMILES IDX 2 14 3 15 76 16 74 17 77 18 75 19 78 20 79 21 88 22 80 23
REMARK SMILES IDX 87 24 81 25 82 26 83 27 86 28 84 29 85 30 13 31 14 32 15 33
REMARK SMILES IDX 16 34 17 36 18 37 19 38 71 39 20 40 70 41 21 42 22 43 23 44
REMARK SMILES IDX 64 45 24 46 69 47 63 48 65 49 25 50 68 51 62 52 61 53 26 55
REMARK SMILES IDX 52 56 35 57 51 58 36 59 39 60 50 61 66 62 37 63 38 64 49 66
REMARK SMILES IDX 67 67 40 68 27 69 28 70 33 71 29 72 30 73 32 74 34 75 31 76
REMARK SMILES IDX 53 77 54 78 59 79 55 80 56 81 58 82 60 83 57 84 41 85 42 86
REMARK SMILES IDX 47 87 43 88 44 89 46 90 48 91 45 92
REMARK H PARENT 11 5 15 35 65 54 39 65
REMARK Flexibility Score: inf
ROOT
ATOM      1  C   UNL A   1      42.761  20.694  26.116  1.00  0.00     0.118 C 
ENDROOT
BRANCH   1   2
ATOM      2  N   UNL A   1      42.952  21.998  25.507  1.00  0.00    -0.352 N 
ATOM      3  C   UNL A   1      43.323  23.222  26.006  1.00  0.00     0.251 C 
ATOM      4  O   UNL A   1      43.403  24.154  25.206  1.00  0.00    -0.269 OA
ATOM      5  H   UNL A   1      42.782  22.007  24.537  1.00  0.00     0.163 HD
BRANCH   3   6
ATOM      6  C   UNL A   1      43.685  23.456  27.433  1.00  0.00     0.039 A 
ATOM      7  C   UNL A   1      44.174  24.119  30.120  1.00  0.00     0.069 A 
ATOM      8  C   UNL A   1      42.887  23.754  29.724  1.00  0.00     0.029 A 
ATOM      9  C   UNL A   1      45.220  24.062  29.200  1.00  0.00     0.029 A 
ATOM     10  C   UNL A   1      42.642  23.463  28.376  1.00  0.00     0.016 A 
ATOM     11  C   UNL A   1      44.985  23.670  27.885  1.00  0.00     0.016 A 
BRANCH   7  12
ATOM     12  N   UNL A   1      44.434  24.571  31.418  1.00  0.00    -0.196 N 
ATOM     13  C   UNL A   1      46.482  24.212  34.342  1.00  0.00     0.069 C 
ATOM     14  C   UNL A   1      45.526  24.585  33.261  1.00  0.00     0.071 C 
ATOM     15  N   UNL A   1      45.243  23.810  32.245  1.00  0.00    -0.169 NA
ATOM     16  C   UNL A   1      44.809  25.874  33.203  1.00  0.00     0.065 C 
ATOM     17  C   UNL A   1      44.162  25.868  31.871  1.00  0.00     0.280 C 
ATOM     18  C   UNL A   1      44.703  26.794  34.170  1.00  0.00     0.024 C 
ATOM     19  O   UNL A   1      43.573  26.778  31.325  1.00  0.00    -0.267 OA
BRANCH  18  20
ATOM     20  C   UNL A   1      43.768  27.925  34.098  1.00  0.00    -0.025 A 
ATOM     21  C   UNL A   1      44.152  29.154  33.564  1.00  0.00     0.010 A 
ATOM     22  C   UNL A   1      42.460  27.774  34.567  1.00  0.00     0.010 A 
ATOM     23  C   UNL A   1      43.223  30.203  33.477  1.00  0.00     0.026 A 
ATOM     24  C   UNL A   1      41.547  28.830  34.486  1.00  0.00     0.026 A 
ATOM     25  C   UNL A   1      41.906  30.067  33.942  1.00  0.00     0.037 A 
BRANCH  25  26
ATOM     26  N   UNL A   1      41.008  31.106  33.831  1.00  0.00    -0.372 N 
ATOM     27  C   UNL A   1      41.248  32.452  34.336  1.00  0.00     0.116 C 
ATOM     28  C   UNL A   1      39.579  30.812  33.727  1.00  0.00     0.116 C 
ATOM     29  C   UNL A   1      39.908  32.857  34.936  1.00  0.00     0.023 C 
ATOM     30  C   UNL A   1      38.903  32.150  34.038  1.00  0.00     0.023 C 
ENDBRANCH  25  26
ENDBRANCH  18  20
ENDBRANCH   7  12
ENDBRANCH   3   6
ENDBRANCH   1   2
BRANCH   1  31
ATOM     31  C   UNL A   1      41.281  20.309  26.119  1.00  0.00     0.042 C 
BRANCH  31  32
ATOM     32  C   UNL A   1      40.419  21.293  26.906  1.00  0.00     0.118 C 
BRANCH  32  33
ATOM     33  N   UNL A   1      39.233  21.690  26.154  1.00  0.00    -0.352 N 
ATOM     34  C   UNL A   1      38.577  22.893  26.114  1.00  0.00     0.251 C 
ATOM     35  H   UNL A   1      38.845  20.984  25.588  1.00  0.00     0.163 HD
ATOM     36  O   UNL A   1      37.454  22.961  25.624  1.00  0.00    -0.269 OA
BRANCH  34  37
ATOM     37  C   UNL A   1      39.214  24.104  26.667  1.00  0.00     0.039 A 
ATOM     38  C   UNL A   1      39.990  24.905  25.826  1.00  0.00     0.014 A 
ATOM     39  C   UNL A   1      39.066  24.437  28.016  1.00  0.00     0.014 A 
ATOM     40  C   UNL A   1      40.555  26.082  26.320  1.00  0.00     0.010 A 
ATOM     41  C   UNL A   1      39.567  25.645  28.489  1.00  0.00     0.010 A 
ATOM     42  C   UNL A   1      40.309  26.483  27.643  1.00  0.00    -0.014 A 
BRANCH  42  43
ATOM     43  C   UNL A   1      40.784  27.794  28.151  1.00  0.00     0.031 A 
ATOM     44  C   UNL A   1      42.252  28.055  28.325  1.00  0.00     0.074 A 
ATOM     45  C   UNL A   1      39.880  28.717  28.532  1.00  0.00     0.049 A 
ATOM     46  N   UNL A   1      42.850  29.099  28.843  1.00  0.00    -0.248 NA
ATOM     47  C   UNL A   1      43.171  26.996  27.881  1.00  0.00     0.031 C 
ATOM     48  C   UNL A   1      38.426  28.563  28.446  1.00  0.00     0.029 A 
ATOM     49  N   UNL A   1      40.049  29.962  29.082  1.00  0.00    -0.354 N 
ATOM     50  C   UNL A   1      44.209  28.819  28.795  1.00  0.00     0.074 A 
ATOM     51  C   UNL A   1      44.347  27.487  28.245  1.00  0.00     0.031 C 
ATOM     52  C   UNL A   1      37.837  29.675  28.909  1.00  0.00     0.029 A 
ATOM     53  C   UNL A   1      38.867  30.601  29.372  1.00  0.00     0.049 A 
ATOM     54  H   UNL A   1      40.933  30.361  29.255  1.00  0.00     0.167 HD
ATOM     55  C   UNL A   1      45.247  29.609  29.158  1.00  0.00     0.037 A 
ATOM     56  C   UNL A   1      38.637  31.789  29.961  1.00  0.00     0.037 A 
ATOM     57  C   UNL A   1      45.101  30.935  29.698  1.00  0.00     0.049 A 
ATOM     58  C   UNL A   1      39.807  32.627  30.397  1.00  0.00     0.074 A 
ATOM     59  C   UNL A   1      46.091  31.837  30.048  1.00  0.00     0.029 A 
ATOM     60  N   UNL A   1      43.887  31.547  29.979  1.00  0.00    -0.354 N 
ATOM     61  N   UNL A   1      41.089  32.381  30.281  1.00  0.00    -0.248 NA
ATOM     62  C   UNL A   1      39.498  33.908  31.048  1.00  0.00     0.031 C 
ATOM     63  C   UNL A   1      45.478  32.968  30.596  1.00  0.00     0.029 A 
ATOM     64  C   UNL A   1      44.105  32.799  30.530  1.00  0.00     0.049 A 
ATOM     65  H   UNL A   1      43.003  31.149  29.810  1.00  0.00     0.167 HD
ATOM     66  C   UNL A   1      41.739  33.484  30.818  1.00  0.00     0.074 A 
ATOM     67  C   UNL A   1      40.709  34.409  31.243  1.00  0.00     0.031 C 
ATOM     68  C   UNL A   1      43.070  33.711  30.946  1.00  0.00     0.037 A 
BRANCH  55  69
ATOM     69  C   UNL A   1      46.634  29.057  28.989  1.00  0.00     0.057 A 
ATOM     70  C   UNL A   1      47.252  28.290  29.986  1.00  0.00     0.134 A 
ATOM     71  C   UNL A   1      47.344  29.261  27.799  1.00  0.00     0.134 A 
ATOM     72  F   UNL A   1      46.632  28.064  31.153  1.00  0.00    -0.206 F 
ATOM     73  C   UNL A   1      48.537  27.769  29.815  1.00  0.00     0.040 A 
ATOM     74  C   UNL A   1      48.617  28.719  27.605  1.00  0.00     0.040 A 
ATOM     75  F   UNL A   1      46.810  29.978  26.799  1.00  0.00    -0.206 F 
ATOM     76  C   UNL A   1      49.220  27.976  28.619  1.00  0.00     0.006 A 
ENDBRANCH  55  69
BRANCH  56  77
ATOM     77  C   UNL A   1      37.244  32.259  30.172  1.00  0.00     0.057 A 
ATOM     78  C   UNL A   1      36.689  33.258  29.364  1.00  0.00     0.134 A 
ATOM     79  C   UNL A   1      36.437  31.731  31.188  1.00  0.00     0.134 A 
ATOM     80  F   UNL A   1      37.417  33.816  28.386  1.00  0.00    -0.206 F 
ATOM     81  C   UNL A   1      35.392  33.731  29.572  1.00  0.00     0.040 A 
ATOM     82  C   UNL A   1      35.128  32.173  31.388  1.00  0.00     0.040 A 
ATOM     83  F   UNL A   1      36.904  30.764  31.992  1.00  0.00    -0.206 F 
ATOM     84  C   UNL A   1      34.606  33.183  30.584  1.00  0.00     0.006 A 
ENDBRANCH  56  77
BRANCH  68  85
ATOM     85  C   UNL A   1      43.490  35.022  31.545  1.00  0.00     0.057 A 
ATOM     86  C   UNL A   1      43.818  35.145  32.901  1.00  0.00     0.134 A 
ATOM     87  C   UNL A   1      43.621  36.163  30.742  1.00  0.00     0.134 A 
ATOM     88  F   UNL A   1      43.702  34.095  33.727  1.00  0.00    -0.206 F 
ATOM     89  C   UNL A   1      44.242  36.361  33.441  1.00  0.00     0.040 A 
ATOM     90  C   UNL A   1      44.072  37.375  31.264  1.00  0.00     0.040 A 
ATOM     91  F   UNL A   1      43.331  36.112  29.433  1.00  0.00    -0.206 F 
ATOM     92  C   UNL A   1      44.379  37.477  32.619  1.00  0.00     0.006 A 
ENDBRANCH  68  85
ENDBRANCH  42  43
ENDBRANCH  34  37
ENDBRANCH  32  33
ENDBRANCH  31  32
ENDBRANCH   1  31
TORSDOF 13
ENDMDL
