MODEL 1
REMARK VINA RESULT:     -11.1      0.000      0.000
REMARK SMILES C[N@H+]1CCO[C@](C)(C(=O)NCCCNC(=O)c2ccc(-c3c4nc(c(-c5c(F)cccc5F)c5ccc([nH]5)c(-c5c(F)cccc5F)c5nc(c(-c6c(F)cccc6F)c6ccc3[nH]6)C=C5)C=C4)cc2)C1
REMARK SMILES IDX 13 1 12 2 11 3 10 4 8 5 9 6 6 8 1 9 2 10 3 11 71 12 4 14
REMARK SMILES IDX 5 15 7 16 14 17 15 18 16 20 17 21 18 22 70 23 19 24 69 25
REMARK SMILES IDX 20 26 21 27 22 28 63 29 23 30 68 31 62 32 64 33 24 34 67 35
REMARK SMILES IDX 61 36 60 37 25 39 51 40 34 41 50 42 35 43 38 44 49 45 65 46
REMARK SMILES IDX 36 47 37 48 48 50 66 51 39 52 26 53 27 54 32 55 28 56 29 57
REMARK SMILES IDX 31 58 33 59 30 60 52 61 53 62 58 63 54 64 55 65 57 66 59 67
REMARK SMILES IDX 56 68 40 69 41 70 46 71 42 72 43 73 45 74 47 75 44 76
REMARK H PARENT 10 7 2 13 14 19 64 38 38 49
REMARK Flexibility Score: inf
ROOT
ATOM      1  C   UNL A   1      38.819  20.246  25.711  1.00  0.00     0.118 C 
ENDROOT
BRANCH   1   2
ATOM      2  C   UNL A   1      37.734  19.887  24.709  1.00  0.00     0.042 C 
BRANCH   2   3
ATOM      3  C   UNL A   1      36.384  20.515  25.024  1.00  0.00     0.117 C 
BRANCH   3   4
ATOM      4  N   UNL A   1      35.297  19.545  25.001  1.00  0.00    -0.353 N 
ATOM      5  C   UNL A   1      33.935  19.695  25.063  1.00  0.00     0.257 C 
ATOM      6  O   UNL A   1      33.275  18.654  25.017  1.00  0.00    -0.271 OA
ATOM      7  H   UNL A   1      35.595  18.610  24.926  1.00  0.00     0.163 HD
BRANCH   5   8
ATOM      8  C   UNL A   1      33.277  21.105  25.179  1.00  0.00     0.192 C 
ATOM      9  C   UNL A   1      33.794  24.175  26.123  1.00  0.00     0.332 C 
ATOM     10  N   UNL A   1      33.275  23.047  26.880  1.00  0.00    -0.333 N 
ATOM     11  C   UNL A   1      31.806  22.953  26.880  1.00  0.00     0.290 C 
ATOM     12  C   UNL A   1      33.841  21.754  26.471  1.00  0.00     0.308 C 
ATOM     13  H   UNL A   1      33.579  23.248  27.833  1.00  0.00     0.348 HD
ATOM     14  C   UNL A   1      31.195  22.217  25.671  1.00  0.00     0.223 C 
ATOM     15  O   UNL A   1      31.845  20.971  25.374  1.00  0.00    -0.354 OA
ATOM     16  C   UNL A   1      33.478  21.815  23.829  1.00  0.00     0.059 C 
ENDBRANCH   5   8
ENDBRANCH   3   4
ENDBRANCH   2   3
ENDBRANCH   1   2
BRANCH   1  17
ATOM     17  N   UNL A   1      39.831  19.203  25.832  1.00  0.00    -0.352 N 
ATOM     18  C   UNL A   1      41.184  19.300  26.030  1.00  0.00     0.251 C 
ATOM     19  H   UNL A   1      39.487  18.284  25.760  1.00  0.00     0.163 HD
ATOM     20  O   UNL A   1      41.890  18.301  25.887  1.00  0.00    -0.269 OA
BRANCH  18  21
ATOM     21  C   UNL A   1      41.802  20.591  26.392  1.00  0.00     0.039 A 
ATOM     22  C   UNL A   1      42.165  21.479  25.376  1.00  0.00     0.014 A 
ATOM     23  C   UNL A   1      42.040  20.925  27.728  1.00  0.00     0.014 A 
ATOM     24  C   UNL A   1      42.700  22.726  25.704  1.00  0.00     0.010 A 
ATOM     25  C   UNL A   1      42.477  22.203  28.056  1.00  0.00     0.010 A 
ATOM     26  C   UNL A   1      42.820  23.115  27.048  1.00  0.00    -0.014 A 
BRANCH  26  27
ATOM     27  C   UNL A   1      43.304  24.467  27.421  1.00  0.00     0.031 A 
ATOM     28  C   UNL A   1      42.330  25.528  27.849  1.00  0.00     0.074 A 
ATOM     29  C   UNL A   1      44.612  24.761  27.297  1.00  0.00     0.049 A 
ATOM     30  N   UNL A   1      42.552  26.785  28.142  1.00  0.00    -0.248 NA
ATOM     31  C   UNL A   1      40.914  25.134  27.927  1.00  0.00     0.031 C 
ATOM     32  C   UNL A   1      45.648  23.836  26.834  1.00  0.00     0.029 A 
ATOM     33  N   UNL A   1      45.292  25.928  27.536  1.00  0.00    -0.354 N 
ATOM     34  C   UNL A   1      41.305  27.333  28.417  1.00  0.00     0.074 A 
ATOM     35  C   UNL A   1      40.328  26.290  28.199  1.00  0.00     0.031 C 
ATOM     36  C   UNL A   1      46.835  24.463  26.844  1.00  0.00     0.029 A 
ATOM     37  C   UNL A   1      46.638  25.844  27.275  1.00  0.00     0.049 A 
ATOM     38  H   UNL A   1      44.857  26.748  27.864  1.00  0.00     0.167 HD
ATOM     39  C   UNL A   1      41.005  28.585  28.835  1.00  0.00     0.037 A 
ATOM     40  C   UNL A   1      47.605  26.776  27.362  1.00  0.00     0.037 A 
ATOM     41  C   UNL A   1      41.985  29.614  29.071  1.00  0.00     0.049 A 
ATOM     42  C   UNL A   1      47.251  28.159  27.830  1.00  0.00     0.074 A 
ATOM     43  C   UNL A   1      41.793  30.891  29.568  1.00  0.00     0.029 A 
ATOM     44  N   UNL A   1      43.342  29.483  28.815  1.00  0.00    -0.354 N 
ATOM     45  N   UNL A   1      46.079  28.642  28.168  1.00  0.00    -0.248 NA
ATOM     46  C   UNL A   1      48.353  29.124  27.937  1.00  0.00     0.031 C 
ATOM     47  C   UNL A   1      43.026  31.551  29.561  1.00  0.00     0.029 A 
ATOM     48  C   UNL A   1      43.996  30.668  29.114  1.00  0.00     0.049 A 
ATOM     49  H   UNL A   1      43.777  28.670  28.472  1.00  0.00     0.167 HD
ATOM     50  C   UNL A   1      46.305  29.959  28.548  1.00  0.00     0.074 A 
ATOM     51  C   UNL A   1      47.728  30.193  28.413  1.00  0.00     0.031 C 
ATOM     52  C   UNL A   1      45.414  30.888  28.970  1.00  0.00     0.037 A 
BRANCH  39  53
ATOM     53  C   UNL A   1      39.554  28.910  29.057  1.00  0.00     0.057 A 
ATOM     54  C   UNL A   1      38.942  28.764  30.310  1.00  0.00     0.134 A 
ATOM     55  C   UNL A   1      38.758  29.381  28.005  1.00  0.00     0.134 A 
ATOM     56  F   UNL A   1      39.642  28.306  31.359  1.00  0.00    -0.206 F 
ATOM     57  C   UNL A   1      37.586  29.037  30.498  1.00  0.00     0.040 A 
ATOM     58  C   UNL A   1      37.409  29.688  28.188  1.00  0.00     0.040 A 
ATOM     59  F   UNL A   1      39.279  29.551  26.779  1.00  0.00    -0.206 F 
ATOM     60  C   UNL A   1      36.817  29.506  29.436  1.00  0.00     0.006 A 
ENDBRANCH  39  53
BRANCH  40  61
ATOM     61  C   UNL A   1      49.004  26.418  27.018  1.00  0.00     0.057 A 
ATOM     62  C   UNL A   1      49.885  25.934  27.992  1.00  0.00     0.134 A 
ATOM     63  C   UNL A   1      49.484  26.523  25.708  1.00  0.00     0.134 A 
ATOM     64  F   UNL A   1      49.488  25.826  29.268  1.00  0.00    -0.206 F 
ATOM     65  C   UNL A   1      51.198  25.578  27.678  1.00  0.00     0.040 A 
ATOM     66  C   UNL A   1      50.787  26.148  25.375  1.00  0.00     0.040 A 
ATOM     67  F   UNL A   1      48.686  26.969  24.727  1.00  0.00    -0.206 F 
ATOM     68  C   UNL A   1      51.649  25.678  26.363  1.00  0.00     0.006 A 
ENDBRANCH  40  61
BRANCH  52  69
ATOM     69  C   UNL A   1      45.954  32.239  29.342  1.00  0.00     0.057 A 
ATOM     70  C   UNL A   1      46.021  33.289  28.418  1.00  0.00     0.134 A 
ATOM     71  C   UNL A   1      46.372  32.503  30.652  1.00  0.00     0.134 A 
ATOM     72  F   UNL A   1      45.649  33.099  27.143  1.00  0.00    -0.206 F 
ATOM     73  C   UNL A   1      46.508  34.547  28.778  1.00  0.00     0.040 A 
ATOM     74  C   UNL A   1      46.833  33.764  31.033  1.00  0.00     0.040 A 
ATOM     75  F   UNL A   1      46.325  31.544  31.590  1.00  0.00    -0.206 F 
ATOM     76  C   UNL A   1      46.908  34.789  30.091  1.00  0.00     0.006 A 
ENDBRANCH  52  69
ENDBRANCH  26  27
ENDBRANCH  18  21
ENDBRANCH   1  17
TORSDOF 10
ENDMDL
MODEL 2
REMARK VINA RESULT:     -11.0      1.572      6.698
REMARK SMILES C[N@H+]1CCO[C@](C)(C(=O)NCCCNC(=O)c2ccc(-c3c4nc(c(-c5c(F)cccc5F)c5ccc([nH]5)c(-c5c(F)cccc5F)c5nc(c(-c6c(F)cccc6F)c6ccc3[nH]6)C=C5)C=C4)cc2)C1
REMARK SMILES IDX 13 1 12 2 11 3 10 4 8 5 9 6 6 8 1 9 2 10 3 11 71 12 4 14
REMARK SMILES IDX 5 15 7 16 14 17 15 18 16 20 17 21 18 22 70 23 19 24 69 25
REMARK SMILES IDX 20 26 21 27 22 28 63 29 23 30 68 31 62 32 64 33 24 34 67 35
REMARK SMILES IDX 61 36 60 37 25 39 51 40 34 41 50 42 35 43 38 44 49 45 65 46
REMARK SMILES IDX 36 47 37 48 48 50 66 51 39 52 26 53 27 54 32 55 28 56 29 57
REMARK SMILES IDX 31 58 33 59 30 60 52 61 53 62 58 63 54 64 55 65 57 66 59 67
REMARK SMILES IDX 56 68 40 69 41 70 46 71 42 72 43 73 45 74 47 75 44 76
REMARK H PARENT 10 7 2 13 14 19 64 38 38 49
REMARK Flexibility Score: inf
ROOT
ATOM      1  C   UNL A   1      38.737  20.291  25.618  1.00  0.00     0.118 C 
ENDROOT
BRANCH   1   2
ATOM      2  C   UNL A   1      37.589  19.735  24.791  1.00  0.00     0.042 C 
BRANCH   2   3
ATOM      3  C   UNL A   1      36.259  20.426  25.057  1.00  0.00     0.117 C 
BRANCH   3   4
ATOM      4  N   UNL A   1      35.133  19.502  25.019  1.00  0.00    -0.353 N 
ATOM      5  C   UNL A   1      33.777  19.707  25.080  1.00  0.00     0.257 C 
ATOM      6  O   UNL A   1      33.075  18.694  25.019  1.00  0.00    -0.271 OA
ATOM      7  H   UNL A   1      35.392  18.556  24.934  1.00  0.00     0.163 HD
BRANCH   5   8
ATOM      8  C   UNL A   1      33.178  21.141  25.211  1.00  0.00     0.192 C 
ATOM      9  C   UNL A   1      33.802  24.165  26.236  1.00  0.00     0.332 C 
ATOM     10  N   UNL A   1      33.215  23.044  26.954  1.00  0.00    -0.333 N 
ATOM     11  C   UNL A   1      31.744  23.014  26.916  1.00  0.00     0.290 C 
ATOM     12  C   UNL A   1      33.735  21.737  26.530  1.00  0.00     0.308 C 
ATOM     13  H   UNL A   1      33.502  23.211  27.918  1.00  0.00     0.348 HD
ATOM     14  C   UNL A   1      31.134  22.331  25.675  1.00  0.00     0.223 C 
ATOM     15  O   UNL A   1      31.737  21.065  25.367  1.00  0.00    -0.354 OA
ATOM     16  C   UNL A   1      33.444  21.870  23.882  1.00  0.00     0.059 C 
ENDBRANCH   5   8
ENDBRANCH   3   4
ENDBRANCH   2   3
ENDBRANCH   1   2
BRANCH   1  17
ATOM     17  N   UNL A   1      39.841  19.348  25.740  1.00  0.00    -0.352 N 
ATOM     18  C   UNL A   1      41.155  19.560  26.071  1.00  0.00     0.251 C 
ATOM     19  H   UNL A   1      39.606  18.410  25.557  1.00  0.00     0.163 HD
ATOM     20  O   UNL A   1      41.974  18.655  25.907  1.00  0.00    -0.269 OA
BRANCH  18  21
ATOM     21  C   UNL A   1      41.598  20.865  26.601  1.00  0.00     0.039 A 
ATOM     22  C   UNL A   1      42.127  21.811  25.719  1.00  0.00     0.014 A 
ATOM     23  C   UNL A   1      41.508  21.155  27.964  1.00  0.00     0.014 A 
ATOM     24  C   UNL A   1      42.500  23.069  26.195  1.00  0.00     0.010 A 
ATOM     25  C   UNL A   1      41.784  22.439  28.419  1.00  0.00     0.010 A 
ATOM     26  C   UNL A   1      42.291  23.408  27.542  1.00  0.00    -0.014 A 
BRANCH  26  27
ATOM     27  C   UNL A   1      42.597  24.766  28.054  1.00  0.00     0.031 A 
ATOM     28  C   UNL A   1      43.994  25.115  28.488  1.00  0.00     0.074 A 
ATOM     29  C   UNL A   1      41.601  25.660  28.204  1.00  0.00     0.049 A 
ATOM     30  N   UNL A   1      44.440  26.220  29.029  1.00  0.00    -0.248 NA
ATOM     31  C   UNL A   1      45.018  24.071  28.323  1.00  0.00     0.031 C 
ATOM     32  C   UNL A   1      40.194  25.421  27.877  1.00  0.00     0.029 A 
ATOM     33  N   UNL A   1      41.617  26.944  28.685  1.00  0.00    -0.354 N 
ATOM     34  C   UNL A   1      45.786  25.997  29.286  1.00  0.00     0.074 A 
ATOM     35  C   UNL A   1      46.070  24.634  28.896  1.00  0.00     0.031 C 
ATOM     36  C   UNL A   1      39.486  26.530  28.144  1.00  0.00     0.029 A 
ATOM     37  C   UNL A   1      40.380  27.542  28.698  1.00  0.00     0.049 A 
ATOM     38  H   UNL A   1      42.437  27.396  28.990  1.00  0.00     0.167 HD
ATOM     39  C   UNL A   1      46.709  26.858  29.779  1.00  0.00     0.037 A 
ATOM     40  C   UNL A   1      40.005  28.764  29.120  1.00  0.00     0.037 A 
ATOM     41  C   UNL A   1      46.425  28.221  30.145  1.00  0.00     0.049 A 
ATOM     42  C   UNL A   1      41.044  29.704  29.663  1.00  0.00     0.074 A 
ATOM     43  C   UNL A   1      47.302  29.197  30.582  1.00  0.00     0.029 A 
ATOM     44  N   UNL A   1      45.163  28.797  30.125  1.00  0.00    -0.354 N 
ATOM     45  N   UNL A   1      42.331  29.509  29.822  1.00  0.00    -0.248 NA
ATOM     46  C   UNL A   1      40.581  31.035  30.076  1.00  0.00     0.031 C 
ATOM     47  C   UNL A   1      46.563  30.347  30.879  1.00  0.00     0.029 A 
ATOM     48  C   UNL A   1      45.233  30.107  30.573  1.00  0.00     0.049 A 
ATOM     49  H   UNL A   1      44.339  28.342  29.836  1.00  0.00     0.167 HD
ATOM     50  C   UNL A   1      42.835  30.698  30.333  1.00  0.00     0.074 A 
ATOM     51  C   UNL A   1      41.717  31.612  30.442  1.00  0.00     0.031 C 
ATOM     52  C   UNL A   1      44.109  31.004  30.680  1.00  0.00     0.037 A 
BRANCH  39  53
ATOM     53  C   UNL A   1      48.109  26.341  29.957  1.00  0.00     0.057 A 
ATOM     54  C   UNL A   1      48.540  25.758  31.157  1.00  0.00     0.134 A 
ATOM     55  C   UNL A   1      49.038  26.422  28.912  1.00  0.00     0.134 A 
ATOM     56  F   UNL A   1      47.705  25.659  32.203  1.00  0.00    -0.206 F 
ATOM     57  C   UNL A   1      49.851  25.311  31.323  1.00  0.00     0.040 A 
ATOM     58  C   UNL A   1      50.344  25.949  29.056  1.00  0.00     0.040 A 
ATOM     59  F   UNL A   1      48.693  26.962  27.733  1.00  0.00    -0.206 F 
ATOM     60  C   UNL A   1      50.756  25.401  30.268  1.00  0.00     0.006 A 
ENDBRANCH  39  53
BRANCH  40  61
ATOM     61  C   UNL A   1      38.581  29.169  29.020  1.00  0.00     0.057 A 
ATOM     62  C   UNL A   1      37.737  29.119  30.136  1.00  0.00     0.134 A 
ATOM     63  C   UNL A   1      38.037  29.641  27.820  1.00  0.00     0.134 A 
ATOM     64  F   UNL A   1      38.196  28.661  31.309  1.00  0.00    -0.206 F 
ATOM     65  C   UNL A   1      36.400  29.513  30.059  1.00  0.00     0.040 A 
ATOM     66  C   UNL A   1      36.708  30.061  27.735  1.00  0.00     0.040 A 
ATOM     67  F   UNL A   1      38.796  29.724  26.718  1.00  0.00    -0.206 F 
ATOM     68  C   UNL A   1      35.884  29.993  28.856  1.00  0.00     0.006 A 
ENDBRANCH  40  61
BRANCH  52  69
ATOM     69  C   UNL A   1      44.369  32.393  31.187  1.00  0.00     0.057 A 
ATOM     70  C   UNL A   1      44.328  32.702  32.553  1.00  0.00     0.134 A 
ATOM     71  C   UNL A   1      44.704  33.424  30.301  1.00  0.00     0.134 A 
ATOM     72  F   UNL A   1      44.000  31.764  33.454  1.00  0.00    -0.206 F 
ATOM     73  C   UNL A   1      44.589  33.993  33.016  1.00  0.00     0.040 A 
ATOM     74  C   UNL A   1      44.996  34.712  30.754  1.00  0.00     0.040 A 
ATOM     75  F   UNL A   1      44.770  33.194  28.980  1.00  0.00    -0.206 F 
ATOM     76  C   UNL A   1      44.932  34.999  32.115  1.00  0.00     0.006 A 
ENDBRANCH  52  69
ENDBRANCH  26  27
ENDBRANCH  18  21
ENDBRANCH   1  17
TORSDOF 10
ENDMDL
MODEL 3
REMARK VINA RESULT:     -11.0      0.106      1.391
REMARK SMILES C[N@H+]1CCO[C@](C)(C(=O)NCCCNC(=O)c2ccc(-c3c4nc(c(-c5c(F)cccc5F)c5ccc([nH]5)c(-c5c(F)cccc5F)c5nc(c(-c6c(F)cccc6F)c6ccc3[nH]6)C=C5)C=C4)cc2)C1
REMARK SMILES IDX 13 1 12 2 11 3 10 4 8 5 9 6 6 8 1 9 2 10 3 11 71 12 4 14
REMARK SMILES IDX 5 15 7 16 14 17 15 18 16 20 17 21 18 22 70 23 19 24 69 25
REMARK SMILES IDX 20 26 21 27 22 28 63 29 23 30 68 31 62 32 64 33 24 34 67 35
REMARK SMILES IDX 61 36 60 37 25 39 51 40 34 41 50 42 35 43 38 44 49 45 65 46
REMARK SMILES IDX 36 47 37 48 48 50 66 51 39 52 26 53 27 54 32 55 28 56 29 57
REMARK SMILES IDX 31 58 33 59 30 60 52 61 53 62 58 63 54 64 55 65 57 66 59 67
REMARK SMILES IDX 56 68 40 69 41 70 46 71 42 72 43 73 45 74 47 75 44 76
REMARK H PARENT 10 7 2 13 14 19 64 38 38 49
REMARK Flexibility Score: inf
ROOT
ATOM      1  C   UNL A   1      38.787  20.242  25.717  1.00  0.00     0.118 C 
ENDROOT
BRANCH   1   2
ATOM      2  C   UNL A   1      37.715  19.915  24.691  1.00  0.00     0.042 C 
BRANCH   2   3
ATOM      3  C   UNL A   1      36.363  20.540  25.003  1.00  0.00     0.117 C 
BRANCH   3   4
ATOM      4  N   UNL A   1      35.282  19.563  25.000  1.00  0.00    -0.353 N 
ATOM      5  C   UNL A   1      33.919  19.705  25.075  1.00  0.00     0.257 C 
ATOM      6  O   UNL A   1      33.266  18.658  25.045  1.00  0.00    -0.271 OA
ATOM      7  H   UNL A   1      35.585  18.629  24.930  1.00  0.00     0.163 HD
BRANCH   5   8
ATOM      8  C   UNL A   1      33.254  21.111  25.185  1.00  0.00     0.192 C 
ATOM      9  C   UNL A   1      33.752  24.186  26.122  1.00  0.00     0.332 C 
ATOM     10  N   UNL A   1      33.237  23.057  26.880  1.00  0.00    -0.333 N 
ATOM     11  C   UNL A   1      31.769  22.956  26.877  1.00  0.00     0.290 C 
ATOM     12  C   UNL A   1      33.811  21.767  26.476  1.00  0.00     0.308 C 
ATOM     13  H   UNL A   1      33.537  23.262  27.833  1.00  0.00     0.348 HD
ATOM     14  C   UNL A   1      31.165  22.213  25.668  1.00  0.00     0.223 C 
ATOM     15  O   UNL A   1      31.822  20.969  25.376  1.00  0.00    -0.354 OA
ATOM     16  C   UNL A   1      33.455  21.818  23.833  1.00  0.00     0.059 C 
ENDBRANCH   5   8
ENDBRANCH   3   4
ENDBRANCH   2   3
ENDBRANCH   1   2
BRANCH   1  17
ATOM     17  N   UNL A   1      39.806  19.204  25.807  1.00  0.00    -0.352 N 
ATOM     18  C   UNL A   1      41.160  19.306  25.994  1.00  0.00     0.251 C 
ATOM     19  H   UNL A   1      39.468  18.284  25.719  1.00  0.00     0.163 HD
ATOM     20  O   UNL A   1      41.872  18.315  25.824  1.00  0.00    -0.269 OA
BRANCH  18  21
ATOM     21  C   UNL A   1      41.773  20.593  26.378  1.00  0.00     0.039 A 
ATOM     22  C   UNL A   1      42.172  21.481  25.376  1.00  0.00     0.014 A 
ATOM     23  C   UNL A   1      41.972  20.923  27.721  1.00  0.00     0.014 A 
ATOM     24  C   UNL A   1      42.703  22.725  25.723  1.00  0.00     0.010 A 
ATOM     25  C   UNL A   1      42.405  22.198  28.066  1.00  0.00     0.010 A 
ATOM     26  C   UNL A   1      42.784  23.110  27.071  1.00  0.00    -0.014 A 
BRANCH  26  27
ATOM     27  C   UNL A   1      43.263  24.459  27.462  1.00  0.00     0.031 A 
ATOM     28  C   UNL A   1      42.282  25.518  27.879  1.00  0.00     0.074 A 
ATOM     29  C   UNL A   1      44.573  24.752  27.363  1.00  0.00     0.049 A 
ATOM     30  N   UNL A   1      42.500  26.773  28.185  1.00  0.00    -0.248 NA
ATOM     31  C   UNL A   1      40.864  25.126  27.929  1.00  0.00     0.031 C 
ATOM     32  C   UNL A   1      45.616  23.828  26.913  1.00  0.00     0.029 A 
ATOM     33  N   UNL A   1      45.250  25.916  27.622  1.00  0.00    -0.354 N 
ATOM     34  C   UNL A   1      41.250  27.321  28.441  1.00  0.00     0.074 A 
ATOM     35  C   UNL A   1      40.275  26.280  28.199  1.00  0.00     0.031 C 
ATOM     36  C   UNL A   1      46.803  24.454  26.949  1.00  0.00     0.029 A 
ATOM     37  C   UNL A   1      46.601  25.832  27.385  1.00  0.00     0.049 A 
ATOM     38  H   UNL A   1      44.811  26.735  27.948  1.00  0.00     0.167 HD
ATOM     39  C   UNL A   1      40.944  28.571  28.863  1.00  0.00     0.037 A 
ATOM     40  C   UNL A   1      47.567  26.762  27.496  1.00  0.00     0.037 A 
ATOM     41  C   UNL A   1      41.920  29.596  29.123  1.00  0.00     0.049 A 
ATOM     42  C   UNL A   1      47.206  28.143  27.967  1.00  0.00     0.074 A 
ATOM     43  C   UNL A   1      41.721  30.870  29.625  1.00  0.00     0.029 A 
ATOM     44  N   UNL A   1      43.282  29.466  28.890  1.00  0.00    -0.354 N 
ATOM     45  N   UNL A   1      46.029  28.625  28.287  1.00  0.00    -0.248 NA
ATOM     46  C   UNL A   1      48.307  29.105  28.100  1.00  0.00     0.031 C 
ATOM     47  C   UNL A   1      42.955  31.529  29.645  1.00  0.00     0.029 A 
ATOM     48  C   UNL A   1      43.932  30.648  29.209  1.00  0.00     0.049 A 
ATOM     49  H   UNL A   1      43.722  28.654  28.549  1.00  0.00     0.167 HD
ATOM     50  C   UNL A   1      46.250  29.938  28.679  1.00  0.00     0.074 A 
ATOM     51  C   UNL A   1      47.675  30.172  28.572  1.00  0.00     0.031 C 
ATOM     52  C   UNL A   1      45.352  30.866  29.092  1.00  0.00     0.037 A 
BRANCH  39  53
ATOM     53  C   UNL A   1      39.489  28.896  29.060  1.00  0.00     0.057 A 
ATOM     54  C   UNL A   1      38.851  28.725  30.297  1.00  0.00     0.134 A 
ATOM     55  C   UNL A   1      38.718  29.392  28.002  1.00  0.00     0.134 A 
ATOM     56  F   UNL A   1      39.526  28.242  31.351  1.00  0.00    -0.206 F 
ATOM     57  C   UNL A   1      37.492  28.999  30.462  1.00  0.00     0.040 A 
ATOM     58  C   UNL A   1      37.366  29.700  28.163  1.00  0.00     0.040 A 
ATOM     59  F   UNL A   1      39.265  29.587  26.792  1.00  0.00    -0.206 F 
ATOM     60  C   UNL A   1      36.747  29.494  29.394  1.00  0.00     0.006 A 
ENDBRANCH  39  53
BRANCH  40  61
ATOM     61  C   UNL A   1      48.971  26.404  27.175  1.00  0.00     0.057 A 
ATOM     62  C   UNL A   1      49.476  26.558  25.879  1.00  0.00     0.134 A 
ATOM     63  C   UNL A   1      49.847  25.927  28.157  1.00  0.00     0.134 A 
ATOM     64  F   UNL A   1      48.681  26.996  24.892  1.00  0.00    -0.206 F 
ATOM     65  C   UNL A   1      50.799  26.240  25.567  1.00  0.00     0.040 A 
ATOM     66  C   UNL A   1      51.179  25.628  27.865  1.00  0.00     0.040 A 
ATOM     67  F   UNL A   1      49.427  25.768  29.420  1.00  0.00    -0.206 F 
ATOM     68  C   UNL A   1      51.657  25.781  26.565  1.00  0.00     0.006 A 
ENDBRANCH  40  61
BRANCH  52  69
ATOM     69  C   UNL A   1      45.888  32.214  29.483  1.00  0.00     0.057 A 
ATOM     70  C   UNL A   1      46.333  32.484  30.783  1.00  0.00     0.134 A 
ATOM     71  C   UNL A   1      45.997  33.239  28.536  1.00  0.00     0.134 A 
ATOM     72  F   UNL A   1      46.244  31.550  31.741  1.00  0.00    -0.206 F 
ATOM     73  C   UNL A   1      46.847  33.734  31.132  1.00  0.00     0.040 A 
ATOM     74  C   UNL A   1      46.536  34.484  28.865  1.00  0.00     0.040 A 
ATOM     75  F   UNL A   1      45.598  33.044  27.270  1.00  0.00    -0.206 F 
ATOM     76  C   UNL A   1      46.957  34.735  30.169  1.00  0.00     0.006 A 
ENDBRANCH  52  69
ENDBRANCH  26  27
ENDBRANCH  18  21
ENDBRANCH   1  17
TORSDOF 10
ENDMDL
