MODEL 1
REMARK VINA RESULT:     -10.8      0.000      0.000
REMARK SMILES O=C(C[C@@H](c1ccc(Cl)c(Cl)c1)N1Cc2ccccc2C1=O)NCCCNC(=O)c1ccc(-c2c3nc(c(-c4c(F)cccc4F)c4ccc([nH]4)c(-c4c(F)cccc4F)c4nc(c(-c5c(F)cccc5F)c5ccc2[nH]5)C=C4)C=C3)cc1
REMARK SMILES IDX 25 1 24 2 23 3 1 4 2 5 3 7 4 8 5 9 6 10 12 11 7 12 10 13
REMARK SMILES IDX 8 14 11 15 9 16 13 17 14 18 21 19 15 20 20 21 22 22 16 23
REMARK SMILES IDX 19 24 17 25 18 26 26 27 27 28 28 29 29 31 30 32 31 33 83 34
REMARK SMILES IDX 32 35 82 36 33 37 34 38 35 39 76 40 36 41 81 42 75 43 77 44
REMARK SMILES IDX 37 45 80 46 74 47 73 48 38 50 64 51 47 52 63 53 48 54 51 55
REMARK SMILES IDX 62 56 78 57 49 58 50 59 61 61 79 62 52 63 39 64 40 65 45 66
REMARK SMILES IDX 41 67 42 68 44 69 46 70 43 71 65 72 66 73 71 74 67 75 68 76
REMARK SMILES IDX 70 77 72 78 69 79 53 80 54 81 59 82 55 83 56 84 58 85 60 86
REMARK SMILES IDX 57 87
REMARK H PARENT 23 6 27 30 77 49 51 60
REMARK Flexibility Score: inf
ROOT
ATOM      1  C   UNL A   1      32.961  36.461  32.089  1.00  0.00     0.042 C 
ENDROOT
BRANCH   1   2
ATOM      2  C   UNL A   1      33.888  36.451  33.298  1.00  0.00     0.117 C 
BRANCH   2   3
ATOM      3  N   UNL A   1      34.301  35.122  33.703  1.00  0.00    -0.356 N 
ATOM      4  O   UNL A   1      36.437  35.329  32.883  1.00  0.00    -0.275 OA
ATOM      5  C   UNL A   1      35.602  34.696  33.522  1.00  0.00     0.222 C 
ATOM      6  H   UNL A   1      33.645  34.513  34.113  1.00  0.00     0.163 HD
BRANCH   5   7
ATOM      7  C   UNL A   1      35.945  33.422  34.254  1.00  0.00     0.130 C 
BRANCH   7   8
ATOM      8  C   UNL A   1      37.458  33.310  34.561  1.00  0.00     0.125 C 
BRANCH   8   9
ATOM      9  C   UNL A   1      37.835  33.555  36.043  1.00  0.00    -0.023 A 
ATOM     10  C   UNL A   1      37.399  32.695  37.060  1.00  0.00     0.007 A 
ATOM     11  C   UNL A   1      38.631  34.641  36.453  1.00  0.00     0.028 A 
ATOM     12  C   UNL A   1      37.920  32.765  38.357  1.00  0.00     0.022 A 
ATOM     13  C   UNL A   1      39.150  34.733  37.753  1.00  0.00     0.060 A 
ATOM     14  C   UNL A   1      38.835  33.757  38.695  1.00  0.00     0.059 A 
ATOM     15  Cl  UNL A   1      40.186  36.067  38.115  1.00  0.00    -0.083 Cl
ATOM     16  Cl  UNL A   1      39.527  33.719  40.275  1.00  0.00    -0.083 Cl
ENDBRANCH   8   9
BRANCH   8  17
ATOM     17  N   UNL A   1      37.909  31.990  34.082  1.00  0.00    -0.327 N 
ATOM     18  C   UNL A   1      37.013  31.044  33.433  1.00  0.00     0.157 C 
ATOM     19  C   UNL A   1      39.160  31.439  34.325  1.00  0.00     0.255 C 
ATOM     20  C   UNL A   1      37.931  29.917  33.089  1.00  0.00    -0.016 A 
ATOM     21  C   UNL A   1      39.205  30.170  33.597  1.00  0.00     0.045 A 
ATOM     22  O   UNL A   1      40.080  31.900  34.976  1.00  0.00    -0.269 OA
ATOM     23  C   UNL A   1      37.695  28.762  32.366  1.00  0.00     0.006 A 
ATOM     24  C   UNL A   1      40.291  29.351  33.356  1.00  0.00     0.014 A 
ATOM     25  C   UNL A   1      38.776  27.903  32.123  1.00  0.00     0.000 A 
ATOM     26  C   UNL A   1      40.066  28.204  32.599  1.00  0.00     0.001 A 
ENDBRANCH   8  17
ENDBRANCH   7   8
ENDBRANCH   5   7
ENDBRANCH   2   3
ENDBRANCH   1   2
BRANCH   1  27
ATOM     27  C   UNL A   1      33.654  36.443  30.730  1.00  0.00     0.118 C 
BRANCH  27  28
ATOM     28  N   UNL A   1      32.894  35.792  29.677  1.00  0.00    -0.352 N 
ATOM     29  C   UNL A   1      33.167  34.636  28.982  1.00  0.00     0.251 C 
ATOM     30  H   UNL A   1      32.058  36.247  29.422  1.00  0.00     0.163 HD
ATOM     31  O   UNL A   1      32.378  34.254  28.122  1.00  0.00    -0.269 OA
BRANCH  29  32
ATOM     32  C   UNL A   1      34.431  33.890  29.205  1.00  0.00     0.039 A 
ATOM     33  C   UNL A   1      35.482  34.098  28.306  1.00  0.00     0.014 A 
ATOM     34  C   UNL A   1      34.607  33.012  30.278  1.00  0.00     0.014 A 
ATOM     35  C   UNL A   1      36.721  33.488  28.521  1.00  0.00     0.010 A 
ATOM     36  C   UNL A   1      35.868  32.472  30.540  1.00  0.00     0.010 A 
ATOM     37  C   UNL A   1      36.940  32.700  29.664  1.00  0.00    -0.014 A 
BRANCH  37  38
ATOM     38  C   UNL A   1      38.282  32.112  29.925  1.00  0.00     0.031 A 
ATOM     39  C   UNL A   1      39.289  32.846  30.770  1.00  0.00     0.074 A 
ATOM     40  C   UNL A   1      38.603  30.914  29.394  1.00  0.00     0.049 A 
ATOM     41  N   UNL A   1      40.490  32.470  31.140  1.00  0.00    -0.248 NA
ATOM     42  C   UNL A   1      38.910  34.185  31.244  1.00  0.00     0.031 C 
ATOM     43  C   UNL A   1      37.742  30.121  28.515  1.00  0.00     0.029 A 
ATOM     44  N   UNL A   1      39.736  30.149  29.523  1.00  0.00    -0.354 N 
ATOM     45  C   UNL A   1      41.003  33.524  31.886  1.00  0.00     0.074 A 
ATOM     46  C   UNL A   1      40.015  34.579  31.858  1.00  0.00     0.031 C 
ATOM     47  C   UNL A   1      38.359  28.965  28.218  1.00  0.00     0.029 A 
ATOM     48  C   UNL A   1      39.671  28.948  28.857  1.00  0.00     0.049 A 
ATOM     49  H   UNL A   1      40.521  30.434  30.044  1.00  0.00     0.167 HD
ATOM     50  C   UNL A   1      42.177  33.597  32.559  1.00  0.00     0.037 A 
ATOM     51  C   UNL A   1      40.564  27.943  28.774  1.00  0.00     0.037 A 
ATOM     52  C   UNL A   1      43.158  32.543  32.595  1.00  0.00     0.049 A 
ATOM     53  C   UNL A   1      41.864  28.051  29.524  1.00  0.00     0.074 A 
ATOM     54  C   UNL A   1      44.360  32.505  33.281  1.00  0.00     0.029 A 
ATOM     55  N   UNL A   1      43.052  31.341  31.909  1.00  0.00    -0.354 N 
ATOM     56  N   UNL A   1      42.304  29.024  30.286  1.00  0.00    -0.248 NA
ATOM     57  C   UNL A   1      42.786  26.911  29.417  1.00  0.00     0.031 C 
ATOM     58  C   UNL A   1      45.006  31.305  32.967  1.00  0.00     0.029 A 
ATOM     59  C   UNL A   1      44.176  30.564  32.140  1.00  0.00     0.049 A 
ATOM     60  H   UNL A   1      42.292  31.079  31.342  1.00  0.00     0.167 HD
ATOM     61  C   UNL A   1      43.531  28.597  30.780  1.00  0.00     0.074 A 
ATOM     62  C   UNL A   1      43.757  27.271  30.243  1.00  0.00     0.031 C 
ATOM     63  C   UNL A   1      44.389  29.241  31.609  1.00  0.00     0.037 A 
BRANCH  50  64
ATOM     64  C   UNL A   1      42.462  34.865  33.314  1.00  0.00     0.057 A 
ATOM     65  C   UNL A   1      43.067  35.973  32.700  1.00  0.00     0.134 A 
ATOM     66  C   UNL A   1      42.106  34.994  34.662  1.00  0.00     0.134 A 
ATOM     67  F   UNL A   1      43.444  35.915  31.414  1.00  0.00    -0.206 F 
ATOM     68  C   UNL A   1      43.337  37.145  33.409  1.00  0.00     0.040 A 
ATOM     69  C   UNL A   1      42.341  36.173  35.372  1.00  0.00     0.040 A 
ATOM     70  F   UNL A   1      41.515  33.978  35.311  1.00  0.00    -0.206 F 
ATOM     71  C   UNL A   1      42.967  37.249  34.748  1.00  0.00     0.006 A 
ENDBRANCH  50  64
BRANCH  51  72
ATOM     72  C   UNL A   1      40.252  26.727  27.978  1.00  0.00     0.057 A 
ATOM     73  C   UNL A   1      39.436  25.710  28.492  1.00  0.00     0.134 A 
ATOM     74  C   UNL A   1      40.781  26.537  26.696  1.00  0.00     0.134 A 
ATOM     75  F   UNL A   1      38.912  25.822  29.722  1.00  0.00    -0.206 F 
ATOM     76  C   UNL A   1      39.182  24.540  27.774  1.00  0.00     0.040 A 
ATOM     77  C   UNL A   1      40.512  25.385  25.955  1.00  0.00     0.040 A 
ATOM     78  F   UNL A   1      41.564  27.475  26.141  1.00  0.00    -0.206 F 
ATOM     79  C   UNL A   1      39.719  24.377  26.499  1.00  0.00     0.006 A 
ENDBRANCH  51  72
BRANCH  63  80
ATOM     80  C   UNL A   1      45.625  28.497  32.033  1.00  0.00     0.057 A 
ATOM     81  C   UNL A   1      46.835  28.591  31.335  1.00  0.00     0.134 A 
ATOM     82  C   UNL A   1      45.601  27.679  33.171  1.00  0.00     0.134 A 
ATOM     83  F   UNL A   1      46.927  29.349  30.231  1.00  0.00    -0.206 F 
ATOM     84  C   UNL A   1      47.963  27.866  31.726  1.00  0.00     0.040 A 
ATOM     85  C   UNL A   1      46.731  26.978  33.593  1.00  0.00     0.040 A 
ATOM     86  F   UNL A   1      44.479  27.552  33.897  1.00  0.00    -0.206 F 
ATOM     87  C   UNL A   1      47.913  27.061  32.861  1.00  0.00     0.006 A 
ENDBRANCH  63  80
ENDBRANCH  37  38
ENDBRANCH  29  32
ENDBRANCH  27  28
ENDBRANCH   1  27
TORSDOF 13
ENDMDL
MODEL 2
REMARK VINA RESULT:     -10.8      5.473     11.749
REMARK SMILES O=C(C[C@@H](c1ccc(Cl)c(Cl)c1)N1Cc2ccccc2C1=O)NCCCNC(=O)c1ccc(-c2c3nc(c(-c4c(F)cccc4F)c4ccc([nH]4)c(-c4c(F)cccc4F)c4nc(c(-c5c(F)cccc5F)c5ccc2[nH]5)C=C4)C=C3)cc1
REMARK SMILES IDX 25 1 24 2 23 3 1 4 2 5 3 7 4 8 5 9 6 10 12 11 7 12 10 13
REMARK SMILES IDX 8 14 11 15 9 16 13 17 14 18 21 19 15 20 20 21 22 22 16 23
REMARK SMILES IDX 19 24 17 25 18 26 26 27 27 28 28 29 29 31 30 32 31 33 83 34
REMARK SMILES IDX 32 35 82 36 33 37 34 38 35 39 76 40 36 41 81 42 75 43 77 44
REMARK SMILES IDX 37 45 80 46 74 47 73 48 38 50 64 51 47 52 63 53 48 54 51 55
REMARK SMILES IDX 62 56 78 57 49 58 50 59 61 61 79 62 52 63 39 64 40 65 45 66
REMARK SMILES IDX 41 67 42 68 44 69 46 70 43 71 65 72 66 73 71 74 67 75 68 76
REMARK SMILES IDX 70 77 72 78 69 79 53 80 54 81 59 82 55 83 56 84 58 85 60 86
REMARK SMILES IDX 57 87
REMARK H PARENT 23 6 27 30 77 49 51 60
REMARK Flexibility Score: inf
ROOT
ATOM      1  C   UNL A   1      44.876  19.964  24.247  1.00  0.00     0.042 C 
ENDROOT
BRANCH   1   2
ATOM      2  C   UNL A   1      46.287  20.535  24.298  1.00  0.00     0.117 C 
BRANCH   2   3
ATOM      3  N   UNL A   1      46.397  21.744  25.088  1.00  0.00    -0.356 N 
ATOM      4  O   UNL A   1      45.436  23.098  23.501  1.00  0.00    -0.275 OA
ATOM      5  C   UNL A   1      45.876  22.940  24.636  1.00  0.00     0.222 C 
ATOM      6  H   UNL A   1      46.852  21.714  25.962  1.00  0.00     0.163 HD
BRANCH   5   7
ATOM      7  C   UNL A   1      45.806  24.022  25.685  1.00  0.00     0.130 C 
BRANCH   7   8
ATOM      8  C   UNL A   1      46.089  25.427  25.100  1.00  0.00     0.125 C 
BRANCH   8   9
ATOM      9  C   UNL A   1      45.284  26.574  25.758  1.00  0.00    -0.023 A 
ATOM     10  C   UNL A   1      45.904  27.523  26.583  1.00  0.00     0.007 A 
ATOM     11  C   UNL A   1      43.898  26.733  25.569  1.00  0.00     0.028 A 
ATOM     12  C   UNL A   1      45.244  28.688  26.989  1.00  0.00     0.022 A 
ATOM     13  C   UNL A   1      43.220  27.889  25.981  1.00  0.00     0.060 A 
ATOM     14  C   UNL A   1      43.911  28.897  26.647  1.00  0.00     0.059 A 
ATOM     15  Cl  UNL A   1      41.536  28.009  25.616  1.00  0.00    -0.083 Cl
ATOM     16  Cl  UNL A   1      43.191  30.404  27.078  1.00  0.00    -0.083 Cl
ENDBRANCH   8   9
BRANCH   8  17
ATOM     17  N   UNL A   1      47.545  25.652  25.176  1.00  0.00    -0.327 N 
ATOM     18  C   UNL A   1      48.349  25.203  26.304  1.00  0.00     0.157 C 
ATOM     19  C   UNL A   1      48.278  26.433  24.293  1.00  0.00     0.255 C 
ATOM     20  C   UNL A   1      49.729  25.603  25.893  1.00  0.00    -0.016 A 
ATOM     21  C   UNL A   1      49.681  26.306  24.690  1.00  0.00     0.045 A 
ATOM     22  O   UNL A   1      47.881  27.081  23.342  1.00  0.00    -0.269 OA
ATOM     23  C   UNL A   1      50.947  25.357  26.500  1.00  0.00     0.006 A 
ATOM     24  C   UNL A   1      50.811  26.722  24.013  1.00  0.00     0.014 A 
ATOM     25  C   UNL A   1      52.109  25.785  25.843  1.00  0.00     0.000 A 
ATOM     26  C   UNL A   1      52.043  26.446  24.603  1.00  0.00     0.001 A 
ENDBRANCH   8  17
ENDBRANCH   7   8
ENDBRANCH   5   7
ENDBRANCH   2   3
ENDBRANCH   1   2
BRANCH   1  27
ATOM     27  C   UNL A   1      44.331  19.440  25.573  1.00  0.00     0.118 C 
BRANCH  27  28
ATOM     28  N   UNL A   1      42.944  19.013  25.526  1.00  0.00    -0.352 N 
ATOM     29  C   UNL A   1      41.801  19.698  25.874  1.00  0.00     0.251 C 
ATOM     30  H   UNL A   1      42.798  18.096  25.196  1.00  0.00     0.163 HD
ATOM     31  O   UNL A   1      40.711  19.145  25.751  1.00  0.00    -0.269 OA
BRANCH  29  32
ATOM     32  C   UNL A   1      41.874  21.059  26.462  1.00  0.00     0.039 A 
ATOM     33  C   UNL A   1      41.723  21.183  27.846  1.00  0.00     0.014 A 
ATOM     34  C   UNL A   1      42.103  22.200  25.689  1.00  0.00     0.014 A 
ATOM     35  C   UNL A   1      41.871  22.430  28.459  1.00  0.00     0.010 A 
ATOM     36  C   UNL A   1      42.336  23.430  26.310  1.00  0.00     0.010 A 
ATOM     37  C   UNL A   1      42.219  23.561  27.702  1.00  0.00    -0.014 A 
BRANCH  37  38
ATOM     38  C   UNL A   1      42.446  24.872  28.370  1.00  0.00     0.031 A 
ATOM     39  C   UNL A   1      43.803  25.230  28.916  1.00  0.00     0.074 A 
ATOM     40  C   UNL A   1      41.425  25.746  28.494  1.00  0.00     0.049 A 
ATOM     41  N   UNL A   1      44.198  26.341  29.489  1.00  0.00    -0.248 NA
ATOM     42  C   UNL A   1      44.848  24.199  28.827  1.00  0.00     0.031 C 
ATOM     43  C   UNL A   1      40.049  25.506  28.057  1.00  0.00     0.029 A 
ATOM     44  N   UNL A   1      41.389  27.015  29.015  1.00  0.00    -0.354 N 
ATOM     45  C   UNL A   1      45.531  26.140  29.826  1.00  0.00     0.074 A 
ATOM     46  C   UNL A   1      45.857  24.780  29.459  1.00  0.00     0.031 C 
ATOM     47  C   UNL A   1      39.314  26.605  28.289  1.00  0.00     0.029 A 
ATOM     48  C   UNL A   1      40.156  27.616  28.922  1.00  0.00     0.049 A 
ATOM     49  H   UNL A   1      42.172  27.455  29.419  1.00  0.00     0.167 HD
ATOM     50  C   UNL A   1      46.413  27.016  30.366  1.00  0.00     0.037 A 
ATOM     51  C   UNL A   1      39.749  28.844  29.297  1.00  0.00     0.037 A 
ATOM     52  C   UNL A   1      46.091  28.373  30.725  1.00  0.00     0.049 A 
ATOM     53  C   UNL A   1      40.745  29.796  29.901  1.00  0.00     0.074 A 
ATOM     54  C   UNL A   1      46.925  29.350  31.241  1.00  0.00     0.029 A 
ATOM     55  N   UNL A   1      44.831  28.943  30.611  1.00  0.00    -0.354 N 
ATOM     56  N   UNL A   1      42.021  29.616  30.147  1.00  0.00    -0.248 NA
ATOM     57  C   UNL A   1      40.249  31.131  30.265  1.00  0.00     0.031 C 
ATOM     58  C   UNL A   1      46.159  30.493  31.490  1.00  0.00     0.029 A 
ATOM     59  C   UNL A   1      44.862  30.252  31.065  1.00  0.00     0.049 A 
ATOM     60  H   UNL A   1      44.034  28.486  30.260  1.00  0.00     0.167 HD
ATOM     61  C   UNL A   1      42.486  30.824  30.653  1.00  0.00     0.074 A 
ATOM     62  C   UNL A   1      41.359  31.732  30.666  1.00  0.00     0.031 C 
ATOM     63  C   UNL A   1      43.736  31.153  31.064  1.00  0.00     0.037 A 
BRANCH  50  64
ATOM     64  C   UNL A   1      47.815  26.527  30.601  1.00  0.00     0.057 A 
ATOM     65  C   UNL A   1      48.160  25.785  31.741  1.00  0.00     0.134 A 
ATOM     66  C   UNL A   1      48.827  26.777  29.666  1.00  0.00     0.134 A 
ATOM     67  F   UNL A   1      47.242  25.518  32.682  1.00  0.00    -0.206 F 
ATOM     68  C   UNL A   1      49.466  25.342  31.956  1.00  0.00     0.040 A 
ATOM     69  C   UNL A   1      50.130  26.310  29.856  1.00  0.00     0.040 A 
ATOM     70  F   UNL A   1      48.567  27.472  28.549  1.00  0.00    -0.206 F 
ATOM     71  C   UNL A   1      50.453  25.599  31.008  1.00  0.00     0.006 A 
ENDBRANCH  50  64
BRANCH  51  72
ATOM     72  C   UNL A   1      38.339  29.265  29.083  1.00  0.00     0.057 A 
ATOM     73  C   UNL A   1      37.887  29.682  27.824  1.00  0.00     0.134 A 
ATOM     74  C   UNL A   1      37.415  29.285  30.135  1.00  0.00     0.134 A 
ATOM     75  F   UNL A   1      38.727  29.703  26.778  1.00  0.00    -0.206 F 
ATOM     76  C   UNL A   1      36.580  30.131  27.626  1.00  0.00     0.040 A 
ATOM     77  C   UNL A   1      36.097  29.703  29.944  1.00  0.00     0.040 A 
ATOM     78  F   UNL A   1      37.780  28.891  31.364  1.00  0.00    -0.206 F 
ATOM     79  C   UNL A   1      35.680  30.139  28.689  1.00  0.00     0.006 A 
ENDBRANCH  51  72
BRANCH  63  80
ATOM     80  C   UNL A   1      43.963  32.572  31.507  1.00  0.00     0.057 A 
ATOM     81  C   UNL A   1      43.899  32.958  32.852  1.00  0.00     0.134 A 
ATOM     82  C   UNL A   1      44.262  33.566  30.566  1.00  0.00     0.134 A 
ATOM     83  F   UNL A   1      43.608  32.060  33.805  1.00  0.00    -0.206 F 
ATOM     84  C   UNL A   1      44.080  34.288  33.240  1.00  0.00     0.040 A 
ATOM     85  C   UNL A   1      44.481  34.891  30.944  1.00  0.00     0.040 A 
ATOM     86  F   UNL A   1      44.353  33.266  29.261  1.00  0.00    -0.206 F 
ATOM     87  C   UNL A   1      44.377  35.257  32.284  1.00  0.00     0.006 A 
ENDBRANCH  63  80
ENDBRANCH  37  38
ENDBRANCH  29  32
ENDBRANCH  27  28
ENDBRANCH   1  27
TORSDOF 13
ENDMDL
MODEL 3
REMARK VINA RESULT:     -10.7      1.701      3.365
REMARK SMILES O=C(C[C@@H](c1ccc(Cl)c(Cl)c1)N1Cc2ccccc2C1=O)NCCCNC(=O)c1ccc(-c2c3nc(c(-c4c(F)cccc4F)c4ccc([nH]4)c(-c4c(F)cccc4F)c4nc(c(-c5c(F)cccc5F)c5ccc2[nH]5)C=C4)C=C3)cc1
REMARK SMILES IDX 25 1 24 2 23 3 1 4 2 5 3 7 4 8 5 9 6 10 12 11 7 12 10 13
REMARK SMILES IDX 8 14 11 15 9 16 13 17 14 18 21 19 15 20 20 21 22 22 16 23
REMARK SMILES IDX 19 24 17 25 18 26 26 27 27 28 28 29 29 31 30 32 31 33 83 34
REMARK SMILES IDX 32 35 82 36 33 37 34 38 35 39 76 40 36 41 81 42 75 43 77 44
REMARK SMILES IDX 37 45 80 46 74 47 73 48 38 50 64 51 47 52 63 53 48 54 51 55
REMARK SMILES IDX 62 56 78 57 49 58 50 59 61 61 79 62 52 63 39 64 40 65 45 66
REMARK SMILES IDX 41 67 42 68 44 69 46 70 43 71 65 72 66 73 71 74 67 75 68 76
REMARK SMILES IDX 70 77 72 78 69 79 53 80 54 81 59 82 55 83 56 84 58 85 60 86
REMARK SMILES IDX 57 87
REMARK H PARENT 23 6 27 30 77 49 51 60
REMARK Flexibility Score: inf
ROOT
ATOM      1  C   UNL A   1      33.156  35.634  32.248  1.00  0.00     0.042 C 
ENDROOT
BRANCH   1   2
ATOM      2  C   UNL A   1      34.028  36.038  33.429  1.00  0.00     0.117 C 
BRANCH   2   3
ATOM      3  N   UNL A   1      35.337  35.414  33.427  1.00  0.00    -0.356 N 
ATOM      4  O   UNL A   1      34.615  33.455  34.385  1.00  0.00    -0.275 OA
ATOM      5  C   UNL A   1      35.503  34.109  33.847  1.00  0.00     0.222 C 
ATOM      6  H   UNL A   1      36.119  35.929  33.121  1.00  0.00     0.163 HD
BRANCH   5   7
ATOM      7  C   UNL A   1      36.849  33.517  33.508  1.00  0.00     0.130 C 
BRANCH   7   8
ATOM      8  C   UNL A   1      37.327  32.499  34.572  1.00  0.00     0.125 C 
BRANCH   8   9
ATOM      9  C   UNL A   1      38.308  31.425  34.041  1.00  0.00    -0.023 A 
ATOM     10  C   UNL A   1      39.661  31.427  34.407  1.00  0.00     0.007 A 
ATOM     11  C   UNL A   1      37.906  30.394  33.172  1.00  0.00     0.028 A 
ATOM     12  C   UNL A   1      40.499  30.340  34.131  1.00  0.00     0.022 A 
ATOM     13  C   UNL A   1      38.738  29.305  32.875  1.00  0.00     0.060 A 
ATOM     14  C   UNL A   1      40.025  29.253  33.404  1.00  0.00     0.059 A 
ATOM     15  Cl  UNL A   1      38.102  28.056  31.865  1.00  0.00    -0.083 Cl
ATOM     16  Cl  UNL A   1      41.071  27.897  33.197  1.00  0.00    -0.083 Cl
ENDBRANCH   8   9
BRANCH   8  17
ATOM     17  N   UNL A   1      37.895  33.268  35.695  1.00  0.00    -0.327 N 
ATOM     18  C   UNL A   1      38.714  34.455  35.496  1.00  0.00     0.157 C 
ATOM     19  C   UNL A   1      37.858  32.878  37.027  1.00  0.00     0.255 C 
ATOM     20  C   UNL A   1      38.988  34.893  36.898  1.00  0.00    -0.016 A 
ATOM     21  C   UNL A   1      38.456  33.969  37.797  1.00  0.00     0.045 A 
ATOM     22  O   UNL A   1      37.397  31.860  37.508  1.00  0.00    -0.269 OA
ATOM     23  C   UNL A   1      39.630  36.023  37.371  1.00  0.00     0.006 A 
ATOM     24  C   UNL A   1      38.469  34.154  39.166  1.00  0.00     0.014 A 
ATOM     25  C   UNL A   1      39.675  36.226  38.757  1.00  0.00     0.000 A 
ATOM     26  C   UNL A   1      39.084  35.308  39.646  1.00  0.00     0.001 A 
ENDBRANCH   8  17
ENDBRANCH   7   8
ENDBRANCH   5   7
ENDBRANCH   2   3
ENDBRANCH   1   2
BRANCH   1  27
ATOM     27  C   UNL A   1      33.589  36.184  30.893  1.00  0.00     0.118 C 
BRANCH  27  28
ATOM     28  N   UNL A   1      32.881  35.616  29.759  1.00  0.00    -0.352 N 
ATOM     29  C   UNL A   1      33.203  34.530  28.977  1.00  0.00     0.251 C 
ATOM     30  H   UNL A   1      32.045  36.076  29.513  1.00  0.00     0.163 HD
ATOM     31  O   UNL A   1      32.453  34.211  28.057  1.00  0.00    -0.269 OA
BRANCH  29  32
ATOM     32  C   UNL A   1      34.473  33.789  29.181  1.00  0.00     0.039 A 
ATOM     33  C   UNL A   1      35.540  34.070  28.323  1.00  0.00     0.014 A 
ATOM     34  C   UNL A   1      34.638  32.847  30.200  1.00  0.00     0.014 A 
ATOM     35  C   UNL A   1      36.783  33.465  28.528  1.00  0.00     0.010 A 
ATOM     36  C   UNL A   1      35.902  32.309  30.456  1.00  0.00     0.010 A 
ATOM     37  C   UNL A   1      36.989  32.608  29.622  1.00  0.00    -0.014 A 
BRANCH  37  38
ATOM     38  C   UNL A   1      38.334  32.024  29.877  1.00  0.00     0.031 A 
ATOM     39  C   UNL A   1      39.345  32.762  30.713  1.00  0.00     0.074 A 
ATOM     40  C   UNL A   1      38.655  30.825  29.347  1.00  0.00     0.049 A 
ATOM     41  N   UNL A   1      40.548  32.390  31.077  1.00  0.00    -0.248 NA
ATOM     42  C   UNL A   1      38.966  34.102  31.186  1.00  0.00     0.031 C 
ATOM     43  C   UNL A   1      37.790  30.028  28.476  1.00  0.00     0.029 A 
ATOM     44  N   UNL A   1      39.790  30.063  29.472  1.00  0.00    -0.354 N 
ATOM     45  C   UNL A   1      41.064  33.447  31.818  1.00  0.00     0.074 A 
ATOM     46  C   UNL A   1      40.074  34.500  31.793  1.00  0.00     0.031 C 
ATOM     47  C   UNL A   1      38.407  28.872  28.178  1.00  0.00     0.029 A 
ATOM     48  C   UNL A   1      39.724  28.860  28.809  1.00  0.00     0.049 A 
ATOM     49  H   UNL A   1      40.578  30.351  29.987  1.00  0.00     0.167 HD
ATOM     50  C   UNL A   1      42.241  33.524  32.483  1.00  0.00     0.037 A 
ATOM     51  C   UNL A   1      40.618  27.856  28.723  1.00  0.00     0.037 A 
ATOM     52  C   UNL A   1      43.225  32.472  32.516  1.00  0.00     0.049 A 
ATOM     53  C   UNL A   1      41.923  27.970  29.465  1.00  0.00     0.074 A 
ATOM     54  C   UNL A   1      44.432  32.440  33.194  1.00  0.00     0.029 A 
ATOM     55  N   UNL A   1      43.118  31.269  31.834  1.00  0.00    -0.354 N 
ATOM     56  N   UNL A   1      42.365  28.946  30.222  1.00  0.00    -0.248 NA
ATOM     57  C   UNL A   1      42.846  26.832  29.356  1.00  0.00     0.031 C 
ATOM     58  C   UNL A   1      45.078  31.240  32.880  1.00  0.00     0.029 A 
ATOM     59  C   UNL A   1      44.245  30.495  32.060  1.00  0.00     0.049 A 
ATOM     60  H   UNL A   1      42.355  31.004  31.272  1.00  0.00     0.167 HD
ATOM     61  C   UNL A   1      43.595  28.522  30.710  1.00  0.00     0.074 A 
ATOM     62  C   UNL A   1      43.822  27.196  30.175  1.00  0.00     0.031 C 
ATOM     63  C   UNL A   1      44.457  29.171  31.531  1.00  0.00     0.037 A 
BRANCH  50  64
ATOM     64  C   UNL A   1      42.529  34.795  33.232  1.00  0.00     0.057 A 
ATOM     65  C   UNL A   1      42.309  34.909  34.613  1.00  0.00     0.134 A 
ATOM     66  C   UNL A   1      43.056  35.913  32.573  1.00  0.00     0.134 A 
ATOM     67  F   UNL A   1      41.796  33.880  35.307  1.00  0.00    -0.206 F 
ATOM     68  C   UNL A   1      42.571  36.095  35.301  1.00  0.00     0.040 A 
ATOM     69  C   UNL A   1      43.352  37.094  33.256  1.00  0.00     0.040 A 
ATOM     70  F   UNL A   1      43.300  35.874  31.254  1.00  0.00    -0.206 F 
ATOM     71  C   UNL A   1      43.100  37.190  34.622  1.00  0.00     0.006 A 
ENDBRANCH  50  64
BRANCH  51  72
ATOM     72  C   UNL A   1      40.304  26.637  27.933  1.00  0.00     0.057 A 
ATOM     73  C   UNL A   1      39.485  25.626  28.450  1.00  0.00     0.134 A 
ATOM     74  C   UNL A   1      40.834  26.440  26.652  1.00  0.00     0.134 A 
ATOM     75  F   UNL A   1      38.960  25.745  29.679  1.00  0.00    -0.206 F 
ATOM     76  C   UNL A   1      39.229  24.453  27.738  1.00  0.00     0.040 A 
ATOM     77  C   UNL A   1      40.563  25.286  25.916  1.00  0.00     0.040 A 
ATOM     78  F   UNL A   1      41.620  27.373  26.093  1.00  0.00    -0.206 F 
ATOM     79  C   UNL A   1      39.767  24.282  26.464  1.00  0.00     0.006 A 
ENDBRANCH  51  72
BRANCH  63  80
ATOM     80  C   UNL A   1      45.697  28.431  31.950  1.00  0.00     0.057 A 
ATOM     81  C   UNL A   1      46.902  28.522  31.241  1.00  0.00     0.134 A 
ATOM     82  C   UNL A   1      45.684  27.620  33.093  1.00  0.00     0.134 A 
ATOM     83  F   UNL A   1      46.984  29.273  30.132  1.00  0.00    -0.206 F 
ATOM     84  C   UNL A   1      48.034  27.800  31.628  1.00  0.00     0.040 A 
ATOM     85  C   UNL A   1      46.818  26.922  33.510  1.00  0.00     0.040 A 
ATOM     86  F   UNL A   1      44.568  27.496  33.829  1.00  0.00    -0.206 F 
ATOM     87  C   UNL A   1      47.994  27.002  32.768  1.00  0.00     0.006 A 
ENDBRANCH  63  80
ENDBRANCH  37  38
ENDBRANCH  29  32
ENDBRANCH  27  28
ENDBRANCH   1  27
TORSDOF 13
ENDMDL
