MODEL 1
REMARK VINA RESULT:     -11.6      0.000      0.000
REMARK SMILES Cc1oc(C)c(S(=O)(=O)Nn2c(C)ccc2C)c1C(=O)NCCCNC(=O)c1ccc(-c2c3nc(c(-c4c(F)cccc4F)c4ccc([nH]4)c(-c4c(F)cccc4F)c4nc(c(-c5c(F)cccc5F)c5ccc2[nH]5)C=C4)C=C3)cc1
REMARK SMILES IDX 22 1 21 2 19 3 20 4 18 6 1 7 2 8 3 9 4 10 6 11 5 12 7 13
REMARK SMILES IDX 8 14 9 15 10 16 11 18 12 19 16 20 13 21 14 22 15 23 17 24
REMARK SMILES IDX 23 25 24 26 25 27 26 28 27 30 28 31 29 32 81 33 30 34 80 35
REMARK SMILES IDX 31 36 32 37 33 38 74 39 34 40 79 41 73 42 75 43 35 44 78 45
REMARK SMILES IDX 72 46 71 47 36 49 62 50 45 51 61 52 46 53 49 54 60 55 76 56
REMARK SMILES IDX 47 57 48 58 59 60 77 61 50 62 37 63 38 64 43 65 39 66 40 67
REMARK SMILES IDX 42 68 44 69 41 70 63 71 64 72 69 73 65 74 66 75 68 76 70 77
REMARK SMILES IDX 67 78 51 79 52 80 57 81 53 82 54 83 56 84 58 85 55 86
REMARK H PARENT 21 5 10 17 25 29 75 48 49 59
REMARK Flexibility Score: inf
ROOT
ATOM      1  C   UNL A   1      45.335  23.105  27.318  1.00  0.00     0.118 C 
ENDROOT
BRANCH   1   2
ATOM      2  N   UNL A   1      44.798  23.200  25.966  1.00  0.00    -0.352 N 
ATOM      3  C   UNL A   1      44.056  22.357  25.159  1.00  0.00     0.256 C 
ATOM      4  O   UNL A   1      43.462  22.873  24.211  1.00  0.00    -0.269 OA
ATOM      5  H   UNL A   1      45.010  24.056  25.530  1.00  0.00     0.163 HD
BRANCH   3   6
ATOM      6  C   UNL A   1      43.987  20.915  25.326  1.00  0.00     0.101 A 
ATOM      7  C   UNL A   1      46.478  20.052  24.968  1.00  0.00     0.088 C 
ATOM      8  C   UNL A   1      45.028  19.997  25.253  1.00  0.00     0.115 A 
ATOM      9  O   UNL A   1      44.609  18.756  25.621  1.00  0.00    -0.464 OA
ATOM     10  C   UNL A   1      43.319  18.855  26.017  1.00  0.00     0.122 A 
ATOM     11  C   UNL A   1      42.872  20.152  25.842  1.00  0.00     0.143 A 
ATOM     12  C   UNL A   1      42.722  17.619  26.575  1.00  0.00     0.089 C 
BRANCH  11  13
ATOM     13  S   UNL A   1      41.257  20.574  26.271  1.00  0.00     0.279 S 
ATOM     14  O   UNL A   1      40.466  19.494  25.801  1.00  0.00    -0.200 OA
ATOM     15  O   UNL A   1      41.389  20.810  27.720  1.00  0.00    -0.200 OA
BRANCH  13  16
ATOM     16  N   UNL A   1      40.621  21.980  25.716  1.00  0.00    -0.216 N 
ATOM     17  H   UNL A   1      41.171  22.466  25.060  1.00  0.00     0.202 HD
BRANCH  16  18
ATOM     18  N   UNL A   1      39.416  22.576  26.045  1.00  0.00    -0.256 N 
ATOM     19  C   UNL A   1      38.128  22.257  25.684  1.00  0.00     0.038 A 
ATOM     20  C   UNL A   1      39.412  23.670  26.891  1.00  0.00     0.038 A 
ATOM     21  C   UNL A   1      37.669  21.092  24.887  1.00  0.00     0.067 C 
ATOM     22  C   UNL A   1      37.311  23.211  26.271  1.00  0.00     0.025 A 
ATOM     23  C   UNL A   1      38.115  24.128  26.970  1.00  0.00     0.025 A 
ATOM     24  C   UNL A   1      40.630  24.269  27.507  1.00  0.00     0.067 C 
ENDBRANCH  16  18
ENDBRANCH  13  16
ENDBRANCH  11  13
ENDBRANCH   3   6
ENDBRANCH   1   2
BRANCH   1  25
ATOM     25  C   UNL A   1      44.762  24.016  28.433  1.00  0.00     0.042 C 
BRANCH  25  26
ATOM     26  C   UNL A   1      43.755  23.465  29.466  1.00  0.00     0.118 C 
BRANCH  26  27
ATOM     27  N   UNL A   1      44.322  23.060  30.744  1.00  0.00    -0.352 N 
ATOM     28  C   UNL A   1      44.419  23.685  31.976  1.00  0.00     0.251 C 
ATOM     29  H   UNL A   1      44.715  22.157  30.731  1.00  0.00     0.163 HD
ATOM     30  O   UNL A   1      44.835  22.982  32.903  1.00  0.00    -0.269 OA
BRANCH  28  31
ATOM     31  C   UNL A   1      44.206  25.159  32.261  1.00  0.00     0.039 A 
ATOM     32  C   UNL A   1      43.569  25.437  33.460  1.00  0.00     0.014 A 
ATOM     33  C   UNL A   1      44.297  26.245  31.367  1.00  0.00     0.014 A 
ATOM     34  C   UNL A   1      43.095  26.742  33.767  1.00  0.00     0.010 A 
ATOM     35  C   UNL A   1      43.713  27.572  31.655  1.00  0.00     0.010 A 
ATOM     36  C   UNL A   1      43.056  27.867  32.866  1.00  0.00    -0.014 A 
BRANCH  36  37
ATOM     37  C   UNL A   1      41.963  29.019  33.226  1.00  0.00     0.031 A 
ATOM     38  C   UNL A   1      40.785  28.636  32.395  1.00  0.00     0.074 A 
ATOM     39  C   UNL A   1      41.722  30.232  33.875  1.00  0.00     0.049 A 
ATOM     40  N   UNL A   1      40.927  28.509  31.108  1.00  0.00    -0.248 NA
ATOM     41  C   UNL A   1      39.581  28.017  32.954  1.00  0.00     0.031 C 
ATOM     42  C   UNL A   1      42.651  31.084  34.632  1.00  0.00     0.029 A 
ATOM     43  N   UNL A   1      40.523  31.015  34.010  1.00  0.00    -0.354 N 
ATOM     44  C   UNL A   1      39.732  28.031  30.643  1.00  0.00     0.074 A 
ATOM     45  C   UNL A   1      39.026  27.562  31.825  1.00  0.00     0.031 C 
ATOM     46  C   UNL A   1      42.006  32.133  35.230  1.00  0.00     0.029 A 
ATOM     47  C   UNL A   1      40.582  32.148  34.892  1.00  0.00     0.049 A 
ATOM     48  H   UNL A   1      39.699  30.784  33.522  1.00  0.00     0.167 HD
ATOM     49  C   UNL A   1      39.247  28.618  29.514  1.00  0.00     0.037 A 
ATOM     50  C   UNL A   1      39.608  33.070  35.269  1.00  0.00     0.037 A 
ATOM     51  C   UNL A   1      38.129  29.468  29.799  1.00  0.00     0.049 A 
ATOM     52  C   UNL A   1      38.578  33.079  34.222  1.00  0.00     0.074 A 
ATOM     53  C   UNL A   1      37.006  29.309  30.586  1.00  0.00     0.029 A 
ATOM     54  N   UNL A   1      38.332  30.826  29.670  1.00  0.00    -0.354 N 
ATOM     55  N   UNL A   1      38.763  33.738  33.122  1.00  0.00    -0.248 NA
ATOM     56  C   UNL A   1      37.238  32.529  34.400  1.00  0.00     0.031 C 
ATOM     57  C   UNL A   1      36.929  30.509  31.331  1.00  0.00     0.029 A 
ATOM     58  C   UNL A   1      37.753  31.464  30.745  1.00  0.00     0.049 A 
ATOM     59  H   UNL A   1      38.811  31.267  28.933  1.00  0.00     0.167 HD
ATOM     60  C   UNL A   1      37.804  33.260  32.300  1.00  0.00     0.074 A 
ATOM     61  C   UNL A   1      36.754  32.785  33.181  1.00  0.00     0.031 C 
ATOM     62  C   UNL A   1      38.243  32.771  31.116  1.00  0.00     0.037 A 
BRANCH  49  63
ATOM     63  C   UNL A   1      40.327  28.898  28.507  1.00  0.00     0.057 A 
ATOM     64  C   UNL A   1      40.454  28.055  27.402  1.00  0.00     0.134 A 
ATOM     65  C   UNL A   1      41.375  29.809  28.741  1.00  0.00     0.134 A 
ATOM     66  F   UNL A   1      39.476  27.186  27.099  1.00  0.00    -0.206 F 
ATOM     67  C   UNL A   1      41.603  28.062  26.608  1.00  0.00     0.040 A 
ATOM     68  C   UNL A   1      42.548  29.790  27.991  1.00  0.00     0.040 A 
ATOM     69  F   UNL A   1      41.300  30.696  29.747  1.00  0.00    -0.206 F 
ATOM     70  C   UNL A   1      42.670  28.903  26.926  1.00  0.00     0.006 A 
ENDBRANCH  49  63
BRANCH  50  71
ATOM     71  C   UNL A   1      39.288  34.223  36.254  1.00  0.00     0.057 A 
ATOM     72  C   UNL A   1      38.719  33.961  37.548  1.00  0.00     0.134 A 
ATOM     73  C   UNL A   1      39.904  35.474  36.171  1.00  0.00     0.134 A 
ATOM     74  F   UNL A   1      38.021  32.846  37.802  1.00  0.00    -0.206 F 
ATOM     75  C   UNL A   1      38.884  34.784  38.676  1.00  0.00     0.040 A 
ATOM     76  C   UNL A   1      40.030  36.338  37.293  1.00  0.00     0.040 A 
ATOM     77  F   UNL A   1      40.483  35.865  35.029  1.00  0.00    -0.206 F 
ATOM     78  C   UNL A   1      39.564  35.977  38.558  1.00  0.00     0.006 A 
ENDBRANCH  50  71
BRANCH  62  79
ATOM     79  C   UNL A   1      39.356  33.556  30.419  1.00  0.00     0.057 A 
ATOM     80  C   UNL A   1      40.734  33.577  30.749  1.00  0.00     0.134 A 
ATOM     81  C   UNL A   1      38.984  34.438  29.398  1.00  0.00     0.134 A 
ATOM     82  F   UNL A   1      41.297  32.692  31.585  1.00  0.00    -0.206 F 
ATOM     83  C   UNL A   1      41.631  34.504  30.199  1.00  0.00     0.040 A 
ATOM     84  C   UNL A   1      39.887  35.319  28.788  1.00  0.00     0.040 A 
ATOM     85  F   UNL A   1      37.716  34.462  28.958  1.00  0.00    -0.206 F 
ATOM     86  C   UNL A   1      41.207  35.383  29.216  1.00  0.00     0.006 A 
ENDBRANCH  62  79
ENDBRANCH  36  37
ENDBRANCH  28  31
ENDBRANCH  26  27
ENDBRANCH  25  26
ENDBRANCH   1  25
TORSDOF 13
ENDMDL
MODEL 2
REMARK VINA RESULT:     -11.3      4.036      7.603
REMARK SMILES Cc1oc(C)c(S(=O)(=O)Nn2c(C)ccc2C)c1C(=O)NCCCNC(=O)c1ccc(-c2c3nc(c(-c4c(F)cccc4F)c4ccc([nH]4)c(-c4c(F)cccc4F)c4nc(c(-c5c(F)cccc5F)c5ccc2[nH]5)C=C4)C=C3)cc1
REMARK SMILES IDX 22 1 21 2 19 3 20 4 18 6 1 7 2 8 3 9 4 10 6 11 5 12 7 13
REMARK SMILES IDX 8 14 9 15 10 16 11 18 12 19 16 20 13 21 14 22 15 23 17 24
REMARK SMILES IDX 23 25 24 26 25 27 26 28 27 30 28 31 29 32 81 33 30 34 80 35
REMARK SMILES IDX 31 36 32 37 33 38 74 39 34 40 79 41 73 42 75 43 35 44 78 45
REMARK SMILES IDX 72 46 71 47 36 49 62 50 45 51 61 52 46 53 49 54 60 55 76 56
REMARK SMILES IDX 47 57 48 58 59 60 77 61 50 62 37 63 38 64 43 65 39 66 40 67
REMARK SMILES IDX 42 68 44 69 41 70 63 71 64 72 69 73 65 74 66 75 68 76 70 77
REMARK SMILES IDX 67 78 51 79 52 80 57 81 53 82 54 83 56 84 58 85 55 86
REMARK H PARENT 21 5 10 17 25 29 75 48 49 59
REMARK Flexibility Score: inf
ROOT
ATOM      1  C   UNL A   1      36.728  22.770  25.511  1.00  0.00     0.118 C 
ENDROOT
BRANCH   1   2
ATOM      2  N   UNL A   1      35.776  22.441  26.566  1.00  0.00    -0.352 N 
ATOM      3  C   UNL A   1      34.481  21.958  26.583  1.00  0.00     0.256 C 
ATOM      4  O   UNL A   1      34.088  21.452  27.636  1.00  0.00    -0.269 OA
ATOM      5  H   UNL A   1      36.136  22.598  27.468  1.00  0.00     0.163 HD
BRANCH   3   6
ATOM      6  C   UNL A   1      33.552  22.064  25.470  1.00  0.00     0.101 A 
ATOM      7  C   UNL A   1      33.491  19.638  24.379  1.00  0.00     0.088 C 
ATOM      8  C   UNL A   1      33.158  21.064  24.589  1.00  0.00     0.115 A 
ATOM      9  O   UNL A   1      32.156  21.497  23.778  1.00  0.00    -0.464 OA
ATOM     10  C   UNL A   1      31.821  22.750  24.165  1.00  0.00     0.122 A 
ATOM     11  C   UNL A   1      32.655  23.164  25.188  1.00  0.00     0.143 A 
ATOM     12  C   UNL A   1      30.654  23.346  23.474  1.00  0.00     0.089 C 
BRANCH  11  13
ATOM     13  S   UNL A   1      32.455  24.726  25.887  1.00  0.00     0.279 S 
ATOM     14  O   UNL A   1      31.580  24.519  26.985  1.00  0.00    -0.200 OA
ATOM     15  O   UNL A   1      33.854  25.121  26.131  1.00  0.00    -0.200 OA
BRANCH  13  16
ATOM     16  N   UNL A   1      31.872  25.949  24.965  1.00  0.00    -0.216 N 
ATOM     17  H   UNL A   1      31.074  25.735  24.430  1.00  0.00     0.202 HD
BRANCH  16  18
ATOM     18  N   UNL A   1      32.349  27.242  24.836  1.00  0.00    -0.256 N 
ATOM     19  C   UNL A   1      32.302  28.307  25.705  1.00  0.00     0.038 A 
ATOM     20  C   UNL A   1      33.015  27.605  23.680  1.00  0.00     0.038 A 
ATOM     21  C   UNL A   1      31.785  28.324  27.097  1.00  0.00     0.067 C 
ATOM     22  C   UNL A   1      32.901  29.372  25.049  1.00  0.00     0.025 A 
ATOM     23  C   UNL A   1      33.288  28.953  23.764  1.00  0.00     0.025 A 
ATOM     24  C   UNL A   1      33.283  26.690  22.534  1.00  0.00     0.067 C 
ENDBRANCH  16  18
ENDBRANCH  13  16
ENDBRANCH  11  13
ENDBRANCH   3   6
ENDBRANCH   1   2
BRANCH   1  25
ATOM     25  C   UNL A   1      38.010  21.915  25.346  1.00  0.00     0.042 C 
BRANCH  25  26
ATOM     26  C   UNL A   1      39.190  22.060  26.331  1.00  0.00     0.118 C 
BRANCH  26  27
ATOM     27  N   UNL A   1      40.505  21.755  25.788  1.00  0.00    -0.352 N 
ATOM     28  C   UNL A   1      41.726  22.406  25.844  1.00  0.00     0.251 C 
ATOM     29  H   UNL A   1      40.533  20.913  25.277  1.00  0.00     0.163 HD
ATOM     30  O   UNL A   1      42.689  21.779  25.392  1.00  0.00    -0.269 OA
BRANCH  28  31
ATOM     31  C   UNL A   1      41.965  23.841  26.268  1.00  0.00     0.039 A 
ATOM     32  C   UNL A   1      41.544  24.150  27.553  1.00  0.00     0.014 A 
ATOM     33  C   UNL A   1      42.279  24.953  25.460  1.00  0.00     0.014 A 
ATOM     34  C   UNL A   1      41.489  25.494  28.016  1.00  0.00     0.010 A 
ATOM     35  C   UNL A   1      42.123  26.349  25.919  1.00  0.00     0.010 A 
ATOM     36  C   UNL A   1      41.688  26.678  27.218  1.00  0.00    -0.014 A 
BRANCH  36  37
ATOM     37  C   UNL A   1      41.004  28.038  27.795  1.00  0.00     0.031 A 
ATOM     38  C   UNL A   1      42.151  28.987  27.867  1.00  0.00     0.074 A 
ATOM     39  C   UNL A   1      39.857  28.624  28.337  1.00  0.00     0.049 A 
ATOM     40  N   UNL A   1      43.205  28.663  28.558  1.00  0.00    -0.248 NA
ATOM     41  C   UNL A   1      42.345  30.081  26.912  1.00  0.00     0.031 C 
ATOM     42  C   UNL A   1      38.558  28.011  28.654  1.00  0.00     0.029 A 
ATOM     43  N   UNL A   1      39.585  29.976  28.746  1.00  0.00    -0.354 N 
ATOM     44  C   UNL A   1      44.123  29.653  28.333  1.00  0.00     0.074 A 
ATOM     45  C   UNL A   1      43.623  30.375  27.174  1.00  0.00     0.031 C 
ATOM     46  C   UNL A   1      37.641  28.945  29.053  1.00  0.00     0.029 A 
ATOM     47  C   UNL A   1      38.231  30.282  29.117  1.00  0.00     0.049 A 
ATOM     48  H   UNL A   1      40.294  30.659  28.770  1.00  0.00     0.167 HD
ATOM     49  C   UNL A   1      44.791  30.113  29.426  1.00  0.00     0.037 A 
ATOM     50  C   UNL A   1      37.636  31.478  29.514  1.00  0.00     0.037 A 
ATOM     51  C   UNL A   1      44.344  31.420  29.807  1.00  0.00     0.049 A 
ATOM     52  C   UNL A   1      38.696  32.346  30.043  1.00  0.00     0.074 A 
ATOM     53  C   UNL A   1      44.076  32.568  29.087  1.00  0.00     0.029 A 
ATOM     54  N   UNL A   1      43.624  31.514  30.979  1.00  0.00    -0.354 N 
ATOM     55  N   UNL A   1      39.145  32.179  31.247  1.00  0.00    -0.248 NA
ATOM     56  C   UNL A   1      39.182  33.539  29.357  1.00  0.00     0.031 C 
ATOM     57  C   UNL A   1      42.823  33.003  29.577  1.00  0.00     0.029 A 
ATOM     58  C   UNL A   1      42.549  32.350  30.774  1.00  0.00     0.049 A 
ATOM     59  H   UNL A   1      43.843  31.059  31.824  1.00  0.00     0.167 HD
ATOM     60  C   UNL A   1      40.289  32.897  31.262  1.00  0.00     0.074 A 
ATOM     61  C   UNL A   1      40.110  33.914  30.243  1.00  0.00     0.031 C 
ATOM     62  C   UNL A   1      41.398  32.216  31.635  1.00  0.00     0.037 A 
BRANCH  49  63
ATOM     63  C   UNL A   1      45.174  29.008  30.370  1.00  0.00     0.057 A 
ATOM     64  C   UNL A   1      46.463  28.478  30.301  1.00  0.00     0.134 A 
ATOM     65  C   UNL A   1      44.233  28.305  31.148  1.00  0.00     0.134 A 
ATOM     66  F   UNL A   1      47.420  29.114  29.606  1.00  0.00    -0.206 F 
ATOM     67  C   UNL A   1      46.786  27.265  30.914  1.00  0.00     0.040 A 
ATOM     68  C   UNL A   1      44.526  27.069  31.718  1.00  0.00     0.040 A 
ATOM     69  F   UNL A   1      42.989  28.783  31.314  1.00  0.00    -0.206 F 
ATOM     70  C   UNL A   1      45.806  26.539  31.591  1.00  0.00     0.006 A 
ENDBRANCH  49  63
BRANCH  50  71
ATOM     71  C   UNL A   1      36.278  32.168  29.798  1.00  0.00     0.057 A 
ATOM     72  C   UNL A   1      35.688  32.139  31.109  1.00  0.00     0.134 A 
ATOM     73  C   UNL A   1      35.774  33.194  28.995  1.00  0.00     0.134 A 
ATOM     74  F   UNL A   1      35.986  31.183  31.998  1.00  0.00    -0.206 F 
ATOM     75  C   UNL A   1      34.812  33.117  31.614  1.00  0.00     0.040 A 
ATOM     76  C   UNL A   1      34.848  34.158  29.479  1.00  0.00     0.040 A 
ATOM     77  F   UNL A   1      36.226  33.354  27.745  1.00  0.00    -0.206 F 
ATOM     78  C   UNL A   1      34.400  34.151  30.801  1.00  0.00     0.006 A 
ENDBRANCH  50  71
BRANCH  62  79
ATOM     79  C   UNL A   1      41.241  31.231  32.795  1.00  0.00     0.057 A 
ATOM     80  C   UNL A   1      40.608  29.962  32.771  1.00  0.00     0.134 A 
ATOM     81  C   UNL A   1      41.675  31.645  34.060  1.00  0.00     0.134 A 
ATOM     82  F   UNL A   1      40.274  29.337  31.633  1.00  0.00    -0.206 F 
ATOM     83  C   UNL A   1      40.312  29.240  33.936  1.00  0.00     0.040 A 
ATOM     84  C   UNL A   1      41.450  30.897  35.224  1.00  0.00     0.040 A 
ATOM     85  F   UNL A   1      42.343  32.801  34.197  1.00  0.00    -0.206 F 
ATOM     86  C   UNL A   1      40.731  29.709  35.170  1.00  0.00     0.006 A 
ENDBRANCH  62  79
ENDBRANCH  36  37
ENDBRANCH  28  31
ENDBRANCH  26  27
ENDBRANCH  25  26
ENDBRANCH   1  25
TORSDOF 13
ENDMDL
MODEL 3
REMARK VINA RESULT:     -11.3      4.033      7.623
REMARK SMILES Cc1oc(C)c(S(=O)(=O)Nn2c(C)ccc2C)c1C(=O)NCCCNC(=O)c1ccc(-c2c3nc(c(-c4c(F)cccc4F)c4ccc([nH]4)c(-c4c(F)cccc4F)c4nc(c(-c5c(F)cccc5F)c5ccc2[nH]5)C=C4)C=C3)cc1
REMARK SMILES IDX 22 1 21 2 19 3 20 4 18 6 1 7 2 8 3 9 4 10 6 11 5 12 7 13
REMARK SMILES IDX 8 14 9 15 10 16 11 18 12 19 16 20 13 21 14 22 15 23 17 24
REMARK SMILES IDX 23 25 24 26 25 27 26 28 27 30 28 31 29 32 81 33 30 34 80 35
REMARK SMILES IDX 31 36 32 37 33 38 74 39 34 40 79 41 73 42 75 43 35 44 78 45
REMARK SMILES IDX 72 46 71 47 36 49 62 50 45 51 61 52 46 53 49 54 60 55 76 56
REMARK SMILES IDX 47 57 48 58 59 60 77 61 50 62 37 63 38 64 43 65 39 66 40 67
REMARK SMILES IDX 42 68 44 69 41 70 63 71 64 72 69 73 65 74 66 75 68 76 70 77
REMARK SMILES IDX 67 78 51 79 52 80 57 81 53 82 54 83 56 84 58 85 55 86
REMARK H PARENT 21 5 10 17 25 29 75 48 49 59
REMARK Flexibility Score: inf
ROOT
ATOM      1  C   UNL A   1      36.657  22.772  25.574  1.00  0.00     0.118 C 
ENDROOT
BRANCH   1   2
ATOM      2  N   UNL A   1      35.692  22.364  26.590  1.00  0.00    -0.352 N 
ATOM      3  C   UNL A   1      34.399  21.878  26.553  1.00  0.00     0.256 C 
ATOM      4  O   UNL A   1      33.993  21.296  27.560  1.00  0.00    -0.269 OA
ATOM      5  H   UNL A   1      36.040  22.456  27.506  1.00  0.00     0.163 HD
BRANCH   3   6
ATOM      6  C   UNL A   1      33.485  22.064  25.438  1.00  0.00     0.101 A 
ATOM      7  C   UNL A   1      33.334  19.685  24.256  1.00  0.00     0.088 C 
ATOM      8  C   UNL A   1      33.058  21.115  24.517  1.00  0.00     0.115 A 
ATOM      9  O   UNL A   1      32.081  21.619  23.715  1.00  0.00    -0.464 OA
ATOM     10  C   UNL A   1      31.795  22.869  24.147  1.00  0.00     0.122 A 
ATOM     11  C   UNL A   1      32.636  23.210  25.191  1.00  0.00     0.143 A 
ATOM     12  C   UNL A   1      30.660  23.538  23.470  1.00  0.00     0.089 C 
BRANCH  11  13
ATOM     13  S   UNL A   1      32.494  24.752  25.947  1.00  0.00     0.279 S 
ATOM     14  O   UNL A   1      31.676  24.521  27.084  1.00  0.00    -0.200 OA
ATOM     15  O   UNL A   1      33.909  25.124  26.126  1.00  0.00    -0.200 OA
BRANCH  13  16
ATOM     16  N   UNL A   1      31.878  26.009  25.095  1.00  0.00    -0.216 N 
ATOM     17  H   UNL A   1      30.974  25.873  24.729  1.00  0.00     0.202 HD
BRANCH  16  18
ATOM     18  N   UNL A   1      32.455  27.237  24.820  1.00  0.00    -0.256 N 
ATOM     19  C   UNL A   1      32.520  28.387  25.571  1.00  0.00     0.038 A 
ATOM     20  C   UNL A   1      33.115  27.420  23.619  1.00  0.00     0.038 A 
ATOM     21  C   UNL A   1      32.046  28.592  26.964  1.00  0.00     0.067 C 
ATOM     22  C   UNL A   1      33.185  29.323  24.794  1.00  0.00     0.025 A 
ATOM     23  C   UNL A   1      33.500  28.742  23.554  1.00  0.00     0.025 A 
ATOM     24  C   UNL A   1      33.275  26.371  22.571  1.00  0.00     0.067 C 
ENDBRANCH  16  18
ENDBRANCH  13  16
ENDBRANCH  11  13
ENDBRANCH   3   6
ENDBRANCH   1   2
BRANCH   1  25
ATOM     25  C   UNL A   1      37.799  21.803  25.175  1.00  0.00     0.042 C 
BRANCH  25  26
ATOM     26  C   UNL A   1      38.974  21.524  26.137  1.00  0.00     0.118 C 
BRANCH  26  27
ATOM     27  N   UNL A   1      40.255  22.098  25.751  1.00  0.00    -0.352 N 
ATOM     28  C   UNL A   1      41.046  23.097  26.293  1.00  0.00     0.251 C 
ATOM     29  H   UNL A   1      40.637  21.692  24.938  1.00  0.00     0.163 HD
ATOM     30  O   UNL A   1      42.165  23.229  25.786  1.00  0.00    -0.269 OA
BRANCH  28  31
ATOM     31  C   UNL A   1      40.627  24.117  27.332  1.00  0.00     0.039 A 
ATOM     32  C   UNL A   1      39.496  24.851  27.008  1.00  0.00     0.014 A 
ATOM     33  C   UNL A   1      41.372  24.617  28.419  1.00  0.00     0.014 A 
ATOM     34  C   UNL A   1      39.107  25.992  27.763  1.00  0.00     0.010 A 
ATOM     35  C   UNL A   1      41.013  25.860  29.134  1.00  0.00     0.010 A 
ATOM     36  C   UNL A   1      39.873  26.621  28.811  1.00  0.00    -0.014 A 
BRANCH  36  37
ATOM     37  C   UNL A   1      39.529  28.188  29.090  1.00  0.00     0.031 A 
ATOM     38  C   UNL A   1      40.875  28.798  29.281  1.00  0.00     0.074 A 
ATOM     39  C   UNL A   1      38.530  29.136  29.329  1.00  0.00     0.049 A 
ATOM     40  N   UNL A   1      41.668  28.321  30.197  1.00  0.00    -0.248 NA
ATOM     41  C   UNL A   1      41.525  29.634  28.269  1.00  0.00     0.031 C 
ATOM     42  C   UNL A   1      37.077  28.947  29.449  1.00  0.00     0.029 A 
ATOM     43  N   UNL A   1      38.600  30.558  29.526  1.00  0.00    -0.354 N 
ATOM     44  C   UNL A   1      42.856  28.984  30.049  1.00  0.00     0.074 A 
ATOM     45  C   UNL A   1      42.776  29.618  28.743  1.00  0.00     0.031 C 
ATOM     46  C   UNL A   1      36.418  30.142  29.557  1.00  0.00     0.029 A 
ATOM     47  C   UNL A   1      37.352  31.268  29.588  1.00  0.00     0.049 A 
ATOM     48  H   UNL A   1      39.463  31.024  29.614  1.00  0.00     0.167 HD
ATOM     49  C   UNL A   1      43.448  29.419  31.196  1.00  0.00     0.037 A 
ATOM     50  C   UNL A   1      37.074  32.626  29.728  1.00  0.00     0.037 A 
ATOM     51  C   UNL A   1      43.344  30.842  31.335  1.00  0.00     0.049 A 
ATOM     52  C   UNL A   1      38.243  33.255  30.356  1.00  0.00     0.074 A 
ATOM     53  C   UNL A   1      43.537  31.889  30.456  1.00  0.00     0.029 A 
ATOM     54  N   UNL A   1      42.507  31.309  32.326  1.00  0.00    -0.354 N 
ATOM     55  N   UNL A   1      38.428  33.171  31.636  1.00  0.00    -0.248 NA
ATOM     56  C   UNL A   1      39.154  34.152  29.653  1.00  0.00     0.031 C 
ATOM     57  C   UNL A   1      42.403  32.713  30.640  1.00  0.00     0.029 A 
ATOM     58  C   UNL A   1      41.766  32.356  31.824  1.00  0.00     0.049 A 
ATOM     59  H   UNL A   1      42.448  30.954  33.242  1.00  0.00     0.167 HD
ATOM     60  C   UNL A   1      39.714  33.553  31.796  1.00  0.00     0.074 A 
ATOM     61  C   UNL A   1      40.000  34.404  30.657  1.00  0.00     0.031 C 
ATOM     62  C   UNL A   1      40.505  32.671  32.452  1.00  0.00     0.037 A 
BRANCH  49  63
ATOM     63  C   UNL A   1      43.341  28.418  32.311  1.00  0.00     0.057 A 
ATOM     64  C   UNL A   1      42.170  28.378  33.070  1.00  0.00     0.134 A 
ATOM     65  C   UNL A   1      44.445  27.692  32.797  1.00  0.00     0.134 A 
ATOM     66  F   UNL A   1      41.068  29.019  32.648  1.00  0.00    -0.206 F 
ATOM     67  C   UNL A   1      42.118  27.707  34.294  1.00  0.00     0.040 A 
ATOM     68  C   UNL A   1      44.423  27.065  34.041  1.00  0.00     0.040 A 
ATOM     69  F   UNL A   1      45.587  27.630  32.094  1.00  0.00    -0.206 F 
ATOM     70  C   UNL A   1      43.259  27.083  34.801  1.00  0.00     0.006 A 
ENDBRANCH  49  63
BRANCH  50  71
ATOM     71  C   UNL A   1      35.947  33.687  29.662  1.00  0.00     0.057 A 
ATOM     72  C   UNL A   1      35.307  34.019  28.418  1.00  0.00     0.134 A 
ATOM     73  C   UNL A   1      35.188  34.048  30.779  1.00  0.00     0.134 A 
ATOM     74  F   UNL A   1      35.909  33.820  27.238  1.00  0.00    -0.206 F 
ATOM     75  C   UNL A   1      33.994  34.508  28.298  1.00  0.00     0.040 A 
ATOM     76  C   UNL A   1      33.880  34.593  30.670  1.00  0.00     0.040 A 
ATOM     77  F   UNL A   1      35.649  33.804  32.012  1.00  0.00    -0.206 F 
ATOM     78  C   UNL A   1      33.261  34.781  29.433  1.00  0.00     0.006 A 
ENDBRANCH  50  71
BRANCH  62  79
ATOM     79  C   UNL A   1      39.888  31.962  33.659  1.00  0.00     0.057 A 
ATOM     80  C   UNL A   1      38.913  30.933  33.651  1.00  0.00     0.134 A 
ATOM     81  C   UNL A   1      40.237  32.429  34.933  1.00  0.00     0.134 A 
ATOM     82  F   UNL A   1      38.577  30.258  32.542  1.00  0.00    -0.206 F 
ATOM     83  C   UNL A   1      38.244  30.513  34.810  1.00  0.00     0.040 A 
ATOM     84  C   UNL A   1      39.627  31.964  36.106  1.00  0.00     0.040 A 
ATOM     85  F   UNL A   1      41.195  33.359  35.069  1.00  0.00    -0.206 F 
ATOM     86  C   UNL A   1      38.600  31.031  36.044  1.00  0.00     0.006 A 
ENDBRANCH  62  79
ENDBRANCH  36  37
ENDBRANCH  28  31
ENDBRANCH  26  27
ENDBRANCH  25  26
ENDBRANCH   1  25
TORSDOF 13
ENDMDL
