MODEL 1
REMARK VINA RESULT:     -11.5      0.000      0.000
REMARK SMILES CCc1n[nH]c(C(=O)N(C)[C@H]2COC[C@H]2C(=O)NCCCNC(=O)c2ccc(-c3c4nc(c(-c5c(F)cccc5F)c5ccc([nH]5)c(-c5c(F)cccc5F)c5nc(c(-c6c(F)cccc6F)c6ccc3[nH]6)C=C5)C=C4)cc2)n1
REMARK SMILES IDX 19 1 18 2 16 3 17 4 15 6 11 7 12 8 13 9 14 10 9 11 10 12
REMARK SMILES IDX 7 13 8 14 6 15 3 16 4 17 79 18 5 19 2 21 1 22 20 23 21 24
REMARK SMILES IDX 22 25 23 26 24 28 25 29 26 30 78 31 27 32 77 33 28 34 29 35
REMARK SMILES IDX 30 36 71 37 31 38 76 39 70 40 72 41 32 42 75 43 69 44 68 45
REMARK SMILES IDX 33 47 59 48 42 49 58 50 43 51 46 52 57 53 73 54 44 55 45 56
REMARK SMILES IDX 56 58 74 59 47 60 34 61 35 62 40 63 36 64 37 65 39 66 41 67
REMARK SMILES IDX 38 68 60 69 61 70 66 71 62 72 63 73 65 74 67 75 64 76 48 77
REMARK SMILES IDX 49 78 54 79 50 80 51 81 53 82 55 83 52 84
REMARK H PARENT 18 5 5 20 22 27 72 46 46 57
REMARK Flexibility Score: inf
ROOT
ATOM      1  C   UNL A   1      31.457  30.163  26.083  1.00  0.00     0.117 C 
ENDROOT
BRANCH   1   2
ATOM      2  N   UNL A   1      32.208  30.004  24.848  1.00  0.00    -0.356 N 
ATOM      3  C   UNL A   1      32.819  28.959  24.246  1.00  0.00     0.227 C 
ATOM      4  O   UNL A   1      33.501  29.255  23.254  1.00  0.00    -0.275 OA
ATOM      5  H   UNL A   1      32.290  30.843  24.339  1.00  0.00     0.163 HD
BRANCH   3   6
ATOM      6  C   UNL A   1      32.721  27.499  24.645  1.00  0.00     0.129 C 
ATOM      7  C   UNL A   1      31.395  26.750  24.591  1.00  0.00     0.125 C 
ATOM      8  C   UNL A   1      31.879  25.330  24.910  1.00  0.00     0.186 C 
ATOM      9  O   UNL A   1      33.199  25.195  24.346  1.00  0.00    -0.378 OA
ATOM     10  C   UNL A   1      33.746  26.513  24.136  1.00  0.00     0.176 C 
BRANCH   7  11
ATOM     11  N   UNL A   1      30.615  26.852  23.338  1.00  0.00    -0.333 N 
ATOM     12  C   UNL A   1      31.220  26.430  22.071  1.00  0.00     0.147 C 
BRANCH  11  13
ATOM     13  C   UNL A   1      29.246  27.194  23.443  1.00  0.00     0.291 C 
ATOM     14  O   UNL A   1      28.423  26.381  23.860  1.00  0.00    -0.265 OA
BRANCH  13  15
ATOM     15  C   UNL A   1      28.816  28.546  23.132  1.00  0.00     0.214 A 
ATOM     16  C   UNL A   1      28.538  30.639  23.189  1.00  0.00     0.151 A 
ATOM     17  N   UNL A   1      27.312  30.191  22.898  1.00  0.00    -0.158 NA
ATOM     18  N   UNL A   1      29.493  29.668  23.277  1.00  0.00    -0.207 NA
ATOM     19  N   UNL A   1      27.523  28.864  22.816  1.00  0.00    -0.255 N 
ATOM     20  H   UNL A   1      26.836  28.206  22.563  1.00  0.00     0.192 HD
BRANCH  16  21
ATOM     21  C   UNL A   1      28.821  32.035  23.594  1.00  0.00     0.076 C 
ATOM     22  C   UNL A   1      28.556  33.049  22.502  1.00  0.00     0.012 C 
ENDBRANCH  16  21
ENDBRANCH  13  15
ENDBRANCH  11  13
ENDBRANCH   7  11
ENDBRANCH   3   6
ENDBRANCH   1   2
BRANCH   1  23
ATOM     23  C   UNL A   1      31.367  31.631  26.490  1.00  0.00     0.042 C 
BRANCH  23  24
ATOM     24  C   UNL A   1      32.677  32.296  26.891  1.00  0.00     0.118 C 
BRANCH  24  25
ATOM     25  N   UNL A   1      32.481  33.614  27.476  1.00  0.00    -0.352 N 
ATOM     26  C   UNL A   1      33.134  34.279  28.489  1.00  0.00     0.251 C 
ATOM     27  H   UNL A   1      31.744  34.127  27.070  1.00  0.00     0.163 HD
ATOM     28  O   UNL A   1      32.642  35.327  28.906  1.00  0.00    -0.269 OA
BRANCH  26  29
ATOM     29  C   UNL A   1      34.391  33.782  29.112  1.00  0.00     0.039 A 
ATOM     30  C   UNL A   1      35.618  34.306  28.665  1.00  0.00     0.014 A 
ATOM     31  C   UNL A   1      34.407  32.768  30.067  1.00  0.00     0.014 A 
ATOM     32  C   UNL A   1      36.833  33.864  29.213  1.00  0.00     0.010 A 
ATOM     33  C   UNL A   1      35.606  32.387  30.670  1.00  0.00     0.010 A 
ATOM     34  C   UNL A   1      36.836  32.915  30.241  1.00  0.00    -0.014 A 
BRANCH  34  35
ATOM     35  C   UNL A   1      38.078  32.372  30.857  1.00  0.00     0.031 A 
ATOM     36  C   UNL A   1      38.752  31.194  30.215  1.00  0.00     0.074 A 
ATOM     37  C   UNL A   1      38.522  32.813  32.049  1.00  0.00     0.049 A 
ATOM     38  N   UNL A   1      39.674  30.398  30.694  1.00  0.00    -0.248 NA
ATOM     39  C   UNL A   1      38.309  30.855  28.854  1.00  0.00     0.031 C 
ATOM     40  C   UNL A   1      37.984  33.952  32.782  1.00  0.00     0.029 A 
ATOM     41  N   UNL A   1      39.488  32.306  32.887  1.00  0.00    -0.354 N 
ATOM     42  C   UNL A   1      39.914  29.463  29.698  1.00  0.00     0.074 A 
ATOM     43  C   UNL A   1      38.995  29.748  28.616  1.00  0.00     0.031 C 
ATOM     44  C   UNL A   1      38.555  34.010  33.995  1.00  0.00     0.029 A 
ATOM     45  C   UNL A   1      39.495  32.902  34.128  1.00  0.00     0.049 A 
ATOM     46  H   UNL A   1      40.111  31.591  32.626  1.00  0.00     0.167 HD
ATOM     47  C   UNL A   1      40.841  28.478  29.667  1.00  0.00     0.037 A 
ATOM     48  C   UNL A   1      40.153  32.571  35.254  1.00  0.00     0.037 A 
ATOM     49  C   UNL A   1      41.776  28.209  30.726  1.00  0.00     0.049 A 
ATOM     50  C   UNL A   1      41.120  31.423  35.240  1.00  0.00     0.074 A 
ATOM     51  C   UNL A   1      42.812  27.292  30.752  1.00  0.00     0.029 A 
ATOM     52  N   UNL A   1      41.785  28.860  31.949  1.00  0.00    -0.354 N 
ATOM     53  N   UNL A   1      41.394  30.588  34.267  1.00  0.00    -0.248 NA
ATOM     54  C   UNL A   1      41.895  31.188  36.468  1.00  0.00     0.031 C 
ATOM     55  C   UNL A   1      43.434  27.372  32.004  1.00  0.00     0.029 A 
ATOM     56  C   UNL A   1      42.801  28.358  32.744  1.00  0.00     0.049 A 
ATOM     57  H   UNL A   1      41.160  29.574  32.214  1.00  0.00     0.167 HD
ATOM     58  C   UNL A   1      42.419  29.781  34.736  1.00  0.00     0.074 A 
ATOM     59  C   UNL A   1      42.694  30.197  36.097  1.00  0.00     0.031 C 
ATOM     60  C   UNL A   1      43.092  28.803  34.082  1.00  0.00     0.037 A 
BRANCH  47  61
ATOM     61  C   UNL A   1      40.896  27.642  28.426  1.00  0.00     0.057 A 
ATOM     62  C   UNL A   1      41.691  28.013  27.332  1.00  0.00     0.134 A 
ATOM     63  C   UNL A   1      40.139  26.471  28.312  1.00  0.00     0.134 A 
ATOM     64  F   UNL A   1      42.424  29.136  27.375  1.00  0.00    -0.206 F 
ATOM     65  C   UNL A   1      41.702  27.267  26.153  1.00  0.00     0.040 A 
ATOM     66  C   UNL A   1      40.162  25.703  27.147  1.00  0.00     0.040 A 
ATOM     67  F   UNL A   1      39.361  26.061  29.323  1.00  0.00    -0.206 F 
ATOM     68  C   UNL A   1      40.938  26.106  26.061  1.00  0.00     0.006 A 
ENDBRANCH  47  61
BRANCH  48  69
ATOM     69  C   UNL A   1      39.927  33.350  36.495  1.00  0.00     0.057 A 
ATOM     70  C   UNL A   1      40.710  34.468  36.801  1.00  0.00     0.134 A 
ATOM     71  C   UNL A   1      38.922  32.994  37.401  1.00  0.00     0.134 A 
ATOM     72  F   UNL A   1      41.700  34.842  35.978  1.00  0.00    -0.206 F 
ATOM     73  C   UNL A   1      40.509  35.201  37.972  1.00  0.00     0.040 A 
ATOM     74  C   UNL A   1      38.700  33.726  38.570  1.00  0.00     0.040 A 
ATOM     75  F   UNL A   1      38.142  31.929  37.165  1.00  0.00    -0.206 F 
ATOM     76  C   UNL A   1      39.498  34.832  38.858  1.00  0.00     0.006 A 
ENDBRANCH  48  69
BRANCH  60  77
ATOM     77  C   UNL A   1      44.260  28.183  34.785  1.00  0.00     0.057 A 
ATOM     78  C   UNL A   1      45.545  28.729  34.720  1.00  0.00     0.134 A 
ATOM     79  C   UNL A   1      44.074  27.046  35.582  1.00  0.00     0.134 A 
ATOM     80  F   UNL A   1      45.788  29.808  33.960  1.00  0.00    -0.206 F 
ATOM     81  C   UNL A   1      46.611  28.159  35.417  1.00  0.00     0.040 A 
ATOM     82  C   UNL A   1      45.127  26.478  36.298  1.00  0.00     0.040 A 
ATOM     83  F   UNL A   1      42.863  26.477  35.687  1.00  0.00    -0.206 F 
ATOM     84  C   UNL A   1      46.401  27.034  36.217  1.00  0.00     0.006 A 
ENDBRANCH  60  77
ENDBRANCH  34  35
ENDBRANCH  26  29
ENDBRANCH  24  25
ENDBRANCH  23  24
ENDBRANCH   1  23
TORSDOF 14
ENDMDL
MODEL 2
REMARK VINA RESULT:     -11.4      5.785     10.557
REMARK SMILES CCc1n[nH]c(C(=O)N(C)[C@H]2COC[C@H]2C(=O)NCCCNC(=O)c2ccc(-c3c4nc(c(-c5c(F)cccc5F)c5ccc([nH]5)c(-c5c(F)cccc5F)c5nc(c(-c6c(F)cccc6F)c6ccc3[nH]6)C=C5)C=C4)cc2)n1
REMARK SMILES IDX 19 1 18 2 16 3 17 4 15 6 11 7 12 8 13 9 14 10 9 11 10 12
REMARK SMILES IDX 7 13 8 14 6 15 3 16 4 17 79 18 5 19 2 21 1 22 20 23 21 24
REMARK SMILES IDX 22 25 23 26 24 28 25 29 26 30 78 31 27 32 77 33 28 34 29 35
REMARK SMILES IDX 30 36 71 37 31 38 76 39 70 40 72 41 32 42 75 43 69 44 68 45
REMARK SMILES IDX 33 47 59 48 42 49 58 50 43 51 46 52 57 53 73 54 44 55 45 56
REMARK SMILES IDX 56 58 74 59 47 60 34 61 35 62 40 63 36 64 37 65 39 66 41 67
REMARK SMILES IDX 38 68 60 69 61 70 66 71 62 72 63 73 65 74 67 75 64 76 48 77
REMARK SMILES IDX 49 78 54 79 50 80 51 81 53 82 55 83 52 84
REMARK H PARENT 18 5 5 20 22 27 72 46 46 57
REMARK Flexibility Score: inf
ROOT
ATOM      1  C   UNL A   1      36.180  20.021  24.994  1.00  0.00     0.117 C 
ENDROOT
BRANCH   1   2
ATOM      2  N   UNL A   1      35.938  21.203  25.804  1.00  0.00    -0.356 N 
ATOM      3  C   UNL A   1      35.519  22.460  25.533  1.00  0.00     0.227 C 
ATOM      4  O   UNL A   1      35.584  23.248  26.487  1.00  0.00    -0.275 OA
ATOM      5  H   UNL A   1      36.121  21.057  26.760  1.00  0.00     0.163 HD
BRANCH   3   6
ATOM      6  C   UNL A   1      34.963  22.966  24.215  1.00  0.00     0.129 C 
ATOM      7  C   UNL A   1      33.556  22.601  23.756  1.00  0.00     0.125 C 
ATOM      8  C   UNL A   1      33.448  23.485  22.507  1.00  0.00     0.186 C 
ATOM      9  O   UNL A   1      34.201  24.686  22.770  1.00  0.00    -0.378 OA
ATOM     10  C   UNL A   1      35.130  24.421  23.842  1.00  0.00     0.176 C 
BRANCH   7  11
ATOM     11  N   UNL A   1      32.459  22.797  24.729  1.00  0.00    -0.333 N 
ATOM     12  C   UNL A   1      31.925  24.142  24.959  1.00  0.00     0.147 C 
BRANCH  11  13
ATOM     13  C   UNL A   1      31.850  21.640  25.272  1.00  0.00     0.291 C 
ATOM     14  O   UNL A   1      30.775  21.713  25.864  1.00  0.00    -0.265 OA
BRANCH  13  15
ATOM     15  C   UNL A   1      32.457  20.338  25.057  1.00  0.00     0.214 A 
ATOM     16  C   UNL A   1      32.898  18.417  24.301  1.00  0.00     0.151 A 
ATOM     17  N   UNL A   1      33.008  18.241  25.622  1.00  0.00    -0.158 NA
ATOM     18  N   UNL A   1      32.625  19.698  23.918  1.00  0.00    -0.207 NA
ATOM     19  N   UNL A   1      32.775  19.486  26.079  1.00  0.00    -0.255 N 
ATOM     20  H   UNL A   1      32.825  19.749  27.026  1.00  0.00     0.192 HD
BRANCH  16  21
ATOM     21  C   UNL A   1      32.860  17.299  23.330  1.00  0.00     0.076 C 
ATOM     22  C   UNL A   1      34.148  16.508  23.265  1.00  0.00     0.012 C 
ENDBRANCH  16  21
ENDBRANCH  13  15
ENDBRANCH  11  13
ENDBRANCH   7  11
ENDBRANCH   3   6
ENDBRANCH   1   2
BRANCH   1  23
ATOM     23  C   UNL A   1      37.658  19.886  24.641  1.00  0.00     0.042 C 
BRANCH  23  24
ATOM     24  C   UNL A   1      38.644  20.187  25.762  1.00  0.00     0.118 C 
BRANCH  24  25
ATOM     25  N   UNL A   1      39.777  19.272  25.774  1.00  0.00    -0.352 N 
ATOM     26  C   UNL A   1      41.120  19.472  25.997  1.00  0.00     0.251 C 
ATOM     27  H   UNL A   1      39.537  18.335  25.588  1.00  0.00     0.163 HD
ATOM     28  O   UNL A   1      41.891  18.540  25.768  1.00  0.00    -0.269 OA
BRANCH  26  29
ATOM     29  C   UNL A   1      41.682  20.762  26.483  1.00  0.00     0.039 A 
ATOM     30  C   UNL A   1      41.878  20.934  27.865  1.00  0.00     0.014 A 
ATOM     31  C   UNL A   1      41.953  21.832  25.632  1.00  0.00     0.014 A 
ATOM     32  C   UNL A   1      42.397  22.136  28.376  1.00  0.00     0.010 A 
ATOM     33  C   UNL A   1      42.544  22.994  26.128  1.00  0.00     0.010 A 
ATOM     34  C   UNL A   1      42.758  23.170  27.507  1.00  0.00    -0.014 A 
BRANCH  34  35
ATOM     35  C   UNL A   1      43.287  24.485  27.965  1.00  0.00     0.031 A 
ATOM     36  C   UNL A   1      42.318  25.586  28.286  1.00  0.00     0.074 A 
ATOM     37  C   UNL A   1      44.607  24.753  27.954  1.00  0.00     0.049 A 
ATOM     38  N   UNL A   1      42.535  26.865  28.450  1.00  0.00    -0.248 NA
ATOM     39  C   UNL A   1      40.907  25.190  28.418  1.00  0.00     0.031 C 
ATOM     40  C   UNL A   1      45.663  23.787  27.682  1.00  0.00     0.029 A 
ATOM     41  N   UNL A   1      45.278  25.943  28.111  1.00  0.00    -0.354 N 
ATOM     42  C   UNL A   1      41.291  27.427  28.696  1.00  0.00     0.074 A 
ATOM     43  C   UNL A   1      40.316  26.361  28.594  1.00  0.00     0.031 C 
ATOM     44  C   UNL A   1      46.840  24.428  27.598  1.00  0.00     0.029 A 
ATOM     45  C   UNL A   1      46.615  25.855  27.802  1.00  0.00     0.049 A 
ATOM     46  H   UNL A   1      44.845  26.774  28.414  1.00  0.00     0.167 HD
ATOM     47  C   UNL A   1      40.988  28.706  29.017  1.00  0.00     0.037 A 
ATOM     48  C   UNL A   1      47.547  26.816  27.661  1.00  0.00     0.037 A 
ATOM     49  C   UNL A   1      41.955  29.761  29.150  1.00  0.00     0.049 A 
ATOM     50  C   UNL A   1      47.187  28.247  27.936  1.00  0.00     0.074 A 
ATOM     51  C   UNL A   1      41.757  31.068  29.559  1.00  0.00     0.029 A 
ATOM     52  N   UNL A   1      43.306  29.627  28.873  1.00  0.00    -0.354 N 
ATOM     53  N   UNL A   1      46.019  28.758  28.241  1.00  0.00    -0.248 NA
ATOM     54  C   UNL A   1      48.277  29.232  27.881  1.00  0.00     0.031 C 
ATOM     55  C   UNL A   1      42.989  31.732  29.506  1.00  0.00     0.029 A 
ATOM     56  C   UNL A   1      43.955  30.830  29.091  1.00  0.00     0.049 A 
ATOM     57  H   UNL A   1      43.740  28.797  28.567  1.00  0.00     0.167 HD
ATOM     58  C   UNL A   1      46.245  30.104  28.486  1.00  0.00     0.074 A 
ATOM     59  C   UNL A   1      47.656  30.343  28.255  1.00  0.00     0.031 C 
ATOM     60  C   UNL A   1      45.365  31.049  28.896  1.00  0.00     0.037 A 
BRANCH  47  61
ATOM     61  C   UNL A   1      39.545  29.013  29.273  1.00  0.00     0.057 A 
ATOM     62  C   UNL A   1      38.994  28.907  30.558  1.00  0.00     0.134 A 
ATOM     63  C   UNL A   1      38.694  29.398  28.232  1.00  0.00     0.134 A 
ATOM     64  F   UNL A   1      39.755  28.523  31.594  1.00  0.00    -0.206 F 
ATOM     65  C   UNL A   1      37.638  29.138  30.791  1.00  0.00     0.040 A 
ATOM     66  C   UNL A   1      37.341  29.656  28.457  1.00  0.00     0.040 A 
ATOM     67  F   UNL A   1      39.160  29.520  26.980  1.00  0.00    -0.206 F 
ATOM     68  C   UNL A   1      36.809  29.517  29.738  1.00  0.00     0.006 A 
ENDBRANCH  47  61
BRANCH  48  69
ATOM     69  C   UNL A   1      48.924  26.453  27.247  1.00  0.00     0.057 A 
ATOM     70  C   UNL A   1      49.279  26.388  25.895  1.00  0.00     0.134 A 
ATOM     71  C   UNL A   1      49.914  26.166  28.193  1.00  0.00     0.134 A 
ATOM     72  F   UNL A   1      48.365  26.633  24.946  1.00  0.00    -0.206 F 
ATOM     73  C   UNL A   1      50.570  26.037  25.497  1.00  0.00     0.040 A 
ATOM     74  C   UNL A   1      51.213  25.828  27.809  1.00  0.00     0.040 A 
ATOM     75  F   UNL A   1      49.631  26.208  29.503  1.00  0.00    -0.206 F 
ATOM     76  C   UNL A   1      51.543  25.760  26.457  1.00  0.00     0.006 A 
ENDBRANCH  48  69
BRANCH  60  77
ATOM     77  C   UNL A   1      45.912  32.404  29.224  1.00  0.00     0.057 A 
ATOM     78  C   UNL A   1      46.407  32.720  30.493  1.00  0.00     0.134 A 
ATOM     79  C   UNL A   1      45.987  33.388  28.230  1.00  0.00     0.134 A 
ATOM     80  F   UNL A   1      46.347  31.825  31.489  1.00  0.00    -0.206 F 
ATOM     81  C   UNL A   1      46.952  33.976  30.765  1.00  0.00     0.040 A 
ATOM     82  C   UNL A   1      46.546  34.640  28.485  1.00  0.00     0.040 A 
ATOM     83  F   UNL A   1      45.531  33.143  26.992  1.00  0.00    -0.206 F 
ATOM     84  C   UNL A   1      47.030  34.938  29.757  1.00  0.00     0.006 A 
ENDBRANCH  60  77
ENDBRANCH  34  35
ENDBRANCH  26  29
ENDBRANCH  24  25
ENDBRANCH  23  24
ENDBRANCH   1  23
TORSDOF 14
ENDMDL
MODEL 3
REMARK VINA RESULT:     -11.3      0.842      1.655
REMARK SMILES CCc1n[nH]c(C(=O)N(C)[C@H]2COC[C@H]2C(=O)NCCCNC(=O)c2ccc(-c3c4nc(c(-c5c(F)cccc5F)c5ccc([nH]5)c(-c5c(F)cccc5F)c5nc(c(-c6c(F)cccc6F)c6ccc3[nH]6)C=C5)C=C4)cc2)n1
REMARK SMILES IDX 19 1 18 2 16 3 17 4 15 6 11 7 12 8 13 9 14 10 9 11 10 12
REMARK SMILES IDX 7 13 8 14 6 15 3 16 4 17 79 18 5 19 2 21 1 22 20 23 21 24
REMARK SMILES IDX 22 25 23 26 24 28 25 29 26 30 78 31 27 32 77 33 28 34 29 35
REMARK SMILES IDX 30 36 71 37 31 38 76 39 70 40 72 41 32 42 75 43 69 44 68 45
REMARK SMILES IDX 33 47 59 48 42 49 58 50 43 51 46 52 57 53 73 54 44 55 45 56
REMARK SMILES IDX 56 58 74 59 47 60 34 61 35 62 40 63 36 64 37 65 39 66 41 67
REMARK SMILES IDX 38 68 60 69 61 70 66 71 62 72 63 73 65 74 67 75 64 76 48 77
REMARK SMILES IDX 49 78 54 79 50 80 51 81 53 82 55 83 52 84
REMARK H PARENT 18 5 5 20 22 27 72 46 46 57
REMARK Flexibility Score: inf
ROOT
ATOM      1  C   UNL A   1      31.392  30.456  26.289  1.00  0.00     0.117 C 
ENDROOT
BRANCH   1   2
ATOM      2  N   UNL A   1      32.282  30.108  25.194  1.00  0.00    -0.356 N 
ATOM      3  C   UNL A   1      32.899  28.967  24.808  1.00  0.00     0.227 C 
ATOM      4  O   UNL A   1      33.718  29.103  23.888  1.00  0.00    -0.275 OA
ATOM      5  H   UNL A   1      32.480  30.870  24.602  1.00  0.00     0.163 HD
BRANCH   3   6
ATOM      6  C   UNL A   1      32.661  27.576  25.363  1.00  0.00     0.129 C 
ATOM      7  C   UNL A   1      31.843  26.545  24.593  1.00  0.00     0.125 C 
ATOM      8  C   UNL A   1      32.061  25.316  25.483  1.00  0.00     0.186 C 
ATOM      9  O   UNL A   1      33.389  25.420  26.034  1.00  0.00    -0.378 OA
ATOM     10  C   UNL A   1      33.814  26.797  25.951  1.00  0.00     0.176 C 
BRANCH   7  11
ATOM     11  N   UNL A   1      32.196  26.331  23.173  1.00  0.00    -0.333 N 
ATOM     12  C   UNL A   1      33.277  25.403  22.826  1.00  0.00     0.147 C 
BRANCH  11  13
ATOM     13  C   UNL A   1      31.350  26.903  22.193  1.00  0.00     0.291 C 
ATOM     14  O   UNL A   1      31.174  26.349  21.109  1.00  0.00    -0.265 OA
BRANCH  13  15
ATOM     15  C   UNL A   1      30.615  28.119  22.498  1.00  0.00     0.214 A 
ATOM     16  C   UNL A   1      29.059  29.510  22.817  1.00  0.00     0.151 A 
ATOM     17  N   UNL A   1      29.963  30.234  22.150  1.00  0.00    -0.158 NA
ATOM     18  N   UNL A   1      29.449  28.233  23.101  1.00  0.00    -0.207 NA
ATOM     19  N   UNL A   1      30.964  29.346  22.003  1.00  0.00    -0.255 N 
ATOM     20  H   UNL A   1      31.834  29.551  21.593  1.00  0.00     0.192 HD
BRANCH  16  21
ATOM     21  C   UNL A   1      27.667  29.959  23.052  1.00  0.00     0.076 C 
ATOM     22  C   UNL A   1      27.541  31.449  23.280  1.00  0.00     0.012 C 
ENDBRANCH  16  21
ENDBRANCH  13  15
ENDBRANCH  11  13
ENDBRANCH   7  11
ENDBRANCH   3   6
ENDBRANCH   1   2
BRANCH   1  23
ATOM     23  C   UNL A   1      31.368  31.964  26.522  1.00  0.00     0.042 C 
BRANCH  23  24
ATOM     24  C   UNL A   1      32.671  32.588  27.004  1.00  0.00     0.118 C 
BRANCH  24  25
ATOM     25  N   UNL A   1      32.474  33.893  27.618  1.00  0.00    -0.352 N 
ATOM     26  C   UNL A   1      33.124  34.535  28.648  1.00  0.00     0.251 C 
ATOM     27  H   UNL A   1      31.739  34.416  27.221  1.00  0.00     0.163 HD
ATOM     28  O   UNL A   1      32.631  35.574  29.086  1.00  0.00    -0.269 OA
BRANCH  26  29
ATOM     29  C   UNL A   1      34.379  34.023  29.263  1.00  0.00     0.039 A 
ATOM     30  C   UNL A   1      35.611  34.442  28.731  1.00  0.00     0.014 A 
ATOM     31  C   UNL A   1      34.381  33.089  30.298  1.00  0.00     0.014 A 
ATOM     32  C   UNL A   1      36.824  33.981  29.269  1.00  0.00     0.010 A 
ATOM     33  C   UNL A   1      35.583  32.694  30.887  1.00  0.00     0.010 A 
ATOM     34  C   UNL A   1      36.820  33.119  30.371  1.00  0.00    -0.014 A 
BRANCH  34  35
ATOM     35  C   UNL A   1      38.057  32.561  30.985  1.00  0.00     0.031 A 
ATOM     36  C   UNL A   1      38.702  31.360  30.355  1.00  0.00     0.074 A 
ATOM     37  C   UNL A   1      38.520  33.013  32.166  1.00  0.00     0.049 A 
ATOM     38  N   UNL A   1      39.612  30.555  30.839  1.00  0.00    -0.248 NA
ATOM     39  C   UNL A   1      38.239  31.010  29.003  1.00  0.00     0.031 C 
ATOM     40  C   UNL A   1      38.011  34.173  32.886  1.00  0.00     0.029 A 
ATOM     41  N   UNL A   1      39.483  32.500  33.003  1.00  0.00    -0.354 N 
ATOM     42  C   UNL A   1      39.825  29.599  29.856  1.00  0.00     0.074 A 
ATOM     43  C   UNL A   1      38.902  29.886  28.777  1.00  0.00     0.031 C 
ATOM     44  C   UNL A   1      38.595  34.238  34.092  1.00  0.00     0.029 A 
ATOM     45  C   UNL A   1      39.514  33.114  34.234  1.00  0.00     0.049 A 
ATOM     46  H   UNL A   1      40.090  31.768  32.747  1.00  0.00     0.167 HD
ATOM     47  C   UNL A   1      40.733  28.596  29.832  1.00  0.00     0.037 A 
ATOM     48  C   UNL A   1      40.176  32.788  35.360  1.00  0.00     0.037 A 
ATOM     49  C   UNL A   1      41.672  28.325  30.886  1.00  0.00     0.049 A 
ATOM     50  C   UNL A   1      41.120  31.621  35.355  1.00  0.00     0.074 A 
ATOM     51  C   UNL A   1      42.690  27.388  30.918  1.00  0.00     0.029 A 
ATOM     52  N   UNL A   1      41.704  28.995  32.099  1.00  0.00    -0.354 N 
ATOM     53  N   UNL A   1      41.368  30.767  34.393  1.00  0.00    -0.248 NA
ATOM     54  C   UNL A   1      41.901  31.391  36.579  1.00  0.00     0.031 C 
ATOM     55  C   UNL A   1      43.325  27.476  32.162  1.00  0.00     0.029 A 
ATOM     56  C   UNL A   1      42.718  28.485  32.893  1.00  0.00     0.049 A 
ATOM     57  H   UNL A   1      41.096  29.725  32.358  1.00  0.00     0.167 HD
ATOM     58  C   UNL A   1      42.382  29.947  34.865  1.00  0.00     0.074 A 
ATOM     59  C   UNL A   1      42.677  30.378  36.217  1.00  0.00     0.031 C 
ATOM     60  C   UNL A   1      43.030  28.946  34.221  1.00  0.00     0.037 A 
BRANCH  47  61
ATOM     61  C   UNL A   1      40.760  27.740  28.604  1.00  0.00     0.057 A 
ATOM     62  C   UNL A   1      41.537  28.088  27.490  1.00  0.00     0.134 A 
ATOM     63  C   UNL A   1      39.993  26.573  28.521  1.00  0.00     0.134 A 
ATOM     64  F   UNL A   1      42.279  29.205  27.501  1.00  0.00    -0.206 F 
ATOM     65  C   UNL A   1      41.523  27.322  26.324  1.00  0.00     0.040 A 
ATOM     66  C   UNL A   1      39.990  25.786  27.369  1.00  0.00     0.040 A 
ATOM     67  F   UNL A   1      39.229  26.184  29.553  1.00  0.00    -0.206 F 
ATOM     68  C   UNL A   1      40.749  26.166  26.263  1.00  0.00     0.006 A 
ENDBRANCH  47  61
BRANCH  48  69
ATOM     69  C   UNL A   1      39.976  33.590  36.590  1.00  0.00     0.057 A 
ATOM     70  C   UNL A   1      39.028  33.219  37.550  1.00  0.00     0.134 A 
ATOM     71  C   UNL A   1      40.730  34.743  36.835  1.00  0.00     0.134 A 
ATOM     72  F   UNL A   1      38.264  32.135  37.358  1.00  0.00    -0.206 F 
ATOM     73  C   UNL A   1      38.828  33.975  38.706  1.00  0.00     0.040 A 
ATOM     74  C   UNL A   1      40.550  35.500  37.994  1.00  0.00     0.040 A 
ATOM     75  F   UNL A   1      41.652  35.150  35.949  1.00  0.00    -0.206 F 
ATOM     76  C   UNL A   1      39.594  35.117  38.932  1.00  0.00     0.006 A 
ENDBRANCH  48  69
BRANCH  60  77
ATOM     77  C   UNL A   1      44.192  28.313  34.923  1.00  0.00     0.057 A 
ATOM     78  C   UNL A   1      44.055  27.156  35.697  1.00  0.00     0.134 A 
ATOM     79  C   UNL A   1      45.476  28.850  34.773  1.00  0.00     0.134 A 
ATOM     80  F   UNL A   1      42.848  26.606  35.890  1.00  0.00    -0.206 F 
ATOM     81  C   UNL A   1      45.159  26.559  36.308  1.00  0.00     0.040 A 
ATOM     82  C   UNL A   1      46.589  28.252  35.363  1.00  0.00     0.040 A 
ATOM     83  F   UNL A   1      45.671  29.957  34.040  1.00  0.00    -0.206 F 
ATOM     84  C   UNL A   1      46.433  27.103  36.134  1.00  0.00     0.006 A 
ENDBRANCH  60  77
ENDBRANCH  34  35
ENDBRANCH  26  29
ENDBRANCH  24  25
ENDBRANCH  23  24
ENDBRANCH   1  23
TORSDOF 14
ENDMDL
