MODEL 1
REMARK VINA RESULT:     -12.4      0.000      0.000
REMARK SMILES CC1CCN(S(=O)(=O)N2CCC[C@H](c3cccc(C(=O)NCCCNC(=O)c4ccc(-c5c6nc(c(-c7c(F)cccc7F)c7ccc([nH]7)c(-c7c(F)cccc7F)c7nc(c(-c8c(F)cccc8F)c8ccc5[nH]8)C=C7)C=C6)cc4)c3)C2)CC1
REMARK SMILES IDX 22 1 21 2 19 3 20 4 18 6 14 7 15 8 82 9 16 10 17 11 13 12
REMARK SMILES IDX 9 13 10 14 83 15 11 16 12 17 6 18 7 19 8 20 5 21 1 22 2 23
REMARK SMILES IDX 3 24 85 25 4 26 84 27 23 28 24 29 25 30 26 31 27 33 28 34
REMARK SMILES IDX 29 35 81 36 30 37 80 38 31 39 32 40 33 41 74 42 34 43 79 44
REMARK SMILES IDX 73 45 75 46 35 47 78 48 72 49 71 50 36 52 62 53 45 54 61 55
REMARK SMILES IDX 46 56 49 57 60 58 76 59 47 60 48 61 59 63 77 64 50 65 37 66
REMARK SMILES IDX 38 67 43 68 39 69 40 70 42 71 44 72 41 73 63 74 64 75 69 76
REMARK SMILES IDX 65 77 66 78 68 79 70 80 67 81 51 82 52 83 57 84 53 85 54 86
REMARK SMILES IDX 56 87 58 88 55 89
REMARK H PARENT 21 5 25 32 75 51 49 62
REMARK Flexibility Score: inf
ROOT
ATOM      1  C   UNL A   1      33.472  33.855  28.910  1.00  0.00     0.118 C 
ENDROOT
BRANCH   1   2
ATOM      2  N   UNL A   1      34.926  33.889  28.786  1.00  0.00    -0.352 N 
ATOM      3  C   UNL A   1      35.874  33.005  28.309  1.00  0.00     0.251 C 
ATOM      4  O   UNL A   1      37.054  33.347  28.373  1.00  0.00    -0.269 OA
ATOM      5  H   UNL A   1      35.319  34.729  29.117  1.00  0.00     0.163 HD
BRANCH   3   6
ATOM      6  C   UNL A   1      35.541  31.646  27.802  1.00  0.00     0.040 A 
ATOM      7  C   UNL A   1      33.824  30.022  27.229  1.00  0.00    -0.043 A 
ATOM      8  C   UNL A   1      34.779  29.004  27.317  1.00  0.00     0.004 A 
ATOM      9  C   UNL A   1      34.288  31.337  27.295  1.00  0.00     0.017 A 
ATOM     10  C   UNL A   1      36.118  29.310  27.586  1.00  0.00     0.001 A 
ATOM     11  C   UNL A   1      36.486  30.622  27.890  1.00  0.00     0.014 A 
BRANCH   7  12
ATOM     12  C   UNL A   1      32.318  29.794  27.331  1.00  0.00     0.034 C 
ATOM     13  N   UNL A   1      31.923  27.753  25.987  1.00  0.00    -0.188 NA
ATOM     14  C   UNL A   1      31.195  28.478  24.929  1.00  0.00     0.103 C 
ATOM     15  C   UNL A   1      31.852  28.338  27.341  1.00  0.00     0.111 C 
ATOM     16  C   UNL A   1      31.581  29.957  24.933  1.00  0.00     0.017 C 
ATOM     17  C   UNL A   1      31.435  30.556  26.324  1.00  0.00     0.011 C 
BRANCH  13  18
ATOM     18  S   UNL A   1      32.069  26.093  25.849  1.00  0.00     0.281 S 
ATOM     19  O   UNL A   1      31.039  25.493  26.660  1.00  0.00    -0.195 OA
ATOM     20  O   UNL A   1      33.459  25.749  26.064  1.00  0.00    -0.195 OA
BRANCH  18  21
ATOM     21  N   UNL A   1      31.741  25.780  24.210  1.00  0.00    -0.189 NA
ATOM     22  C   UNL A   1      32.998  21.710  24.070  1.00  0.00     0.008 C 
ATOM     23  C   UNL A   1      32.467  23.024  23.494  1.00  0.00    -0.012 C 
ATOM     24  C   UNL A   1      33.526  24.138  23.629  1.00  0.00     0.020 C 
ATOM     25  C   UNL A   1      31.128  23.383  24.154  1.00  0.00     0.020 C 
ATOM     26  C   UNL A   1      32.973  25.547  23.399  1.00  0.00     0.104 C 
ATOM     27  C   UNL A   1      30.716  24.800  23.795  1.00  0.00     0.104 C 
ENDBRANCH  18  21
ENDBRANCH  13  18
ENDBRANCH   7  12
ENDBRANCH   3   6
ENDBRANCH   1   2
BRANCH   1  28
ATOM     28  C   UNL A   1      32.794  35.196  28.716  1.00  0.00     0.042 C 
BRANCH  28  29
ATOM     29  C   UNL A   1      33.318  36.284  29.629  1.00  0.00     0.118 C 
BRANCH  29  30
ATOM     30  N   UNL A   1      32.478  36.477  30.808  1.00  0.00    -0.352 N 
ATOM     31  C   UNL A   1      32.546  35.910  32.057  1.00  0.00     0.251 C 
ATOM     32  H   UNL A   1      31.742  37.119  30.686  1.00  0.00     0.163 HD
ATOM     33  O   UNL A   1      31.606  36.041  32.834  1.00  0.00    -0.269 OA
BRANCH  31  34
ATOM     34  C   UNL A   1      33.739  35.138  32.464  1.00  0.00     0.039 A 
ATOM     35  C   UNL A   1      33.587  33.814  32.887  1.00  0.00     0.014 A 
ATOM     36  C   UNL A   1      35.005  35.725  32.458  1.00  0.00     0.014 A 
ATOM     37  C   UNL A   1      34.714  33.069  33.244  1.00  0.00     0.010 A 
ATOM     38  C   UNL A   1      36.131  34.949  32.689  1.00  0.00     0.010 A 
ATOM     39  C   UNL A   1      35.998  33.622  33.115  1.00  0.00    -0.014 A 
BRANCH  39  40
ATOM     40  C   UNL A   1      37.218  32.862  33.480  1.00  0.00     0.031 A 
ATOM     41  C   UNL A   1      37.936  33.186  34.766  1.00  0.00     0.074 A 
ATOM     42  C   UNL A   1      37.712  31.934  32.638  1.00  0.00     0.049 A 
ATOM     43  N   UNL A   1      39.072  32.723  35.219  1.00  0.00    -0.248 NA
ATOM     44  C   UNL A   1      37.309  34.192  35.643  1.00  0.00     0.031 C 
ATOM     45  C   UNL A   1      37.131  31.563  31.345  1.00  0.00     0.029 A 
ATOM     46  N   UNL A   1      38.825  31.138  32.740  1.00  0.00    -0.354 N 
ATOM     47  C   UNL A   1      39.294  33.383  36.422  1.00  0.00     0.074 A 
ATOM     48  C   UNL A   1      38.222  34.336  36.591  1.00  0.00     0.031 C 
ATOM     49  C   UNL A   1      37.878  30.594  30.789  1.00  0.00     0.029 A 
ATOM     50  C   UNL A   1      39.012  30.309  31.661  1.00  0.00     0.049 A 
ATOM     51  H   UNL A   1      39.432  31.159  33.516  1.00  0.00     0.167 HD
ATOM     52  C   UNL A   1      40.280  33.186  37.327  1.00  0.00     0.037 A 
ATOM     53  C   UNL A   1      39.997  29.428  31.402  1.00  0.00     0.037 A 
ATOM     54  C   UNL A   1      41.331  32.218  37.169  1.00  0.00     0.049 A 
ATOM     55  C   UNL A   1      41.097  29.251  32.415  1.00  0.00     0.074 A 
ATOM     56  C   UNL A   1      42.370  31.923  38.034  1.00  0.00     0.029 A 
ATOM     57  N   UNL A   1      41.469  31.379  36.074  1.00  0.00    -0.354 N 
ATOM     58  N   UNL A   1      41.267  29.849  33.570  1.00  0.00    -0.248 NA
ATOM     59  C   UNL A   1      42.139  28.266  32.093  1.00  0.00     0.031 C 
ATOM     60  C   UNL A   1      43.158  30.931  37.446  1.00  0.00     0.029 A 
ATOM     61  C   UNL A   1      42.578  30.569  36.241  1.00  0.00     0.049 A 
ATOM     62  H   UNL A   1      40.868  31.363  35.294  1.00  0.00     0.167 HD
ATOM     63  C   UNL A   1      42.403  29.278  34.131  1.00  0.00     0.074 A 
ATOM     64  C   UNL A   1      42.873  28.278  33.196  1.00  0.00     0.031 C 
ATOM     65  C   UNL A   1      43.006  29.554  35.313  1.00  0.00     0.037 A 
BRANCH  52  66
ATOM     66  C   UNL A   1      40.251  34.010  38.581  1.00  0.00     0.057 A 
ATOM     67  C   UNL A   1      40.929  35.234  38.670  1.00  0.00     0.134 A 
ATOM     68  C   UNL A   1      39.500  33.607  39.691  1.00  0.00     0.134 A 
ATOM     69  F   UNL A   1      41.681  35.670  37.649  1.00  0.00    -0.206 F 
ATOM     70  C   UNL A   1      40.873  36.019  39.823  1.00  0.00     0.040 A 
ATOM     71  C   UNL A   1      39.411  34.398  40.839  1.00  0.00     0.040 A 
ATOM     72  F   UNL A   1      38.824  32.448  39.673  1.00  0.00    -0.206 F 
ATOM     73  C   UNL A   1      40.103  35.606  40.908  1.00  0.00     0.006 A 
ENDBRANCH  52  66
BRANCH  53  74
ATOM     74  C   UNL A   1      39.998  28.634  30.145  1.00  0.00     0.057 A 
ATOM     75  C   UNL A   1      40.670  29.088  29.002  1.00  0.00     0.134 A 
ATOM     76  C   UNL A   1      39.278  27.439  30.034  1.00  0.00     0.134 A 
ATOM     77  F   UNL A   1      41.367  30.232  29.040  1.00  0.00    -0.206 F 
ATOM     78  C   UNL A   1      40.586  28.410  27.785  1.00  0.00     0.040 A 
ATOM     79  C   UNL A   1      39.213  26.733  28.831  1.00  0.00     0.040 A 
ATOM     80  F   UNL A   1      38.624  26.939  31.092  1.00  0.00    -0.206 F 
ATOM     81  C   UNL A   1      39.854  27.228  27.697  1.00  0.00     0.006 A 
ENDBRANCH  53  74
BRANCH  65  82
ATOM     82  C   UNL A   1      44.187  28.711  35.697  1.00  0.00     0.057 A 
ATOM     83  C   UNL A   1      44.055  27.531  36.439  1.00  0.00     0.134 A 
ATOM     84  C   UNL A   1      45.475  29.075  35.284  1.00  0.00     0.134 A 
ATOM     85  F   UNL A   1      42.851  27.132  36.875  1.00  0.00    -0.206 F 
ATOM     86  C   UNL A   1      45.166  26.762  36.785  1.00  0.00     0.040 A 
ATOM     87  C   UNL A   1      46.590  28.296  35.593  1.00  0.00     0.040 A 
ATOM     88  F   UNL A   1      45.671  30.188  34.558  1.00  0.00    -0.206 F 
ATOM     89  C   UNL A   1      46.437  27.139  36.355  1.00  0.00     0.006 A 
ENDBRANCH  65  82
ENDBRANCH  39  40
ENDBRANCH  31  34
ENDBRANCH  29  30
ENDBRANCH  28  29
ENDBRANCH   1  28
TORSDOF 13
ENDMDL
MODEL 2
REMARK VINA RESULT:     -12.2      5.238     10.338
REMARK SMILES CC1CCN(S(=O)(=O)N2CCC[C@H](c3cccc(C(=O)NCCCNC(=O)c4ccc(-c5c6nc(c(-c7c(F)cccc7F)c7ccc([nH]7)c(-c7c(F)cccc7F)c7nc(c(-c8c(F)cccc8F)c8ccc5[nH]8)C=C7)C=C6)cc4)c3)C2)CC1
REMARK SMILES IDX 22 1 21 2 19 3 20 4 18 6 14 7 15 8 82 9 16 10 17 11 13 12
REMARK SMILES IDX 9 13 10 14 83 15 11 16 12 17 6 18 7 19 8 20 5 21 1 22 2 23
REMARK SMILES IDX 3 24 85 25 4 26 84 27 23 28 24 29 25 30 26 31 27 33 28 34
REMARK SMILES IDX 29 35 81 36 30 37 80 38 31 39 32 40 33 41 74 42 34 43 79 44
REMARK SMILES IDX 73 45 75 46 35 47 78 48 72 49 71 50 36 52 62 53 45 54 61 55
REMARK SMILES IDX 46 56 49 57 60 58 76 59 47 60 48 61 59 63 77 64 50 65 37 66
REMARK SMILES IDX 38 67 43 68 39 69 40 70 42 71 44 72 41 73 63 74 64 75 69 76
REMARK SMILES IDX 65 77 66 78 68 79 70 80 67 81 51 82 52 83 57 84 53 85 54 86
REMARK SMILES IDX 56 87 58 88 55 89
REMARK H PARENT 21 5 25 32 75 51 49 62
REMARK Flexibility Score: inf
ROOT
ATOM      1  C   UNL A   1      38.233  21.593  25.306  1.00  0.00     0.118 C 
ENDROOT
BRANCH   1   2
ATOM      2  N   UNL A   1      37.490  22.223  24.218  1.00  0.00    -0.352 N 
ATOM      3  C   UNL A   1      36.191  22.665  24.068  1.00  0.00     0.251 C 
ATOM      4  O   UNL A   1      35.875  23.141  22.978  1.00  0.00    -0.269 OA
ATOM      5  H   UNL A   1      38.038  22.361  23.411  1.00  0.00     0.163 HD
BRANCH   3   6
ATOM      6  C   UNL A   1      35.152  22.522  25.123  1.00  0.00     0.040 A 
ATOM      7  C   UNL A   1      32.792  22.366  25.686  1.00  0.00    -0.043 A 
ATOM      8  C   UNL A   1      33.097  22.727  27.003  1.00  0.00     0.004 A 
ATOM      9  C   UNL A   1      33.864  22.096  24.834  1.00  0.00     0.017 A 
ATOM     10  C   UNL A   1      34.426  22.924  27.392  1.00  0.00     0.001 A 
ATOM     11  C   UNL A   1      35.445  22.884  26.439  1.00  0.00     0.014 A 
BRANCH   7  12
ATOM     12  C   UNL A   1      31.406  22.505  25.061  1.00  0.00     0.034 C 
ATOM     13  N   UNL A   1      31.259  24.896  24.437  1.00  0.00    -0.188 NA
ATOM     14  C   UNL A   1      30.236  25.195  25.456  1.00  0.00     0.103 C 
ATOM     15  C   UNL A   1      31.274  23.513  23.920  1.00  0.00     0.111 C 
ATOM     16  C   UNL A   1      30.287  24.163  26.584  1.00  0.00     0.017 C 
ATOM     17  C   UNL A   1      30.232  22.747  26.031  1.00  0.00     0.011 C 
BRANCH  13  18
ATOM     18  S   UNL A   1      31.738  26.129  23.415  1.00  0.00     0.281 S 
ATOM     19  O   UNL A   1      31.012  27.317  23.789  1.00  0.00    -0.195 OA
ATOM     20  O   UNL A   1      31.671  25.632  22.056  1.00  0.00    -0.195 OA
BRANCH  18  21
ATOM     21  N   UNL A   1      33.387  26.347  23.769  1.00  0.00    -0.189 NA
ATOM     22  C   UNL A   1      32.985  28.995  27.084  1.00  0.00     0.008 C 
ATOM     23  C   UNL A   1      33.746  28.179  26.039  1.00  0.00    -0.012 C 
ATOM     24  C   UNL A   1      33.428  28.691  24.618  1.00  0.00     0.020 C 
ATOM     25  C   UNL A   1      33.447  26.684  26.220  1.00  0.00     0.020 C 
ATOM     26  C   UNL A   1      33.865  27.737  23.504  1.00  0.00     0.104 C 
ATOM     27  C   UNL A   1      33.977  25.884  25.043  1.00  0.00     0.104 C 
ENDBRANCH  18  21
ENDBRANCH  13  18
ENDBRANCH   7  12
ENDBRANCH   3   6
ENDBRANCH   1   2
BRANCH   1  28
ATOM     28  C   UNL A   1      38.751  20.204  24.990  1.00  0.00     0.042 C 
BRANCH  28  29
ATOM     29  C   UNL A   1      39.364  19.496  26.178  1.00  0.00     0.118 C 
BRANCH  29  30
ATOM     30  N   UNL A   1      40.680  18.937  25.878  1.00  0.00    -0.352 N 
ATOM     31  C   UNL A   1      41.918  19.529  25.851  1.00  0.00     0.251 C 
ATOM     32  H   UNL A   1      40.677  17.977  25.659  1.00  0.00     0.163 HD
ATOM     33  O   UNL A   1      42.867  18.929  25.354  1.00  0.00    -0.269 OA
BRANCH  31  34
ATOM     34  C   UNL A   1      42.112  20.884  26.407  1.00  0.00     0.039 A 
ATOM     35  C   UNL A   1      42.051  21.073  27.790  1.00  0.00     0.014 A 
ATOM     36  C   UNL A   1      42.326  21.977  25.566  1.00  0.00     0.014 A 
ATOM     37  C   UNL A   1      42.263  22.346  28.325  1.00  0.00     0.010 A 
ATOM     38  C   UNL A   1      42.662  23.211  26.102  1.00  0.00     0.010 A 
ATOM     39  C   UNL A   1      42.605  23.418  27.485  1.00  0.00    -0.014 A 
BRANCH  39  40
ATOM     40  C   UNL A   1      42.842  24.783  28.015  1.00  0.00     0.031 A 
ATOM     41  C   UNL A   1      44.232  25.181  28.442  1.00  0.00     0.074 A 
ATOM     42  C   UNL A   1      41.810  25.635  28.169  1.00  0.00     0.049 A 
ATOM     43  N   UNL A   1      44.635  26.278  29.029  1.00  0.00    -0.248 NA
ATOM     44  C   UNL A   1      45.307  24.200  28.209  1.00  0.00     0.031 C 
ATOM     45  C   UNL A   1      40.413  25.350  27.833  1.00  0.00     0.029 A 
ATOM     46  N   UNL A   1      41.776  26.916  28.659  1.00  0.00    -0.354 N 
ATOM     47  C   UNL A   1      45.999  26.113  29.239  1.00  0.00     0.074 A 
ATOM     48  C   UNL A   1      46.343  24.782  28.792  1.00  0.00     0.031 C 
ATOM     49  C   UNL A   1      39.665  26.433  28.102  1.00  0.00     0.029 A 
ATOM     50  C   UNL A   1      40.519  27.470  28.672  1.00  0.00     0.049 A 
ATOM     51  H   UNL A   1      42.579  27.394  28.973  1.00  0.00     0.167 HD
ATOM     52  C   UNL A   1      46.896  27.003  29.722  1.00  0.00     0.037 A 
ATOM     53  C   UNL A   1      40.105  28.675  29.105  1.00  0.00     0.037 A 
ATOM     54  C   UNL A   1      46.556  28.336  30.141  1.00  0.00     0.049 A 
ATOM     55  C   UNL A   1      41.121  29.635  29.664  1.00  0.00     0.074 A 
ATOM     56  C   UNL A   1      47.392  29.326  30.627  1.00  0.00     0.029 A 
ATOM     57  N   UNL A   1      45.277  28.867  30.111  1.00  0.00    -0.354 N 
ATOM     58  N   UNL A   1      42.416  29.481  29.812  1.00  0.00    -0.248 NA
ATOM     59  C   UNL A   1      40.621  30.943  30.109  1.00  0.00     0.031 C 
ATOM     60  C   UNL A   1      46.611  30.445  30.927  1.00  0.00     0.029 A 
ATOM     61  C   UNL A   1      45.299  30.171  30.573  1.00  0.00     0.049 A 
ATOM     62  H   UNL A   1      44.472  28.388  29.806  1.00  0.00     0.167 HD
ATOM     63  C   UNL A   1      42.887  30.687  30.317  1.00  0.00     0.074 A 
ATOM     64  C   UNL A   1      41.743  31.564  30.439  1.00  0.00     0.031 C 
ATOM     65  C   UNL A   1      44.153  31.039  30.651  1.00  0.00     0.037 A 
BRANCH  52  66
ATOM     66  C   UNL A   1      48.334  26.577  29.793  1.00  0.00     0.057 A 
ATOM     67  C   UNL A   1      49.239  26.878  28.766  1.00  0.00     0.134 A 
ATOM     68  C   UNL A   1      48.833  25.909  30.917  1.00  0.00     0.134 A 
ATOM     69  F   UNL A   1      48.822  27.501  27.654  1.00  0.00    -0.206 F 
ATOM     70  C   UNL A   1      50.584  26.515  28.847  1.00  0.00     0.040 A 
ATOM     71  C   UNL A   1      50.183  25.568  31.024  1.00  0.00     0.040 A 
ATOM     72  F   UNL A   1      48.023  25.593  31.939  1.00  0.00    -0.206 F 
ATOM     73  C   UNL A   1      51.062  25.868  29.984  1.00  0.00     0.006 A 
ENDBRANCH  52  66
BRANCH  53  74
ATOM     74  C   UNL A   1      38.671  29.062  29.026  1.00  0.00     0.057 A 
ATOM     75  C   UNL A   1      38.119  29.557  27.837  1.00  0.00     0.134 A 
ATOM     76  C   UNL A   1      37.835  29.007  30.147  1.00  0.00     0.134 A 
ATOM     77  F   UNL A   1      38.870  29.647  26.731  1.00  0.00    -0.206 F 
ATOM     78  C   UNL A   1      36.807  30.028  27.780  1.00  0.00     0.040 A 
ATOM     79  C   UNL A   1      36.510  29.444  30.095  1.00  0.00     0.040 A 
ATOM     80  F   UNL A   1      38.294  28.529  31.313  1.00  0.00    -0.206 F 
ATOM     81  C   UNL A   1      35.998  29.974  28.913  1.00  0.00     0.006 A 
ENDBRANCH  53  74
BRANCH  65  82
ATOM     82  C   UNL A   1      44.378  32.452  31.103  1.00  0.00     0.057 A 
ATOM     83  C   UNL A   1      44.651  33.490  30.204  1.00  0.00     0.134 A 
ATOM     84  C   UNL A   1      44.285  32.781  32.461  1.00  0.00     0.134 A 
ATOM     85  F   UNL A   1      44.764  33.241  28.890  1.00  0.00    -0.206 F 
ATOM     86  C   UNL A   1      44.855  34.798  30.643  1.00  0.00     0.040 A 
ATOM     87  C   UNL A   1      44.453  34.091  32.910  1.00  0.00     0.040 A 
ATOM     88  F   UNL A   1      44.013  31.836  33.375  1.00  0.00    -0.206 F 
ATOM     89  C   UNL A   1      44.750  35.102  31.999  1.00  0.00     0.006 A 
ENDBRANCH  65  82
ENDBRANCH  39  40
ENDBRANCH  31  34
ENDBRANCH  29  30
ENDBRANCH  28  29
ENDBRANCH   1  28
TORSDOF 13
ENDMDL
MODEL 3
REMARK VINA RESULT:     -12.2      7.007     12.425
REMARK SMILES CC1CCN(S(=O)(=O)N2CCC[C@H](c3cccc(C(=O)NCCCNC(=O)c4ccc(-c5c6nc(c(-c7c(F)cccc7F)c7ccc([nH]7)c(-c7c(F)cccc7F)c7nc(c(-c8c(F)cccc8F)c8ccc5[nH]8)C=C7)C=C6)cc4)c3)C2)CC1
REMARK SMILES IDX 22 1 21 2 19 3 20 4 18 6 14 7 15 8 82 9 16 10 17 11 13 12
REMARK SMILES IDX 9 13 10 14 83 15 11 16 12 17 6 18 7 19 8 20 5 21 1 22 2 23
REMARK SMILES IDX 3 24 85 25 4 26 84 27 23 28 24 29 25 30 26 31 27 33 28 34
REMARK SMILES IDX 29 35 81 36 30 37 80 38 31 39 32 40 33 41 74 42 34 43 79 44
REMARK SMILES IDX 73 45 75 46 35 47 78 48 72 49 71 50 36 52 62 53 45 54 61 55
REMARK SMILES IDX 46 56 49 57 60 58 76 59 47 60 48 61 59 63 77 64 50 65 37 66
REMARK SMILES IDX 38 67 43 68 39 69 40 70 42 71 44 72 41 73 63 74 64 75 69 76
REMARK SMILES IDX 65 77 66 78 68 79 70 80 67 81 51 82 52 83 57 84 53 85 54 86
REMARK SMILES IDX 56 87 58 88 55 89
REMARK H PARENT 21 5 25 32 75 51 49 62
REMARK Flexibility Score: inf
ROOT
ATOM      1  C   UNL A   1      41.443  20.120  25.903  1.00  0.00     0.118 C 
ENDROOT
BRANCH   1   2
ATOM      2  N   UNL A   1      41.867  20.976  27.008  1.00  0.00    -0.352 N 
ATOM      3  C   UNL A   1      41.310  22.062  27.654  1.00  0.00     0.251 C 
ATOM      4  O   UNL A   1      41.962  22.581  28.559  1.00  0.00    -0.269 OA
ATOM      5  H   UNL A   1      42.745  20.723  27.372  1.00  0.00     0.163 HD
BRANCH   3   6
ATOM      6  C   UNL A   1      40.011  22.670  27.258  1.00  0.00     0.040 A 
ATOM      7  C   UNL A   1      38.090  22.642  25.767  1.00  0.00    -0.043 A 
ATOM      8  C   UNL A   1      37.819  23.969  26.115  1.00  0.00     0.004 A 
ATOM      9  C   UNL A   1      39.077  21.980  26.500  1.00  0.00     0.017 A 
ATOM     10  C   UNL A   1      38.601  24.623  27.073  1.00  0.00     0.001 A 
ATOM     11  C   UNL A   1      39.733  23.996  27.596  1.00  0.00     0.014 A 
BRANCH   7  12
ATOM     12  C   UNL A   1      37.578  21.969  24.495  1.00  0.00     0.034 C 
ATOM     13  N   UNL A   1      35.236  22.746  24.301  1.00  0.00    -0.188 NA
ATOM     14  C   UNL A   1      34.672  21.413  24.586  1.00  0.00     0.103 C 
ATOM     15  C   UNL A   1      36.569  22.764  23.667  1.00  0.00     0.111 C 
ATOM     16  C   UNL A   1      35.681  20.559  25.354  1.00  0.00     0.017 C 
ATOM     17  C   UNL A   1      37.028  20.537  24.646  1.00  0.00     0.011 C 
BRANCH  13  18
ATOM     18  S   UNL A   1      34.177  23.993  23.953  1.00  0.00     0.281 S 
ATOM     19  O   UNL A   1      34.163  24.170  22.522  1.00  0.00    -0.195 OA
ATOM     20  O   UNL A   1      34.499  25.105  24.822  1.00  0.00    -0.195 OA
BRANCH  18  21
ATOM     21  N   UNL A   1      32.662  23.407  24.458  1.00  0.00    -0.189 NA
ATOM     22  C   UNL A   1      30.416  27.005  24.053  1.00  0.00     0.008 C 
ATOM     23  C   UNL A   1      30.639  25.537  24.417  1.00  0.00    -0.012 C 
ATOM     24  C   UNL A   1      31.671  25.414  25.557  1.00  0.00     0.020 C 
ATOM     25  C   UNL A   1      31.028  24.739  23.164  1.00  0.00     0.020 C 
ATOM     26  C   UNL A   1      32.209  23.994  25.754  1.00  0.00     0.104 C 
ATOM     27  C   UNL A   1      31.506  23.348  23.540  1.00  0.00     0.104 C 
ENDBRANCH  18  21
ENDBRANCH  13  18
ENDBRANCH   7  12
ENDBRANCH   3   6
ENDBRANCH   1   2
BRANCH   1  28
ATOM     28  C   UNL A   1      42.038  18.726  25.926  1.00  0.00     0.042 C 
BRANCH  28  29
ATOM     29  C   UNL A   1      43.535  18.704  26.150  1.00  0.00     0.118 C 
BRANCH  29  30
ATOM     30  N   UNL A   1      44.282  18.499  24.912  1.00  0.00    -0.352 N 
ATOM     31  C   UNL A   1      44.872  19.403  24.063  1.00  0.00     0.251 C 
ATOM     32  H   UNL A   1      44.377  17.558  24.641  1.00  0.00     0.163 HD
ATOM     33  O   UNL A   1      45.258  19.036  22.958  1.00  0.00    -0.269 OA
BRANCH  31  34
ATOM     34  C   UNL A   1      45.038  20.814  24.471  1.00  0.00     0.039 A 
ATOM     35  C   UNL A   1      44.598  21.830  23.620  1.00  0.00     0.014 A 
ATOM     36  C   UNL A   1      45.654  21.139  25.681  1.00  0.00     0.014 A 
ATOM     37  C   UNL A   1      44.723  23.165  24.012  1.00  0.00     0.010 A 
ATOM     38  C   UNL A   1      45.662  22.453  26.125  1.00  0.00     0.010 A 
ATOM     39  C   UNL A   1      45.226  23.484  25.284  1.00  0.00    -0.014 A 
BRANCH  39  40
ATOM     40  C   UNL A   1      45.371  24.888  25.739  1.00  0.00     0.031 A 
ATOM     41  C   UNL A   1      46.731  25.539  25.710  1.00  0.00     0.074 A 
ATOM     42  C   UNL A   1      44.307  25.551  26.232  1.00  0.00     0.049 A 
ATOM     43  N   UNL A   1      47.097  26.711  26.161  1.00  0.00    -0.248 NA
ATOM     44  C   UNL A   1      47.833  24.755  25.126  1.00  0.00     0.031 C 
ATOM     45  C   UNL A   1      42.950  25.013  26.352  1.00  0.00     0.029 A 
ATOM     46  N   UNL A   1      44.203  26.824  26.734  1.00  0.00    -0.354 N 
ATOM     47  C   UNL A   1      48.463  26.796  25.922  1.00  0.00     0.074 A 
ATOM     48  C   UNL A   1      48.879  25.531  25.361  1.00  0.00     0.031 C 
ATOM     49  C   UNL A   1      42.146  25.957  26.868  1.00  0.00     0.029 A 
ATOM     50  C   UNL A   1      42.936  27.148  27.157  1.00  0.00     0.049 A 
ATOM     51  H   UNL A   1      44.964  27.446  26.785  1.00  0.00     0.167 HD
ATOM     52  C   UNL A   1      49.293  27.848  26.113  1.00  0.00     0.037 A 
ATOM     53  C   UNL A   1      42.473  28.277  27.725  1.00  0.00     0.037 A 
ATOM     54  C   UNL A   1      48.872  29.115  26.646  1.00  0.00     0.049 A 
ATOM     55  C   UNL A   1      43.426  29.421  27.952  1.00  0.00     0.074 A 
ATOM     56  C   UNL A   1      49.627  30.254  26.862  1.00  0.00     0.029 A 
ATOM     57  N   UNL A   1      47.576  29.411  27.036  1.00  0.00    -0.354 N 
ATOM     58  N   UNL A   1      44.706  29.502  27.676  1.00  0.00    -0.248 NA
ATOM     59  C   UNL A   1      42.867  30.636  28.560  1.00  0.00     0.031 C 
ATOM     60  C   UNL A   1      48.796  31.228  27.418  1.00  0.00     0.029 A 
ATOM     61  C   UNL A   1      47.511  30.715  27.495  1.00  0.00     0.049 A 
ATOM     62  H   UNL A   1      46.815  28.788  26.993  1.00  0.00     0.167 HD
ATOM     63  C   UNL A   1      45.090  30.790  28.030  1.00  0.00     0.074 A 
ATOM     64  C   UNL A   1      43.907  31.457  28.529  1.00  0.00     0.031 C 
ATOM     65  C   UNL A   1      46.312  31.371  27.951  1.00  0.00     0.037 A 
BRANCH  52  66
ATOM     66  C   UNL A   1      50.731  27.684  25.714  1.00  0.00     0.057 A 
ATOM     67  C   UNL A   1      51.712  27.313  26.645  1.00  0.00     0.134 A 
ATOM     68  C   UNL A   1      51.133  27.843  24.383  1.00  0.00     0.134 A 
ATOM     69  F   UNL A   1      51.397  27.160  27.940  1.00  0.00    -0.206 F 
ATOM     70  C   UNL A   1      53.042  27.124  26.268  1.00  0.00     0.040 A 
ATOM     71  C   UNL A   1      52.455  27.627  23.988  1.00  0.00     0.040 A 
ATOM     72  F   UNL A   1      50.245  28.194  23.440  1.00  0.00    -0.206 F 
ATOM     73  C   UNL A   1      53.415  27.271  24.934  1.00  0.00     0.006 A 
ENDBRANCH  52  66
BRANCH  53  74
ATOM     74  C   UNL A   1      41.043  28.403  28.115  1.00  0.00     0.057 A 
ATOM     75  C   UNL A   1      40.098  28.949  27.236  1.00  0.00     0.134 A 
ATOM     76  C   UNL A   1      40.598  28.040  29.391  1.00  0.00     0.134 A 
ATOM     77  F   UNL A   1      40.464  29.328  26.003  1.00  0.00    -0.206 F 
ATOM     78  C   UNL A   1      38.779  29.177  27.629  1.00  0.00     0.040 A 
ATOM     79  C   UNL A   1      39.272  28.232  29.786  1.00  0.00     0.040 A 
ATOM     80  F   UNL A   1      41.446  27.497  30.277  1.00  0.00    -0.206 F 
ATOM     81  C   UNL A   1      38.362  28.818  28.909  1.00  0.00     0.006 A 
ENDBRANCH  53  74
BRANCH  65  82
ATOM     82  C   UNL A   1      46.413  32.818  28.337  1.00  0.00     0.057 A 
ATOM     83  C   UNL A   1      46.209  33.853  27.417  1.00  0.00     0.134 A 
ATOM     84  C   UNL A   1      46.686  33.175  29.664  1.00  0.00     0.134 A 
ATOM     85  F   UNL A   1      45.954  33.579  26.129  1.00  0.00    -0.206 F 
ATOM     86  C   UNL A   1      46.305  35.192  27.796  1.00  0.00     0.040 A 
ATOM     87  C   UNL A   1      46.751  34.510  30.062  1.00  0.00     0.040 A 
ATOM     88  F   UNL A   1      46.880  32.232  30.599  1.00  0.00    -0.206 F 
ATOM     89  C   UNL A   1      46.570  35.524  29.124  1.00  0.00     0.006 A 
ENDBRANCH  65  82
ENDBRANCH  39  40
ENDBRANCH  31  34
ENDBRANCH  29  30
ENDBRANCH  28  29
ENDBRANCH   1  28
TORSDOF 13
ENDMDL
