MODEL 1
REMARK VINA RESULT:     -11.9      0.000      0.000
REMARK SMILES Cc1ccc(C[C@H](C(=O)NCCCNC(=O)c2ccc(-c3c4nc(c(-c5c(F)cccc5F)c5ccc([nH]5)c(-c5c(F)cccc5F)c5nc(c(-c6c(F)cccc6F)c6ccc3[nH]6)C=C5)C=C4)cc2)[C@@H]2CCCC[C@@H]2O)cc1
REMARK SMILES IDX 12 1 11 2 10 3 8 4 9 5 7 7 6 8 5 9 1 10 2 11 3 12 79 13 4 14
REMARK SMILES IDX 78 15 71 16 72 17 76 18 73 19 75 20 74 21 77 22 13 24 14 25
REMARK SMILES IDX 15 26 16 28 17 29 18 30 70 31 19 32 69 33 20 34 21 35 22 36
REMARK SMILES IDX 63 37 23 38 68 39 62 40 64 41 24 42 67 43 61 44 60 45 25 47
REMARK SMILES IDX 51 48 34 49 50 50 35 51 38 52 49 53 65 54 36 55 37 56 48 58
REMARK SMILES IDX 66 59 39 60 26 61 27 62 32 63 28 64 29 65 31 66 33 67 30 68
REMARK SMILES IDX 52 69 53 70 58 71 54 72 55 73 57 74 59 75 56 76 40 77 41 78
REMARK SMILES IDX 46 79 42 80 43 81 45 82 47 83 44 84
REMARK H PARENT 10 6 77 23 14 27 64 46 38 57
REMARK Flexibility Score: inf
ROOT
ATOM      1  C   UNL A   1      34.555  31.641  27.626  1.00  0.00     0.042 C 
ENDROOT
BRANCH   1   2
ATOM      2  C   UNL A   1      34.057  30.281  27.207  1.00  0.00     0.117 C 
BRANCH   2   3
ATOM      3  N   UNL A   1      32.793  29.830  27.700  1.00  0.00    -0.356 N 
ATOM      4  C   UNL A   1      32.164  28.684  27.302  1.00  0.00     0.223 C 
ATOM      5  O   UNL A   1      31.181  28.346  27.970  1.00  0.00    -0.275 OA
ATOM      6  H   UNL A   1      32.343  30.387  28.375  1.00  0.00     0.163 HD
BRANCH   4   7
ATOM      7  C   UNL A   1      32.604  27.907  26.015  1.00  0.00     0.088 C 
BRANCH   7   8
ATOM      8  C   UNL A   1      32.100  26.426  25.961  1.00  0.00     0.049 C 
BRANCH   8   9
ATOM      9  C   UNL A   1      33.067  25.273  25.762  1.00  0.00    -0.047 A 
ATOM     10  C   UNL A   1      35.922  22.019  25.811  1.00  0.00     0.044 C 
ATOM     11  C   UNL A   1      34.910  23.123  25.696  1.00  0.00    -0.051 A 
ATOM     12  C   UNL A   1      35.321  24.421  25.374  1.00  0.00     0.004 A 
ATOM     13  C   UNL A   1      33.556  22.894  25.968  1.00  0.00     0.004 A 
ATOM     14  C   UNL A   1      34.403  25.481  25.375  1.00  0.00     0.004 A 
ATOM     15  C   UNL A   1      32.643  23.955  25.994  1.00  0.00     0.004 A 
ENDBRANCH   8   9
ENDBRANCH   7   8
BRANCH   7  16
ATOM     16  C   UNL A   1      32.060  28.748  24.776  1.00  0.00     0.030 C 
ATOM     17  C   UNL A   1      30.644  28.414  24.267  1.00  0.00     0.007 C 
ATOM     18  C   UNL A   1      33.032  28.745  23.563  1.00  0.00     0.118 C 
ATOM     19  C   UNL A   1      30.588  27.095  23.506  1.00  0.00     0.001 C 
ATOM     20  C   UNL A   1      32.953  27.461  22.732  1.00  0.00     0.032 C 
ATOM     21  C   UNL A   1      31.527  27.133  22.308  1.00  0.00     0.003 C 
BRANCH  18  22
ATOM     22  O   UNL A   1      34.386  28.929  23.955  1.00  0.00    -0.393 OA
ATOM     23  H   UNL A   1      34.903  29.242  23.195  1.00  0.00     0.210 HD
ENDBRANCH  18  22
ENDBRANCH   7  16
ENDBRANCH   4   7
ENDBRANCH   2   3
ENDBRANCH   1   2
BRANCH   1  24
ATOM     24  C   UNL A   1      34.797  31.769  29.128  1.00  0.00     0.118 C 
BRANCH  24  25
ATOM     25  N   UNL A   1      36.209  31.971  29.507  1.00  0.00    -0.352 N 
ATOM     26  C   UNL A   1      37.392  31.265  29.331  1.00  0.00     0.251 C 
ATOM     27  H   UNL A   1      36.345  32.809  30.005  1.00  0.00     0.163 HD
ATOM     28  O   UNL A   1      38.459  31.818  29.540  1.00  0.00    -0.269 OA
BRANCH  26  29
ATOM     29  C   UNL A   1      37.404  29.897  28.747  1.00  0.00     0.039 A 
ATOM     30  C   UNL A   1      37.336  28.898  29.727  1.00  0.00     0.014 A 
ATOM     31  C   UNL A   1      38.135  29.703  27.594  1.00  0.00     0.014 A 
ATOM     32  C   UNL A   1      38.424  28.055  29.853  1.00  0.00     0.010 A 
ATOM     33  C   UNL A   1      39.251  28.909  27.747  1.00  0.00     0.010 A 
ATOM     34  C   UNL A   1      39.468  28.230  28.961  1.00  0.00    -0.014 A 
BRANCH  34  35
ATOM     35  C   UNL A   1      40.864  27.939  29.279  1.00  0.00     0.031 A 
ATOM     36  C   UNL A   1      41.462  26.723  28.700  1.00  0.00     0.074 A 
ATOM     37  C   UNL A   1      41.642  28.842  29.930  1.00  0.00     0.049 A 
ATOM     38  N   UNL A   1      42.645  26.297  28.961  1.00  0.00    -0.248 NA
ATOM     39  C   UNL A   1      40.721  25.840  27.805  1.00  0.00     0.031 C 
ATOM     40  C   UNL A   1      43.106  28.894  29.959  1.00  0.00     0.029 A 
ATOM     41  N   UNL A   1      41.258  29.805  30.877  1.00  0.00    -0.354 N 
ATOM     42  C   UNL A   1      42.918  25.253  28.113  1.00  0.00     0.074 A 
ATOM     43  C   UNL A   1      41.664  24.957  27.475  1.00  0.00     0.031 C 
ATOM     44  C   UNL A   1      43.504  29.591  31.032  1.00  0.00     0.029 A 
ATOM     45  C   UNL A   1      42.322  29.884  31.816  1.00  0.00     0.049 A 
ATOM     46  H   UNL A   1      40.420  30.322  30.889  1.00  0.00     0.167 HD
ATOM     47  C   UNL A   1      44.208  24.835  28.010  1.00  0.00     0.037 A 
ATOM     48  C   UNL A   1      42.141  29.509  33.119  1.00  0.00     0.037 A 
ATOM     49  C   UNL A   1      45.001  25.364  29.125  1.00  0.00     0.049 A 
ATOM     50  C   UNL A   1      42.941  28.292  33.547  1.00  0.00     0.074 A 
ATOM     51  C   UNL A   1      45.907  26.396  29.301  1.00  0.00     0.029 A 
ATOM     52  N   UNL A   1      44.653  24.947  30.397  1.00  0.00    -0.354 N 
ATOM     53  N   UNL A   1      43.754  27.630  32.769  1.00  0.00    -0.248 NA
ATOM     54  C   UNL A   1      42.807  27.665  34.863  1.00  0.00     0.031 C 
ATOM     55  C   UNL A   1      46.033  26.630  30.708  1.00  0.00     0.029 A 
ATOM     56  C   UNL A   1      45.229  25.724  31.378  1.00  0.00     0.049 A 
ATOM     57  H   UNL A   1      44.062  24.181  30.581  1.00  0.00     0.167 HD
ATOM     58  C   UNL A   1      44.136  26.472  33.392  1.00  0.00     0.074 A 
ATOM     59  C   UNL A   1      43.546  26.551  34.715  1.00  0.00     0.031 C 
ATOM     60  C   UNL A   1      44.846  25.492  32.765  1.00  0.00     0.037 A 
BRANCH  47  61
ATOM     61  C   UNL A   1      44.795  24.030  26.872  1.00  0.00     0.057 A 
ATOM     62  C   UNL A   1      44.390  22.694  26.685  1.00  0.00     0.134 A 
ATOM     63  C   UNL A   1      45.820  24.442  25.995  1.00  0.00     0.134 A 
ATOM     64  F   UNL A   1      43.421  22.143  27.428  1.00  0.00    -0.206 F 
ATOM     65  C   UNL A   1      44.976  21.840  25.738  1.00  0.00     0.040 A 
ATOM     66  C   UNL A   1      46.396  23.606  25.030  1.00  0.00     0.040 A 
ATOM     67  F   UNL A   1      46.360  25.660  26.022  1.00  0.00    -0.206 F 
ATOM     68  C   UNL A   1      45.986  22.293  24.907  1.00  0.00     0.006 A 
ENDBRANCH  47  61
BRANCH  48  69
ATOM     69  C   UNL A   1      40.780  29.855  33.606  1.00  0.00     0.057 A 
ATOM     70  C   UNL A   1      40.539  31.184  33.999  1.00  0.00     0.134 A 
ATOM     71  C   UNL A   1      39.674  29.076  33.261  1.00  0.00     0.134 A 
ATOM     72  F   UNL A   1      41.561  31.977  34.357  1.00  0.00    -0.206 F 
ATOM     73  C   UNL A   1      39.271  31.759  33.895  1.00  0.00     0.040 A 
ATOM     74  C   UNL A   1      38.396  29.639  33.172  1.00  0.00     0.040 A 
ATOM     75  F   UNL A   1      39.833  27.807  32.858  1.00  0.00    -0.206 F 
ATOM     76  C   UNL A   1      38.204  30.994  33.436  1.00  0.00     0.006 A 
ENDBRANCH  48  69
BRANCH  60  77
ATOM     77  C   UNL A   1      45.207  24.197  33.433  1.00  0.00     0.057 A 
ATOM     78  C   UNL A   1      44.267  23.180  33.634  1.00  0.00     0.134 A 
ATOM     79  C   UNL A   1      46.475  23.988  34.010  1.00  0.00     0.134 A 
ATOM     80  F   UNL A   1      43.026  23.283  33.136  1.00  0.00    -0.206 F 
ATOM     81  C   UNL A   1      44.569  22.027  34.370  1.00  0.00     0.040 A 
ATOM     82  C   UNL A   1      46.771  22.869  34.790  1.00  0.00     0.040 A 
ATOM     83  F   UNL A   1      47.481  24.856  33.821  1.00  0.00    -0.206 F 
ATOM     84  C   UNL A   1      45.816  21.880  34.970  1.00  0.00     0.006 A 
ENDBRANCH  60  77
ENDBRANCH  34  35
ENDBRANCH  26  29
ENDBRANCH  24  25
ENDBRANCH   1  24
TORSDOF 14
ENDMDL
MODEL 2
REMARK VINA RESULT:     -11.7      3.281      8.353
REMARK SMILES Cc1ccc(C[C@H](C(=O)NCCCNC(=O)c2ccc(-c3c4nc(c(-c5c(F)cccc5F)c5ccc([nH]5)c(-c5c(F)cccc5F)c5nc(c(-c6c(F)cccc6F)c6ccc3[nH]6)C=C5)C=C4)cc2)[C@@H]2CCCC[C@@H]2O)cc1
REMARK SMILES IDX 12 1 11 2 10 3 8 4 9 5 7 7 6 8 5 9 1 10 2 11 3 12 79 13 4 14
REMARK SMILES IDX 78 15 71 16 72 17 76 18 73 19 75 20 74 21 77 22 13 24 14 25
REMARK SMILES IDX 15 26 16 28 17 29 18 30 70 31 19 32 69 33 20 34 21 35 22 36
REMARK SMILES IDX 63 37 23 38 68 39 62 40 64 41 24 42 67 43 61 44 60 45 25 47
REMARK SMILES IDX 51 48 34 49 50 50 35 51 38 52 49 53 65 54 36 55 37 56 48 58
REMARK SMILES IDX 66 59 39 60 26 61 27 62 32 63 28 64 29 65 31 66 33 67 30 68
REMARK SMILES IDX 52 69 53 70 58 71 54 72 55 73 57 74 59 75 56 76 40 77 41 78
REMARK SMILES IDX 46 79 42 80 43 81 45 82 47 83 44 84
REMARK H PARENT 10 6 77 23 14 27 64 46 38 57
REMARK Flexibility Score: inf
ROOT
ATOM      1  C   UNL A   1      39.123  22.874  26.572  1.00  0.00     0.042 C 
ENDROOT
BRANCH   1   2
ATOM      2  C   UNL A   1      37.762  22.542  26.016  1.00  0.00     0.117 C 
BRANCH   2   3
ATOM      3  N   UNL A   1      37.600  22.466  24.597  1.00  0.00    -0.356 N 
ATOM      4  C   UNL A   1      36.529  22.959  23.906  1.00  0.00     0.223 C 
ATOM      5  O   UNL A   1      36.644  22.985  22.676  1.00  0.00    -0.275 OA
ATOM      6  H   UNL A   1      38.312  22.024  24.081  1.00  0.00     0.163 HD
BRANCH   4   7
ATOM      7  C   UNL A   1      35.201  23.370  24.627  1.00  0.00     0.088 C 
BRANCH   7   8
ATOM      8  C   UNL A   1      34.314  24.368  23.809  1.00  0.00     0.049 C 
BRANCH   8   9
ATOM      9  C   UNL A   1      34.045  25.775  24.312  1.00  0.00    -0.047 A 
ATOM     10  C   UNL A   1      32.695  29.593  25.843  1.00  0.00     0.044 C 
ATOM     11  C   UNL A   1      33.260  28.304  25.316  1.00  0.00    -0.051 A 
ATOM     12  C   UNL A   1      33.308  28.071  23.938  1.00  0.00     0.004 A 
ATOM     13  C   UNL A   1      33.689  27.294  26.185  1.00  0.00     0.004 A 
ATOM     14  C   UNL A   1      33.727  26.829  23.438  1.00  0.00     0.004 A 
ATOM     15  C   UNL A   1      34.084  26.046  25.689  1.00  0.00     0.004 A 
ENDBRANCH   8   9
ENDBRANCH   7   8
BRANCH   7  16
ATOM     16  C   UNL A   1      34.419  22.016  24.932  1.00  0.00     0.030 C 
ATOM     17  C   UNL A   1      33.288  21.624  23.961  1.00  0.00     0.007 C 
ATOM     18  C   UNL A   1      33.869  21.943  26.384  1.00  0.00     0.118 C 
ATOM     19  C   UNL A   1      32.041  22.484  24.133  1.00  0.00     0.001 C 
ATOM     20  C   UNL A   1      32.574  22.740  26.578  1.00  0.00     0.032 C 
ATOM     21  C   UNL A   1      31.508  22.369  25.555  1.00  0.00     0.003 C 
BRANCH  18  22
ATOM     22  O   UNL A   1      34.812  22.402  27.344  1.00  0.00    -0.393 OA
ATOM     23  H   UNL A   1      34.818  23.373  27.353  1.00  0.00     0.210 HD
ENDBRANCH  18  22
ENDBRANCH   7  16
ENDBRANCH   4   7
ENDBRANCH   2   3
ENDBRANCH   1   2
BRANCH   1  24
ATOM     24  C   UNL A   1      40.178  21.810  26.286  1.00  0.00     0.118 C 
BRANCH  24  25
ATOM     25  N   UNL A   1      41.264  22.249  25.387  1.00  0.00    -0.352 N 
ATOM     26  C   UNL A   1      42.647  22.334  25.474  1.00  0.00     0.251 C 
ATOM     27  H   UNL A   1      40.925  22.555  24.515  1.00  0.00     0.163 HD
ATOM     28  O   UNL A   1      43.304  22.500  24.460  1.00  0.00    -0.269 OA
BRANCH  26  29
ATOM     29  C   UNL A   1      43.366  22.076  26.750  1.00  0.00     0.039 A 
ATOM     30  C   UNL A   1      42.491  21.896  27.829  1.00  0.00     0.014 A 
ATOM     31  C   UNL A   1      44.588  22.690  26.929  1.00  0.00     0.014 A 
ATOM     32  C   UNL A   1      42.539  22.829  28.849  1.00  0.00     0.010 A 
ATOM     33  C   UNL A   1      44.606  23.661  27.907  1.00  0.00     0.010 A 
ATOM     34  C   UNL A   1      43.489  23.831  28.747  1.00  0.00    -0.014 A 
BRANCH  34  35
ATOM     35  C   UNL A   1      43.314  25.173  29.297  1.00  0.00     0.031 A 
ATOM     36  C   UNL A   1      42.179  25.975  28.804  1.00  0.00     0.074 A 
ATOM     37  C   UNL A   1      44.050  25.604  30.353  1.00  0.00     0.049 A 
ATOM     38  N   UNL A   1      41.954  27.196  29.132  1.00  0.00    -0.248 NA
ATOM     39  C   UNL A   1      41.225  25.459  27.828  1.00  0.00     0.031 C 
ATOM     40  C   UNL A   1      43.735  26.709  31.263  1.00  0.00     0.029 A 
ATOM     41  N   UNL A   1      45.359  25.245  30.710  1.00  0.00    -0.354 N 
ATOM     42  C   UNL A   1      40.728  27.552  28.628  1.00  0.00     0.074 A 
ATOM     43  C   UNL A   1      40.357  26.468  27.759  1.00  0.00     0.031 C 
ATOM     44  C   UNL A   1      44.860  27.130  31.857  1.00  0.00     0.029 A 
ATOM     45  C   UNL A   1      45.961  26.419  31.242  1.00  0.00     0.049 A 
ATOM     46  H   UNL A   1      45.778  24.359  30.613  1.00  0.00     0.167 HD
ATOM     47  C   UNL A   1      40.155  28.697  29.089  1.00  0.00     0.037 A 
ATOM     48  C   UNL A   1      47.017  27.016  30.611  1.00  0.00     0.037 A 
ATOM     49  C   UNL A   1      41.155  29.519  29.780  1.00  0.00     0.049 A 
ATOM     50  C   UNL A   1      46.726  28.401  30.061  1.00  0.00     0.074 A 
ATOM     51  C   UNL A   1      41.488  29.782  31.097  1.00  0.00     0.029 A 
ATOM     52  N   UNL A   1      42.208  29.997  29.021  1.00  0.00    -0.354 N 
ATOM     53  N   UNL A   1      45.578  29.013  30.166  1.00  0.00    -0.248 NA
ATOM     54  C   UNL A   1      47.685  29.164  29.258  1.00  0.00     0.031 C 
ATOM     55  C   UNL A   1      42.798  30.363  31.108  1.00  0.00     0.029 A 
ATOM     56  C   UNL A   1      43.239  30.475  29.801  1.00  0.00     0.049 A 
ATOM     57  H   UNL A   1      42.220  29.996  28.037  1.00  0.00     0.167 HD
ATOM     58  C   UNL A   1      45.587  30.133  29.378  1.00  0.00     0.074 A 
ATOM     59  C   UNL A   1      46.938  30.207  28.854  1.00  0.00     0.031 C 
ATOM     60  C   UNL A   1      44.474  30.886  29.146  1.00  0.00     0.037 A 
BRANCH  47  61
ATOM     61  C   UNL A   1      38.687  29.052  29.010  1.00  0.00     0.057 A 
ATOM     62  C   UNL A   1      38.163  29.579  27.813  1.00  0.00     0.134 A 
ATOM     63  C   UNL A   1      37.757  29.012  30.070  1.00  0.00     0.134 A 
ATOM     64  F   UNL A   1      38.909  29.680  26.704  1.00  0.00    -0.206 F 
ATOM     65  C   UNL A   1      36.848  30.053  27.695  1.00  0.00     0.040 A 
ATOM     66  C   UNL A   1      36.435  29.461  29.957  1.00  0.00     0.040 A 
ATOM     67  F   UNL A   1      38.058  28.572  31.291  1.00  0.00    -0.206 F 
ATOM     68  C   UNL A   1      35.978  29.999  28.770  1.00  0.00     0.006 A 
ENDBRANCH  47  61
BRANCH  48  69
ATOM     69  C   UNL A   1      47.920  26.017  29.983  1.00  0.00     0.057 A 
ATOM     70  C   UNL A   1      47.820  25.817  28.595  1.00  0.00     0.134 A 
ATOM     71  C   UNL A   1      49.114  25.641  30.603  1.00  0.00     0.134 A 
ATOM     72  F   UNL A   1      46.691  26.145  27.947  1.00  0.00    -0.206 F 
ATOM     73  C   UNL A   1      48.917  25.414  27.833  1.00  0.00     0.040 A 
ATOM     74  C   UNL A   1      50.214  25.217  29.848  1.00  0.00     0.040 A 
ATOM     75  F   UNL A   1      49.286  25.821  31.920  1.00  0.00    -0.206 F 
ATOM     76  C   UNL A   1      50.133  25.156  28.458  1.00  0.00     0.006 A 
ENDBRANCH  48  69
BRANCH  60  77
ATOM     77  C   UNL A   1      44.475  32.075  28.231  1.00  0.00     0.057 A 
ATOM     78  C   UNL A   1      44.222  31.955  26.859  1.00  0.00     0.134 A 
ATOM     79  C   UNL A   1      44.859  33.354  28.677  1.00  0.00     0.134 A 
ATOM     80  F   UNL A   1      43.860  30.778  26.328  1.00  0.00    -0.206 F 
ATOM     81  C   UNL A   1      44.349  33.042  25.985  1.00  0.00     0.040 A 
ATOM     82  C   UNL A   1      45.041  34.431  27.808  1.00  0.00     0.040 A 
ATOM     83  F   UNL A   1      45.054  33.612  29.980  1.00  0.00    -0.206 F 
ATOM     84  C   UNL A   1      44.782  34.278  26.455  1.00  0.00     0.006 A 
ENDBRANCH  60  77
ENDBRANCH  34  35
ENDBRANCH  26  29
ENDBRANCH  24  25
ENDBRANCH   1  24
TORSDOF 14
ENDMDL
MODEL 3
REMARK VINA RESULT:     -11.6      4.517     11.139
REMARK SMILES Cc1ccc(C[C@H](C(=O)NCCCNC(=O)c2ccc(-c3c4nc(c(-c5c(F)cccc5F)c5ccc([nH]5)c(-c5c(F)cccc5F)c5nc(c(-c6c(F)cccc6F)c6ccc3[nH]6)C=C5)C=C4)cc2)[C@@H]2CCCC[C@@H]2O)cc1
REMARK SMILES IDX 12 1 11 2 10 3 8 4 9 5 7 7 6 8 5 9 1 10 2 11 3 12 79 13 4 14
REMARK SMILES IDX 78 15 71 16 72 17 76 18 73 19 75 20 74 21 77 22 13 24 14 25
REMARK SMILES IDX 15 26 16 28 17 29 18 30 70 31 19 32 69 33 20 34 21 35 22 36
REMARK SMILES IDX 63 37 23 38 68 39 62 40 64 41 24 42 67 43 61 44 60 45 25 47
REMARK SMILES IDX 51 48 34 49 50 50 35 51 38 52 49 53 65 54 36 55 37 56 48 58
REMARK SMILES IDX 66 59 39 60 26 61 27 62 32 63 28 64 29 65 31 66 33 67 30 68
REMARK SMILES IDX 52 69 53 70 58 71 54 72 55 73 57 74 59 75 56 76 40 77 41 78
REMARK SMILES IDX 46 79 42 80 43 81 45 82 47 83 44 84
REMARK H PARENT 10 6 77 23 14 27 64 46 38 57
REMARK Flexibility Score: inf
ROOT
ATOM      1  C   UNL A   1      41.378  21.234  27.576  1.00  0.00     0.042 C 
ENDROOT
BRANCH   1   2
ATOM      2  C   UNL A   1      41.470  20.845  26.123  1.00  0.00     0.117 C 
BRANCH   2   3
ATOM      3  N   UNL A   1      42.676  20.243  25.647  1.00  0.00    -0.356 N 
ATOM      4  C   UNL A   1      43.920  20.798  25.752  1.00  0.00     0.223 C 
ATOM      5  O   UNL A   1      44.869  20.058  25.470  1.00  0.00    -0.275 OA
ATOM      6  H   UNL A   1      42.604  19.363  25.212  1.00  0.00     0.163 HD
BRANCH   4   7
ATOM      7  C   UNL A   1      44.120  22.310  26.108  1.00  0.00     0.088 C 
BRANCH   7   8
ATOM      8  C   UNL A   1      45.281  22.578  27.124  1.00  0.00     0.049 C 
BRANCH   8   9
ATOM      9  C   UNL A   1      45.034  23.328  28.420  1.00  0.00    -0.047 A 
ATOM     10  C   UNL A   1      44.865  25.215  32.314  1.00  0.00     0.044 C 
ATOM     11  C   UNL A   1      44.845  24.619  30.934  1.00  0.00    -0.051 A 
ATOM     12  C   UNL A   1      44.151  23.430  30.693  1.00  0.00     0.004 A 
ATOM     13  C   UNL A   1      45.565  25.204  29.885  1.00  0.00     0.004 A 
ATOM     14  C   UNL A   1      44.218  22.805  29.439  1.00  0.00     0.004 A 
ATOM     15  C   UNL A   1      45.653  24.570  28.639  1.00  0.00     0.004 A 
ENDBRANCH   8   9
ENDBRANCH   7   8
BRANCH   7  16
ATOM     16  C   UNL A   1      44.373  23.066  24.729  1.00  0.00     0.030 C 
ATOM     17  C   UNL A   1      45.839  23.297  24.312  1.00  0.00     0.007 C 
ATOM     18  C   UNL A   1      43.613  24.418  24.626  1.00  0.00     0.118 C 
ATOM     19  C   UNL A   1      46.519  24.386  25.133  1.00  0.00     0.001 C 
ATOM     20  C   UNL A   1      44.306  25.557  25.382  1.00  0.00     0.032 C 
ATOM     21  C   UNL A   1      45.771  25.705  24.989  1.00  0.00     0.003 C 
BRANCH  18  22
ATOM     22  O   UNL A   1      42.277  24.326  25.105  1.00  0.00    -0.393 OA
ATOM     23  H   UNL A   1      41.774  25.102  24.811  1.00  0.00     0.210 HD
ENDBRANCH  18  22
ENDBRANCH   7  16
ENDBRANCH   4   7
ENDBRANCH   2   3
ENDBRANCH   1   2
BRANCH   1  24
ATOM     24  C   UNL A   1      40.668  22.564  27.811  1.00  0.00     0.118 C 
BRANCH  24  25
ATOM     25  N   UNL A   1      41.567  23.692  28.126  1.00  0.00    -0.352 N 
ATOM     26  C   UNL A   1      41.433  25.071  28.209  1.00  0.00     0.251 C 
ATOM     27  H   UNL A   1      42.484  23.394  28.325  1.00  0.00     0.163 HD
ATOM     28  O   UNL A   1      42.307  25.729  28.747  1.00  0.00    -0.269 OA
BRANCH  26  29
ATOM     29  C   UNL A   1      40.181  25.760  27.796  1.00  0.00     0.039 A 
ATOM     30  C   UNL A   1      40.407  26.742  26.822  1.00  0.00     0.014 A 
ATOM     31  C   UNL A   1      39.202  25.929  28.752  1.00  0.00     0.014 A 
ATOM     32  C   UNL A   1      40.141  28.053  27.168  1.00  0.00     0.010 A 
ATOM     33  C   UNL A   1      38.988  27.237  29.131  1.00  0.00     0.010 A 
ATOM     34  C   UNL A   1      39.616  28.282  28.428  1.00  0.00    -0.014 A 
BRANCH  34  35
ATOM     35  C   UNL A   1      39.851  29.504  29.195  1.00  0.00     0.031 A 
ATOM     36  C   UNL A   1      38.843  30.575  29.106  1.00  0.00     0.074 A 
ATOM     37  C   UNL A   1      40.860  29.585  30.100  1.00  0.00     0.049 A 
ATOM     38  N   UNL A   1      38.958  31.732  29.653  1.00  0.00    -0.248 NA
ATOM     39  C   UNL A   1      37.623  30.435  28.317  1.00  0.00     0.031 C 
ATOM     40  C   UNL A   1      40.981  30.534  31.210  1.00  0.00     0.029 A 
ATOM     41  N   UNL A   1      42.104  28.936  30.082  1.00  0.00    -0.354 N 
ATOM     42  C   UNL A   1      37.764  32.391  29.509  1.00  0.00     0.074 A 
ATOM     43  C   UNL A   1      36.999  31.578  28.603  1.00  0.00     0.031 C 
ATOM     44  C   UNL A   1      42.267  30.625  31.578  1.00  0.00     0.029 A 
ATOM     45  C   UNL A   1      43.041  29.858  30.624  1.00  0.00     0.049 A 
ATOM     46  H   UNL A   1      42.292  28.024  29.760  1.00  0.00     0.167 HD
ATOM     47  C   UNL A   1      37.558  33.510  30.255  1.00  0.00     0.037 A 
ATOM     48  C   UNL A   1      44.053  30.366  29.856  1.00  0.00     0.037 A 
ATOM     49  C   UNL A   1      38.831  33.992  30.804  1.00  0.00     0.049 A 
ATOM     50  C   UNL A   1      43.966  31.860  29.600  1.00  0.00     0.074 A 
ATOM     51  C   UNL A   1      39.471  33.934  32.030  1.00  0.00     0.029 A 
ATOM     52  N   UNL A   1      39.788  34.409  29.898  1.00  0.00    -0.354 N 
ATOM     53  N   UNL A   1      43.023  32.636  30.060  1.00  0.00    -0.248 NA
ATOM     54  C   UNL A   1      44.886  32.577  28.714  1.00  0.00     0.031 C 
ATOM     55  C   UNL A   1      40.850  34.258  31.817  1.00  0.00     0.029 A 
ATOM     56  C   UNL A   1      41.034  34.537  30.474  1.00  0.00     0.049 A 
ATOM     57  H   UNL A   1      39.602  34.595  28.948  1.00  0.00     0.167 HD
ATOM     58  C   UNL A   1      43.117  33.866  29.465  1.00  0.00     0.074 A 
ATOM     59  C   UNL A   1      44.318  33.795  28.655  1.00  0.00     0.031 C 
ATOM     60  C   UNL A   1      42.171  34.837  29.614  1.00  0.00     0.037 A 
BRANCH  47  61
ATOM     61  C   UNL A   1      36.218  34.131  30.577  1.00  0.00     0.057 A 
ATOM     62  C   UNL A   1      35.788  34.202  31.917  1.00  0.00     0.134 A 
ATOM     63  C   UNL A   1      35.255  34.578  29.647  1.00  0.00     0.134 A 
ATOM     64  F   UNL A   1      36.582  33.825  32.929  1.00  0.00    -0.206 F 
ATOM     65  C   UNL A   1      34.510  34.642  32.291  1.00  0.00     0.040 A 
ATOM     66  C   UNL A   1      33.984  35.041  30.010  1.00  0.00     0.040 A 
ATOM     67  F   UNL A   1      35.454  34.571  28.330  1.00  0.00    -0.206 F 
ATOM     68  C   UNL A   1      33.599  35.061  31.336  1.00  0.00     0.006 A 
ENDBRANCH  47  61
BRANCH  48  69
ATOM     69  C   UNL A   1      44.572  29.359  28.894  1.00  0.00     0.057 A 
ATOM     70  C   UNL A   1      44.129  29.430  27.562  1.00  0.00     0.134 A 
ATOM     71  C   UNL A   1      45.772  28.686  29.139  1.00  0.00     0.134 A 
ATOM     72  F   UNL A   1      42.976  30.051  27.267  1.00  0.00    -0.206 F 
ATOM     73  C   UNL A   1      44.925  28.993  26.502  1.00  0.00     0.040 A 
ATOM     74  C   UNL A   1      46.568  28.228  28.083  1.00  0.00     0.040 A 
ATOM     75  F   UNL A   1      46.263  28.597  30.383  1.00  0.00    -0.206 F 
ATOM     76  C   UNL A   1      46.170  28.431  26.762  1.00  0.00     0.006 A 
ENDBRANCH  48  69
BRANCH  60  77
ATOM     77  C   UNL A   1      42.247  36.159  28.909  1.00  0.00     0.057 A 
ATOM     78  C   UNL A   1      41.720  36.346  27.626  1.00  0.00     0.134 A 
ATOM     79  C   UNL A   1      42.967  37.245  29.444  1.00  0.00     0.134 A 
ATOM     80  F   UNL A   1      41.026  35.371  27.020  1.00  0.00    -0.206 F 
ATOM     81  C   UNL A   1      41.903  37.540  26.916  1.00  0.00     0.040 A 
ATOM     82  C   UNL A   1      43.202  38.419  28.726  1.00  0.00     0.040 A 
ATOM     83  F   UNL A   1      43.454  37.214  30.694  1.00  0.00    -0.206 F 
ATOM     84  C   UNL A   1      42.666  38.571  27.457  1.00  0.00     0.006 A 
ENDBRANCH  60  77
ENDBRANCH  34  35
ENDBRANCH  26  29
ENDBRANCH  24  25
ENDBRANCH   1  24
TORSDOF 14
ENDMDL
