MODEL 1
REMARK VINA RESULT:     -12.1      0.000      0.000
REMARK SMILES CC(C)CSc1cc2c(cc1Cl)C=C(C(=O)NCCCNC(=O)c1ccc(-c3c4nc(c(-c5c(F)cccc5F)c5ccc([nH]5)c(-c5c(F)cccc5F)c5nc(c(-c6c(F)cccc6F)c6ccc3[nH]6)C=C5)C=C4)cc1)[C@H](C(F)(F)F)O2
REMARK SMILES IDX 18 1 17 2 15 3 16 4 14 6 6 7 7 8 11 9 8 10 10 11 12 12 9 13
REMARK SMILES IDX 83 14 13 15 78 16 5 17 4 18 2 19 1 20 3 21 79 22 80 23 81 24
REMARK SMILES IDX 82 25 19 26 20 27 21 28 22 29 23 31 24 32 25 33 77 34 26 35
REMARK SMILES IDX 76 36 27 37 28 38 29 39 70 40 30 41 75 42 69 43 71 44 31 45
REMARK SMILES IDX 74 46 68 47 67 48 32 50 58 51 41 52 57 53 42 54 45 55 56 56
REMARK SMILES IDX 72 57 43 58 44 59 55 61 73 62 46 63 33 64 34 65 39 66 35 67
REMARK SMILES IDX 36 68 38 69 40 70 37 71 59 72 60 73 65 74 61 75 62 76 64 77
REMARK SMILES IDX 66 78 63 79 47 80 48 81 53 82 49 83 50 84 52 85 54 86 51 87
REMARK H PARENT 17 5 21 30 71 49 45 60
REMARK Flexibility Score: inf
ROOT
ATOM      1  C   UNL A   1      36.148  21.061  24.887  1.00  0.00     0.118 C 
ENDROOT
BRANCH   1   2
ATOM      2  N   UNL A   1      35.297  20.983  26.063  1.00  0.00    -0.352 N 
ATOM      3  C   UNL A   1      34.151  21.566  26.486  1.00  0.00     0.251 C 
ATOM      4  O   UNL A   1      33.706  21.145  27.558  1.00  0.00    -0.270 OA
ATOM      5  H   UNL A   1      35.645  20.342  26.724  1.00  0.00     0.163 HD
BRANCH   3   6
ATOM      6  C   UNL A   1      33.420  22.637  25.753  1.00  0.00     0.067 C 
ATOM      7  C   UNL A   1      32.082  27.127  23.869  1.00  0.00     0.030 A 
ATOM      8  C   UNL A   1      31.551  25.833  23.790  1.00  0.00     0.063 A 
ATOM      9  C   UNL A   1      33.201  27.350  24.689  1.00  0.00     0.055 A 
ATOM     10  C   UNL A   1      32.157  24.776  24.469  1.00  0.00     0.129 A 
ATOM     11  C   UNL A   1      33.808  26.284  25.364  1.00  0.00     0.033 A 
ATOM     12  Cl  UNL A   1      33.921  28.914  24.873  1.00  0.00    -0.083 Cl
ATOM     13  C   UNL A   1      33.288  24.993  25.251  1.00  0.00     0.019 A 
ATOM     14  O   UNL A   1      31.558  23.557  24.342  1.00  0.00    -0.475 OA
ATOM     15  C   UNL A   1      33.893  23.879  25.961  1.00  0.00     0.025 C 
ATOM     16  C   UNL A   1      32.310  22.386  24.768  1.00  0.00     0.314 C 
BRANCH   7  17
ATOM     17  S   UNL A   1      31.303  28.418  22.910  1.00  0.00    -0.124 SA
BRANCH  17  18
ATOM     18  C   UNL A   1      29.531  28.017  23.170  1.00  0.00     0.078 C 
BRANCH  18  19
ATOM     19  C   UNL A   1      28.562  29.142  22.752  1.00  0.00    -0.007 C 
ATOM     20  C   UNL A   1      27.112  28.854  23.151  1.00  0.00     0.008 C 
ATOM     21  C   UNL A   1      28.983  30.460  23.412  1.00  0.00     0.008 C 
ENDBRANCH  18  19
ENDBRANCH  17  18
ENDBRANCH   7  17
BRANCH  16  22
ATOM     22  C   UNL A   1      32.748  21.593  23.525  1.00  0.00     0.429 C 
ATOM     23  F   UNL A   1      31.810  21.576  22.551  1.00  0.00    -0.167 F 
ATOM     24  F   UNL A   1      33.860  22.155  22.984  1.00  0.00    -0.167 F 
ATOM     25  F   UNL A   1      33.047  20.305  23.808  1.00  0.00    -0.167 F 
ENDBRANCH  16  22
ENDBRANCH   3   6
ENDBRANCH   1   2
BRANCH   1  26
ATOM     26  C   UNL A   1      37.266  20.027  24.940  1.00  0.00     0.042 C 
BRANCH  26  27
ATOM     27  C   UNL A   1      38.541  20.571  25.573  1.00  0.00     0.118 C 
BRANCH  27  28
ATOM     28  N   UNL A   1      39.587  19.557  25.659  1.00  0.00    -0.352 N 
ATOM     29  C   UNL A   1      40.917  19.683  25.983  1.00  0.00     0.251 C 
ATOM     30  H   UNL A   1      39.294  18.640  25.454  1.00  0.00     0.163 HD
ATOM     31  O   UNL A   1      41.685  18.747  25.768  1.00  0.00    -0.269 OA
BRANCH  29  32
ATOM     32  C   UNL A   1      41.430  20.942  26.565  1.00  0.00     0.039 A 
ATOM     33  C   UNL A   1      41.385  21.156  27.942  1.00  0.00     0.014 A 
ATOM     34  C   UNL A   1      41.971  21.921  25.727  1.00  0.00     0.014 A 
ATOM     35  C   UNL A   1      41.680  22.411  28.455  1.00  0.00     0.010 A 
ATOM     36  C   UNL A   1      42.386  23.145  26.264  1.00  0.00     0.010 A 
ATOM     37  C   UNL A   1      42.195  23.422  27.627  1.00  0.00    -0.014 A 
BRANCH  37  38
ATOM     38  C   UNL A   1      42.522  24.745  28.222  1.00  0.00     0.031 A 
ATOM     39  C   UNL A   1      43.940  25.111  28.571  1.00  0.00     0.074 A 
ATOM     40  C   UNL A   1      41.536  25.651  28.381  1.00  0.00     0.049 A 
ATOM     41  N   UNL A   1      44.406  26.234  29.059  1.00  0.00    -0.248 NA
ATOM     42  C   UNL A   1      44.968  24.083  28.353  1.00  0.00     0.031 C 
ATOM     43  C   UNL A   1      40.121  25.420  28.078  1.00  0.00     0.029 A 
ATOM     44  N   UNL A   1      41.573  26.954  28.808  1.00  0.00    -0.354 N 
ATOM     45  C   UNL A   1      45.773  26.042  29.223  1.00  0.00     0.074 A 
ATOM     46  C   UNL A   1      46.055  24.681  28.821  1.00  0.00     0.031 C 
ATOM     47  C   UNL A   1      39.439  26.559  28.264  1.00  0.00     0.029 A 
ATOM     48  C   UNL A   1      40.348  27.577  28.774  1.00  0.00     0.049 A 
ATOM     49  H   UNL A   1      42.397  27.400  29.108  1.00  0.00     0.167 HD
ATOM     50  C   UNL A   1      46.710  26.921  29.656  1.00  0.00     0.037 A 
ATOM     51  C   UNL A   1      39.991  28.823  29.134  1.00  0.00     0.037 A 
ATOM     52  C   UNL A   1      46.428  28.278  30.048  1.00  0.00     0.049 A 
ATOM     53  C   UNL A   1      41.041  29.756  29.664  1.00  0.00     0.074 A 
ATOM     54  C   UNL A   1      47.309  29.255  30.482  1.00  0.00     0.029 A 
ATOM     55  N   UNL A   1      45.164  28.852  30.059  1.00  0.00    -0.354 N 
ATOM     56  N   UNL A   1      42.331  29.564  29.793  1.00  0.00    -0.248 NA
ATOM     57  C   UNL A   1      40.580  31.079  30.105  1.00  0.00     0.031 C 
ATOM     58  C   UNL A   1      46.573  30.398  30.808  1.00  0.00     0.029 A 
ATOM     59  C   UNL A   1      45.239  30.158  30.519  1.00  0.00     0.049 A 
ATOM     60  H   UNL A   1      44.336  28.399  29.781  1.00  0.00     0.167 HD
ATOM     61  C   UNL A   1      42.839  30.748  30.313  1.00  0.00     0.074 A 
ATOM     62  C   UNL A   1      41.721  31.658  30.446  1.00  0.00     0.031 C 
ATOM     63  C   UNL A   1      44.115  31.051  30.654  1.00  0.00     0.037 A 
BRANCH  50  64
ATOM     64  C   UNL A   1      48.127  26.427  29.756  1.00  0.00     0.057 A 
ATOM     65  C   UNL A   1      48.589  25.817  30.929  1.00  0.00     0.134 A 
ATOM     66  C   UNL A   1      49.040  26.565  28.702  1.00  0.00     0.134 A 
ATOM     67  F   UNL A   1      47.773  25.660  31.983  1.00  0.00    -0.206 F 
ATOM     68  C   UNL A   1      49.902  25.357  31.049  1.00  0.00     0.040 A 
ATOM     69  C   UNL A   1      50.348  26.082  28.797  1.00  0.00     0.040 A 
ATOM     70  F   UNL A   1      48.663  27.129  27.544  1.00  0.00    -0.206 F 
ATOM     71  C   UNL A   1      50.782  25.480  29.976  1.00  0.00     0.006 A 
ENDBRANCH  50  64
BRANCH  51  72
ATOM     72  C   UNL A   1      38.574  29.253  29.031  1.00  0.00     0.057 A 
ATOM     73  C   UNL A   1      38.031  29.687  27.815  1.00  0.00     0.134 A 
ATOM     74  C   UNL A   1      37.721  29.216  30.140  1.00  0.00     0.134 A 
ATOM     75  F   UNL A   1      38.797  29.753  26.716  1.00  0.00    -0.206 F 
ATOM     76  C   UNL A   1      36.695  30.074  27.706  1.00  0.00     0.040 A 
ATOM     77  C   UNL A   1      36.374  29.568  30.039  1.00  0.00     0.040 A 
ATOM     78  F   UNL A   1      38.176  28.792  31.329  1.00  0.00    -0.206 F 
ATOM     79  C   UNL A   1      35.859  30.003  28.818  1.00  0.00     0.006 A 
ENDBRANCH  51  72
BRANCH  63  80
ATOM     80  C   UNL A   1      44.364  32.438  31.174  1.00  0.00     0.057 A 
ATOM     81  C   UNL A   1      44.663  33.487  30.295  1.00  0.00     0.134 A 
ATOM     82  C   UNL A   1      44.299  32.741  32.541  1.00  0.00     0.134 A 
ATOM     83  F   UNL A   1      44.748  33.266  28.974  1.00  0.00    -0.206 F 
ATOM     84  C   UNL A   1      44.882  34.785  30.754  1.00  0.00     0.040 A 
ATOM     85  C   UNL A   1      44.484  34.043  33.010  1.00  0.00     0.040 A 
ATOM     86  F   UNL A   1      44.000  31.787  33.435  1.00  0.00    -0.206 F 
ATOM     87  C   UNL A   1      44.781  35.068  32.115  1.00  0.00     0.006 A 
ENDBRANCH  63  80
ENDBRANCH  37  38
ENDBRANCH  29  32
ENDBRANCH  27  28
ENDBRANCH  26  27
ENDBRANCH   1  26
TORSDOF 14
ENDMDL
MODEL 2
REMARK VINA RESULT:     -12.0      4.676      9.467
REMARK SMILES CC(C)CSc1cc2c(cc1Cl)C=C(C(=O)NCCCNC(=O)c1ccc(-c3c4nc(c(-c5c(F)cccc5F)c5ccc([nH]5)c(-c5c(F)cccc5F)c5nc(c(-c6c(F)cccc6F)c6ccc3[nH]6)C=C5)C=C4)cc1)[C@H](C(F)(F)F)O2
REMARK SMILES IDX 18 1 17 2 15 3 16 4 14 6 6 7 7 8 11 9 8 10 10 11 12 12 9 13
REMARK SMILES IDX 83 14 13 15 78 16 5 17 4 18 2 19 1 20 3 21 79 22 80 23 81 24
REMARK SMILES IDX 82 25 19 26 20 27 21 28 22 29 23 31 24 32 25 33 77 34 26 35
REMARK SMILES IDX 76 36 27 37 28 38 29 39 70 40 30 41 75 42 69 43 71 44 31 45
REMARK SMILES IDX 74 46 68 47 67 48 32 50 58 51 41 52 57 53 42 54 45 55 56 56
REMARK SMILES IDX 72 57 43 58 44 59 55 61 73 62 46 63 33 64 34 65 39 66 35 67
REMARK SMILES IDX 36 68 38 69 40 70 37 71 59 72 60 73 65 74 61 75 62 76 64 77
REMARK SMILES IDX 66 78 63 79 47 80 48 81 53 82 49 83 50 84 52 85 54 86 51 87
REMARK H PARENT 17 5 21 30 71 49 45 60
REMARK Flexibility Score: inf
ROOT
ATOM      1  C   UNL A   1      31.566  30.798  26.233  1.00  0.00     0.118 C 
ENDROOT
BRANCH   1   2
ATOM      2  N   UNL A   1      31.050  30.461  24.917  1.00  0.00    -0.352 N 
ATOM      3  C   UNL A   1      30.997  29.357  24.137  1.00  0.00     0.251 C 
ATOM      4  O   UNL A   1      30.378  29.486  23.076  1.00  0.00    -0.270 OA
ATOM      5  H   UNL A   1      30.631  31.237  24.480  1.00  0.00     0.163 HD
BRANCH   3   6
ATOM      6  C   UNL A   1      31.612  28.043  24.477  1.00  0.00     0.067 C 
ATOM      7  C   UNL A   1      32.253  23.308  26.111  1.00  0.00     0.030 A 
ATOM      8  C   UNL A   1      33.095  24.270  25.536  1.00  0.00     0.063 A 
ATOM      9  C   UNL A   1      30.926  23.662  26.407  1.00  0.00     0.055 A 
ATOM     10  C   UNL A   1      32.607  25.536  25.212  1.00  0.00     0.129 A 
ATOM     11  C   UNL A   1      30.441  24.932  26.075  1.00  0.00     0.033 A 
ATOM     12  Cl  UNL A   1      29.811  22.557  27.137  1.00  0.00    -0.083 Cl
ATOM     13  C   UNL A   1      31.281  25.871  25.472  1.00  0.00     0.019 A 
ATOM     14  O   UNL A   1      33.506  26.407  24.670  1.00  0.00    -0.475 OA
ATOM     15  C   UNL A   1      30.799  27.201  25.140  1.00  0.00     0.025 C 
ATOM     16  C   UNL A   1      32.986  27.612  24.040  1.00  0.00     0.314 C 
BRANCH   7  17
ATOM     17  S   UNL A   1      32.922  21.682  26.426  1.00  0.00    -0.124 SA
BRANCH  17  18
ATOM     18  C   UNL A   1      33.433  21.187  24.734  1.00  0.00     0.078 C 
BRANCH  18  19
ATOM     19  C   UNL A   1      32.294  20.602  23.876  1.00  0.00    -0.007 C 
ATOM     20  C   UNL A   1      32.136  21.316  22.530  1.00  0.00     0.008 C 
ATOM     21  C   UNL A   1      32.565  19.119  23.596  1.00  0.00     0.008 C 
ENDBRANCH  18  19
ENDBRANCH  17  18
ENDBRANCH   7  17
BRANCH  16  22
ATOM     22  C   UNL A   1      33.145  27.488  22.515  1.00  0.00     0.429 C 
ATOM     23  F   UNL A   1      34.051  26.551  22.153  1.00  0.00    -0.167 F 
ATOM     24  F   UNL A   1      31.963  27.124  21.953  1.00  0.00    -0.167 F 
ATOM     25  F   UNL A   1      33.524  28.649  21.936  1.00  0.00    -0.167 F 
ENDBRANCH  16  22
ENDBRANCH   3   6
ENDBRANCH   1   2
BRANCH   1  26
ATOM     26  C   UNL A   1      31.403  32.284  26.531  1.00  0.00     0.042 C 
BRANCH  26  27
ATOM     27  C   UNL A   1      32.599  32.869  27.272  1.00  0.00     0.118 C 
BRANCH  27  28
ATOM     28  N   UNL A   1      32.388  34.266  27.638  1.00  0.00    -0.352 N 
ATOM     29  C   UNL A   1      32.991  35.027  28.611  1.00  0.00     0.251 C 
ATOM     30  H   UNL A   1      31.707  34.737  27.105  1.00  0.00     0.163 HD
ATOM     31  O   UNL A   1      32.505  36.115  28.919  1.00  0.00    -0.269 OA
BRANCH  29  32
ATOM     32  C   UNL A   1      34.202  34.536  29.302  1.00  0.00     0.039 A 
ATOM     33  C   UNL A   1      35.452  34.626  28.691  1.00  0.00     0.014 A 
ATOM     34  C   UNL A   1      34.093  33.985  30.582  1.00  0.00     0.014 A 
ATOM     35  C   UNL A   1      36.544  33.985  29.257  1.00  0.00     0.010 A 
ATOM     36  C   UNL A   1      35.224  33.448  31.208  1.00  0.00     0.010 A 
ATOM     37  C   UNL A   1      36.451  33.395  30.528  1.00  0.00    -0.014 A 
BRANCH  37  38
ATOM     38  C   UNL A   1      37.653  32.740  31.110  1.00  0.00     0.031 A 
ATOM     39  C   UNL A   1      38.214  33.182  32.435  1.00  0.00     0.074 A 
ATOM     40  C   UNL A   1      38.199  31.688  30.467  1.00  0.00     0.049 A 
ATOM     41  N   UNL A   1      39.230  32.696  33.106  1.00  0.00    -0.248 NA
ATOM     42  C   UNL A   1      37.558  34.323  33.092  1.00  0.00     0.031 C 
ATOM     43  C   UNL A   1      37.746  31.161  29.177  1.00  0.00     0.029 A 
ATOM     44  N   UNL A   1      39.230  30.856  30.820  1.00  0.00    -0.354 N 
ATOM     45  C   UNL A   1      39.345  33.479  34.247  1.00  0.00     0.074 A 
ATOM     46  C   UNL A   1      38.322  34.498  34.161  1.00  0.00     0.031 C 
ATOM     47  C   UNL A   1      38.450  30.058  28.881  1.00  0.00     0.029 A 
ATOM     48  C   UNL A   1      39.454  29.846  29.915  1.00  0.00     0.049 A 
ATOM     49  H   UNL A   1      39.759  30.971  31.642  1.00  0.00     0.167 HD
ATOM     50  C   UNL A   1      40.214  33.354  35.281  1.00  0.00     0.037 A 
ATOM     51  C   UNL A   1      40.378  28.869  29.906  1.00  0.00     0.037 A 
ATOM     52  C   UNL A   1      41.227  32.333  35.369  1.00  0.00     0.049 A 
ATOM     53  C   UNL A   1      41.364  28.790  31.036  1.00  0.00     0.074 A 
ATOM     54  C   UNL A   1      42.143  32.108  36.383  1.00  0.00     0.029 A 
ATOM     55  N   UNL A   1      41.461  31.366  34.402  1.00  0.00    -0.354 N 
ATOM     56  N   UNL A   1      41.445  29.526  32.118  1.00  0.00    -0.248 NA
ATOM     57  C   UNL A   1      42.392  27.746  30.937  1.00  0.00     0.031 C 
ATOM     58  C   UNL A   1      42.966  31.043  36.004  1.00  0.00     0.029 A 
ATOM     59  C   UNL A   1      42.525  30.562  34.781  1.00  0.00     0.049 A 
ATOM     60  H   UNL A   1      40.947  31.266  33.568  1.00  0.00     0.167 HD
ATOM     61  C   UNL A   1      42.521  29.022  32.838  1.00  0.00     0.074 A 
ATOM     62  C   UNL A   1      43.040  27.902  32.081  1.00  0.00     0.031 C 
ATOM     63  C   UNL A   1      43.036  29.453  34.015  1.00  0.00     0.037 A 
BRANCH  50  64
ATOM     64  C   UNL A   1      40.123  34.369  36.387  1.00  0.00     0.057 A 
ATOM     65  C   UNL A   1      39.326  34.127  37.513  1.00  0.00     0.134 A 
ATOM     66  C   UNL A   1      40.809  35.590  36.336  1.00  0.00     0.134 A 
ATOM     67  F   UNL A   1      38.633  32.984  37.626  1.00  0.00    -0.206 F 
ATOM     68  C   UNL A   1      39.219  35.058  38.550  1.00  0.00     0.040 A 
ATOM     69  C   UNL A   1      40.734  36.516  37.380  1.00  0.00     0.040 A 
ATOM     70  F   UNL A   1      41.599  35.884  35.292  1.00  0.00    -0.206 F 
ATOM     71  C   UNL A   1      39.933  36.252  38.489  1.00  0.00     0.006 A 
ENDBRANCH  50  64
BRANCH  51  72
ATOM     72  C   UNL A   1      40.434  27.903  28.780  1.00  0.00     0.057 A 
ATOM     73  C   UNL A   1      39.718  26.700  28.817  1.00  0.00     0.134 A 
ATOM     74  C   UNL A   1      41.184  28.171  27.629  1.00  0.00     0.134 A 
ATOM     75  F   UNL A   1      38.985  26.380  29.893  1.00  0.00    -0.206 F 
ATOM     76  C   UNL A   1      39.749  25.796  27.754  1.00  0.00     0.040 A 
ATOM     77  C   UNL A   1      41.199  27.292  26.545  1.00  0.00     0.040 A 
ATOM     78  F   UNL A   1      41.878  29.315  27.526  1.00  0.00    -0.206 F 
ATOM     79  C   UNL A   1      40.482  26.098  26.608  1.00  0.00     0.006 A 
ENDBRANCH  51  72
BRANCH  63  80
ATOM     80  C   UNL A   1      44.202  28.682  34.564  1.00  0.00     0.057 A 
ATOM     81  C   UNL A   1      45.515  29.064  34.260  1.00  0.00     0.134 A 
ATOM     82  C   UNL A   1      44.030  27.571  35.401  1.00  0.00     0.134 A 
ATOM     83  F   UNL A   1      45.752  30.113  33.458  1.00  0.00    -0.206 F 
ATOM     84  C   UNL A   1      46.614  28.372  34.770  1.00  0.00     0.040 A 
ATOM     85  C   UNL A   1      45.121  26.891  35.945  1.00  0.00     0.040 A 
ATOM     86  F   UNL A   1      42.800  27.164  35.746  1.00  0.00    -0.206 F 
ATOM     87  C   UNL A   1      46.418  27.290  35.626  1.00  0.00     0.006 A 
ENDBRANCH  63  80
ENDBRANCH  37  38
ENDBRANCH  29  32
ENDBRANCH  27  28
ENDBRANCH  26  27
ENDBRANCH   1  26
TORSDOF 14
ENDMDL
MODEL 3
REMARK VINA RESULT:     -12.0      0.355      6.180
REMARK SMILES CC(C)CSc1cc2c(cc1Cl)C=C(C(=O)NCCCNC(=O)c1ccc(-c3c4nc(c(-c5c(F)cccc5F)c5ccc([nH]5)c(-c5c(F)cccc5F)c5nc(c(-c6c(F)cccc6F)c6ccc3[nH]6)C=C5)C=C4)cc1)[C@H](C(F)(F)F)O2
REMARK SMILES IDX 18 1 17 2 15 3 16 4 14 6 6 7 7 8 11 9 8 10 10 11 12 12 9 13
REMARK SMILES IDX 83 14 13 15 78 16 5 17 4 18 2 19 1 20 3 21 79 22 80 23 81 24
REMARK SMILES IDX 82 25 19 26 20 27 21 28 22 29 23 31 24 32 25 33 77 34 26 35
REMARK SMILES IDX 76 36 27 37 28 38 29 39 70 40 30 41 75 42 69 43 71 44 31 45
REMARK SMILES IDX 74 46 68 47 67 48 32 50 58 51 41 52 57 53 42 54 45 55 56 56
REMARK SMILES IDX 72 57 43 58 44 59 55 61 73 62 46 63 33 64 34 65 39 66 35 67
REMARK SMILES IDX 36 68 38 69 40 70 37 71 59 72 60 73 65 74 61 75 62 76 64 77
REMARK SMILES IDX 66 78 63 79 47 80 48 81 53 82 49 83 50 84 52 85 54 86 51 87
REMARK H PARENT 17 5 21 30 71 49 45 60
REMARK Flexibility Score: inf
ROOT
ATOM      1  C   UNL A   1      36.153  21.187  24.904  1.00  0.00     0.118 C 
ENDROOT
BRANCH   1   2
ATOM      2  N   UNL A   1      35.265  21.051  26.047  1.00  0.00    -0.352 N 
ATOM      3  C   UNL A   1      34.112  21.621  26.467  1.00  0.00     0.251 C 
ATOM      4  O   UNL A   1      33.630  21.145  27.499  1.00  0.00    -0.270 OA
ATOM      5  H   UNL A   1      35.587  20.369  26.680  1.00  0.00     0.163 HD
BRANCH   3   6
ATOM      6  C   UNL A   1      33.414  22.741  25.775  1.00  0.00     0.067 C 
ATOM      7  C   UNL A   1      32.173  27.347  24.119  1.00  0.00     0.030 A 
ATOM      8  C   UNL A   1      31.636  26.064  23.945  1.00  0.00     0.063 A 
ATOM      9  C   UNL A   1      33.264  27.511  24.989  1.00  0.00     0.055 A 
ATOM     10  C   UNL A   1      32.211  24.964  24.579  1.00  0.00     0.129 A 
ATOM     11  C   UNL A   1      33.840  26.401  25.619  1.00  0.00     0.033 A 
ATOM     12  Cl  UNL A   1      33.988  29.054  25.291  1.00  0.00    -0.083 Cl
ATOM     13  C   UNL A   1      33.316  25.123  25.411  1.00  0.00     0.019 A 
ATOM     14  O   UNL A   1      31.608  23.760  24.359  1.00  0.00    -0.475 OA
ATOM     15  C   UNL A   1      33.888  23.964  26.073  1.00  0.00     0.025 C 
ATOM     16  C   UNL A   1      32.337  22.558  24.739  1.00  0.00     0.314 C 
BRANCH   7  17
ATOM     17  S   UNL A   1      31.437  28.699  23.213  1.00  0.00    -0.124 SA
BRANCH  17  18
ATOM     18  C   UNL A   1      29.695  28.133  23.105  1.00  0.00     0.078 C 
BRANCH  18  19
ATOM     19  C   UNL A   1      28.662  29.276  23.045  1.00  0.00    -0.007 C 
ATOM     20  C   UNL A   1      28.766  30.104  21.760  1.00  0.00     0.008 C 
ATOM     21  C   UNL A   1      27.244  28.698  23.122  1.00  0.00     0.008 C 
ENDBRANCH  18  19
ENDBRANCH  17  18
ENDBRANCH   7  17
BRANCH  16  22
ATOM     22  C   UNL A   1      32.813  21.837  23.467  1.00  0.00     0.429 C 
ATOM     23  F   UNL A   1      31.907  21.884  22.463  1.00  0.00    -0.167 F 
ATOM     24  F   UNL A   1      33.945  22.423  22.996  1.00  0.00    -0.167 F 
ATOM     25  F   UNL A   1      33.096  20.533  23.683  1.00  0.00    -0.167 F 
ENDBRANCH  16  22
ENDBRANCH   3   6
ENDBRANCH   1   2
BRANCH   1  26
ATOM     26  C   UNL A   1      37.264  20.145  24.936  1.00  0.00     0.042 C 
BRANCH  26  27
ATOM     27  C   UNL A   1      38.551  20.677  25.556  1.00  0.00     0.118 C 
BRANCH  27  28
ATOM     28  N   UNL A   1      39.568  19.638  25.683  1.00  0.00    -0.352 N 
ATOM     29  C   UNL A   1      40.900  19.739  26.010  1.00  0.00     0.251 C 
ATOM     30  H   UNL A   1      39.252  18.722  25.509  1.00  0.00     0.163 HD
ATOM     31  O   UNL A   1      41.644  18.775  25.833  1.00  0.00    -0.269 OA
BRANCH  29  32
ATOM     32  C   UNL A   1      41.444  21.003  26.551  1.00  0.00     0.039 A 
ATOM     33  C   UNL A   1      41.384  21.273  27.917  1.00  0.00     0.014 A 
ATOM     34  C   UNL A   1      42.031  21.930  25.685  1.00  0.00     0.014 A 
ATOM     35  C   UNL A   1      41.712  22.538  28.385  1.00  0.00     0.010 A 
ATOM     36  C   UNL A   1      42.477  23.161  26.179  1.00  0.00     0.010 A 
ATOM     37  C   UNL A   1      42.273  23.498  27.527  1.00  0.00    -0.014 A 
BRANCH  37  38
ATOM     38  C   UNL A   1      42.633  24.833  28.075  1.00  0.00     0.031 A 
ATOM     39  C   UNL A   1      41.582  25.883  28.316  1.00  0.00     0.074 A 
ATOM     40  C   UNL A   1      43.914  25.071  28.424  1.00  0.00     0.049 A 
ATOM     41  N   UNL A   1      41.715  27.083  28.825  1.00  0.00    -0.248 NA
ATOM     42  C   UNL A   1      40.202  25.549  27.932  1.00  0.00     0.031 C 
ATOM     43  C   UNL A   1      45.026  24.135  28.243  1.00  0.00     0.029 A 
ATOM     44  N   UNL A   1      44.492  26.158  29.028  1.00  0.00    -0.354 N 
ATOM     45  C   UNL A   1      40.447  27.652  28.803  1.00  0.00     0.074 A 
ATOM     46  C   UNL A   1      39.564  26.681  28.194  1.00  0.00     0.031 C 
ATOM     47  C   UNL A   1      46.135  24.659  28.785  1.00  0.00     0.029 A 
ATOM     48  C   UNL A   1      45.834  25.996  29.278  1.00  0.00     0.049 A 
ATOM     49  H   UNL A   1      43.995  26.974  29.261  1.00  0.00     0.167 HD
ATOM     50  C   UNL A   1      40.051  28.865  29.260  1.00  0.00     0.037 A 
ATOM     51  C   UNL A   1      46.729  26.838  29.825  1.00  0.00     0.037 A 
ATOM     52  C   UNL A   1      40.931  29.827  29.874  1.00  0.00     0.049 A 
ATOM     53  C   UNL A   1      46.273  28.196  30.270  1.00  0.00     0.074 A 
ATOM     54  C   UNL A   1      40.624  31.076  30.387  1.00  0.00     0.029 A 
ATOM     55  N   UNL A   1      42.295  29.650  30.052  1.00  0.00    -0.354 N 
ATOM     56  N   UNL A   1      45.066  28.709  30.261  1.00  0.00    -0.248 NA
ATOM     57  C   UNL A   1      47.307  29.097  30.795  1.00  0.00     0.031 C 
ATOM     58  C   UNL A   1      41.809  31.675  30.825  1.00  0.00     0.029 A 
ATOM     59  C   UNL A   1      42.848  30.777  30.641  1.00  0.00     0.049 A 
ATOM     60  H   UNL A   1      42.797  28.842  29.798  1.00  0.00     0.167 HD
ATOM     61  C   UNL A   1      45.193  29.985  30.796  1.00  0.00     0.074 A 
ATOM     62  C   UNL A   1      46.589  30.153  31.144  1.00  0.00     0.031 C 
ATOM     63  C   UNL A   1      44.241  30.933  30.976  1.00  0.00     0.037 A 
BRANCH  50  64
ATOM     64  C   UNL A   1      38.603  29.230  29.084  1.00  0.00     0.057 A 
ATOM     65  C   UNL A   1      38.116  29.638  27.835  1.00  0.00     0.134 A 
ATOM     66  C   UNL A   1      37.690  29.193  30.148  1.00  0.00     0.134 A 
ATOM     67  F   UNL A   1      38.934  29.706  26.774  1.00  0.00    -0.206 F 
ATOM     68  C   UNL A   1      36.777  29.989  27.649  1.00  0.00     0.040 A 
ATOM     69  C   UNL A   1      36.342  29.512  29.967  1.00  0.00     0.040 A 
ATOM     70  F   UNL A   1      38.084  28.800  31.369  1.00  0.00    -0.206 F 
ATOM     71  C   UNL A   1      35.884  29.916  28.715  1.00  0.00     0.006 A 
ENDBRANCH  50  64
BRANCH  51  72
ATOM     72  C   UNL A   1      48.151  26.432  29.959  1.00  0.00     0.057 A 
ATOM     73  C   UNL A   1      48.620  25.793  31.114  1.00  0.00     0.134 A 
ATOM     74  C   UNL A   1      49.070  26.651  28.926  1.00  0.00     0.134 A 
ATOM     75  F   UNL A   1      47.793  25.561  32.144  1.00  0.00    -0.206 F 
ATOM     76  C   UNL A   1      49.951  25.392  31.240  1.00  0.00     0.040 A 
ATOM     77  C   UNL A   1      50.396  26.225  29.024  1.00  0.00     0.040 A 
ATOM     78  F   UNL A   1      48.678  27.242  27.788  1.00  0.00    -0.206 F 
ATOM     79  C   UNL A   1      50.840  25.596  30.187  1.00  0.00     0.006 A 
ENDBRANCH  51  72
BRANCH  63  80
ATOM     80  C   UNL A   1      44.684  32.222  31.607  1.00  0.00     0.057 A 
ATOM     81  C   UNL A   1      45.108  33.296  30.813  1.00  0.00     0.134 A 
ATOM     82  C   UNL A   1      44.682  32.409  32.997  1.00  0.00     0.134 A 
ATOM     83  F   UNL A   1      45.142  33.184  29.477  1.00  0.00    -0.206 F 
ATOM     84  C   UNL A   1      45.508  34.507  31.376  1.00  0.00     0.040 A 
ATOM     85  C   UNL A   1      45.049  33.627  33.570  1.00  0.00     0.040 A 
ATOM     86  F   UNL A   1      44.270  31.427  33.813  1.00  0.00    -0.206 F 
ATOM     87  C   UNL A   1      45.468  34.679  32.759  1.00  0.00     0.006 A 
ENDBRANCH  63  80
ENDBRANCH  37  38
ENDBRANCH  29  32
ENDBRANCH  27  28
ENDBRANCH  26  27
ENDBRANCH   1  26
TORSDOF 14
ENDMDL
