MODEL 1
REMARK VINA RESULT:     -12.9      0.000      0.000
REMARK SMILES Cc1c(C)c2c(c(C)c1O)CC[C@@](C)(C(=O)NCCCNC(=O)c1ccc(-c3c4nc(c(-c5c(F)cccc5F)c5ccc([nH]5)c(-c5c(F)cccc5F)c5nc(c(-c6c(F)cccc6F)c6ccc3[nH]6)C=C5)C=C4)cc1)O2
REMARK SMILES IDX 19 1 18 2 17 3 15 4 16 5 13 7 1 8 2 9 3 10 9 11 4 12 5 13
REMARK SMILES IDX 7 14 6 15 78 16 8 17 11 18 12 19 14 20 10 21 20 23 21 24
REMARK SMILES IDX 22 25 23 27 24 28 25 29 77 30 26 31 76 32 27 33 28 34 29 35
REMARK SMILES IDX 70 36 30 37 75 38 69 39 71 40 31 41 74 42 68 43 67 44 32 46
REMARK SMILES IDX 58 47 41 48 57 49 42 50 45 51 56 52 72 53 43 54 44 55 55 57
REMARK SMILES IDX 73 58 46 59 33 60 34 61 39 62 35 63 36 64 38 65 40 66 37 67
REMARK SMILES IDX 59 68 60 69 65 70 61 71 62 72 64 73 66 74 63 75 47 76 48 77
REMARK SMILES IDX 53 78 49 79 50 80 52 81 54 82 51 83
REMARK H PARENT 17 6 10 22 21 26 71 45 45 56
REMARK Flexibility Score: inf
ROOT
ATOM      1  C   UNL A   1      33.425  28.881  23.291  1.00  0.00     0.042 C 
ENDROOT
BRANCH   1   2
ATOM      2  C   UNL A   1      32.244  28.073  22.761  1.00  0.00     0.118 C 
BRANCH   2   3
ATOM      3  N   UNL A   1      32.632  27.134  21.722  1.00  0.00    -0.353 N 
ATOM      4  C   UNL A   1      32.903  25.791  21.749  1.00  0.00     0.263 C 
ATOM      5  O   UNL A   1      33.209  25.286  20.664  1.00  0.00    -0.270 OA
ATOM      6  H   UNL A   1      32.717  27.539  20.828  1.00  0.00     0.163 HD
BRANCH   4   7
ATOM      7  C   UNL A   1      32.816  24.961  23.062  1.00  0.00     0.184 C 
ATOM      8  C   UNL A   1      32.366  18.957  24.330  1.00  0.00     0.049 C 
ATOM      9  C   UNL A   1      32.782  20.390  24.543  1.00  0.00    -0.002 A 
ATOM     10  C   UNL A   1      32.681  21.341  23.498  1.00  0.00    -0.002 A 
ATOM     11  C   UNL A   1      33.232  20.816  25.808  1.00  0.00     0.122 A 
ATOM     12  C   UNL A   1      32.153  20.942  22.141  1.00  0.00     0.049 C 
ATOM     13  C   UNL A   1      33.074  22.673  23.739  1.00  0.00     0.127 A 
ATOM     14  C   UNL A   1      33.645  22.136  26.047  1.00  0.00    -0.002 A 
ATOM     15  C   UNL A   1      33.583  23.067  24.990  1.00  0.00     0.001 A 
ATOM     16  O   UNL A   1      32.920  23.564  22.700  1.00  0.00    -0.477 OA
ATOM     17  C   UNL A   1      34.138  22.563  27.406  1.00  0.00     0.049 C 
ATOM     18  C   UNL A   1      34.000  24.493  25.222  1.00  0.00     0.044 C 
ATOM     19  C   UNL A   1      34.026  25.291  23.936  1.00  0.00     0.063 C 
ATOM     20  C   UNL A   1      31.416  25.161  23.675  1.00  0.00     0.067 C 
BRANCH  11  21
ATOM     21  O   UNL A   1      33.278  19.954  26.873  1.00  0.00    -0.507 OA
ATOM     22  H   UNL A   1      33.852  20.128  27.592  1.00  0.00     0.293 HD
ENDBRANCH  11  21
ENDBRANCH   4   7
ENDBRANCH   2   3
ENDBRANCH   1   2
BRANCH   1  23
ATOM     23  C   UNL A   1      33.492  28.948  24.810  1.00  0.00     0.118 C 
BRANCH  23  24
ATOM     24  N   UNL A   1      32.763  30.092  25.340  1.00  0.00    -0.352 N 
ATOM     25  C   UNL A   1      32.899  30.772  26.523  1.00  0.00     0.251 C 
ATOM     26  H   UNL A   1      32.053  30.434  24.751  1.00  0.00     0.163 HD
ATOM     27  O   UNL A   1      32.010  31.549  26.870  1.00  0.00    -0.269 OA
BRANCH  25  28
ATOM     28  C   UNL A   1      34.089  30.597  27.385  1.00  0.00     0.039 A 
ATOM     29  C   UNL A   1      34.914  31.701  27.627  1.00  0.00     0.014 A 
ATOM     30  C   UNL A   1      34.455  29.341  27.877  1.00  0.00     0.014 A 
ATOM     31  C   UNL A   1      36.078  31.556  28.386  1.00  0.00     0.010 A 
ATOM     32  C   UNL A   1      35.574  29.209  28.695  1.00  0.00     0.010 A 
ATOM     33  C   UNL A   1      36.408  30.310  28.939  1.00  0.00    -0.014 A 
BRANCH  33  34
ATOM     34  C   UNL A   1      37.657  30.107  29.713  1.00  0.00     0.031 A 
ATOM     35  C   UNL A   1      38.763  29.271  29.128  1.00  0.00     0.074 A 
ATOM     36  C   UNL A   1      37.780  30.617  30.952  1.00  0.00     0.049 A 
ATOM     37  N   UNL A   1      39.861  28.836  29.692  1.00  0.00    -0.248 NA
ATOM     38  C   UNL A   1      38.596  28.849  27.728  1.00  0.00     0.031 C 
ATOM     39  C   UNL A   1      36.784  31.443  31.633  1.00  0.00     0.029 A 
ATOM     40  N   UNL A   1      38.799  30.501  31.864  1.00  0.00    -0.354 N 
ATOM     41  C   UNL A   1      40.502  28.072  28.725  1.00  0.00     0.074 A 
ATOM     42  C   UNL A   1      39.654  28.070  27.553  1.00  0.00     0.031 C 
ATOM     43  C   UNL A   1      37.247  31.774  32.850  1.00  0.00     0.029 A 
ATOM     44  C   UNL A   1      38.551  31.148  33.050  1.00  0.00     0.049 A 
ATOM     45  H   UNL A   1      39.628  30.002  31.686  1.00  0.00     0.167 HD
ATOM     46  C   UNL A   1      41.698  27.441  28.801  1.00  0.00     0.037 A 
ATOM     47  C   UNL A   1      39.286  31.214  34.175  1.00  0.00     0.037 A 
ATOM     48  C   UNL A   1      42.557  27.468  29.954  1.00  0.00     0.049 A 
ATOM     49  C   UNL A   1      40.600  30.488  34.243  1.00  0.00     0.074 A 
ATOM     50  C   UNL A   1      43.797  26.879  30.121  1.00  0.00     0.029 A 
ATOM     51  N   UNL A   1      42.265  28.131  31.136  1.00  0.00    -0.354 N 
ATOM     52  N   UNL A   1      41.189  29.758  33.328  1.00  0.00    -0.248 NA
ATOM     53  C   UNL A   1      41.347  30.588  35.505  1.00  0.00     0.031 C 
ATOM     54  C   UNL A   1      44.247  27.166  31.414  1.00  0.00     0.029 A 
ATOM     55  C   UNL A   1      43.301  27.961  32.040  1.00  0.00     0.049 A 
ATOM     56  H   UNL A   1      41.445  28.647  31.308  1.00  0.00     0.167 HD
ATOM     57  C   UNL A   1      42.379  29.323  33.896  1.00  0.00     0.074 A 
ATOM     58  C   UNL A   1      42.437  29.887  35.229  1.00  0.00     0.031 C 
ATOM     59  C   UNL A   1      43.336  28.525  33.365  1.00  0.00     0.037 A 
BRANCH  46  60
ATOM     60  C   UNL A   1      42.147  26.671  27.594  1.00  0.00     0.057 A 
ATOM     61  C   UNL A   1      41.851  25.311  27.438  1.00  0.00     0.134 A 
ATOM     62  C   UNL A   1      42.861  27.301  26.567  1.00  0.00     0.134 A 
ATOM     63  F   UNL A   1      41.186  24.647  28.395  1.00  0.00    -0.206 F 
ATOM     64  C   UNL A   1      42.267  24.599  26.313  1.00  0.00     0.040 A 
ATOM     65  C   UNL A   1      43.262  26.605  25.426  1.00  0.00     0.040 A 
ATOM     66  F   UNL A   1      43.174  28.602  26.655  1.00  0.00    -0.206 F 
ATOM     67  C   UNL A   1      42.970  25.249  25.299  1.00  0.00     0.006 A 
ENDBRANCH  46  60
BRANCH  47  68
ATOM     68  C   UNL A   1      38.800  32.007  35.330  1.00  0.00     0.057 A 
ATOM     69  C   UNL A   1      38.974  33.396  35.366  1.00  0.00     0.134 A 
ATOM     70  C   UNL A   1      38.153  31.407  36.414  1.00  0.00     0.134 A 
ATOM     71  F   UNL A   1      39.606  34.023  34.364  1.00  0.00    -0.206 F 
ATOM     72  C   UNL A   1      38.528  34.159  36.446  1.00  0.00     0.040 A 
ATOM     73  C   UNL A   1      37.685  32.160  37.492  1.00  0.00     0.040 A 
ATOM     74  F   UNL A   1      37.954  30.080  36.435  1.00  0.00    -0.206 F 
ATOM     75  C   UNL A   1      37.876  33.541  37.511  1.00  0.00     0.006 A 
ENDBRANCH  47  68
BRANCH  59  76
ATOM     76  C   UNL A   1      44.528  28.224  34.222  1.00  0.00     0.057 A 
ATOM     77  C   UNL A   1      45.650  29.063  34.237  1.00  0.00     0.134 A 
ATOM     78  C   UNL A   1      44.540  27.107  35.065  1.00  0.00     0.134 A 
ATOM     79  F   UNL A   1      45.703  30.142  33.441  1.00  0.00    -0.206 F 
ATOM     80  C   UNL A   1      46.752  28.789  35.048  1.00  0.00     0.040 A 
ATOM     81  C   UNL A   1      45.627  26.834  35.897  1.00  0.00     0.040 A 
ATOM     82  F   UNL A   1      43.493  26.270  35.102  1.00  0.00    -0.206 F 
ATOM     83  C   UNL A   1      46.740  27.675  35.886  1.00  0.00     0.006 A 
ENDBRANCH  59  76
ENDBRANCH  33  34
ENDBRANCH  25  28
ENDBRANCH  23  24
ENDBRANCH   1  23
TORSDOF 11
ENDMDL
MODEL 2
REMARK VINA RESULT:     -12.7      3.526      7.277
REMARK SMILES Cc1c(C)c2c(c(C)c1O)CC[C@@](C)(C(=O)NCCCNC(=O)c1ccc(-c3c4nc(c(-c5c(F)cccc5F)c5ccc([nH]5)c(-c5c(F)cccc5F)c5nc(c(-c6c(F)cccc6F)c6ccc3[nH]6)C=C5)C=C4)cc1)O2
REMARK SMILES IDX 19 1 18 2 17 3 15 4 16 5 13 7 1 8 2 9 3 10 9 11 4 12 5 13
REMARK SMILES IDX 7 14 6 15 78 16 8 17 11 18 12 19 14 20 10 21 20 23 21 24
REMARK SMILES IDX 22 25 23 27 24 28 25 29 77 30 26 31 76 32 27 33 28 34 29 35
REMARK SMILES IDX 70 36 30 37 75 38 69 39 71 40 31 41 74 42 68 43 67 44 32 46
REMARK SMILES IDX 58 47 41 48 57 49 42 50 45 51 56 52 72 53 43 54 44 55 55 57
REMARK SMILES IDX 73 58 46 59 33 60 34 61 39 62 35 63 36 64 38 65 40 66 37 67
REMARK SMILES IDX 59 68 60 69 65 70 61 71 62 72 64 73 66 74 63 75 47 76 48 77
REMARK SMILES IDX 53 78 49 79 50 80 52 81 54 82 51 83
REMARK H PARENT 17 6 10 22 21 26 71 45 45 56
REMARK Flexibility Score: inf
ROOT
ATOM      1  C   UNL A   1      34.010  28.308  25.790  1.00  0.00     0.042 C 
ENDROOT
BRANCH   1   2
ATOM      2  C   UNL A   1      33.320  27.100  25.163  1.00  0.00     0.118 C 
BRANCH   2   3
ATOM      3  N   UNL A   1      32.030  26.817  25.770  1.00  0.00    -0.353 N 
ATOM      4  C   UNL A   1      31.308  25.661  25.901  1.00  0.00     0.263 C 
ATOM      5  O   UNL A   1      30.225  25.769  26.485  1.00  0.00    -0.270 OA
ATOM      6  H   UNL A   1      31.591  27.607  26.163  1.00  0.00     0.163 HD
BRANCH   4   7
ATOM      7  C   UNL A   1      31.831  24.299  25.357  1.00  0.00     0.184 C 
ATOM      8  C   UNL A   1      37.311  21.501  25.318  1.00  0.00     0.049 C 
ATOM      9  C   UNL A   1      35.807  21.602  25.363  1.00  0.00    -0.002 A 
ATOM     10  C   UNL A   1      35.166  22.843  25.602  1.00  0.00    -0.002 A 
ATOM     11  C   UNL A   1      35.013  20.464  25.117  1.00  0.00     0.122 A 
ATOM     12  C   UNL A   1      35.976  24.099  25.817  1.00  0.00     0.049 C 
ATOM     13  C   UNL A   1      33.759  22.896  25.630  1.00  0.00     0.127 A 
ATOM     14  C   UNL A   1      33.611  20.509  25.166  1.00  0.00    -0.002 A 
ATOM     15  C   UNL A   1      32.981  21.738  25.447  1.00  0.00     0.001 A 
ATOM     16  O   UNL A   1      33.188  24.134  25.830  1.00  0.00    -0.477 OA
ATOM     17  C   UNL A   1      32.785  19.273  24.914  1.00  0.00     0.049 C 
ATOM     18  C   UNL A   1      31.480  21.820  25.486  1.00  0.00     0.044 C 
ATOM     19  C   UNL A   1      31.000  23.171  25.969  1.00  0.00     0.063 C 
ATOM     20  C   UNL A   1      31.899  24.382  23.820  1.00  0.00     0.067 C 
BRANCH  11  21
ATOM     21  O   UNL A   1      35.581  19.256  24.806  1.00  0.00    -0.507 OA
ATOM     22  H   UNL A   1      36.163  19.187  24.075  1.00  0.00     0.293 HD
ENDBRANCH  11  21
ENDBRANCH   4   7
ENDBRANCH   2   3
ENDBRANCH   1   2
BRANCH   1  23
ATOM     23  C   UNL A   1      33.649  28.531  27.252  1.00  0.00     0.118 C 
BRANCH  23  24
ATOM     24  N   UNL A   1      33.708  29.939  27.621  1.00  0.00    -0.352 N 
ATOM     25  C   UNL A   1      34.689  30.660  28.253  1.00  0.00     0.251 C 
ATOM     26  H   UNL A   1      32.911  30.461  27.375  1.00  0.00     0.163 HD
ATOM     27  O   UNL A   1      34.420  31.780  28.685  1.00  0.00    -0.269 OA
BRANCH  25  28
ATOM     28  C   UNL A   1      36.058  30.123  28.421  1.00  0.00     0.039 A 
ATOM     29  C   UNL A   1      36.424  29.591  29.663  1.00  0.00     0.014 A 
ATOM     30  C   UNL A   1      37.012  30.226  27.406  1.00  0.00     0.014 A 
ATOM     31  C   UNL A   1      37.726  29.131  29.873  1.00  0.00     0.010 A 
ATOM     32  C   UNL A   1      38.288  29.702  27.590  1.00  0.00     0.010 A 
ATOM     33  C   UNL A   1      38.665  29.170  28.832  1.00  0.00    -0.014 A 
BRANCH  33  34
ATOM     34  C   UNL A   1      40.069  28.733  29.030  1.00  0.00     0.031 A 
ATOM     35  C   UNL A   1      41.066  29.692  29.620  1.00  0.00     0.074 A 
ATOM     36  C   UNL A   1      40.463  27.509  28.633  1.00  0.00     0.049 A 
ATOM     37  N   UNL A   1      42.364  29.574  29.731  1.00  0.00    -0.248 NA
ATOM     38  C   UNL A   1      40.530  30.964  30.132  1.00  0.00     0.031 C 
ATOM     39  C   UNL A   1      39.596  26.486  28.047  1.00  0.00     0.029 A 
ATOM     40  N   UNL A   1      41.704  26.925  28.654  1.00  0.00    -0.354 N 
ATOM     41  C   UNL A   1      42.802  30.763  30.301  1.00  0.00     0.074 A 
ATOM     42  C   UNL A   1      41.638  31.603  30.479  1.00  0.00     0.031 C 
ATOM     43  C   UNL A   1      40.329  25.393  27.778  1.00  0.00     0.029 A 
ATOM     44  C   UNL A   1      41.721  25.654  28.132  1.00  0.00     0.049 A 
ATOM     45  H   UNL A   1      42.505  27.373  29.008  1.00  0.00     0.167 HD
ATOM     46  C   UNL A   1      44.059  31.117  30.660  1.00  0.00     0.037 A 
ATOM     47  C   UNL A   1      42.748  24.804  27.947  1.00  0.00     0.037 A 
ATOM     48  C   UNL A   1      45.212  30.270  30.514  1.00  0.00     0.049 A 
ATOM     49  C   UNL A   1      44.137  25.227  28.333  1.00  0.00     0.074 A 
ATOM     50  C   UNL A   1      46.525  30.530  30.867  1.00  0.00     0.029 A 
ATOM     51  N   UNL A   1      45.187  28.993  29.977  1.00  0.00    -0.354 N 
ATOM     52  N   UNL A   1      44.540  26.358  28.859  1.00  0.00    -0.248 NA
ATOM     53  C   UNL A   1      45.215  24.258  28.091  1.00  0.00     0.031 C 
ATOM     54  C   UNL A   1      47.299  29.417  30.522  1.00  0.00     0.029 A 
ATOM     55  C   UNL A   1      46.462  28.453  29.984  1.00  0.00     0.049 A 
ATOM     56  H   UNL A   1      44.382  28.536  29.640  1.00  0.00     0.167 HD
ATOM     57  C   UNL A   1      45.913  26.233  29.023  1.00  0.00     0.074 A 
ATOM     58  C   UNL A   1      46.272  24.909  28.558  1.00  0.00     0.031 C 
ATOM     59  C   UNL A   1      46.799  27.135  29.510  1.00  0.00     0.037 A 
BRANCH  46  60
ATOM     60  C   UNL A   1      44.246  32.482  31.253  1.00  0.00     0.057 A 
ATOM     61  C   UNL A   1      44.508  33.602  30.452  1.00  0.00     0.134 A 
ATOM     62  C   UNL A   1      44.140  32.684  32.634  1.00  0.00     0.134 A 
ATOM     63  F   UNL A   1      44.638  33.470  29.124  1.00  0.00    -0.206 F 
ATOM     64  C   UNL A   1      44.677  34.871  31.006  1.00  0.00     0.040 A 
ATOM     65  C   UNL A   1      44.284  33.953  33.198  1.00  0.00     0.040 A 
ATOM     66  F   UNL A   1      43.889  31.654  33.456  1.00  0.00    -0.206 F 
ATOM     67  C   UNL A   1      44.559  35.049  32.384  1.00  0.00     0.006 A 
ENDBRANCH  46  60
BRANCH  47  68
ATOM     68  C   UNL A   1      42.499  23.459  27.375  1.00  0.00     0.057 A 
ATOM     69  C   UNL A   1      42.147  22.385  28.201  1.00  0.00     0.134 A 
ATOM     70  C   UNL A   1      42.602  23.213  26.002  1.00  0.00     0.134 A 
ATOM     71  F   UNL A   1      42.054  22.557  29.527  1.00  0.00    -0.206 F 
ATOM     72  C   UNL A   1      41.914  21.111  27.682  1.00  0.00     0.040 A 
ATOM     73  C   UNL A   1      42.354  21.949  25.466  1.00  0.00     0.040 A 
ATOM     74  F   UNL A   1      42.933  24.203  25.159  1.00  0.00    -0.206 F 
ATOM     75  C   UNL A   1      42.012  20.892  26.309  1.00  0.00     0.006 A 
ENDBRANCH  47  68
BRANCH  59  76
ATOM     76  C   UNL A   1      48.236  26.714  29.573  1.00  0.00     0.057 A 
ATOM     77  C   UNL A   1      48.736  25.972  30.651  1.00  0.00     0.134 A 
ATOM     78  C   UNL A   1      49.119  27.024  28.532  1.00  0.00     0.134 A 
ATOM     79  F   UNL A   1      47.942  25.657  31.685  1.00  0.00    -0.206 F 
ATOM     80  C   UNL A   1      50.071  25.569  30.699  1.00  0.00     0.040 A 
ATOM     81  C   UNL A   1      50.451  26.607  28.558  1.00  0.00     0.040 A 
ATOM     82  F   UNL A   1      48.700  27.725  27.468  1.00  0.00    -0.206 F 
ATOM     83  C   UNL A   1      50.931  25.881  29.648  1.00  0.00     0.006 A 
ENDBRANCH  59  76
ENDBRANCH  33  34
ENDBRANCH  25  28
ENDBRANCH  23  24
ENDBRANCH   1  23
TORSDOF 11
ENDMDL
MODEL 3
REMARK VINA RESULT:     -12.7      3.488      7.039
REMARK SMILES Cc1c(C)c2c(c(C)c1O)CC[C@@](C)(C(=O)NCCCNC(=O)c1ccc(-c3c4nc(c(-c5c(F)cccc5F)c5ccc([nH]5)c(-c5c(F)cccc5F)c5nc(c(-c6c(F)cccc6F)c6ccc3[nH]6)C=C5)C=C4)cc1)O2
REMARK SMILES IDX 19 1 18 2 17 3 15 4 16 5 13 7 1 8 2 9 3 10 9 11 4 12 5 13
REMARK SMILES IDX 7 14 6 15 78 16 8 17 11 18 12 19 14 20 10 21 20 23 21 24
REMARK SMILES IDX 22 25 23 27 24 28 25 29 77 30 26 31 76 32 27 33 28 34 29 35
REMARK SMILES IDX 70 36 30 37 75 38 69 39 71 40 31 41 74 42 68 43 67 44 32 46
REMARK SMILES IDX 58 47 41 48 57 49 42 50 45 51 56 52 72 53 43 54 44 55 55 57
REMARK SMILES IDX 73 58 46 59 33 60 34 61 39 62 35 63 36 64 38 65 40 66 37 67
REMARK SMILES IDX 59 68 60 69 65 70 61 71 62 72 64 73 66 74 63 75 47 76 48 77
REMARK SMILES IDX 53 78 49 79 50 80 52 81 54 82 51 83
REMARK H PARENT 17 6 10 22 21 26 71 45 45 56
REMARK Flexibility Score: inf
ROOT
ATOM      1  C   UNL A   1      33.960  28.717  25.341  1.00  0.00     0.042 C 
ENDROOT
BRANCH   1   2
ATOM      2  C   UNL A   1      32.757  28.143  24.599  1.00  0.00     0.118 C 
BRANCH   2   3
ATOM      3  N   UNL A   1      33.129  27.488  23.355  1.00  0.00    -0.353 N 
ATOM      4  C   UNL A   1      33.302  26.171  23.025  1.00  0.00     0.263 C 
ATOM      5  O   UNL A   1      33.625  25.951  21.853  1.00  0.00    -0.270 OA
ATOM      6  H   UNL A   1      33.286  28.111  22.608  1.00  0.00     0.163 HD
BRANCH   4   7
ATOM      7  C   UNL A   1      33.093  25.028  24.061  1.00  0.00     0.184 C 
ATOM      8  C   UNL A   1      32.153  18.962  23.639  1.00  0.00     0.049 C 
ATOM      9  C   UNL A   1      32.660  20.246  24.245  1.00  0.00    -0.002 A 
ATOM     10  C   UNL A   1      32.678  21.448  23.495  1.00  0.00    -0.002 A 
ATOM     11  C   UNL A   1      33.077  20.279  25.590  1.00  0.00     0.122 A 
ATOM     12  C   UNL A   1      32.189  21.473  22.067  1.00  0.00     0.049 C 
ATOM     13  C   UNL A   1      33.153  22.629  24.099  1.00  0.00     0.127 A 
ATOM     14  C   UNL A   1      33.572  21.448  26.188  1.00  0.00    -0.002 A 
ATOM     15  C   UNL A   1      33.628  22.630  25.423  1.00  0.00     0.001 A 
ATOM     16  O   UNL A   1      33.114  23.776  23.336  1.00  0.00    -0.477 OA
ATOM     17  C   UNL A   1      34.028  21.453  27.626  1.00  0.00     0.049 C 
ATOM     18  C   UNL A   1      34.134  23.903  26.044  1.00  0.00     0.044 C 
ATOM     19  C   UNL A   1      34.279  25.011  25.024  1.00  0.00     0.063 C 
ATOM     20  C   UNL A   1      31.683  25.171  24.666  1.00  0.00     0.067 C 
BRANCH  11  21
ATOM     21  O   UNL A   1      33.009  19.162  26.382  1.00  0.00    -0.507 OA
ATOM     22  H   UNL A   1      33.711  18.542  26.376  1.00  0.00     0.293 HD
ENDBRANCH  11  21
ENDBRANCH   4   7
ENDBRANCH   2   3
ENDBRANCH   1   2
BRANCH   1  23
ATOM     23  C   UNL A   1      33.844  28.634  26.857  1.00  0.00     0.118 C 
BRANCH  23  24
ATOM     24  N   UNL A   1      33.845  29.952  27.478  1.00  0.00    -0.352 N 
ATOM     25  C   UNL A   1      34.776  30.567  28.274  1.00  0.00     0.251 C 
ATOM     26  H   UNL A   1      33.042  30.491  27.295  1.00  0.00     0.163 HD
ATOM     27  O   UNL A   1      34.456  31.583  28.890  1.00  0.00    -0.269 OA
BRANCH  25  28
ATOM     28  C   UNL A   1      36.153  30.041  28.403  1.00  0.00     0.039 A 
ATOM     29  C   UNL A   1      36.533  29.438  29.608  1.00  0.00     0.014 A 
ATOM     30  C   UNL A   1      37.101  30.219  27.393  1.00  0.00     0.014 A 
ATOM     31  C   UNL A   1      37.842  28.985  29.785  1.00  0.00     0.010 A 
ATOM     32  C   UNL A   1      38.386  29.703  27.539  1.00  0.00     0.010 A 
ATOM     33  C   UNL A   1      38.776  29.101  28.744  1.00  0.00    -0.014 A 
BRANCH  33  34
ATOM     34  C   UNL A   1      40.186  28.673  28.910  1.00  0.00     0.031 A 
ATOM     35  C   UNL A   1      41.197  29.646  29.449  1.00  0.00     0.074 A 
ATOM     36  C   UNL A   1      40.573  27.442  28.527  1.00  0.00     0.049 A 
ATOM     37  N   UNL A   1      42.498  29.535  29.524  1.00  0.00    -0.248 NA
ATOM     38  C   UNL A   1      40.672  30.927  29.950  1.00  0.00     0.031 C 
ATOM     39  C   UNL A   1      39.693  26.404  27.988  1.00  0.00     0.029 A 
ATOM     40  N   UNL A   1      41.816  26.862  28.523  1.00  0.00    -0.354 N 
ATOM     41  C   UNL A   1      42.949  30.737  30.056  1.00  0.00     0.074 A 
ATOM     42  C   UNL A   1      41.787  31.577  30.250  1.00  0.00     0.031 C 
ATOM     43  C   UNL A   1      40.422  25.308  27.721  1.00  0.00     0.029 A 
ATOM     44  C   UNL A   1      41.822  25.580  28.028  1.00  0.00     0.049 A 
ATOM     45  H   UNL A   1      42.625  27.319  28.844  1.00  0.00     0.167 HD
ATOM     46  C   UNL A   1      44.214  31.102  30.370  1.00  0.00     0.037 A 
ATOM     47  C   UNL A   1      42.846  24.730  27.830  1.00  0.00     0.037 A 
ATOM     48  C   UNL A   1      45.366  30.256  30.207  1.00  0.00     0.049 A 
ATOM     49  C   UNL A   1      44.244  25.165  28.165  1.00  0.00     0.074 A 
ATOM     50  C   UNL A   1      46.687  30.527  30.515  1.00  0.00     0.029 A 
ATOM     51  N   UNL A   1      45.329  28.968  29.698  1.00  0.00    -0.354 N 
ATOM     52  N   UNL A   1      44.659  26.308  28.656  1.00  0.00    -0.248 NA
ATOM     53  C   UNL A   1      45.319  24.195  27.912  1.00  0.00     0.031 C 
ATOM     54  C   UNL A   1      47.455  29.409  30.171  1.00  0.00     0.029 A 
ATOM     55  C   UNL A   1      46.606  28.431  29.678  1.00  0.00     0.049 A 
ATOM     56  H   UNL A   1      44.517  28.502  29.395  1.00  0.00     0.167 HD
ATOM     57  C   UNL A   1      46.037  26.191  28.781  1.00  0.00     0.074 A 
ATOM     58  C   UNL A   1      46.386  24.858  28.334  1.00  0.00     0.031 C 
ATOM     59  C   UNL A   1      46.934  27.105  29.222  1.00  0.00     0.037 A 
BRANCH  46  60
ATOM     60  C   UNL A   1      44.414  32.480  30.928  1.00  0.00     0.057 A 
ATOM     61  C   UNL A   1      44.626  33.587  30.096  1.00  0.00     0.134 A 
ATOM     62  C   UNL A   1      44.369  32.707  32.309  1.00  0.00     0.134 A 
ATOM     63  F   UNL A   1      44.697  33.431  28.765  1.00  0.00    -0.206 F 
ATOM     64  C   UNL A   1      44.808  34.868  30.618  1.00  0.00     0.040 A 
ATOM     65  C   UNL A   1      44.526  33.987  32.842  1.00  0.00     0.040 A 
ATOM     66  F   UNL A   1      44.168  31.690  33.160  1.00  0.00    -0.206 F 
ATOM     67  C   UNL A   1      44.751  35.071  31.996  1.00  0.00     0.006 A 
ENDBRANCH  46  60
BRANCH  47  68
ATOM     68  C   UNL A   1      42.585  23.372  27.293  1.00  0.00     0.057 A 
ATOM     69  C   UNL A   1      42.651  23.122  25.918  1.00  0.00     0.134 A 
ATOM     70  C   UNL A   1      42.270  22.298  28.132  1.00  0.00     0.134 A 
ATOM     71  F   UNL A   1      42.929  24.119  25.064  1.00  0.00    -0.206 F 
ATOM     72  C   UNL A   1      42.404  21.853  25.394  1.00  0.00     0.040 A 
ATOM     73  C   UNL A   1      42.039  21.019  27.624  1.00  0.00     0.040 A 
ATOM     74  F   UNL A   1      42.195  22.475  29.460  1.00  0.00    -0.206 F 
ATOM     75  C   UNL A   1      42.102  20.795  26.249  1.00  0.00     0.006 A 
ENDBRANCH  47  68
BRANCH  59  76
ATOM     76  C   UNL A   1      48.374  26.690  29.251  1.00  0.00     0.057 A 
ATOM     77  C   UNL A   1      49.248  27.006  28.204  1.00  0.00     0.134 A 
ATOM     78  C   UNL A   1      48.898  26.001  30.351  1.00  0.00     0.134 A 
ATOM     79  F   UNL A   1      48.802  27.653  27.117  1.00  0.00    -0.206 F 
ATOM     80  C   UNL A   1      50.592  26.632  28.241  1.00  0.00     0.040 A 
ATOM     81  C   UNL A   1      50.245  25.641  30.410  1.00  0.00     0.040 A 
ATOM     82  F   UNL A   1      48.114  25.677  31.390  1.00  0.00    -0.206 F 
ATOM     83  C   UNL A   1      51.095  25.953  29.349  1.00  0.00     0.006 A 
ENDBRANCH  59  76
ENDBRANCH  33  34
ENDBRANCH  25  28
ENDBRANCH  23  24
ENDBRANCH   1  23
TORSDOF 11
ENDMDL
