MODEL 1
REMARK VINA RESULT:     -11.1      0.000      0.000
REMARK SMILES CCC[N@H+](CC(=O)NCCCNC(=O)c1ccc(-c2c3nc(c(-c4c(F)cccc4F)c4ccc([nH]4)c(-c4c(F)cccc4F)c4nc(c(-c5c(F)cccc5F)c5ccc2[nH]5)C=C4)C=C3)cc1)[C@H]1CCOC2(CCCCC2)C1
REMARK SMILES IDX 9 1 8 2 6 3 7 4 5 6 4 7 3 9 2 10 1 11 69 12 70 13 79 14
REMARK SMILES IDX 71 15 73 16 72 17 74 18 78 19 75 20 77 21 76 22 10 23 11 24
REMARK SMILES IDX 12 25 13 26 14 28 15 29 16 30 68 31 17 32 67 33 18 34 19 35
REMARK SMILES IDX 20 36 61 37 21 38 66 39 60 40 62 41 22 42 65 43 59 44 58 45
REMARK SMILES IDX 23 47 49 48 32 49 48 50 33 51 36 52 47 53 63 54 34 55 35 56
REMARK SMILES IDX 46 58 64 59 37 60 24 61 25 62 30 63 26 64 27 65 29 66 31 67
REMARK SMILES IDX 28 68 50 69 51 70 56 71 52 72 53 73 55 74 57 75 54 76 38 77
REMARK SMILES IDX 39 78 44 79 40 80 41 81 43 82 45 83 42 84
REMARK H PARENT 8 5 4 8 12 27 62 46 36 57
REMARK Flexibility Score: inf
ROOT
ATOM      1  C   UNL A   1      36.690  20.190  24.597  1.00  0.00     0.118 C 
ENDROOT
BRANCH   1   2
ATOM      2  N   UNL A   1      35.402  19.801  25.159  1.00  0.00    -0.351 N 
ATOM      3  C   UNL A   1      34.160  20.377  25.101  1.00  0.00     0.275 C 
ATOM      4  O   UNL A   1      33.249  19.794  25.698  1.00  0.00    -0.269 OA
ATOM      5  H   UNL A   1      35.430  18.966  25.680  1.00  0.00     0.163 HD
BRANCH   3   6
ATOM      6  C   UNL A   1      33.898  21.677  24.313  1.00  0.00     0.363 C 
BRANCH   6   7
ATOM      7  N   UNL A   1      34.376  22.928  25.015  1.00  0.00    -0.325 N 
ATOM      8  H   UNL A   1      34.743  22.740  25.948  1.00  0.00     0.348 HD
BRANCH   7   9
ATOM      9  C   UNL A   1      35.464  23.486  24.180  1.00  0.00     0.262 C 
BRANCH   9  10
ATOM     10  C   UNL A   1      36.930  23.666  24.590  1.00  0.00     0.058 C 
ATOM     11  C   UNL A   1      37.149  23.634  26.092  1.00  0.00     0.010 C 
ENDBRANCH   9  10
ENDBRANCH   7   9
BRANCH   7  12
ATOM     12  C   UNL A   1      33.231  23.868  25.239  1.00  0.00     0.189 C 
ATOM     13  C   UNL A   1      32.148  23.346  26.219  1.00  0.00     0.093 C 
ATOM     14  C   UNL A   1      33.673  25.211  25.839  1.00  0.00     0.100 C 
ATOM     15  C   UNL A   1      31.050  24.381  26.492  1.00  0.00     0.167 C 
ATOM     16  C   UNL A   1      32.515  26.214  25.956  1.00  0.00     0.074 C 
ATOM     17  O   UNL A   1      31.539  25.672  26.850  1.00  0.00    -0.375 OA
ATOM     18  C   UNL A   1      31.903  26.552  24.573  1.00  0.00     0.036 C 
ATOM     19  C   UNL A   1      33.085  27.505  26.593  1.00  0.00     0.036 C 
ATOM     20  C   UNL A   1      30.898  27.698  24.635  1.00  0.00     0.003 C 
ATOM     21  C   UNL A   1      32.101  28.671  26.608  1.00  0.00     0.003 C 
ATOM     22  C   UNL A   1      31.536  28.949  25.221  1.00  0.00     0.000 C 
ENDBRANCH   7  12
ENDBRANCH   6   7
ENDBRANCH   3   6
ENDBRANCH   1   2
BRANCH   1  23
ATOM     23  C   UNL A   1      37.853  19.291  25.041  1.00  0.00     0.042 C 
BRANCH  23  24
ATOM     24  C   UNL A   1      38.992  20.017  25.752  1.00  0.00     0.118 C 
BRANCH  24  25
ATOM     25  N   UNL A   1      40.172  19.179  25.849  1.00  0.00    -0.352 N 
ATOM     26  C   UNL A   1      41.490  19.512  26.049  1.00  0.00     0.251 C 
ATOM     27  H   UNL A   1      40.001  18.213  25.755  1.00  0.00     0.163 HD
ATOM     28  O   UNL A   1      42.352  18.671  25.804  1.00  0.00    -0.269 OA
BRANCH  26  29
ATOM     29  C   UNL A   1      41.905  20.848  26.551  1.00  0.00     0.039 A 
ATOM     30  C   UNL A   1      41.781  21.110  27.923  1.00  0.00     0.014 A 
ATOM     31  C   UNL A   1      42.298  21.881  25.696  1.00  0.00     0.014 A 
ATOM     32  C   UNL A   1      42.064  22.383  28.432  1.00  0.00     0.010 A 
ATOM     33  C   UNL A   1      42.650  23.131  26.213  1.00  0.00     0.010 A 
ATOM     34  C   UNL A   1      42.511  23.407  27.582  1.00  0.00    -0.014 A 
BRANCH  34  35
ATOM     35  C   UNL A   1      42.773  24.779  28.098  1.00  0.00     0.031 A 
ATOM     36  C   UNL A   1      44.168  25.183  28.501  1.00  0.00     0.074 A 
ATOM     37  C   UNL A   1      41.761  25.657  28.242  1.00  0.00     0.049 A 
ATOM     38  N   UNL A   1      44.586  26.300  29.043  1.00  0.00    -0.248 NA
ATOM     39  C   UNL A   1      45.232  24.189  28.288  1.00  0.00     0.031 C 
ATOM     40  C   UNL A   1      40.358  25.396  27.919  1.00  0.00     0.029 A 
ATOM     41  N   UNL A   1      41.758  26.949  28.711  1.00  0.00    -0.354 N 
ATOM     42  C   UNL A   1      45.948  26.132  29.261  1.00  0.00     0.074 A 
ATOM     43  C   UNL A   1      46.280  24.791  28.828  1.00  0.00     0.031 C 
ATOM     44  C   UNL A   1      39.635  26.496  28.181  1.00  0.00     0.029 A 
ATOM     45  C   UNL A   1      40.513  27.529  28.723  1.00  0.00     0.049 A 
ATOM     46  H   UNL A   1      42.573  27.414  29.009  1.00  0.00     0.167 HD
ATOM     47  C   UNL A   1      46.848  27.016  29.757  1.00  0.00     0.037 A 
ATOM     48  C   UNL A   1      40.121  28.752  29.130  1.00  0.00     0.037 A 
ATOM     49  C   UNL A   1      46.534  28.365  30.147  1.00  0.00     0.049 A 
ATOM     50  C   UNL A   1      41.139  29.719  29.667  1.00  0.00     0.074 A 
ATOM     51  C   UNL A   1      47.391  29.353  30.601  1.00  0.00     0.029 A 
ATOM     52  N   UNL A   1      45.264  28.917  30.123  1.00  0.00    -0.354 N 
ATOM     53  N   UNL A   1      42.430  29.560  29.822  1.00  0.00    -0.248 NA
ATOM     54  C   UNL A   1      40.643  31.041  30.081  1.00  0.00     0.031 C 
ATOM     55  C   UNL A   1      46.634  30.496  30.880  1.00  0.00     0.029 A 
ATOM     56  C   UNL A   1      45.311  30.229  30.567  1.00  0.00     0.049 A 
ATOM     57  H   UNL A   1      44.448  28.448  29.834  1.00  0.00     0.167 HD
ATOM     58  C   UNL A   1      42.904  30.763  30.328  1.00  0.00     0.074 A 
ATOM     59  C   UNL A   1      41.764  31.649  30.442  1.00  0.00     0.031 C 
ATOM     60  C   UNL A   1      44.171  31.103  30.667  1.00  0.00     0.037 A 
BRANCH  47  61
ATOM     61  C   UNL A   1      48.266  26.549  29.901  1.00  0.00     0.057 A 
ATOM     62  C   UNL A   1      48.712  25.883  31.049  1.00  0.00     0.134 A 
ATOM     63  C   UNL A   1      49.190  26.741  28.865  1.00  0.00     0.134 A 
ATOM     64  F   UNL A   1      47.880  25.677  32.081  1.00  0.00    -0.206 F 
ATOM     65  C   UNL A   1      50.032  25.446  31.174  1.00  0.00     0.040 A 
ATOM     66  C   UNL A   1      50.506  26.288  28.967  1.00  0.00     0.040 A 
ATOM     67  F   UNL A   1      48.827  27.365  27.734  1.00  0.00    -0.206 F 
ATOM     68  C   UNL A   1      50.932  25.644  30.128  1.00  0.00     0.006 A 
ENDBRANCH  47  61
BRANCH  48  69
ATOM     69  C   UNL A   1      38.693  29.142  29.029  1.00  0.00     0.057 A 
ATOM     70  C   UNL A   1      37.841  29.047  30.135  1.00  0.00     0.134 A 
ATOM     71  C   UNL A   1      38.145  29.608  27.828  1.00  0.00     0.134 A 
ATOM     72  F   UNL A   1      38.305  28.587  31.306  1.00  0.00    -0.206 F 
ATOM     73  C   UNL A   1      36.491  29.389  30.049  1.00  0.00     0.040 A 
ATOM     74  C   UNL A   1      36.801  29.973  27.733  1.00  0.00     0.040 A 
ATOM     75  F   UNL A   1      38.911  29.724  26.733  1.00  0.00    -0.206 F 
ATOM     76  C   UNL A   1      35.969  29.858  28.845  1.00  0.00     0.006 A 
ENDBRANCH  48  69
BRANCH  60  77
ATOM     77  C   UNL A   1      44.398  32.498  31.165  1.00  0.00     0.057 A 
ATOM     78  C   UNL A   1      44.360  32.810  32.529  1.00  0.00     0.134 A 
ATOM     79  C   UNL A   1      44.697  33.535  30.271  1.00  0.00     0.134 A 
ATOM     80  F   UNL A   1      44.066  31.864  33.435  1.00  0.00    -0.206 F 
ATOM     81  C   UNL A   1      44.594  34.108  32.986  1.00  0.00     0.040 A 
ATOM     82  C   UNL A   1      44.953  34.832  30.717  1.00  0.00     0.040 A 
ATOM     83  F   UNL A   1      44.755  33.299  28.952  1.00  0.00    -0.206 F 
ATOM     84  C   UNL A   1      44.897  35.122  32.079  1.00  0.00     0.006 A 
ENDBRANCH  60  77
ENDBRANCH  34  35
ENDBRANCH  26  29
ENDBRANCH  24  25
ENDBRANCH  23  24
ENDBRANCH   1  23
TORSDOF 14
ENDMDL
MODEL 2
REMARK VINA RESULT:     -10.9      0.897      6.416
REMARK SMILES CCC[N@H+](CC(=O)NCCCNC(=O)c1ccc(-c2c3nc(c(-c4c(F)cccc4F)c4ccc([nH]4)c(-c4c(F)cccc4F)c4nc(c(-c5c(F)cccc5F)c5ccc2[nH]5)C=C4)C=C3)cc1)[C@H]1CCOC2(CCCCC2)C1
REMARK SMILES IDX 9 1 8 2 6 3 7 4 5 6 4 7 3 9 2 10 1 11 69 12 70 13 79 14
REMARK SMILES IDX 71 15 73 16 72 17 74 18 78 19 75 20 77 21 76 22 10 23 11 24
REMARK SMILES IDX 12 25 13 26 14 28 15 29 16 30 68 31 17 32 67 33 18 34 19 35
REMARK SMILES IDX 20 36 61 37 21 38 66 39 60 40 62 41 22 42 65 43 59 44 58 45
REMARK SMILES IDX 23 47 49 48 32 49 48 50 33 51 36 52 47 53 63 54 34 55 35 56
REMARK SMILES IDX 46 58 64 59 37 60 24 61 25 62 30 63 26 64 27 65 29 66 31 67
REMARK SMILES IDX 28 68 50 69 51 70 56 71 52 72 53 73 55 74 57 75 54 76 38 77
REMARK SMILES IDX 39 78 44 79 40 80 41 81 43 82 45 83 42 84
REMARK H PARENT 8 5 4 8 12 27 62 46 36 57
REMARK Flexibility Score: inf
ROOT
ATOM      1  C   UNL A   1      36.177  20.718  24.869  1.00  0.00     0.118 C 
ENDROOT
BRANCH   1   2
ATOM      2  N   UNL A   1      35.774  21.312  26.137  1.00  0.00    -0.351 N 
ATOM      3  C   UNL A   1      34.647  21.991  26.520  1.00  0.00     0.275 C 
ATOM      4  O   UNL A   1      34.604  22.380  27.691  1.00  0.00    -0.269 OA
ATOM      5  H   UNL A   1      36.438  21.206  26.857  1.00  0.00     0.163 HD
BRANCH   3   6
ATOM      6  C   UNL A   1      33.475  22.241  25.549  1.00  0.00     0.363 C 
BRANCH   6   7
ATOM      7  N   UNL A   1      33.699  23.397  24.600  1.00  0.00    -0.325 N 
ATOM      8  H   UNL A   1      34.636  23.792  24.675  1.00  0.00     0.348 HD
BRANCH   7   9
ATOM      9  C   UNL A   1      33.518  22.858  23.233  1.00  0.00     0.262 C 
BRANCH   9  10
ATOM     10  C   UNL A   1      32.195  22.429  22.588  1.00  0.00     0.058 C 
ATOM     11  C   UNL A   1      32.089  20.932  22.359  1.00  0.00     0.010 C 
ENDBRANCH   9  10
ENDBRANCH   7   9
BRANCH   7  12
ATOM     12  C   UNL A   1      32.781  24.532  24.938  1.00  0.00     0.189 C 
ATOM     13  C   UNL A   1      31.541  24.133  25.781  1.00  0.00     0.093 C 
ATOM     14  C   UNL A   1      33.469  25.626  25.768  1.00  0.00     0.100 C 
ATOM     15  C   UNL A   1      30.687  25.341  26.185  1.00  0.00     0.167 C 
ATOM     16  C   UNL A   1      32.562  26.841  26.011  1.00  0.00     0.074 C 
ATOM     17  O   UNL A   1      31.427  26.411  26.769  1.00  0.00    -0.375 OA
ATOM     18  C   UNL A   1      32.141  27.521  24.683  1.00  0.00     0.036 C 
ATOM     19  C   UNL A   1      33.360  27.849  26.873  1.00  0.00     0.036 C 
ATOM     20  C   UNL A   1      31.418  28.847  24.901  1.00  0.00     0.003 C 
ATOM     21  C   UNL A   1      32.665  29.197  27.049  1.00  0.00     0.003 C 
ATOM     22  C   UNL A   1      32.277  29.809  25.709  1.00  0.00     0.000 C 
ENDBRANCH   7  12
ENDBRANCH   6   7
ENDBRANCH   3   6
ENDBRANCH   1   2
BRANCH   1  23
ATOM     23  C   UNL A   1      37.401  19.798  24.980  1.00  0.00     0.042 C 
BRANCH  23  24
ATOM     24  C   UNL A   1      38.629  20.436  25.623  1.00  0.00     0.118 C 
BRANCH  24  25
ATOM     25  N   UNL A   1      39.703  19.472  25.780  1.00  0.00    -0.352 N 
ATOM     26  C   UNL A   1      41.037  19.658  26.047  1.00  0.00     0.251 C 
ATOM     27  H   UNL A   1      39.431  18.531  25.678  1.00  0.00     0.163 HD
ATOM     28  O   UNL A   1      41.812  18.725  25.847  1.00  0.00    -0.269 OA
BRANCH  26  29
ATOM     29  C   UNL A   1      41.572  20.943  26.570  1.00  0.00     0.039 A 
ATOM     30  C   UNL A   1      41.511  21.175  27.951  1.00  0.00     0.014 A 
ATOM     31  C   UNL A   1      42.021  21.965  25.729  1.00  0.00     0.014 A 
ATOM     32  C   UNL A   1      41.910  22.407  28.483  1.00  0.00     0.010 A 
ATOM     33  C   UNL A   1      42.487  23.169  26.266  1.00  0.00     0.010 A 
ATOM     34  C   UNL A   1      42.411  23.416  27.646  1.00  0.00    -0.014 A 
BRANCH  34  35
ATOM     35  C   UNL A   1      42.797  24.748  28.187  1.00  0.00     0.031 A 
ATOM     36  C   UNL A   1      41.748  25.807  28.412  1.00  0.00     0.074 A 
ATOM     37  C   UNL A   1      44.089  25.030  28.446  1.00  0.00     0.049 A 
ATOM     38  N   UNL A   1      41.893  27.050  28.800  1.00  0.00    -0.248 NA
ATOM     39  C   UNL A   1      40.354  25.424  28.141  1.00  0.00     0.031 C 
ATOM     40  C   UNL A   1      45.213  24.114  28.251  1.00  0.00     0.029 A 
ATOM     41  N   UNL A   1      44.677  26.178  28.920  1.00  0.00    -0.354 N 
ATOM     42  C   UNL A   1      40.617  27.602  28.792  1.00  0.00     0.074 A 
ATOM     43  C   UNL A   1      39.716  26.571  28.324  1.00  0.00     0.031 C 
ATOM     44  C   UNL A   1      46.349  24.727  28.619  1.00  0.00     0.029 A 
ATOM     45  C   UNL A   1      46.042  26.091  29.043  1.00  0.00     0.049 A 
ATOM     46  H   UNL A   1      44.166  26.988  29.151  1.00  0.00     0.167 HD
ATOM     47  C   UNL A   1      40.224  28.846  29.159  1.00  0.00     0.037 A 
ATOM     48  C   UNL A   1      46.945  27.005  29.444  1.00  0.00     0.037 A 
ATOM     49  C   UNL A   1      41.106  29.862  29.669  1.00  0.00     0.049 A 
ATOM     50  C   UNL A   1      46.485  28.375  29.857  1.00  0.00     0.074 A 
ATOM     51  C   UNL A   1      40.790  31.130  30.126  1.00  0.00     0.029 A 
ATOM     52  N   UNL A   1      42.479  29.722  29.796  1.00  0.00    -0.354 N 
ATOM     53  N   UNL A   1      45.270  28.865  29.887  1.00  0.00    -0.248 NA
ATOM     54  C   UNL A   1      47.523  29.319  30.296  1.00  0.00     0.031 C 
ATOM     55  C   UNL A   1      41.976  31.770  30.501  1.00  0.00     0.029 A 
ATOM     56  C   UNL A   1      43.026  30.886  30.311  1.00  0.00     0.049 A 
ATOM     57  H   UNL A   1      42.990  28.916  29.555  1.00  0.00     0.167 HD
ATOM     58  C   UNL A   1      45.394  30.161  30.368  1.00  0.00     0.074 A 
ATOM     59  C   UNL A   1      46.801  30.379  30.630  1.00  0.00     0.031 C 
ATOM     60  C   UNL A   1      44.427  31.088  30.575  1.00  0.00     0.037 A 
BRANCH  47  61
ATOM     61  C   UNL A   1      38.767  29.177  29.026  1.00  0.00     0.057 A 
ATOM     62  C   UNL A   1      38.205  29.560  27.803  1.00  0.00     0.134 A 
ATOM     63  C   UNL A   1      37.909  29.079  30.130  1.00  0.00     0.134 A 
ATOM     64  F   UNL A   1      38.974  29.683  26.710  1.00  0.00    -0.206 F 
ATOM     65  C   UNL A   1      36.846  29.861  27.685  1.00  0.00     0.040 A 
ATOM     66  C   UNL A   1      36.544  29.353  30.019  1.00  0.00     0.040 A 
ATOM     67  F   UNL A   1      38.380  28.709  31.329  1.00  0.00    -0.206 F 
ATOM     68  C   UNL A   1      36.011  29.753  28.795  1.00  0.00     0.006 A 
ENDBRANCH  47  61
BRANCH  48  69
ATOM     69  C   UNL A   1      48.385  26.649  29.495  1.00  0.00     0.057 A 
ATOM     70  C   UNL A   1      49.236  26.940  28.423  1.00  0.00     0.134 A 
ATOM     71  C   UNL A   1      48.941  26.005  30.606  1.00  0.00     0.134 A 
ATOM     72  F   UNL A   1      48.755  27.536  27.322  1.00  0.00    -0.206 F 
ATOM     73  C   UNL A   1      50.587  26.591  28.447  1.00  0.00     0.040 A 
ATOM     74  C   UNL A   1      50.295  25.668  30.652  1.00  0.00     0.040 A 
ATOM     75  F   UNL A   1      48.178  25.702  31.666  1.00  0.00    -0.206 F 
ATOM     76  C   UNL A   1      51.121  25.957  29.567  1.00  0.00     0.006 A 
ENDBRANCH  48  69
BRANCH  60  77
ATOM     77  C   UNL A   1      44.852  32.410  31.138  1.00  0.00     0.057 A 
ATOM     78  C   UNL A   1      44.930  32.634  32.517  1.00  0.00     0.134 A 
ATOM     79  C   UNL A   1      45.224  33.461  30.288  1.00  0.00     0.134 A 
ATOM     80  F   UNL A   1      44.575  31.672  33.383  1.00  0.00    -0.206 F 
ATOM     81  C   UNL A   1      45.348  33.862  33.034  1.00  0.00     0.040 A 
ATOM     82  C   UNL A   1      45.663  34.686  30.792  1.00  0.00     0.040 A 
ATOM     83  F   UNL A   1      45.177  33.308  28.957  1.00  0.00    -0.206 F 
ATOM     84  C   UNL A   1      45.721  34.890  32.170  1.00  0.00     0.006 A 
ENDBRANCH  60  77
ENDBRANCH  34  35
ENDBRANCH  26  29
ENDBRANCH  24  25
ENDBRANCH  23  24
ENDBRANCH   1  23
TORSDOF 14
ENDMDL
MODEL 3
REMARK VINA RESULT:     -10.8      1.588      7.232
REMARK SMILES CCC[N@H+](CC(=O)NCCCNC(=O)c1ccc(-c2c3nc(c(-c4c(F)cccc4F)c4ccc([nH]4)c(-c4c(F)cccc4F)c4nc(c(-c5c(F)cccc5F)c5ccc2[nH]5)C=C4)C=C3)cc1)[C@H]1CCOC2(CCCCC2)C1
REMARK SMILES IDX 9 1 8 2 6 3 7 4 5 6 4 7 3 9 2 10 1 11 69 12 70 13 79 14
REMARK SMILES IDX 71 15 73 16 72 17 74 18 78 19 75 20 77 21 76 22 10 23 11 24
REMARK SMILES IDX 12 25 13 26 14 28 15 29 16 30 68 31 17 32 67 33 18 34 19 35
REMARK SMILES IDX 20 36 61 37 21 38 66 39 60 40 62 41 22 42 65 43 59 44 58 45
REMARK SMILES IDX 23 47 49 48 32 49 48 50 33 51 36 52 47 53 63 54 34 55 35 56
REMARK SMILES IDX 46 58 64 59 37 60 24 61 25 62 30 63 26 64 27 65 29 66 31 67
REMARK SMILES IDX 28 68 50 69 51 70 56 71 52 72 53 73 55 74 57 75 54 76 38 77
REMARK SMILES IDX 39 78 44 79 40 80 41 81 43 82 45 83 42 84
REMARK H PARENT 8 5 4 8 12 27 62 46 36 57
REMARK Flexibility Score: inf
ROOT
ATOM      1  C   UNL A   1      37.977  22.412  25.709  1.00  0.00     0.118 C 
ENDROOT
BRANCH   1   2
ATOM      2  N   UNL A   1      37.519  22.600  24.338  1.00  0.00    -0.351 N 
ATOM      3  C   UNL A   1      36.301  22.943  23.813  1.00  0.00     0.275 C 
ATOM      4  O   UNL A   1      36.229  23.020  22.582  1.00  0.00    -0.269 OA
ATOM      5  H   UNL A   1      38.218  22.452  23.660  1.00  0.00     0.163 HD
BRANCH   3   6
ATOM      6  C   UNL A   1      35.080  23.243  24.707  1.00  0.00     0.363 C 
BRANCH   6   7
ATOM      7  N   UNL A   1      34.857  22.225  25.803  1.00  0.00    -0.325 N 
ATOM      8  H   UNL A   1      35.719  21.760  26.090  1.00  0.00     0.348 HD
BRANCH   7   9
ATOM      9  C   UNL A   1      34.310  22.969  26.960  1.00  0.00     0.262 C 
BRANCH   9  10
ATOM     10  C   UNL A   1      32.867  22.926  27.476  1.00  0.00     0.058 C 
ATOM     11  C   UNL A   1      31.954  23.938  26.809  1.00  0.00     0.010 C 
ENDBRANCH   9  10
ENDBRANCH   7   9
BRANCH   7  12
ATOM     12  C   UNL A   1      33.974  21.118  25.313  1.00  0.00     0.189 C 
ATOM     13  C   UNL A   1      33.116  21.477  24.071  1.00  0.00     0.093 C 
ATOM     14  C   UNL A   1      34.764  19.873  24.883  1.00  0.00     0.100 C 
ATOM     15  C   UNL A   1      32.306  20.285  23.548  1.00  0.00     0.167 C 
ATOM     16  C   UNL A   1      33.851  18.701  24.494  1.00  0.00     0.074 C 
ATOM     17  O   UNL A   1      33.069  19.095  23.363  1.00  0.00    -0.375 OA
ATOM     18  C   UNL A   1      32.960  18.246  25.678  1.00  0.00     0.036 C 
ATOM     19  C   UNL A   1      34.765  17.528  24.061  1.00  0.00     0.036 C 
ATOM     20  C   UNL A   1      32.201  16.955  25.386  1.00  0.00     0.003 C 
ATOM     21  C   UNL A   1      34.017  16.220  23.820  1.00  0.00     0.003 C 
ATOM     22  C   UNL A   1      33.160  15.832  25.018  1.00  0.00     0.000 C 
ENDBRANCH   7  12
ENDBRANCH   6   7
ENDBRANCH   3   6
ENDBRANCH   1   2
BRANCH   1  23
ATOM     23  C   UNL A   1      38.152  20.938  26.104  1.00  0.00     0.042 C 
BRANCH  23  24
ATOM     24  C   UNL A   1      38.679  20.033  24.995  1.00  0.00     0.118 C 
BRANCH  24  25
ATOM     25  N   UNL A   1      39.740  19.169  25.478  1.00  0.00    -0.352 N 
ATOM     26  C   UNL A   1      40.947  19.476  26.058  1.00  0.00     0.251 C 
ATOM     27  H   UNL A   1      39.568  18.205  25.372  1.00  0.00     0.163 HD
ATOM     28  O   UNL A   1      41.809  18.602  26.118  1.00  0.00    -0.269 OA
BRANCH  26  29
ATOM     29  C   UNL A   1      41.243  20.823  26.613  1.00  0.00     0.039 A 
ATOM     30  C   UNL A   1      41.714  21.813  25.740  1.00  0.00     0.014 A 
ATOM     31  C   UNL A   1      41.181  21.098  27.981  1.00  0.00     0.014 A 
ATOM     32  C   UNL A   1      42.101  23.066  26.228  1.00  0.00     0.010 A 
ATOM     33  C   UNL A   1      41.499  22.373  28.461  1.00  0.00     0.010 A 
ATOM     34  C   UNL A   1      41.989  23.364  27.595  1.00  0.00    -0.014 A 
BRANCH  34  35
ATOM     35  C   UNL A   1      42.438  24.675  28.140  1.00  0.00     0.031 A 
ATOM     36  C   UNL A   1      41.438  25.776  28.383  1.00  0.00     0.074 A 
ATOM     37  C   UNL A   1      43.743  24.900  28.383  1.00  0.00     0.049 A 
ATOM     38  N   UNL A   1      41.639  27.009  28.778  1.00  0.00    -0.248 NA
ATOM     39  C   UNL A   1      40.024  25.454  28.128  1.00  0.00     0.031 C 
ATOM     40  C   UNL A   1      44.825  23.938  28.168  1.00  0.00     0.029 A 
ATOM     41  N   UNL A   1      44.385  26.019  28.857  1.00  0.00    -0.354 N 
ATOM     42  C   UNL A   1      40.388  27.615  28.789  1.00  0.00     0.074 A 
ATOM     43  C   UNL A   1      39.439  26.625  28.326  1.00  0.00     0.031 C 
ATOM     44  C   UNL A   1      45.991  24.500  28.526  1.00  0.00     0.029 A 
ATOM     45  C   UNL A   1      45.747  25.873  28.961  1.00  0.00     0.049 A 
ATOM     46  H   UNL A   1      43.912  26.848  29.098  1.00  0.00     0.167 HD
ATOM     47  C   UNL A   1      40.053  28.872  29.168  1.00  0.00     0.037 A 
ATOM     48  C   UNL A   1      46.693  26.745  29.356  1.00  0.00     0.037 A 
ATOM     49  C   UNL A   1      40.984  29.846  29.672  1.00  0.00     0.049 A 
ATOM     50  C   UNL A   1      46.296  28.131  29.783  1.00  0.00     0.074 A 
ATOM     51  C   UNL A   1      40.727  31.123  30.141  1.00  0.00     0.029 A 
ATOM     52  N   UNL A   1      42.351  29.648  29.781  1.00  0.00    -0.354 N 
ATOM     53  N   UNL A   1      45.104  28.672  29.831  1.00  0.00    -0.248 NA
ATOM     54  C   UNL A   1      47.380  29.028  30.214  1.00  0.00     0.031 C 
ATOM     55  C   UNL A   1      41.944  31.710  30.505  1.00  0.00     0.029 A 
ATOM     56  C   UNL A   1      42.953  30.784  30.296  1.00  0.00     0.049 A 
ATOM     57  H   UNL A   1      42.825  28.822  29.529  1.00  0.00     0.167 HD
ATOM     58  C   UNL A   1      45.289  29.959  30.319  1.00  0.00     0.074 A 
ATOM     59  C   UNL A   1      46.707  30.116  30.563  1.00  0.00     0.031 C 
ATOM     60  C   UNL A   1      44.365  30.925  30.543  1.00  0.00     0.037 A 
BRANCH  47  61
ATOM     61  C   UNL A   1      38.609  29.265  29.056  1.00  0.00     0.057 A 
ATOM     62  C   UNL A   1      37.753  29.254  30.164  1.00  0.00     0.134 A 
ATOM     63  C   UNL A   1      38.077  29.689  27.831  1.00  0.00     0.134 A 
ATOM     64  F   UNL A   1      38.198  28.848  31.363  1.00  0.00    -0.206 F 
ATOM     65  C   UNL A   1      36.412  29.626  30.054  1.00  0.00     0.040 A 
ATOM     66  C   UNL A   1      36.744  30.087  27.714  1.00  0.00     0.040 A 
ATOM     67  F   UNL A   1      38.844  29.730  26.732  1.00  0.00    -0.206 F 
ATOM     68  C   UNL A   1      35.905  30.049  28.826  1.00  0.00     0.006 A 
ENDBRANCH  47  61
BRANCH  48  69
ATOM     69  C   UNL A   1      48.117  26.329  29.387  1.00  0.00     0.057 A 
ATOM     70  C   UNL A   1      48.928  26.454  28.253  1.00  0.00     0.134 A 
ATOM     71  C   UNL A   1      48.697  25.789  30.540  1.00  0.00     0.134 A 
ATOM     72  F   UNL A   1      48.421  26.945  27.112  1.00  0.00    -0.206 F 
ATOM     73  C   UNL A   1      50.262  26.046  28.260  1.00  0.00     0.040 A 
ATOM     74  C   UNL A   1      50.036  25.395  30.567  1.00  0.00     0.040 A 
ATOM     75  F   UNL A   1      47.973  25.646  31.659  1.00  0.00    -0.206 F 
ATOM     76  C   UNL A   1      50.821  25.518  29.422  1.00  0.00     0.006 A 
ENDBRANCH  48  69
BRANCH  60  77
ATOM     77  C   UNL A   1      44.852  32.224  31.108  1.00  0.00     0.057 A 
ATOM     78  C   UNL A   1      45.233  33.290  30.284  1.00  0.00     0.134 A 
ATOM     79  C   UNL A   1      44.905  32.424  32.494  1.00  0.00     0.134 A 
ATOM     80  F   UNL A   1      45.218  33.157  28.949  1.00  0.00    -0.206 F 
ATOM     81  C   UNL A   1      45.666  34.505  30.819  1.00  0.00     0.040 A 
ATOM     82  C   UNL A   1      45.316  33.641  33.040  1.00  0.00     0.040 A 
ATOM     83  F   UNL A   1      44.548  31.444  33.337  1.00  0.00    -0.206 F 
ATOM     84  C   UNL A   1      45.703  34.684  32.201  1.00  0.00     0.006 A 
ENDBRANCH  60  77
ENDBRANCH  34  35
ENDBRANCH  26  29
ENDBRANCH  24  25
ENDBRANCH  23  24
ENDBRANCH   1  23
TORSDOF 14
ENDMDL
