MODEL 1
REMARK VINA RESULT:      -9.7      0.000      0.000
REMARK SMILES CC/C=C/C/C=C/C/C=C/C/C=C/CC/C=C/COCC(=O)NCCCNC(=O)c1ccc(-c2c3nc(c(-c4c(F)cccc4F)c4ccc([nH]4)c(-c4c(F)cccc4F)c4nc(c(-c5c(F)cccc5F)c5ccc2[nH]5)C=C4)C=C3)cc1
REMARK SMILES IDX 16 1 17 2 15 3 14 4 13 5 12 6 11 7 10 8 9 9 8 10 7 11 6 12
REMARK SMILES IDX 5 13 4 14 3 15 2 16 1 17 18 18 19 19 20 20 21 21 22 22 23 23
REMARK SMILES IDX 24 25 25 26 26 27 27 28 28 29 29 31 30 32 31 33 83 34 32 35
REMARK SMILES IDX 82 36 33 37 34 38 35 39 76 40 36 41 81 42 75 43 77 44 37 45
REMARK SMILES IDX 80 46 74 47 73 48 38 50 64 51 47 52 63 53 48 54 51 55 62 56
REMARK SMILES IDX 78 57 49 58 50 59 61 61 79 62 52 63 39 64 40 65 45 66 41 67
REMARK SMILES IDX 42 68 44 69 46 70 43 71 65 72 66 73 71 74 67 75 68 76 70 77
REMARK SMILES IDX 72 78 69 79 53 80 54 81 59 82 55 83 56 84 58 85 60 86 57 87
REMARK H PARENT 23 24 27 30 77 49 51 60
REMARK Flexibility Score: inf
ROOT
ATOM      1  C   UNL A   1      34.028  26.075  24.133  1.00  0.00    -0.029 C 
ATOM      2  C   UNL A   1      34.391  24.811  23.861  1.00  0.00    -0.003 C 
ENDROOT
BRANCH   1   3
ATOM      3  C   UNL A   1      33.051  26.877  23.319  1.00  0.00     0.031 C 
BRANCH   3   4
ATOM      4  C   UNL A   1      32.256  27.878  24.177  1.00  0.00     0.031 C 
BRANCH   4   5
ATOM      5  C   UNL A   1      31.353  27.210  25.179  1.00  0.00    -0.031 C 
ATOM      6  C   UNL A   1      30.647  26.094  24.938  1.00  0.00    -0.027 C 
BRANCH   6   7
ATOM      7  C   UNL A   1      29.709  25.470  25.932  1.00  0.00     0.054 C 
BRANCH   7   8
ATOM      8  C   UNL A   1      30.293  24.197  26.474  1.00  0.00    -0.027 C 
ATOM      9  C   UNL A   1      31.581  23.843  26.342  1.00  0.00    -0.027 C 
BRANCH   9  10
ATOM     10  C   UNL A   1      32.156  22.550  26.842  1.00  0.00     0.054 C 
BRANCH  10  11
ATOM     11  C   UNL A   1      32.750  21.764  25.708  1.00  0.00    -0.027 C 
ATOM     12  C   UNL A   1      32.057  20.905  24.943  1.00  0.00    -0.027 C 
BRANCH  12  13
ATOM     13  C   UNL A   1      32.656  20.097  23.828  1.00  0.00     0.054 C 
BRANCH  13  14
ATOM     14  C   UNL A   1      32.939  18.693  24.279  1.00  0.00    -0.027 C 
ATOM     15  C   UNL A   1      33.374  17.714  23.469  1.00  0.00    -0.031 C 
BRANCH  15  16
ATOM     16  C   UNL A   1      33.644  16.309  23.923  1.00  0.00     0.023 C 
ATOM     17  C   UNL A   1      34.782  16.266  24.931  1.00  0.00     0.008 C 
ENDBRANCH  15  16
ENDBRANCH  13  14
ENDBRANCH  12  13
ENDBRANCH  10  11
ENDBRANCH   9  10
ENDBRANCH   7   8
ENDBRANCH   6   7
ENDBRANCH   4   5
ENDBRANCH   3   4
ENDBRANCH   1   3
BRANCH   2  18
ATOM     18  C   UNL A   1      35.239  23.995  24.784  1.00  0.00     0.188 C 
BRANCH  18  19
ATOM     19  O   UNL A   1      36.509  23.724  24.187  1.00  0.00    -0.368 OA
BRANCH  19  20
ATOM     20  C   UNL A   1      36.741  22.345  23.922  1.00  0.00     0.260 C 
BRANCH  20  21
ATOM     21  C   UNL A   1      36.768  21.407  25.134  1.00  0.00     0.246 C 
ATOM     22  O   UNL A   1      35.856  20.614  25.373  1.00  0.00    -0.272 OA
ATOM     23  N   UNL A   1      37.845  21.444  25.973  1.00  0.00    -0.354 N 
ATOM     24  H   UNL A   1      37.838  20.795  26.714  1.00  0.00     0.163 HD
BRANCH  23  25
ATOM     25  C   UNL A   1      38.999  22.320  25.908  1.00  0.00     0.117 C 
BRANCH  25  26
ATOM     26  C   UNL A   1      40.074  21.929  26.915  1.00  0.00     0.042 C 
BRANCH  26  27
ATOM     27  C   UNL A   1      41.061  23.047  27.241  1.00  0.00     0.118 C 
BRANCH  27  28
ATOM     28  N   UNL A   1      41.264  23.970  26.132  1.00  0.00    -0.352 N 
ATOM     29  C   UNL A   1      41.223  25.342  26.095  1.00  0.00     0.251 C 
ATOM     30  H   UNL A   1      41.465  23.541  25.269  1.00  0.00     0.163 HD
ATOM     31  O   UNL A   1      41.262  25.923  25.013  1.00  0.00    -0.269 OA
BRANCH  29  32
ATOM     32  C   UNL A   1      41.103  26.125  27.343  1.00  0.00     0.039 A 
ATOM     33  C   UNL A   1      42.094  27.062  27.648  1.00  0.00     0.014 A 
ATOM     34  C   UNL A   1      40.028  25.937  28.214  1.00  0.00     0.014 A 
ATOM     35  C   UNL A   1      41.961  27.871  28.779  1.00  0.00     0.010 A 
ATOM     36  C   UNL A   1      39.855  26.795  29.296  1.00  0.00     0.010 A 
ATOM     37  C   UNL A   1      40.815  27.778  29.584  1.00  0.00    -0.014 A 
BRANCH  37  38
ATOM     38  C   UNL A   1      40.581  28.722  30.707  1.00  0.00     0.031 A 
ATOM     39  C   UNL A   1      39.531  29.790  30.601  1.00  0.00     0.074 A 
ATOM     40  C   UNL A   1      41.374  28.664  31.794  1.00  0.00     0.049 A 
ATOM     41  N   UNL A   1      39.233  30.744  31.446  1.00  0.00    -0.248 NA
ATOM     42  C   UNL A   1      38.724  29.800  29.372  1.00  0.00     0.031 C 
ATOM     43  C   UNL A   1      42.452  27.696  32.004  1.00  0.00     0.029 A 
ATOM     44  N   UNL A   1      41.401  29.441  32.924  1.00  0.00    -0.354 N 
ATOM     45  C   UNL A   1      38.213  31.474  30.849  1.00  0.00     0.074 A 
ATOM     46  C   UNL A   1      37.987  30.887  29.546  1.00  0.00     0.031 C 
ATOM     47  C   UNL A   1      43.010  27.915  33.205  1.00  0.00     0.029 A 
ATOM     48  C   UNL A   1      42.366  29.067  33.827  1.00  0.00     0.049 A 
ATOM     49  H   UNL A   1      40.787  30.197  33.074  1.00  0.00     0.167 HD
ATOM     50  C   UNL A   1      37.515  32.522  31.348  1.00  0.00     0.037 A 
ATOM     51  C   UNL A   1      42.702  29.597  35.018  1.00  0.00     0.037 A 
ATOM     52  C   UNL A   1      37.748  33.105  32.645  1.00  0.00     0.049 A 
ATOM     53  C   UNL A   1      41.955  30.799  35.524  1.00  0.00     0.074 A 
ATOM     54  C   UNL A   1      37.064  34.137  33.264  1.00  0.00     0.029 A 
ATOM     55  N   UNL A   1      38.754  32.716  33.519  1.00  0.00    -0.354 N 
ATOM     56  N   UNL A   1      40.949  31.438  34.981  1.00  0.00    -0.248 NA
ATOM     57  C   UNL A   1      42.397  31.355  36.811  1.00  0.00     0.031 C 
ATOM     58  C   UNL A   1      37.693  34.412  34.483  1.00  0.00     0.029 A 
ATOM     59  C   UNL A   1      38.733  33.512  34.653  1.00  0.00     0.049 A 
ATOM     60  H   UNL A   1      39.391  31.982  33.356  1.00  0.00     0.167 HD
ATOM     61  C   UNL A   1      40.616  32.451  35.870  1.00  0.00     0.074 A 
ATOM     62  C   UNL A   1      41.524  32.335  36.994  1.00  0.00     0.031 C 
ATOM     63  C   UNL A   1      39.643  33.390  35.766  1.00  0.00     0.037 A 
BRANCH  50  64
ATOM     64  C   UNL A   1      36.446  33.112  30.472  1.00  0.00     0.057 A 
ATOM     65  C   UNL A   1      36.750  33.979  29.412  1.00  0.00     0.134 A 
ATOM     66  C   UNL A   1      35.095  32.817  30.691  1.00  0.00     0.134 A 
ATOM     67  F   UNL A   1      38.023  34.312  29.150  1.00  0.00    -0.206 F 
ATOM     68  C   UNL A   1      35.749  34.567  28.637  1.00  0.00     0.040 A 
ATOM     69  C   UNL A   1      34.086  33.372  29.901  1.00  0.00     0.040 A 
ATOM     70  F   UNL A   1      34.730  31.986  31.681  1.00  0.00    -0.206 F 
ATOM     71  C   UNL A   1      34.412  34.261  28.879  1.00  0.00     0.006 A 
ENDBRANCH  50  64
BRANCH  51  72
ATOM     72  C   UNL A   1      43.775  28.969  35.829  1.00  0.00     0.057 A 
ATOM     73  C   UNL A   1      45.097  29.417  35.732  1.00  0.00     0.134 A 
ATOM     74  C   UNL A   1      43.509  27.927  36.725  1.00  0.00     0.134 A 
ATOM     75  F   UNL A   1      45.415  30.400  34.877  1.00  0.00    -0.206 F 
ATOM     76  C   UNL A   1      46.120  28.846  36.491  1.00  0.00     0.040 A 
ATOM     77  C   UNL A   1      44.519  27.363  37.508  1.00  0.00     0.040 A 
ATOM     78  F   UNL A   1      42.262  27.457  36.869  1.00  0.00    -0.206 F 
ATOM     79  C   UNL A   1      45.830  27.821  37.388  1.00  0.00     0.006 A 
ENDBRANCH  51  72
BRANCH  63  80
ATOM     80  C   UNL A   1      39.488  34.350  36.911  1.00  0.00     0.057 A 
ATOM     81  C   UNL A   1      38.809  34.002  38.086  1.00  0.00     0.134 A 
ATOM     82  C   UNL A   1      40.061  35.627  36.852  1.00  0.00     0.134 A 
ATOM     83  F   UNL A   1      38.222  32.800  38.202  1.00  0.00    -0.206 F 
ATOM     84  C   UNL A   1      38.688  34.895  39.151  1.00  0.00     0.040 A 
ATOM     85  C   UNL A   1      39.974  36.519  37.922  1.00  0.00     0.040 A 
ATOM     86  F   UNL A   1      40.731  36.024  35.760  1.00  0.00    -0.206 F 
ATOM     87  C   UNL A   1      39.280  36.155  39.074  1.00  0.00     0.006 A 
ENDBRANCH  63  80
ENDBRANCH  37  38
ENDBRANCH  29  32
ENDBRANCH  27  28
ENDBRANCH  26  27
ENDBRANCH  25  26
ENDBRANCH  23  25
ENDBRANCH  20  21
ENDBRANCH  19  20
ENDBRANCH  18  19
ENDBRANCH   2  18
TORSDOF 23
ENDMDL
MODEL 2
REMARK VINA RESULT:      -9.5      2.880      7.800
REMARK SMILES CC/C=C/C/C=C/C/C=C/C/C=C/CC/C=C/COCC(=O)NCCCNC(=O)c1ccc(-c2c3nc(c(-c4c(F)cccc4F)c4ccc([nH]4)c(-c4c(F)cccc4F)c4nc(c(-c5c(F)cccc5F)c5ccc2[nH]5)C=C4)C=C3)cc1
REMARK SMILES IDX 16 1 17 2 15 3 14 4 13 5 12 6 11 7 10 8 9 9 8 10 7 11 6 12
REMARK SMILES IDX 5 13 4 14 3 15 2 16 1 17 18 18 19 19 20 20 21 21 22 22 23 23
REMARK SMILES IDX 24 25 25 26 26 27 27 28 28 29 29 31 30 32 31 33 83 34 32 35
REMARK SMILES IDX 82 36 33 37 34 38 35 39 76 40 36 41 81 42 75 43 77 44 37 45
REMARK SMILES IDX 80 46 74 47 73 48 38 50 64 51 47 52 63 53 48 54 51 55 62 56
REMARK SMILES IDX 78 57 49 58 50 59 61 61 79 62 52 63 39 64 40 65 45 66 41 67
REMARK SMILES IDX 42 68 44 69 46 70 43 71 65 72 66 73 71 74 67 75 68 76 70 77
REMARK SMILES IDX 72 78 69 79 53 80 54 81 59 82 55 83 56 84 58 85 60 86 57 87
REMARK H PARENT 23 24 27 30 77 49 51 60
REMARK Flexibility Score: inf
ROOT
ATOM      1  C   UNL A   1      40.008  21.953  26.733  1.00  0.00    -0.029 C 
ATOM      2  C   UNL A   1      40.627  22.695  27.664  1.00  0.00    -0.003 C 
ENDROOT
BRANCH   1   3
ATOM      3  C   UNL A   1      38.735  22.346  26.035  1.00  0.00     0.031 C 
BRANCH   3   4
ATOM      4  C   UNL A   1      37.991  21.133  25.447  1.00  0.00     0.031 C 
BRANCH   4   5
ATOM      5  C   UNL A   1      36.812  21.520  24.594  1.00  0.00    -0.031 C 
ATOM      6  C   UNL A   1      36.743  22.641  23.860  1.00  0.00    -0.027 C 
BRANCH   6   7
ATOM      7  C   UNL A   1      35.537  23.037  23.056  1.00  0.00     0.054 C 
BRANCH   7   8
ATOM      8  C   UNL A   1      34.416  23.452  23.965  1.00  0.00    -0.027 C 
ATOM      9  C   UNL A   1      33.591  22.593  24.584  1.00  0.00    -0.027 C 
BRANCH   9  10
ATOM     10  C   UNL A   1      32.440  23.006  25.455  1.00  0.00     0.054 C 
BRANCH  10  11
ATOM     11  C   UNL A   1      32.345  24.504  25.526  1.00  0.00    -0.027 C 
ATOM     12  C   UNL A   1      31.442  25.167  26.266  1.00  0.00    -0.027 C 
BRANCH  12  13
ATOM     13  C   UNL A   1      31.328  26.663  26.315  1.00  0.00     0.054 C 
BRANCH  13  14
ATOM     14  C   UNL A   1      32.686  27.300  26.380  1.00  0.00    -0.027 C 
ATOM     15  C   UNL A   1      33.029  28.258  27.257  1.00  0.00    -0.031 C 
BRANCH  15  16
ATOM     16  C   UNL A   1      34.385  28.899  27.309  1.00  0.00     0.023 C 
ATOM     17  C   UNL A   1      34.276  30.416  27.333  1.00  0.00     0.008 C 
ENDBRANCH  15  16
ENDBRANCH  13  14
ENDBRANCH  12  13
ENDBRANCH  10  11
ENDBRANCH   9  10
ENDBRANCH   7   8
ENDBRANCH   6   7
ENDBRANCH   4   5
ENDBRANCH   3   4
ENDBRANCH   1   3
BRANCH   2  18
ATOM     18  C   UNL A   1      41.973  22.346  28.216  1.00  0.00     0.188 C 
BRANCH  18  19
ATOM     19  O   UNL A   1      42.570  23.486  28.838  1.00  0.00    -0.368 OA
BRANCH  19  20
ATOM     20  C   UNL A   1      43.459  23.165  29.902  1.00  0.00     0.260 C 
BRANCH  20  21
ATOM     21  C   UNL A   1      44.603  24.151  30.163  1.00  0.00     0.246 C 
ATOM     22  O   UNL A   1      45.230  24.688  29.249  1.00  0.00    -0.272 OA
ATOM     23  N   UNL A   1      44.931  24.455  31.454  1.00  0.00    -0.354 N 
ATOM     24  H   UNL A   1      45.644  25.125  31.571  1.00  0.00     0.163 HD
BRANCH  23  25
ATOM     25  C   UNL A   1      44.360  23.913  32.672  1.00  0.00     0.117 C 
BRANCH  25  26
ATOM     26  C   UNL A   1      45.425  23.340  33.599  1.00  0.00     0.042 C 
BRANCH  26  27
ATOM     27  C   UNL A   1      46.722  24.144  33.634  1.00  0.00     0.118 C 
BRANCH  27  28
ATOM     28  N   UNL A   1      47.118  24.530  34.983  1.00  0.00    -0.352 N 
ATOM     29  C   UNL A   1      46.708  25.579  35.766  1.00  0.00     0.251 C 
ATOM     30  H   UNL A   1      47.788  23.940  35.400  1.00  0.00     0.163 HD
ATOM     31  O   UNL A   1      47.295  25.818  36.820  1.00  0.00    -0.269 OA
BRANCH  29  32
ATOM     32  C   UNL A   1      45.588  26.444  35.341  1.00  0.00     0.039 A 
ATOM     33  C   UNL A   1      45.867  27.588  34.589  1.00  0.00     0.014 A 
ATOM     34  C   UNL A   1      44.269  26.138  35.684  1.00  0.00     0.014 A 
ATOM     35  C   UNL A   1      44.820  28.377  34.108  1.00  0.00     0.010 A 
ATOM     36  C   UNL A   1      43.222  26.877  35.140  1.00  0.00     0.010 A 
ATOM     37  C   UNL A   1      43.487  27.999  34.338  1.00  0.00    -0.014 A 
BRANCH  37  38
ATOM     38  C   UNL A   1      42.357  28.736  33.717  1.00  0.00     0.031 A 
ATOM     39  C   UNL A   1      41.945  28.454  32.301  1.00  0.00     0.074 A 
ATOM     40  C   UNL A   1      41.752  29.721  34.409  1.00  0.00     0.049 A 
ATOM     41  N   UNL A   1      41.033  29.044  31.571  1.00  0.00    -0.248 NA
ATOM     42  C   UNL A   1      42.670  27.380  31.606  1.00  0.00     0.031 C 
ATOM     43  C   UNL A   1      42.081  30.116  35.780  1.00  0.00     0.029 A 
ATOM     44  N   UNL A   1      40.739  30.573  34.052  1.00  0.00    -0.354 N 
ATOM     45  C   UNL A   1      41.080  28.422  30.330  1.00  0.00     0.074 A 
ATOM     46  C   UNL A   1      42.153  27.451  30.390  1.00  0.00     0.031 C 
ATOM     47  C   UNL A   1      41.261  31.109  36.159  1.00  0.00     0.029 A 
ATOM     48  C   UNL A   1      40.384  31.454  35.044  1.00  0.00     0.049 A 
ATOM     49  H   UNL A   1      40.306  30.556  33.167  1.00  0.00     0.167 HD
ATOM     50  C   UNL A   1      40.291  28.626  29.248  1.00  0.00     0.037 A 
ATOM     51  C   UNL A   1      39.464  32.436  35.054  1.00  0.00     0.037 A 
ATOM     52  C   UNL A   1      39.228  29.596  29.193  1.00  0.00     0.049 A 
ATOM     53  C   UNL A   1      38.642  32.686  33.821  1.00  0.00     0.074 A 
ATOM     54  C   UNL A   1      38.339  29.847  28.162  1.00  0.00     0.029 A 
ATOM     55  N   UNL A   1      38.919  30.490  30.209  1.00  0.00    -0.354 N 
ATOM     56  N   UNL A   1      38.650  32.048  32.677  1.00  0.00    -0.248 NA
ATOM     57  C   UNL A   1      37.683  33.799  33.881  1.00  0.00     0.031 C 
ATOM     58  C   UNL A   1      37.534  30.930  28.530  1.00  0.00     0.029 A 
ATOM     59  C   UNL A   1      37.879  31.317  29.814  1.00  0.00     0.049 A 
ATOM     60  H   UNL A   1      39.373  30.531  31.083  1.00  0.00     0.167 HD
ATOM     61  C   UNL A   1      37.682  32.658  31.892  1.00  0.00     0.074 A 
ATOM     62  C   UNL A   1      37.098  33.714  32.696  1.00  0.00     0.031 C 
ATOM     63  C   UNL A   1      37.307  32.367  30.622  1.00  0.00     0.037 A 
BRANCH  50  64
ATOM     64  C   UNL A   1      40.569  27.788  28.031  1.00  0.00     0.057 A 
ATOM     65  C   UNL A   1      40.023  26.506  27.872  1.00  0.00     0.134 A 
ATOM     66  C   UNL A   1      41.396  28.264  27.007  1.00  0.00     0.134 A 
ATOM     67  F   UNL A   1      39.228  25.983  28.818  1.00  0.00    -0.206 F 
ATOM     68  C   UNL A   1      40.329  25.712  26.766  1.00  0.00     0.040 A 
ATOM     69  C   UNL A   1      41.683  27.492  25.878  1.00  0.00     0.040 A 
ATOM     70  F   UNL A   1      41.945  29.486  27.084  1.00  0.00    -0.206 F 
ATOM     71  C   UNL A   1      41.160  26.206  25.763  1.00  0.00     0.006 A 
ENDBRANCH  50  64
BRANCH  51  72
ATOM     72  C   UNL A   1      39.247  33.232  36.288  1.00  0.00     0.057 A 
ATOM     73  C   UNL A   1      39.853  34.484  36.446  1.00  0.00     0.134 A 
ATOM     74  C   UNL A   1      38.424  32.778  37.326  1.00  0.00     0.134 A 
ATOM     75  F   UNL A   1      40.666  34.964  35.494  1.00  0.00    -0.206 F 
ATOM     76  C   UNL A   1      39.657  35.252  37.594  1.00  0.00     0.040 A 
ATOM     77  C   UNL A   1      38.200  33.547  38.469  1.00  0.00     0.040 A 
ATOM     78  F   UNL A   1      37.809  31.590  37.232  1.00  0.00    -0.206 F 
ATOM     79  C   UNL A   1      38.821  34.786  38.606  1.00  0.00     0.006 A 
ENDBRANCH  51  72
BRANCH  63  80
ATOM     80  C   UNL A   1      36.193  33.182  30.029  1.00  0.00     0.057 A 
ATOM     81  C   UNL A   1      36.425  34.156  29.049  1.00  0.00     0.134 A 
ATOM     82  C   UNL A   1      34.864  32.960  30.415  1.00  0.00     0.134 A 
ATOM     83  F   UNL A   1      37.675  34.431  28.645  1.00  0.00    -0.206 F 
ATOM     84  C   UNL A   1      35.379  34.894  28.491  1.00  0.00     0.040 A 
ATOM     85  C   UNL A   1      33.808  33.669  29.843  1.00  0.00     0.040 A 
ATOM     86  F   UNL A   1      34.570  32.037  31.343  1.00  0.00    -0.206 F 
ATOM     87  C   UNL A   1      34.065  34.644  28.882  1.00  0.00     0.006 A 
ENDBRANCH  63  80
ENDBRANCH  37  38
ENDBRANCH  29  32
ENDBRANCH  27  28
ENDBRANCH  26  27
ENDBRANCH  25  26
ENDBRANCH  23  25
ENDBRANCH  20  21
ENDBRANCH  19  20
ENDBRANCH  18  19
ENDBRANCH   2  18
TORSDOF 23
ENDMDL
MODEL 3
REMARK VINA RESULT:      -9.2      3.279      8.423
REMARK SMILES CC/C=C/C/C=C/C/C=C/C/C=C/CC/C=C/COCC(=O)NCCCNC(=O)c1ccc(-c2c3nc(c(-c4c(F)cccc4F)c4ccc([nH]4)c(-c4c(F)cccc4F)c4nc(c(-c5c(F)cccc5F)c5ccc2[nH]5)C=C4)C=C3)cc1
REMARK SMILES IDX 16 1 17 2 15 3 14 4 13 5 12 6 11 7 10 8 9 9 8 10 7 11 6 12
REMARK SMILES IDX 5 13 4 14 3 15 2 16 1 17 18 18 19 19 20 20 21 21 22 22 23 23
REMARK SMILES IDX 24 25 25 26 26 27 27 28 28 29 29 31 30 32 31 33 83 34 32 35
REMARK SMILES IDX 82 36 33 37 34 38 35 39 76 40 36 41 81 42 75 43 77 44 37 45
REMARK SMILES IDX 80 46 74 47 73 48 38 50 64 51 47 52 63 53 48 54 51 55 62 56
REMARK SMILES IDX 78 57 49 58 50 59 61 61 79 62 52 63 39 64 40 65 45 66 41 67
REMARK SMILES IDX 42 68 44 69 46 70 43 71 65 72 66 73 71 74 67 75 68 76 70 77
REMARK SMILES IDX 72 78 69 79 53 80 54 81 59 82 55 83 56 84 58 85 60 86 57 87
REMARK H PARENT 23 24 27 30 77 49 51 60
REMARK Flexibility Score: inf
ROOT
ATOM      1  C   UNL A   1      32.145  26.179  26.170  1.00  0.00    -0.029 C 
ATOM      2  C   UNL A   1      32.839  27.182  26.730  1.00  0.00    -0.003 C 
ENDROOT
BRANCH   1   3
ATOM      3  C   UNL A   1      32.149  24.758  26.663  1.00  0.00     0.031 C 
BRANCH   3   4
ATOM      4  C   UNL A   1      33.519  24.081  26.487  1.00  0.00     0.031 C 
BRANCH   4   5
ATOM      5  C   UNL A   1      33.909  23.901  25.043  1.00  0.00    -0.031 C 
ATOM      6  C   UNL A   1      33.276  23.088  24.184  1.00  0.00    -0.027 C 
BRANCH   6   7
ATOM      7  C   UNL A   1      33.711  22.880  22.760  1.00  0.00     0.054 C 
BRANCH   7   8
ATOM      8  C   UNL A   1      33.286  24.042  21.908  1.00  0.00    -0.027 C 
ATOM      9  C   UNL A   1      32.230  24.827  22.177  1.00  0.00    -0.027 C 
BRANCH   9  10
ATOM     10  C   UNL A   1      31.776  25.958  21.302  1.00  0.00     0.054 C 
BRANCH  10  11
ATOM     11  C   UNL A   1      31.419  27.157  22.134  1.00  0.00    -0.027 C 
ATOM     12  C   UNL A   1      30.416  27.183  23.027  1.00  0.00    -0.027 C 
BRANCH  12  13
ATOM     13  C   UNL A   1      30.040  28.389  23.838  1.00  0.00     0.054 C 
BRANCH  13  14
ATOM     14  C   UNL A   1      28.999  29.206  23.127  1.00  0.00    -0.027 C 
ATOM     15  C   UNL A   1      28.948  30.547  23.151  1.00  0.00    -0.031 C 
BRANCH  15  16
ATOM     16  C   UNL A   1      27.899  31.358  22.448  1.00  0.00     0.023 C 
ATOM     17  C   UNL A   1      28.206  31.490  20.964  1.00  0.00     0.008 C 
ENDBRANCH  15  16
ENDBRANCH  13  14
ENDBRANCH  12  13
ENDBRANCH  10  11
ENDBRANCH   9  10
ENDBRANCH   7   8
ENDBRANCH   6   7
ENDBRANCH   4   5
ENDBRANCH   3   4
ENDBRANCH   1   3
BRANCH   2  18
ATOM     18  C   UNL A   1      32.682  28.610  26.310  1.00  0.00     0.188 C 
BRANCH  18  19
ATOM     19  O   UNL A   1      33.947  29.276  26.319  1.00  0.00    -0.368 OA
BRANCH  19  20
ATOM     20  C   UNL A   1      33.915  30.569  26.913  1.00  0.00     0.260 C 
BRANCH  20  21
ATOM     21  C   UNL A   1      34.942  30.843  28.016  1.00  0.00     0.246 C 
ATOM     22  O   UNL A   1      35.581  29.940  28.560  1.00  0.00    -0.272 OA
ATOM     23  N   UNL A   1      35.166  32.133  28.404  1.00  0.00    -0.354 N 
ATOM     24  H   UNL A   1      35.864  32.264  29.087  1.00  0.00     0.163 HD
BRANCH  23  25
ATOM     25  C   UNL A   1      34.502  33.335  27.936  1.00  0.00     0.117 C 
BRANCH  25  26
ATOM     26  C   UNL A   1      33.409  33.796  28.893  1.00  0.00     0.042 C 
BRANCH  26  27
ATOM     27  C   UNL A   1      33.528  35.256  29.321  1.00  0.00     0.118 C 
BRANCH  27  28
ATOM     28  N   UNL A   1      32.632  35.605  30.417  1.00  0.00    -0.352 N 
ATOM     29  C   UNL A   1      32.735  35.360  31.763  1.00  0.00     0.251 C 
ATOM     30  H   UNL A   1      31.823  36.096  30.147  1.00  0.00     0.163 HD
ATOM     31  O   UNL A   1      31.780  35.599  32.500  1.00  0.00    -0.269 OA
BRANCH  29  32
ATOM     32  C   UNL A   1      33.972  34.786  32.332  1.00  0.00     0.039 A 
ATOM     33  C   UNL A   1      33.944  33.478  32.824  1.00  0.00     0.014 A 
ATOM     34  C   UNL A   1      35.153  35.529  32.391  1.00  0.00     0.014 A 
ATOM     35  C   UNL A   1      35.119  32.886  33.293  1.00  0.00     0.010 A 
ATOM     36  C   UNL A   1      36.339  34.915  32.784  1.00  0.00     0.010 A 
ATOM     37  C   UNL A   1      36.336  33.583  33.229  1.00  0.00    -0.014 A 
BRANCH  37  38
ATOM     38  C   UNL A   1      37.620  32.928  33.585  1.00  0.00     0.031 A 
ATOM     39  C   UNL A   1      38.229  31.896  32.680  1.00  0.00     0.074 A 
ATOM     40  C   UNL A   1      38.199  33.210  34.768  1.00  0.00     0.049 A 
ATOM     41  N   UNL A   1      39.303  31.169  32.858  1.00  0.00    -0.248 NA
ATOM     42  C   UNL A   1      37.523  31.629  31.418  1.00  0.00     0.031 C 
ATOM     43  C   UNL A   1      37.691  34.168  35.752  1.00  0.00     0.029 A 
ATOM     44  N   UNL A   1      39.338  32.711  35.348  1.00  0.00    -0.354 N 
ATOM     45  C   UNL A   1      39.398  30.353  31.738  1.00  0.00     0.074 A 
ATOM     46  C   UNL A   1      38.238  30.633  30.918  1.00  0.00     0.031 C 
ATOM     47  C   UNL A   1      38.533  34.213  36.796  1.00  0.00     0.029 A 
ATOM     48  C   UNL A   1      39.611  33.253  36.581  1.00  0.00     0.049 A 
ATOM     49  H   UNL A   1      39.906  32.029  34.922  1.00  0.00     0.167 HD
ATOM     50  C   UNL A   1      40.370  29.468  31.413  1.00  0.00     0.037 A 
ATOM     51  C   UNL A   1      40.611  33.000  37.445  1.00  0.00     0.037 A 
ATOM     52  C   UNL A   1      41.520  29.191  32.235  1.00  0.00     0.049 A 
ATOM     53  C   UNL A   1      41.646  31.969  37.091  1.00  0.00     0.074 A 
ATOM     54  C   UNL A   1      42.587  28.349  31.974  1.00  0.00     0.029 A 
ATOM     55  N   UNL A   1      41.746  29.740  33.490  1.00  0.00    -0.354 N 
ATOM     56  N   UNL A   1      41.761  31.253  36.000  1.00  0.00    -0.248 NA
ATOM     57  C   UNL A   1      42.688  31.709  38.094  1.00  0.00     0.031 C 
ATOM     58  C   UNL A   1      43.425  28.341  33.094  1.00  0.00     0.029 A 
ATOM     59  C   UNL A   1      42.914  29.225  34.030  1.00  0.00     0.049 A 
ATOM     60  H   UNL A   1      41.162  30.397  33.933  1.00  0.00     0.167 HD
ATOM     61  C   UNL A   1      42.901  30.479  36.170  1.00  0.00     0.074 A 
ATOM     62  C   UNL A   1      43.449  30.823  37.468  1.00  0.00     0.031 C 
ATOM     63  C   UNL A   1      43.449  29.571  35.325  1.00  0.00     0.037 A 
BRANCH  50  64
ATOM     64  C   UNL A   1      40.213  28.725  30.115  1.00  0.00     0.057 A 
ATOM     65  C   UNL A   1      40.813  29.171  28.928  1.00  0.00     0.134 A 
ATOM     66  C   UNL A   1      39.450  27.553  30.048  1.00  0.00     0.134 A 
ATOM     67  F   UNL A   1      41.551  30.291  28.918  1.00  0.00    -0.206 F 
ATOM     68  C   UNL A   1      40.618  28.507  27.716  1.00  0.00     0.040 A 
ATOM     69  C   UNL A   1      39.276  26.861  28.848  1.00  0.00     0.040 A 
ATOM     70  F   UNL A   1      38.856  27.061  31.146  1.00  0.00    -0.206 F 
ATOM     71  C   UNL A   1      39.849  27.346  27.674  1.00  0.00     0.006 A 
ENDBRANCH  50  64
BRANCH  51  72
ATOM     72  C   UNL A   1      40.702  33.765  38.714  1.00  0.00     0.057 A 
ATOM     73  C   UNL A   1      39.959  33.377  39.835  1.00  0.00     0.134 A 
ATOM     74  C   UNL A   1      41.535  34.882  38.846  1.00  0.00     0.134 A 
ATOM     75  F   UNL A   1      39.130  32.325  39.764  1.00  0.00    -0.206 F 
ATOM     76  C   UNL A   1      40.035  34.076  41.040  1.00  0.00     0.040 A 
ATOM     77  C   UNL A   1      41.638  35.577  40.052  1.00  0.00     0.040 A 
ATOM     78  F   UNL A   1      42.277  35.301  37.810  1.00  0.00    -0.206 F 
ATOM     79  C   UNL A   1      40.882  35.176  41.153  1.00  0.00     0.006 A 
ENDBRANCH  51  72
BRANCH  63  80
ATOM     80  C   UNL A   1      44.721  28.903  35.762  1.00  0.00     0.057 A 
ATOM     81  C   UNL A   1      44.721  27.686  36.456  1.00  0.00     0.134 A 
ATOM     82  C   UNL A   1      45.965  29.465  35.449  1.00  0.00     0.134 A 
ATOM     83  F   UNL A   1      43.564  27.100  36.802  1.00  0.00    -0.206 F 
ATOM     84  C   UNL A   1      45.910  27.064  36.840  1.00  0.00     0.040 A 
ATOM     85  C   UNL A   1      47.161  28.839  35.801  1.00  0.00     0.040 A 
ATOM     86  F   UNL A   1      46.039  30.626  34.781  1.00  0.00    -0.206 F 
ATOM     87  C   UNL A   1      47.136  27.637  36.504  1.00  0.00     0.006 A 
ENDBRANCH  63  80
ENDBRANCH  37  38
ENDBRANCH  29  32
ENDBRANCH  27  28
ENDBRANCH  26  27
ENDBRANCH  25  26
ENDBRANCH  23  25
ENDBRANCH  20  21
ENDBRANCH  19  20
ENDBRANCH  18  19
ENDBRANCH   2  18
TORSDOF 23
ENDMDL
