MODEL 1
REMARK VINA RESULT:     -12.4      0.000      0.000
REMARK SMILES COc1ccccc1-n1nnc(C(=O)NCCCNC(=O)c2ccc(-c3c4nc(c(-c5c(F)cccc5F)c5ccc([nH]5)c(-c5c(F)cccc5F)c5nc(c(-c6c(F)cccc6F)c6ccc3[nH]6)C=C5)C=C4)cc2)c1-c1ccc(Cl)cc1
REMARK SMILES IDX 17 1 16 2 15 3 13 4 14 5 12 7 9 8 10 9 76 10 11 11 8 12 3 13
REMARK SMILES IDX 4 14 5 15 7 16 6 17 2 18 1 19 77 20 78 21 83 22 79 23 82 24
REMARK SMILES IDX 80 25 81 26 18 27 19 28 20 29 21 31 22 32 23 33 75 34 24 35
REMARK SMILES IDX 74 36 25 37 26 38 27 39 68 40 28 41 73 42 67 43 69 44 29 45
REMARK SMILES IDX 72 46 66 47 65 48 30 50 56 51 39 52 55 53 40 54 43 55 54 56
REMARK SMILES IDX 70 57 41 58 42 59 53 61 71 62 44 63 31 64 32 65 37 66 33 67
REMARK SMILES IDX 34 68 36 69 38 70 35 71 57 72 58 73 63 74 59 75 60 76 62 77
REMARK SMILES IDX 64 78 61 79 45 80 46 81 51 82 47 83 48 84 50 85 52 86 49 87
REMARK H PARENT 15 6 19 30 69 49 43 60
REMARK Flexibility Score: inf
ROOT
ATOM      1  C   UNL A   1      37.382  21.986  24.922  1.00  0.00     0.042 C 
ENDROOT
BRANCH   1   2
ATOM      2  C   UNL A   1      36.703  23.277  25.364  1.00  0.00     0.118 C 
BRANCH   2   3
ATOM      3  N   UNL A   1      35.823  23.132  26.489  1.00  0.00    -0.351 N 
ATOM      4  C   UNL A   1      34.469  23.187  26.648  1.00  0.00     0.274 C 
ATOM      5  O   UNL A   1      34.080  22.757  27.739  1.00  0.00    -0.267 OA
ATOM      6  H   UNL A   1      36.302  22.953  27.332  1.00  0.00     0.163 HD
BRANCH   4   7
ATOM      7  C   UNL A   1      33.513  23.746  25.690  1.00  0.00     0.178 A 
ATOM      8  N   UNL A   1      32.096  24.714  24.326  1.00  0.00    -0.208 N 
ATOM      9  N   UNL A   1      32.014  23.393  24.107  1.00  0.00    -0.061 NA
ATOM     10  C   UNL A   1      32.955  24.996  25.396  1.00  0.00     0.108 A 
ATOM     11  N   UNL A   1      32.931  22.810  24.846  1.00  0.00    -0.124 NA
BRANCH   8  12
ATOM     12  C   UNL A   1      31.239  25.603  23.641  1.00  0.00     0.109 A 
ATOM     13  C   UNL A   1      31.724  26.558  22.739  1.00  0.00     0.144 A 
ATOM     14  C   UNL A   1      30.915  27.656  22.442  1.00  0.00     0.049 A 
ATOM     15  C   UNL A   1      29.629  27.768  22.976  1.00  0.00     0.004 A 
ATOM     16  C   UNL A   1      29.914  25.661  24.108  1.00  0.00     0.032 A 
ATOM     17  C   UNL A   1      29.117  26.757  23.787  1.00  0.00     0.003 A 
BRANCH  13  18
ATOM     18  O   UNL A   1      32.968  26.609  22.172  1.00  0.00    -0.494 OA
ATOM     19  C   UNL A   1      33.663  27.853  22.226  1.00  0.00     0.278 C 
ENDBRANCH  13  18
ENDBRANCH   8  12
BRANCH  10  20
ATOM     20  C   UNL A   1      33.006  26.346  25.968  1.00  0.00     0.003 A 
ATOM     21  C   UNL A   1      31.980  26.847  26.782  1.00  0.00     0.012 A 
ATOM     22  C   UNL A   1      34.152  27.139  25.767  1.00  0.00     0.012 A 
ATOM     23  C   UNL A   1      32.058  28.143  27.308  1.00  0.00     0.021 A 
ATOM     24  C   UNL A   1      34.234  28.429  26.296  1.00  0.00     0.021 A 
ATOM     25  C   UNL A   1      33.183  28.927  27.059  1.00  0.00     0.041 A 
ATOM     26  Cl  UNL A   1      33.242  30.548  27.624  1.00  0.00    -0.084 Cl
ENDBRANCH  10  20
ENDBRANCH   4   7
ENDBRANCH   2   3
ENDBRANCH   1   2
BRANCH   1  27
ATOM     27  C   UNL A   1      38.657  21.750  25.714  1.00  0.00     0.118 C 
BRANCH  27  28
ATOM     28  N   UNL A   1      39.183  20.374  25.752  1.00  0.00    -0.352 N 
ATOM     29  C   UNL A   1      40.518  19.947  25.887  1.00  0.00     0.251 C 
ATOM     30  H   UNL A   1      38.513  19.657  25.673  1.00  0.00     0.163 HD
ATOM     31  O   UNL A   1      40.879  18.822  25.660  1.00  0.00    -0.269 OA
BRANCH  29  32
ATOM     32  C   UNL A   1      41.460  20.944  26.432  1.00  0.00     0.039 A 
ATOM     33  C   UNL A   1      42.177  21.871  25.668  1.00  0.00     0.014 A 
ATOM     34  C   UNL A   1      41.317  21.089  27.790  1.00  0.00     0.014 A 
ATOM     35  C   UNL A   1      42.613  23.040  26.302  1.00  0.00     0.010 A 
ATOM     36  C   UNL A   1      41.319  22.377  28.209  1.00  0.00     0.010 A 
ATOM     37  C   UNL A   1      42.123  23.305  27.586  1.00  0.00    -0.014 A 
BRANCH  37  38
ATOM     38  C   UNL A   1      42.264  24.540  28.342  1.00  0.00     0.031 A 
ATOM     39  C   UNL A   1      41.126  25.477  28.197  1.00  0.00     0.074 A 
ATOM     40  C   UNL A   1      43.193  24.670  29.325  1.00  0.00     0.049 A 
ATOM     41  N   UNL A   1      41.067  26.521  27.443  1.00  0.00    -0.248 NA
ATOM     42  C   UNL A   1      39.836  25.115  28.807  1.00  0.00     0.031 C 
ATOM     43  C   UNL A   1      44.147  23.670  29.858  1.00  0.00     0.029 A 
ATOM     44  N   UNL A   1      43.434  25.735  30.132  1.00  0.00    -0.354 N 
ATOM     45  C   UNL A   1      39.830  27.102  27.706  1.00  0.00     0.074 A 
ATOM     46  C   UNL A   1      39.040  26.080  28.337  1.00  0.00     0.031 C 
ATOM     47  C   UNL A   1      44.675  24.093  31.025  1.00  0.00     0.029 A 
ATOM     48  C   UNL A   1      44.300  25.476  31.192  1.00  0.00     0.049 A 
ATOM     49  H   UNL A   1      43.029  26.620  29.981  1.00  0.00     0.167 HD
ATOM     50  C   UNL A   1      39.686  28.458  27.673  1.00  0.00     0.037 A 
ATOM     51  C   UNL A   1      44.735  26.363  32.115  1.00  0.00     0.037 A 
ATOM     52  C   UNL A   1      40.876  29.067  27.123  1.00  0.00     0.049 A 
ATOM     53  C   UNL A   1      44.532  27.705  31.527  1.00  0.00     0.074 A 
ATOM     54  C   UNL A   1      41.496  29.104  25.892  1.00  0.00     0.029 A 
ATOM     55  N   UNL A   1      41.825  29.390  28.061  1.00  0.00    -0.354 N 
ATOM     56  N   UNL A   1      45.156  28.127  30.459  1.00  0.00    -0.248 NA
ATOM     57  C   UNL A   1      43.314  28.424  31.861  1.00  0.00     0.031 C 
ATOM     58  C   UNL A   1      42.897  29.138  26.172  1.00  0.00     0.029 A 
ATOM     59  C   UNL A   1      43.083  29.197  27.555  1.00  0.00     0.049 A 
ATOM     60  H   UNL A   1      41.628  29.716  28.970  1.00  0.00     0.167 HD
ATOM     61  C   UNL A   1      44.212  28.867  29.765  1.00  0.00     0.074 A 
ATOM     62  C   UNL A   1      43.160  29.138  30.742  1.00  0.00     0.031 C 
ATOM     63  C   UNL A   1      44.233  28.924  28.399  1.00  0.00     0.037 A 
BRANCH  50  64
ATOM     64  C   UNL A   1      38.741  29.266  28.538  1.00  0.00     0.057 A 
ATOM     65  C   UNL A   1      38.872  29.189  29.939  1.00  0.00     0.134 A 
ATOM     66  C   UNL A   1      37.549  29.871  28.090  1.00  0.00     0.134 A 
ATOM     67  F   UNL A   1      39.953  28.623  30.498  1.00  0.00    -0.206 F 
ATOM     68  C   UNL A   1      37.868  29.617  30.818  1.00  0.00     0.040 A 
ATOM     69  C   UNL A   1      36.562  30.347  28.960  1.00  0.00     0.040 A 
ATOM     70  F   UNL A   1      37.221  29.946  26.796  1.00  0.00    -0.206 F 
ATOM     71  C   UNL A   1      36.704  30.194  30.328  1.00  0.00     0.006 A 
ENDBRANCH  50  64
BRANCH  51  72
ATOM     72  C   UNL A   1      44.971  26.133  33.555  1.00  0.00     0.057 A 
ATOM     73  C   UNL A   1      43.909  25.918  34.443  1.00  0.00     0.134 A 
ATOM     74  C   UNL A   1      46.256  25.821  34.036  1.00  0.00     0.134 A 
ATOM     75  F   UNL A   1      42.647  26.157  34.058  1.00  0.00    -0.206 F 
ATOM     76  C   UNL A   1      44.107  25.387  35.724  1.00  0.00     0.040 A 
ATOM     77  C   UNL A   1      46.468  25.290  35.312  1.00  0.00     0.040 A 
ATOM     78  F   UNL A   1      47.334  25.937  33.245  1.00  0.00    -0.206 F 
ATOM     79  C   UNL A   1      45.388  25.055  36.156  1.00  0.00     0.006 A 
ENDBRANCH  51  72
BRANCH  63  80
ATOM     80  C   UNL A   1      45.507  28.512  27.704  1.00  0.00     0.057 A 
ATOM     81  C   UNL A   1      45.743  27.255  27.130  1.00  0.00     0.134 A 
ATOM     82  C   UNL A   1      46.491  29.485  27.503  1.00  0.00     0.134 A 
ATOM     83  F   UNL A   1      44.835  26.277  27.202  1.00  0.00    -0.206 F 
ATOM     84  C   UNL A   1      46.912  26.973  26.412  1.00  0.00     0.040 A 
ATOM     85  C   UNL A   1      47.649  29.228  26.764  1.00  0.00     0.040 A 
ATOM     86  F   UNL A   1      46.318  30.727  27.983  1.00  0.00    -0.206 F 
ATOM     87  C   UNL A   1      47.867  27.966  26.222  1.00  0.00     0.006 A 
ENDBRANCH  63  80
ENDBRANCH  37  38
ENDBRANCH  29  32
ENDBRANCH  27  28
ENDBRANCH   1  27
TORSDOF 13
ENDMDL
MODEL 2
REMARK VINA RESULT:     -12.3      2.777      7.261
REMARK SMILES COc1ccccc1-n1nnc(C(=O)NCCCNC(=O)c2ccc(-c3c4nc(c(-c5c(F)cccc5F)c5ccc([nH]5)c(-c5c(F)cccc5F)c5nc(c(-c6c(F)cccc6F)c6ccc3[nH]6)C=C5)C=C4)cc2)c1-c1ccc(Cl)cc1
REMARK SMILES IDX 17 1 16 2 15 3 13 4 14 5 12 7 9 8 10 9 76 10 11 11 8 12 3 13
REMARK SMILES IDX 4 14 5 15 7 16 6 17 2 18 1 19 77 20 78 21 83 22 79 23 82 24
REMARK SMILES IDX 80 25 81 26 18 27 19 28 20 29 21 31 22 32 23 33 75 34 24 35
REMARK SMILES IDX 74 36 25 37 26 38 27 39 68 40 28 41 73 42 67 43 69 44 29 45
REMARK SMILES IDX 72 46 66 47 65 48 30 50 56 51 39 52 55 53 40 54 43 55 54 56
REMARK SMILES IDX 70 57 41 58 42 59 53 61 71 62 44 63 31 64 32 65 37 66 33 67
REMARK SMILES IDX 34 68 36 69 38 70 35 71 57 72 58 73 63 74 59 75 60 76 62 77
REMARK SMILES IDX 64 78 61 79 45 80 46 81 51 82 47 83 48 84 50 85 52 86 49 87
REMARK H PARENT 15 6 19 30 69 49 43 60
REMARK Flexibility Score: inf
ROOT
ATOM      1  C   UNL A   1      33.872  29.744  26.958  1.00  0.00     0.042 C 
ENDROOT
BRANCH   1   2
ATOM      2  C   UNL A   1      33.245  28.710  26.029  1.00  0.00     0.118 C 
BRANCH   2   3
ATOM      3  N   UNL A   1      33.846  28.636  24.728  1.00  0.00    -0.351 N 
ATOM      4  C   UNL A   1      33.692  27.804  23.658  1.00  0.00     0.274 C 
ATOM      5  O   UNL A   1      34.217  28.226  22.621  1.00  0.00    -0.267 OA
ATOM      6  H   UNL A   1      34.518  29.340  24.573  1.00  0.00     0.163 HD
BRANCH   4   7
ATOM      7  C   UNL A   1      33.036  26.494  23.674  1.00  0.00     0.178 A 
ATOM      8  N   UNL A   1      32.187  24.474  23.736  1.00  0.00    -0.208 N 
ATOM      9  N   UNL A   1      31.271  25.270  23.162  1.00  0.00    -0.061 NA
ATOM     10  C   UNL A   1      33.374  25.173  23.989  1.00  0.00     0.108 A 
ATOM     11  N   UNL A   1      31.728  26.501  23.211  1.00  0.00    -0.124 NA
BRANCH   8  12
ATOM     12  C   UNL A   1      31.954  23.087  23.849  1.00  0.00     0.109 A 
ATOM     13  C   UNL A   1      31.825  22.452  25.090  1.00  0.00     0.144 A 
ATOM     14  C   UNL A   1      32.032  21.072  25.151  1.00  0.00     0.049 A 
ATOM     15  C   UNL A   1      32.292  20.333  23.995  1.00  0.00     0.004 A 
ATOM     16  C   UNL A   1      32.123  22.337  22.671  1.00  0.00     0.032 A 
ATOM     17  C   UNL A   1      32.311  20.960  22.751  1.00  0.00     0.003 A 
BRANCH  13  18
ATOM     18  O   UNL A   1      31.618  23.041  26.307  1.00  0.00    -0.494 OA
ATOM     19  C   UNL A   1      30.282  23.061  26.808  1.00  0.00     0.278 C 
ENDBRANCH  13  18
ENDBRANCH   8  12
BRANCH  10  20
ATOM     20  C   UNL A   1      34.588  24.450  24.384  1.00  0.00     0.003 A 
ATOM     21  C   UNL A   1      35.013  24.384  25.719  1.00  0.00     0.012 A 
ATOM     22  C   UNL A   1      35.309  23.726  23.414  1.00  0.00     0.012 A 
ATOM     23  C   UNL A   1      36.179  23.689  26.061  1.00  0.00     0.021 A 
ATOM     24  C   UNL A   1      36.468  23.027  23.755  1.00  0.00     0.021 A 
ATOM     25  C   UNL A   1      36.902  23.017  25.076  1.00  0.00     0.041 A 
ATOM     26  Cl  UNL A   1      38.381  22.241  25.476  1.00  0.00    -0.084 Cl
ENDBRANCH  10  20
ENDBRANCH   4   7
ENDBRANCH   2   3
ENDBRANCH   1   2
BRANCH   1  27
ATOM     27  C   UNL A   1      35.162  29.215  27.560  1.00  0.00     0.118 C 
BRANCH  27  28
ATOM     28  N   UNL A   1      35.651  29.866  28.788  1.00  0.00    -0.352 N 
ATOM     29  C   UNL A   1      36.860  29.649  29.476  1.00  0.00     0.251 C 
ATOM     30  H   UNL A   1      35.054  30.544  29.179  1.00  0.00     0.163 HD
ATOM     31  O   UNL A   1      37.063  30.042  30.595  1.00  0.00    -0.269 OA
BRANCH  29  32
ATOM     32  C   UNL A   1      37.930  28.989  28.703  1.00  0.00     0.039 A 
ATOM     33  C   UNL A   1      38.550  29.529  27.570  1.00  0.00     0.014 A 
ATOM     34  C   UNL A   1      38.484  27.939  29.393  1.00  0.00     0.014 A 
ATOM     35  C   UNL A   1      39.834  29.073  27.251  1.00  0.00     0.010 A 
ATOM     36  C   UNL A   1      39.836  27.899  29.342  1.00  0.00     0.010 A 
ATOM     37  C   UNL A   1      40.495  28.279  28.195  1.00  0.00    -0.014 A 
BRANCH  37  38
ATOM     38  C   UNL A   1      41.893  27.875  28.177  1.00  0.00     0.031 A 
ATOM     39  C   UNL A   1      42.163  26.649  27.391  1.00  0.00     0.074 A 
ATOM     40  C   UNL A   1      42.882  28.718  28.574  1.00  0.00     0.049 A 
ATOM     41  N   UNL A   1      42.333  25.454  27.844  1.00  0.00    -0.248 NA
ATOM     42  C   UNL A   1      42.043  26.714  25.925  1.00  0.00     0.031 C 
ATOM     43  C   UNL A   1      42.797  30.130  29.013  1.00  0.00     0.029 A 
ATOM     44  N   UNL A   1      44.223  28.506  28.593  1.00  0.00    -0.354 N 
ATOM     45  C   UNL A   1      42.623  24.670  26.731  1.00  0.00     0.074 A 
ATOM     46  C   UNL A   1      42.185  25.427  25.590  1.00  0.00     0.031 C 
ATOM     47  C   UNL A   1      44.019  30.699  29.021  1.00  0.00     0.029 A 
ATOM     48  C   UNL A   1      44.987  29.645  28.838  1.00  0.00     0.049 A 
ATOM     49  H   UNL A   1      44.624  27.618  28.446  1.00  0.00     0.167 HD
ATOM     50  C   UNL A   1      43.486  23.620  26.836  1.00  0.00     0.037 A 
ATOM     51  C   UNL A   1      46.333  29.706  28.948  1.00  0.00     0.037 A 
ATOM     52  C   UNL A   1      43.793  23.370  28.227  1.00  0.00     0.049 A 
ATOM     53  C   UNL A   1      46.787  28.331  29.248  1.00  0.00     0.074 A 
ATOM     54  C   UNL A   1      43.104  22.912  29.330  1.00  0.00     0.029 A 
ATOM     55  N   UNL A   1      44.887  24.057  28.691  1.00  0.00    -0.354 N 
ATOM     56  N   UNL A   1      46.474  27.690  30.342  1.00  0.00    -0.248 NA
ATOM     57  C   UNL A   1      47.224  27.496  28.141  1.00  0.00     0.031 C 
ATOM     58  C   UNL A   1      43.648  23.627  30.441  1.00  0.00     0.029 A 
ATOM     59  C   UNL A   1      44.695  24.436  29.993  1.00  0.00     0.049 A 
ATOM     60  H   UNL A   1      45.695  24.251  28.162  1.00  0.00     0.167 HD
ATOM     61  C   UNL A   1      46.273  26.379  29.942  1.00  0.00     0.074 A 
ATOM     62  C   UNL A   1      46.894  26.294  28.622  1.00  0.00     0.031 C 
ATOM     63  C   UNL A   1      45.365  25.583  30.582  1.00  0.00     0.037 A 
BRANCH  50  64
ATOM     64  C   UNL A   1      44.418  23.132  25.745  1.00  0.00     0.057 A 
ATOM     65  C   UNL A   1      44.448  21.755  25.447  1.00  0.00     0.134 A 
ATOM     66  C   UNL A   1      45.474  23.880  25.188  1.00  0.00     0.134 A 
ATOM     67  F   UNL A   1      43.508  20.926  25.926  1.00  0.00    -0.206 F 
ATOM     68  C   UNL A   1      45.484  21.163  24.712  1.00  0.00     0.040 A 
ATOM     69  C   UNL A   1      46.487  23.306  24.411  1.00  0.00     0.040 A 
ATOM     70  F   UNL A   1      45.650  25.181  25.442  1.00  0.00    -0.206 F 
ATOM     71  C   UNL A   1      46.513  21.940  24.195  1.00  0.00     0.006 A 
ENDBRANCH  50  64
BRANCH  51  72
ATOM     72  C   UNL A   1      47.235  30.776  28.472  1.00  0.00     0.057 A 
ATOM     73  C   UNL A   1      47.245  31.179  27.131  1.00  0.00     0.134 A 
ATOM     74  C   UNL A   1      47.890  31.627  29.382  1.00  0.00     0.134 A 
ATOM     75  F   UNL A   1      46.619  30.445  26.199  1.00  0.00    -0.206 F 
ATOM     76  C   UNL A   1      47.838  32.380  26.720  1.00  0.00     0.040 A 
ATOM     77  C   UNL A   1      48.484  32.829  28.986  1.00  0.00     0.040 A 
ATOM     78  F   UNL A   1      47.888  31.361  30.697  1.00  0.00    -0.206 F 
ATOM     79  C   UNL A   1      48.445  33.217  27.651  1.00  0.00     0.006 A 
ENDBRANCH  51  72
BRANCH  63  80
ATOM     80  C   UNL A   1      44.897  26.018  31.949  1.00  0.00     0.057 A 
ATOM     81  C   UNL A   1      43.757  26.794  32.202  1.00  0.00     0.134 A 
ATOM     82  C   UNL A   1      45.573  25.518  33.067  1.00  0.00     0.134 A 
ATOM     83  F   UNL A   1      42.999  27.261  31.206  1.00  0.00    -0.206 F 
ATOM     84  C   UNL A   1      43.326  27.079  33.504  1.00  0.00     0.040 A 
ATOM     85  C   UNL A   1      45.139  25.769  34.371  1.00  0.00     0.040 A 
ATOM     86  F   UNL A   1      46.649  24.730  32.906  1.00  0.00    -0.206 F 
ATOM     87  C   UNL A   1      44.015  26.558  34.594  1.00  0.00     0.006 A 
ENDBRANCH  63  80
ENDBRANCH  37  38
ENDBRANCH  29  32
ENDBRANCH  27  28
ENDBRANCH   1  27
TORSDOF 13
ENDMDL
MODEL 3
REMARK VINA RESULT:     -12.2      2.753      6.867
REMARK SMILES COc1ccccc1-n1nnc(C(=O)NCCCNC(=O)c2ccc(-c3c4nc(c(-c5c(F)cccc5F)c5ccc([nH]5)c(-c5c(F)cccc5F)c5nc(c(-c6c(F)cccc6F)c6ccc3[nH]6)C=C5)C=C4)cc2)c1-c1ccc(Cl)cc1
REMARK SMILES IDX 17 1 16 2 15 3 13 4 14 5 12 7 9 8 10 9 76 10 11 11 8 12 3 13
REMARK SMILES IDX 4 14 5 15 7 16 6 17 2 18 1 19 77 20 78 21 83 22 79 23 82 24
REMARK SMILES IDX 80 25 81 26 18 27 19 28 20 29 21 31 22 32 23 33 75 34 24 35
REMARK SMILES IDX 74 36 25 37 26 38 27 39 68 40 28 41 73 42 67 43 69 44 29 45
REMARK SMILES IDX 72 46 66 47 65 48 30 50 56 51 39 52 55 53 40 54 43 55 54 56
REMARK SMILES IDX 70 57 41 58 42 59 53 61 71 62 44 63 31 64 32 65 37 66 33 67
REMARK SMILES IDX 34 68 36 69 38 70 35 71 57 72 58 73 63 74 59 75 60 76 62 77
REMARK SMILES IDX 64 78 61 79 45 80 46 81 51 82 47 83 48 84 50 85 52 86 49 87
REMARK H PARENT 15 6 19 30 69 49 43 60
REMARK Flexibility Score: inf
ROOT
ATOM      1  C   UNL A   1      34.006  28.023  26.241  1.00  0.00     0.042 C 
ENDROOT
BRANCH   1   2
ATOM      2  C   UNL A   1      33.484  28.905  25.113  1.00  0.00     0.118 C 
BRANCH   2   3
ATOM      3  N   UNL A   1      34.057  28.628  23.826  1.00  0.00    -0.351 N 
ATOM      4  C   UNL A   1      33.849  27.664  22.883  1.00  0.00     0.274 C 
ATOM      5  O   UNL A   1      34.370  27.918  21.791  1.00  0.00    -0.267 OA
ATOM      6  H   UNL A   1      34.753  29.275  23.567  1.00  0.00     0.163 HD
BRANCH   4   7
ATOM      7  C   UNL A   1      33.142  26.398  23.089  1.00  0.00     0.178 A 
ATOM      8  N   UNL A   1      32.215  24.442  23.439  1.00  0.00    -0.208 N 
ATOM      9  N   UNL A   1      31.316  25.194  22.786  1.00  0.00    -0.061 NA
ATOM     10  C   UNL A   1      33.437  25.116  23.568  1.00  0.00     0.108 A 
ATOM     11  N   UNL A   1      31.822  26.401  22.660  1.00  0.00    -0.124 NA
BRANCH   8  12
ATOM     12  C   UNL A   1      31.930  23.094  23.741  1.00  0.00     0.109 A 
ATOM     13  C   UNL A   1      31.718  22.653  25.053  1.00  0.00     0.144 A 
ATOM     14  C   UNL A   1      31.875  21.292  25.326  1.00  0.00     0.049 A 
ATOM     15  C   UNL A   1      32.168  20.383  24.306  1.00  0.00     0.004 A 
ATOM     16  C   UNL A   1      32.133  22.174  22.696  1.00  0.00     0.032 A 
ATOM     17  C   UNL A   1      32.270  20.820  22.987  1.00  0.00     0.003 A 
BRANCH  13  18
ATOM     18  O   UNL A   1      31.470  23.420  26.157  1.00  0.00    -0.494 OA
ATOM     19  C   UNL A   1      30.262  23.169  26.873  1.00  0.00     0.278 C 
ENDBRANCH  13  18
ENDBRANCH   8  12
BRANCH  10  20
ATOM     20  C   UNL A   1      34.632  24.399  24.027  1.00  0.00     0.003 A 
ATOM     21  C   UNL A   1      35.404  23.611  23.162  1.00  0.00     0.012 A 
ATOM     22  C   UNL A   1      35.072  24.567  25.355  1.00  0.00     0.012 A 
ATOM     23  C   UNL A   1      36.536  22.936  23.634  1.00  0.00     0.021 A 
ATOM     24  C   UNL A   1      36.204  23.899  25.825  1.00  0.00     0.021 A 
ATOM     25  C   UNL A   1      36.927  23.081  24.964  1.00  0.00     0.041 A 
ATOM     26  Cl  UNL A   1      38.260  22.183  25.569  1.00  0.00    -0.084 Cl
ENDBRANCH  10  20
ENDBRANCH   4   7
ENDBRANCH   2   3
ENDBRANCH   1   2
BRANCH   1  27
ATOM     27  C   UNL A   1      34.910  28.814  27.171  1.00  0.00     0.118 C 
BRANCH  27  28
ATOM     28  N   UNL A   1      35.007  30.266  26.944  1.00  0.00    -0.352 N 
ATOM     29  C   UNL A   1      35.580  31.248  27.774  1.00  0.00     0.251 C 
ATOM     30  H   UNL A   1      34.620  30.594  26.100  1.00  0.00     0.163 HD
ATOM     31  O   UNL A   1      35.395  32.428  27.627  1.00  0.00    -0.269 OA
BRANCH  29  32
ATOM     32  C   UNL A   1      36.525  30.756  28.795  1.00  0.00     0.039 A 
ATOM     33  C   UNL A   1      36.277  29.692  29.670  1.00  0.00     0.014 A 
ATOM     34  C   UNL A   1      37.795  31.232  28.585  1.00  0.00     0.014 A 
ATOM     35  C   UNL A   1      37.380  29.019  30.206  1.00  0.00     0.010 A 
ATOM     36  C   UNL A   1      38.763  30.295  28.721  1.00  0.00     0.010 A 
ATOM     37  C   UNL A   1      38.641  29.307  29.671  1.00  0.00    -0.014 A 
BRANCH  37  38
ATOM     38  C   UNL A   1      39.883  28.591  29.916  1.00  0.00     0.031 A 
ATOM     39  C   UNL A   1      40.298  28.556  31.337  1.00  0.00     0.074 A 
ATOM     40  C   UNL A   1      40.427  27.771  28.978  1.00  0.00     0.049 A 
ATOM     41  N   UNL A   1      41.185  29.296  31.909  1.00  0.00    -0.248 NA
ATOM     42  C   UNL A   1      39.509  27.744  32.279  1.00  0.00     0.031 C 
ATOM     43  C   UNL A   1      39.910  27.392  27.643  1.00  0.00     0.029 A 
ATOM     44  N   UNL A   1      41.555  27.018  29.059  1.00  0.00    -0.354 N 
ATOM     45  C   UNL A   1      41.261  28.840  33.221  1.00  0.00     0.074 A 
ATOM     46  C   UNL A   1      40.059  28.086  33.448  1.00  0.00     0.031 C 
ATOM     47  C   UNL A   1      40.581  26.327  27.159  1.00  0.00     0.029 A 
ATOM     48  C   UNL A   1      41.721  26.110  28.015  1.00  0.00     0.049 A 
ATOM     49  H   UNL A   1      42.203  27.107  29.795  1.00  0.00     0.167 HD
ATOM     50  C   UNL A   1      42.451  28.857  33.887  1.00  0.00     0.037 A 
ATOM     51  C   UNL A   1      42.768  25.273  27.832  1.00  0.00     0.037 A 
ATOM     52  C   UNL A   1      43.434  29.595  33.124  1.00  0.00     0.049 A 
ATOM     53  C   UNL A   1      43.885  25.828  28.626  1.00  0.00     0.074 A 
ATOM     54  C   UNL A   1      43.623  30.909  32.755  1.00  0.00     0.029 A 
ATOM     55  N   UNL A   1      44.159  28.822  32.252  1.00  0.00    -0.354 N 
ATOM     56  N   UNL A   1      44.441  26.984  28.381  1.00  0.00    -0.248 NA
ATOM     57  C   UNL A   1      44.100  25.306  29.966  1.00  0.00     0.031 C 
ATOM     58  C   UNL A   1      44.213  30.858  31.454  1.00  0.00     0.029 A 
ATOM     59  C   UNL A   1      44.431  29.523  31.106  1.00  0.00     0.049 A 
ATOM     60  H   UNL A   1      44.445  27.896  32.425  1.00  0.00     0.167 HD
ATOM     61  C   UNL A   1      44.712  27.522  29.629  1.00  0.00     0.074 A 
ATOM     62  C   UNL A   1      44.622  26.390  30.549  1.00  0.00     0.031 C 
ATOM     63  C   UNL A   1      44.680  28.873  29.831  1.00  0.00     0.037 A 
BRANCH  50  64
ATOM     64  C   UNL A   1      42.889  27.855  34.936  1.00  0.00     0.057 A 
ATOM     65  C   UNL A   1      43.263  28.328  36.210  1.00  0.00     0.134 A 
ATOM     66  C   UNL A   1      43.237  26.514  34.679  1.00  0.00     0.134 A 
ATOM     67  F   UNL A   1      43.004  29.593  36.577  1.00  0.00    -0.206 F 
ATOM     68  C   UNL A   1      43.985  27.549  37.124  1.00  0.00     0.040 A 
ATOM     69  C   UNL A   1      43.914  25.712  35.605  1.00  0.00     0.040 A 
ATOM     70  F   UNL A   1      43.038  25.932  33.492  1.00  0.00    -0.206 F 
ATOM     71  C   UNL A   1      44.318  26.236  36.820  1.00  0.00     0.006 A 
ENDBRANCH  50  64
BRANCH  51  72
ATOM     72  C   UNL A   1      42.744  23.888  27.317  1.00  0.00     0.057 A 
ATOM     73  C   UNL A   1      42.194  22.841  28.068  1.00  0.00     0.134 A 
ATOM     74  C   UNL A   1      42.988  23.618  25.958  1.00  0.00     0.134 A 
ATOM     75  F   UNL A   1      41.899  23.019  29.364  1.00  0.00    -0.206 F 
ATOM     76  C   UNL A   1      41.868  21.606  27.492  1.00  0.00     0.040 A 
ATOM     77  C   UNL A   1      42.667  22.391  25.371  1.00  0.00     0.040 A 
ATOM     78  F   UNL A   1      43.459  24.572  25.141  1.00  0.00    -0.206 F 
ATOM     79  C   UNL A   1      42.089  21.384  26.136  1.00  0.00     0.006 A 
ENDBRANCH  51  72
BRANCH  63  80
ATOM     80  C   UNL A   1      44.745  29.762  28.615  1.00  0.00     0.057 A 
ATOM     81  C   UNL A   1      43.638  30.341  27.978  1.00  0.00     0.134 A 
ATOM     82  C   UNL A   1      46.006  30.145  28.145  1.00  0.00     0.134 A 
ATOM     83  F   UNL A   1      42.391  30.098  28.394  1.00  0.00    -0.206 F 
ATOM     84  C   UNL A   1      43.778  31.237  26.911  1.00  0.00     0.040 A 
ATOM     85  C   UNL A   1      46.162  31.060  27.100  1.00  0.00     0.040 A 
ATOM     86  F   UNL A   1      47.115  29.668  28.731  1.00  0.00    -0.206 F 
ATOM     87  C   UNL A   1      45.046  31.604  26.474  1.00  0.00     0.006 A 
ENDBRANCH  63  80
ENDBRANCH  37  38
ENDBRANCH  29  32
ENDBRANCH  27  28
ENDBRANCH   1  27
TORSDOF 13
ENDMDL
