MODEL 1
REMARK VINA RESULT:     -12.3      0.000      0.000
REMARK SMILES CS(=O)(=O)c1ccc(/C=C(/C(=O)NCCCNC(=O)c2ccc(-c3c4nc(c(-c5c(F)cccc5F)c5ccc([nH]5)c(-c5c(F)cccc5F)c5nc(c(-c6c(F)cccc6F)c6ccc3[nH]6)C=C5)C=C4)cc2)c2ccccc2)cc1
REMARK SMILES IDX 15 1 14 2 13 3 11 4 12 5 10 7 9 8 8 9 5 10 6 11 81 12 7 13
REMARK SMILES IDX 80 14 2 15 1 16 3 17 4 18 74 19 75 20 79 21 76 22 78 23
REMARK SMILES IDX 77 24 16 25 17 26 18 27 19 29 20 30 21 31 73 32 22 33 72 34
REMARK SMILES IDX 23 35 24 36 25 37 66 38 26 39 71 40 65 41 67 42 27 43 70 44
REMARK SMILES IDX 64 45 63 46 28 48 54 49 37 50 53 51 38 52 41 53 52 54 68 55
REMARK SMILES IDX 39 56 40 57 51 59 69 60 42 61 29 62 30 63 35 64 31 65 32 66
REMARK SMILES IDX 34 67 36 68 33 69 55 70 56 71 61 72 57 73 58 74 60 75 62 76
REMARK SMILES IDX 59 77 43 78 44 79 49 80 45 81 46 82 48 83 50 84 47 85
REMARK H PARENT 13 6 17 28 67 47 41 58
REMARK Flexibility Score: inf
ROOT
ATOM      1  C   UNL A   1      36.401  23.680  24.536  1.00  0.00     0.042 C 
ENDROOT
BRANCH   1   2
ATOM      2  C   UNL A   1      34.962  24.074  24.190  1.00  0.00     0.118 C 
BRANCH   2   3
ATOM      3  N   UNL A   1      34.042  23.617  25.216  1.00  0.00    -0.352 N 
ATOM      4  C   UNL A   1      32.928  24.139  25.792  1.00  0.00     0.251 C 
ATOM      5  O   UNL A   1      32.418  23.458  26.686  1.00  0.00    -0.269 OA
ATOM      6  H   UNL A   1      34.279  22.730  25.573  1.00  0.00     0.163 HD
BRANCH   4   7
ATOM      7  C   UNL A   1      32.276  25.425  25.339  1.00  0.00     0.047 C 
ATOM      8  C   UNL A   1      31.539  25.480  24.206  1.00  0.00     0.022 C 
BRANCH   8   9
ATOM      9  C   UNL A   1      30.752  26.601  23.646  1.00  0.00    -0.025 A 
ATOM     10  C   UNL A   1      29.155  28.741  22.767  1.00  0.00     0.067 A 
ATOM     11  C   UNL A   1      30.506  28.702  22.430  1.00  0.00     0.021 A 
ATOM     12  C   UNL A   1      28.582  27.699  23.499  1.00  0.00     0.021 A 
ATOM     13  C   UNL A   1      31.290  27.619  22.849  1.00  0.00     0.009 A 
ATOM     14  C   UNL A   1      29.379  26.637  23.935  1.00  0.00     0.009 A 
BRANCH  10  15
ATOM     15  S   UNL A   1      28.096  30.094  22.315  1.00  0.00     0.175 S 
ATOM     16  C   UNL A   1      28.907  31.591  22.799  1.00  0.00     0.163 C 
ATOM     17  O   UNL A   1      26.903  29.967  23.124  1.00  0.00    -0.224 OA
ATOM     18  O   UNL A   1      28.025  30.087  20.864  1.00  0.00    -0.224 OA
ENDBRANCH  10  15
ENDBRANCH   8   9
BRANCH   7  19
ATOM     19  C   UNL A   1      32.621  26.653  26.098  1.00  0.00    -0.013 A 
ATOM     20  C   UNL A   1      33.879  27.248  25.890  1.00  0.00     0.009 A 
ATOM     21  C   UNL A   1      31.715  27.280  26.963  1.00  0.00     0.009 A 
ATOM     22  C   UNL A   1      34.216  28.449  26.513  1.00  0.00     0.001 A 
ATOM     23  C   UNL A   1      32.050  28.491  27.577  1.00  0.00     0.001 A 
ATOM     24  C   UNL A   1      33.297  29.076  27.349  1.00  0.00     0.000 A 
ENDBRANCH   7  19
ENDBRANCH   4   7
ENDBRANCH   2   3
ENDBRANCH   1   2
BRANCH   1  25
ATOM     25  C   UNL A   1      36.602  23.282  26.000  1.00  0.00     0.118 C 
BRANCH  25  26
ATOM     26  N   UNL A   1      37.736  22.389  26.180  1.00  0.00    -0.352 N 
ATOM     27  C   UNL A   1      39.048  22.669  26.466  1.00  0.00     0.251 C 
ATOM     28  H   UNL A   1      37.529  21.431  26.079  1.00  0.00     0.163 HD
ATOM     29  O   UNL A   1      39.888  21.777  26.370  1.00  0.00    -0.269 OA
BRANCH  27  30
ATOM     30  C   UNL A   1      39.470  24.027  26.877  1.00  0.00     0.039 A 
ATOM     31  C   UNL A   1      39.283  24.407  28.211  1.00  0.00     0.014 A 
ATOM     32  C   UNL A   1      39.980  24.946  25.956  1.00  0.00     0.014 A 
ATOM     33  C   UNL A   1      39.653  25.686  28.630  1.00  0.00     0.010 A 
ATOM     34  C   UNL A   1      40.404  26.203  26.388  1.00  0.00     0.010 A 
ATOM     35  C   UNL A   1      40.240  26.588  27.728  1.00  0.00    -0.014 A 
BRANCH  35  36
ATOM     36  C   UNL A   1      40.694  27.928  28.177  1.00  0.00     0.031 A 
ATOM     37  C   UNL A   1      42.157  28.277  28.190  1.00  0.00     0.074 A 
ATOM     38  C   UNL A   1      39.789  28.817  28.631  1.00  0.00     0.049 A 
ATOM     39  N   UNL A   1      42.741  29.376  28.594  1.00  0.00    -0.248 NA
ATOM     40  C   UNL A   1      43.088  27.244  27.709  1.00  0.00     0.031 C 
ATOM     41  C   UNL A   1      38.346  28.581  28.720  1.00  0.00     0.029 A 
ATOM     42  N   UNL A   1      39.948  30.091  29.115  1.00  0.00    -0.354 N 
ATOM     43  C   UNL A   1      44.105  29.162  28.433  1.00  0.00     0.074 A 
ATOM     44  C   UNL A   1      44.264  27.813  27.934  1.00  0.00     0.031 C 
ATOM     45  C   UNL A   1      37.753  29.680  29.213  1.00  0.00     0.029 A 
ATOM     46  C   UNL A   1      38.772  30.684  29.502  1.00  0.00     0.049 A 
ATOM     47  H   UNL A   1      40.824  30.537  29.178  1.00  0.00     0.167 HD
ATOM     48  C   UNL A   1      45.129  30.018  28.665  1.00  0.00     0.037 A 
ATOM     49  C   UNL A   1      38.540  31.899  30.035  1.00  0.00     0.037 A 
ATOM     50  C   UNL A   1      44.969  31.371  29.134  1.00  0.00     0.049 A 
ATOM     51  C   UNL A   1      39.691  32.837  30.260  1.00  0.00     0.074 A 
ATOM     52  C   UNL A   1      45.941  32.338  29.325  1.00  0.00     0.029 A 
ATOM     53  N   UNL A   1      43.758  31.945  29.487  1.00  0.00    -0.354 N 
ATOM     54  N   UNL A   1      40.968  32.647  30.033  1.00  0.00    -0.248 NA
ATOM     55  C   UNL A   1      39.367  34.162  30.809  1.00  0.00     0.031 C 
ATOM     56  C   UNL A   1      45.321  33.487  29.831  1.00  0.00     0.029 A 
ATOM     57  C   UNL A   1      43.959  33.247  29.916  1.00  0.00     0.049 A 
ATOM     58  H   UNL A   1      42.884  31.494  29.441  1.00  0.00     0.167 HD
ATOM     59  C   UNL A   1      41.597  33.832  30.391  1.00  0.00     0.074 A 
ATOM     60  C   UNL A   1      40.560  34.739  30.835  1.00  0.00     0.031 C 
ATOM     61  C   UNL A   1      42.917  34.139  30.358  1.00  0.00     0.037 A 
BRANCH  48  62
ATOM     62  C   UNL A   1      46.521  29.515  28.413  1.00  0.00     0.057 A 
ATOM     63  C   UNL A   1      47.278  28.901  29.421  1.00  0.00     0.134 A 
ATOM     64  C   UNL A   1      47.097  29.612  27.141  1.00  0.00     0.134 A 
ATOM     65  F   UNL A   1      46.787  28.785  30.664  1.00  0.00    -0.206 F 
ATOM     66  C   UNL A   1      48.569  28.428  29.178  1.00  0.00     0.040 A 
ATOM     67  C   UNL A   1      48.378  29.121  26.880  1.00  0.00     0.040 A 
ATOM     68  F   UNL A   1      46.425  30.180  26.129  1.00  0.00    -0.206 F 
ATOM     69  C   UNL A   1      49.120  28.533  27.902  1.00  0.00     0.006 A 
ENDBRANCH  48  62
BRANCH  49  70
ATOM     70  C   UNL A   1      37.152  32.303  30.370  1.00  0.00     0.057 A 
ATOM     71  C   UNL A   1      36.597  32.005  31.619  1.00  0.00     0.134 A 
ATOM     72  C   UNL A   1      36.355  33.001  29.456  1.00  0.00     0.134 A 
ATOM     73  F   UNL A   1      37.309  31.324  32.529  1.00  0.00    -0.206 F 
ATOM     74  C   UNL A   1      35.292  32.376  31.944  1.00  0.00     0.040 A 
ATOM     75  C   UNL A   1      35.055  33.396  29.776  1.00  0.00     0.040 A 
ATOM     76  F   UNL A   1      36.833  33.322  28.246  1.00  0.00    -0.206 F 
ATOM     77  C   UNL A   1      34.519  33.078  31.023  1.00  0.00     0.006 A 
ENDBRANCH  49  70
BRANCH  61  78
ATOM     78  C   UNL A   1      43.309  35.519  30.794  1.00  0.00     0.057 A 
ATOM     79  C   UNL A   1      43.602  35.813  32.131  1.00  0.00     0.134 A 
ATOM     80  C   UNL A   1      43.420  36.557  29.862  1.00  0.00     0.134 A 
ATOM     81  F   UNL A   1      43.500  34.864  33.074  1.00  0.00    -0.206 F 
ATOM     82  C   UNL A   1      43.973  37.097  32.529  1.00  0.00     0.040 A 
ATOM     83  C   UNL A   1      43.812  37.841  30.244  1.00  0.00     0.040 A 
ATOM     84  F   UNL A   1      43.158  36.341  28.564  1.00  0.00    -0.206 F 
ATOM     85  C   UNL A   1      44.084  38.115  31.583  1.00  0.00     0.006 A 
ENDBRANCH  61  78
ENDBRANCH  35  36
ENDBRANCH  27  30
ENDBRANCH  25  26
ENDBRANCH   1  25
TORSDOF 13
ENDMDL
MODEL 2
REMARK VINA RESULT:     -12.3      1.791      2.304
REMARK SMILES CS(=O)(=O)c1ccc(/C=C(/C(=O)NCCCNC(=O)c2ccc(-c3c4nc(c(-c5c(F)cccc5F)c5ccc([nH]5)c(-c5c(F)cccc5F)c5nc(c(-c6c(F)cccc6F)c6ccc3[nH]6)C=C5)C=C4)cc2)c2ccccc2)cc1
REMARK SMILES IDX 15 1 14 2 13 3 11 4 12 5 10 7 9 8 8 9 5 10 6 11 81 12 7 13
REMARK SMILES IDX 80 14 2 15 1 16 3 17 4 18 74 19 75 20 79 21 76 22 78 23
REMARK SMILES IDX 77 24 16 25 17 26 18 27 19 29 20 30 21 31 73 32 22 33 72 34
REMARK SMILES IDX 23 35 24 36 25 37 66 38 26 39 71 40 65 41 67 42 27 43 70 44
REMARK SMILES IDX 64 45 63 46 28 48 54 49 37 50 53 51 38 52 41 53 52 54 68 55
REMARK SMILES IDX 39 56 40 57 51 59 69 60 42 61 29 62 30 63 35 64 31 65 32 66
REMARK SMILES IDX 34 67 36 68 33 69 55 70 56 71 61 72 57 73 58 74 60 75 62 76
REMARK SMILES IDX 59 77 43 78 44 79 49 80 45 81 46 82 48 83 50 84 47 85
REMARK H PARENT 13 6 17 28 67 47 41 58
REMARK Flexibility Score: inf
ROOT
ATOM      1  C   UNL A   1      35.623  23.508  26.010  1.00  0.00     0.042 C 
ENDROOT
BRANCH   1   2
ATOM      2  C   UNL A   1      34.301  23.833  25.309  1.00  0.00     0.118 C 
BRANCH   2   3
ATOM      3  N   UNL A   1      33.174  23.545  26.176  1.00  0.00    -0.352 N 
ATOM      4  C   UNL A   1      32.039  24.213  26.511  1.00  0.00     0.251 C 
ATOM      5  O   UNL A   1      31.311  23.654  27.335  1.00  0.00    -0.269 OA
ATOM      6  H   UNL A   1      33.248  22.669  26.620  1.00  0.00     0.163 HD
BRANCH   4   7
ATOM      7  C   UNL A   1      31.618  25.518  25.875  1.00  0.00     0.047 C 
ATOM      8  C   UNL A   1      30.845  25.544  24.766  1.00  0.00     0.022 C 
BRANCH   8   9
ATOM      9  C   UNL A   1      30.255  26.699  24.054  1.00  0.00    -0.025 A 
ATOM     10  C   UNL A   1      28.991  28.907  22.856  1.00  0.00     0.067 A 
ATOM     11  C   UNL A   1      30.382  28.815  22.845  1.00  0.00     0.021 A 
ATOM     12  C   UNL A   1      28.223  27.885  23.418  1.00  0.00     0.021 A 
ATOM     13  C   UNL A   1      31.003  27.699  23.421  1.00  0.00     0.009 A 
ATOM     14  C   UNL A   1      28.854  26.789  24.012  1.00  0.00     0.009 A 
BRANCH  10  15
ATOM     15  S   UNL A   1      28.121  30.305  22.189  1.00  0.00     0.175 S 
ATOM     16  C   UNL A   1      29.138  31.733  22.432  1.00  0.00     0.163 C 
ATOM     17  O   UNL A   1      26.935  30.473  23.002  1.00  0.00    -0.224 OA
ATOM     18  O   UNL A   1      28.024  30.078  20.757  1.00  0.00    -0.224 OA
ENDBRANCH  10  15
ENDBRANCH   8   9
BRANCH   7  19
ATOM     19  C   UNL A   1      32.230  26.756  26.420  1.00  0.00    -0.013 A 
ATOM     20  C   UNL A   1      33.556  27.068  26.070  1.00  0.00     0.009 A 
ATOM     21  C   UNL A   1      31.513  27.659  27.216  1.00  0.00     0.009 A 
ATOM     22  C   UNL A   1      34.146  28.261  26.486  1.00  0.00     0.001 A 
ATOM     23  C   UNL A   1      32.102  28.862  27.622  1.00  0.00     0.001 A 
ATOM     24  C   UNL A   1      33.415  29.163  27.254  1.00  0.00     0.000 A 
ENDBRANCH   7  19
ENDBRANCH   4   7
ENDBRANCH   2   3
ENDBRANCH   1   2
BRANCH   1  25
ATOM     25  C   UNL A   1      36.862  23.740  25.142  1.00  0.00     0.118 C 
BRANCH  25  26
ATOM     26  N   UNL A   1      37.917  22.777  25.415  1.00  0.00    -0.352 N 
ATOM     27  C   UNL A   1      39.131  22.944  26.031  1.00  0.00     0.251 C 
ATOM     28  H   UNL A   1      37.730  21.860  25.109  1.00  0.00     0.163 HD
ATOM     29  O   UNL A   1      39.963  22.041  25.975  1.00  0.00    -0.269 OA
BRANCH  27  30
ATOM     30  C   UNL A   1      39.459  24.194  26.754  1.00  0.00     0.039 A 
ATOM     31  C   UNL A   1      38.961  24.365  28.050  1.00  0.00     0.014 A 
ATOM     32  C   UNL A   1      40.189  25.220  26.147  1.00  0.00     0.014 A 
ATOM     33  C   UNL A   1      39.236  25.539  28.754  1.00  0.00     0.010 A 
ATOM     34  C   UNL A   1      40.512  26.367  26.873  1.00  0.00     0.010 A 
ATOM     35  C   UNL A   1      40.035  26.541  28.180  1.00  0.00    -0.014 A 
BRANCH  35  36
ATOM     36  C   UNL A   1      40.385  27.766  28.944  1.00  0.00     0.031 A 
ATOM     37  C   UNL A   1      41.710  27.879  29.645  1.00  0.00     0.074 A 
ATOM     38  C   UNL A   1      39.481  28.759  29.054  1.00  0.00     0.049 A 
ATOM     39  N   UNL A   1      42.168  28.848  30.395  1.00  0.00    -0.248 NA
ATOM     40  C   UNL A   1      42.632  26.742  29.504  1.00  0.00     0.031 C 
ATOM     41  C   UNL A   1      38.140  28.748  28.466  1.00  0.00     0.029 A 
ATOM     42  N   UNL A   1      39.547  29.963  29.709  1.00  0.00    -0.354 N 
ATOM     43  C   UNL A   1      43.421  28.432  30.831  1.00  0.00     0.074 A 
ATOM     44  C   UNL A   1      43.633  27.105  30.294  1.00  0.00     0.031 C 
ATOM     45  C   UNL A   1      37.517  29.897  28.774  1.00  0.00     0.029 A 
ATOM     46  C   UNL A   1      38.401  30.710  29.604  1.00  0.00     0.049 A 
ATOM     47  H   UNL A   1      40.343  30.261  30.206  1.00  0.00     0.167 HD
ATOM     48  C   UNL A   1      44.318  29.102  31.594  1.00  0.00     0.037 A 
ATOM     49  C   UNL A   1      38.093  31.914  30.122  1.00  0.00     0.037 A 
ATOM     50  C   UNL A   1      44.117  30.434  32.104  1.00  0.00     0.049 A 
ATOM     51  C   UNL A   1      39.113  32.646  30.945  1.00  0.00     0.074 A 
ATOM     52  C   UNL A   1      44.999  31.225  32.821  1.00  0.00     0.029 A 
ATOM     53  N   UNL A   1      42.953  31.171  31.951  1.00  0.00    -0.354 N 
ATOM     54  N   UNL A   1      40.322  32.271  31.286  1.00  0.00    -0.248 NA
ATOM     55  C   UNL A   1      38.729  33.972  31.450  1.00  0.00     0.031 C 
ATOM     56  C   UNL A   1      44.354  32.426  33.135  1.00  0.00     0.029 A 
ATOM     57  C   UNL A   1      43.085  32.398  32.579  1.00  0.00     0.049 A 
ATOM     58  H   UNL A   1      42.151  30.866  31.468  1.00  0.00     0.167 HD
ATOM     59  C   UNL A   1      40.851  33.320  32.027  1.00  0.00     0.074 A 
ATOM     60  C   UNL A   1      39.836  34.353  32.071  1.00  0.00     0.031 C 
ATOM     61  C   UNL A   1      42.066  33.417  32.618  1.00  0.00     0.037 A 
BRANCH  48  62
ATOM     62  C   UNL A   1      45.603  28.401  31.925  1.00  0.00     0.057 A 
ATOM     63  C   UNL A   1      46.736  28.509  31.107  1.00  0.00     0.134 A 
ATOM     64  C   UNL A   1      45.721  27.637  33.093  1.00  0.00     0.134 A 
ATOM     65  F   UNL A   1      46.686  29.218  29.969  1.00  0.00    -0.206 F 
ATOM     66  C   UNL A   1      47.930  27.861  31.424  1.00  0.00     0.040 A 
ATOM     67  C   UNL A   1      46.918  27.004  33.434  1.00  0.00     0.040 A 
ATOM     68  F   UNL A   1      44.678  27.498  33.925  1.00  0.00    -0.206 F 
ATOM     69  C   UNL A   1      48.025  27.109  32.594  1.00  0.00     0.006 A 
ENDBRANCH  48  62
BRANCH  49  70
ATOM     70  C   UNL A   1      36.761  32.512  29.854  1.00  0.00     0.057 A 
ATOM     71  C   UNL A   1      35.660  32.210  30.663  1.00  0.00     0.134 A 
ATOM     72  C   UNL A   1      36.561  33.402  28.793  1.00  0.00     0.134 A 
ATOM     73  F   UNL A   1      35.788  31.351  31.684  1.00  0.00    -0.206 F 
ATOM     74  C   UNL A   1      34.402  32.762  30.418  1.00  0.00     0.040 A 
ATOM     75  C   UNL A   1      35.313  33.978  28.550  1.00  0.00     0.040 A 
ATOM     76  F   UNL A   1      37.579  33.737  27.987  1.00  0.00    -0.206 F 
ATOM     77  C   UNL A   1      34.227  33.653  29.362  1.00  0.00     0.006 A 
ENDBRANCH  49  70
BRANCH  61  78
ATOM     78  C   UNL A   1      42.372  34.691  33.346  1.00  0.00     0.057 A 
ATOM     79  C   UNL A   1      42.005  34.881  34.684  1.00  0.00     0.134 A 
ATOM     80  C   UNL A   1      43.064  35.729  32.710  1.00  0.00     0.134 A 
ATOM     81  F   UNL A   1      41.326  33.930  35.344  1.00  0.00    -0.206 F 
ATOM     82  C   UNL A   1      42.298  36.067  35.358  1.00  0.00     0.040 A 
ATOM     83  C   UNL A   1      43.384  36.910  33.381  1.00  0.00     0.040 A 
ATOM     84  F   UNL A   1      43.449  35.609  31.431  1.00  0.00    -0.206 F 
ATOM     85  C   UNL A   1      42.995  37.084  34.708  1.00  0.00     0.006 A 
ENDBRANCH  61  78
ENDBRANCH  35  36
ENDBRANCH  27  30
ENDBRANCH  25  26
ENDBRANCH   1  25
TORSDOF 13
ENDMDL
MODEL 3
REMARK VINA RESULT:     -12.1      3.636      8.421
REMARK SMILES CS(=O)(=O)c1ccc(/C=C(/C(=O)NCCCNC(=O)c2ccc(-c3c4nc(c(-c5c(F)cccc5F)c5ccc([nH]5)c(-c5c(F)cccc5F)c5nc(c(-c6c(F)cccc6F)c6ccc3[nH]6)C=C5)C=C4)cc2)c2ccccc2)cc1
REMARK SMILES IDX 15 1 14 2 13 3 11 4 12 5 10 7 9 8 8 9 5 10 6 11 81 12 7 13
REMARK SMILES IDX 80 14 2 15 1 16 3 17 4 18 74 19 75 20 79 21 76 22 78 23
REMARK SMILES IDX 77 24 16 25 17 26 18 27 19 29 20 30 21 31 73 32 22 33 72 34
REMARK SMILES IDX 23 35 24 36 25 37 66 38 26 39 71 40 65 41 67 42 27 43 70 44
REMARK SMILES IDX 64 45 63 46 28 48 54 49 37 50 53 51 38 52 41 53 52 54 68 55
REMARK SMILES IDX 39 56 40 57 51 59 69 60 42 61 29 62 30 63 35 64 31 65 32 66
REMARK SMILES IDX 34 67 36 68 33 69 55 70 56 71 61 72 57 73 58 74 60 75 62 76
REMARK SMILES IDX 59 77 43 78 44 79 49 80 45 81 46 82 48 83 50 84 47 85
REMARK H PARENT 13 6 17 28 67 47 41 58
REMARK Flexibility Score: inf
ROOT
ATOM      1  C   UNL A   1      32.333  27.746  26.922  1.00  0.00     0.042 C 
ENDROOT
BRANCH   1   2
ATOM      2  C   UNL A   1      32.348  26.395  26.202  1.00  0.00     0.118 C 
BRANCH   2   3
ATOM      3  N   UNL A   1      32.668  26.564  24.796  1.00  0.00    -0.352 N 
ATOM      4  C   UNL A   1      33.199  25.758  23.841  1.00  0.00     0.251 C 
ATOM      5  O   UNL A   1      33.365  26.277  22.733  1.00  0.00    -0.269 OA
ATOM      6  H   UNL A   1      32.450  27.464  24.461  1.00  0.00     0.163 HD
BRANCH   4   7
ATOM      7  C   UNL A   1      33.503  24.293  24.054  1.00  0.00     0.047 C 
ATOM      8  C   UNL A   1      32.514  23.372  24.127  1.00  0.00     0.022 C 
BRANCH   8   9
ATOM      9  C   UNL A   1      32.603  21.899  24.236  1.00  0.00    -0.025 A 
ATOM     10  C   UNL A   1      32.854  19.099  24.251  1.00  0.00     0.067 A 
ATOM     11  C   UNL A   1      33.150  19.827  25.402  1.00  0.00     0.021 A 
ATOM     12  C   UNL A   1      32.390  19.751  23.106  1.00  0.00     0.021 A 
ATOM     13  C   UNL A   1      32.997  21.219  25.395  1.00  0.00     0.009 A 
ATOM     14  C   UNL A   1      32.266  21.143  23.103  1.00  0.00     0.009 A 
BRANCH  10  15
ATOM     15  S   UNL A   1      33.060  17.337  24.155  1.00  0.00     0.175 S 
ATOM     16  C   UNL A   1      34.734  16.970  24.596  1.00  0.00     0.163 C 
ATOM     17  O   UNL A   1      32.890  16.981  22.763  1.00  0.00    -0.224 OA
ATOM     18  O   UNL A   1      32.205  16.772  25.185  1.00  0.00    -0.224 OA
ENDBRANCH  10  15
ENDBRANCH   8   9
BRANCH   7  19
ATOM     19  C   UNL A   1      34.913  23.938  24.352  1.00  0.00    -0.013 A 
ATOM     20  C   UNL A   1      35.432  24.233  25.625  1.00  0.00     0.009 A 
ATOM     21  C   UNL A   1      35.725  23.260  23.434  1.00  0.00     0.009 A 
ATOM     22  C   UNL A   1      36.722  23.843  25.982  1.00  0.00     0.001 A 
ATOM     23  C   UNL A   1      37.014  22.857  23.798  1.00  0.00     0.001 A 
ATOM     24  C   UNL A   1      37.510  23.146  25.071  1.00  0.00     0.000 A 
ENDBRANCH   7  19
ENDBRANCH   4   7
ENDBRANCH   2   3
ENDBRANCH   1   2
BRANCH   1  25
ATOM     25  C   UNL A   1      33.707  28.415  27.017  1.00  0.00     0.118 C 
BRANCH  25  26
ATOM     26  N   UNL A   1      33.617  29.806  27.433  1.00  0.00    -0.352 N 
ATOM     27  C   UNL A   1      34.504  30.580  28.137  1.00  0.00     0.251 C 
ATOM     28  H   UNL A   1      32.787  30.265  27.168  1.00  0.00     0.163 HD
ATOM     29  O   UNL A   1      34.141  31.674  28.563  1.00  0.00    -0.269 OA
BRANCH  27  30
ATOM     30  C   UNL A   1      35.885  30.116  28.401  1.00  0.00     0.039 A 
ATOM     31  C   UNL A   1      36.814  30.160  27.355  1.00  0.00     0.014 A 
ATOM     32  C   UNL A   1      36.254  29.579  29.637  1.00  0.00     0.014 A 
ATOM     33  C   UNL A   1      38.120  29.713  27.562  1.00  0.00     0.010 A 
ATOM     34  C   UNL A   1      37.575  29.188  29.861  1.00  0.00     0.010 A 
ATOM     35  C   UNL A   1      38.520  29.246  28.825  1.00  0.00    -0.014 A 
BRANCH  35  36
ATOM     36  C   UNL A   1      39.923  28.828  29.074  1.00  0.00     0.031 A 
ATOM     37  C   UNL A   1      40.900  29.771  29.719  1.00  0.00     0.074 A 
ATOM     38  C   UNL A   1      40.334  27.613  28.664  1.00  0.00     0.049 A 
ATOM     39  N   UNL A   1      42.173  29.598  29.970  1.00  0.00    -0.248 NA
ATOM     40  C   UNL A   1      40.385  31.092  30.111  1.00  0.00     0.031 C 
ATOM     41  C   UNL A   1      39.498  26.625  27.978  1.00  0.00     0.029 A 
ATOM     42  N   UNL A   1      41.561  27.005  28.752  1.00  0.00    -0.354 N 
ATOM     43  C   UNL A   1      42.615  30.791  30.531  1.00  0.00     0.074 A 
ATOM     44  C   UNL A   1      41.483  31.693  30.546  1.00  0.00     0.031 C 
ATOM     45  C   UNL A   1      40.232  25.531  27.722  1.00  0.00     0.029 A 
ATOM     46  C   UNL A   1      41.595  25.750  28.198  1.00  0.00     0.049 A 
ATOM     47  H   UNL A   1      42.343  27.430  29.174  1.00  0.00     0.167 HD
ATOM     48  C   UNL A   1      43.846  31.098  31.005  1.00  0.00     0.037 A 
ATOM     49  C   UNL A   1      42.611  24.874  28.080  1.00  0.00     0.037 A 
ATOM     50  C   UNL A   1      44.963  30.189  31.017  1.00  0.00     0.049 A 
ATOM     51  C   UNL A   1      43.960  25.230  28.634  1.00  0.00     0.074 A 
ATOM     52  C   UNL A   1      46.228  30.384  31.547  1.00  0.00     0.029 A 
ATOM     53  N   UNL A   1      44.949  28.915  30.472  1.00  0.00    -0.354 N 
ATOM     54  N   UNL A   1      44.343  26.334  29.229  1.00  0.00    -0.248 NA
ATOM     55  C   UNL A   1      45.017  24.216  28.508  1.00  0.00     0.031 C 
ATOM     56  C   UNL A   1      46.991  29.240  31.288  1.00  0.00     0.029 A 
ATOM     57  C   UNL A   1      46.190  28.319  30.633  1.00  0.00     0.049 A 
ATOM     58  H   UNL A   1      44.173  28.496  30.035  1.00  0.00     0.167 HD
ATOM     59  C   UNL A   1      45.676  26.141  29.567  1.00  0.00     0.074 A 
ATOM     60  C   UNL A   1      46.030  24.808  29.124  1.00  0.00     0.031 C 
ATOM     61  C   UNL A   1      46.530  26.992  30.185  1.00  0.00     0.037 A 
BRANCH  48  62
ATOM     62  C   UNL A   1      44.049  32.481  31.554  1.00  0.00     0.057 A 
ATOM     63  C   UNL A   1      43.839  32.777  32.908  1.00  0.00     0.134 A 
ATOM     64  C   UNL A   1      44.493  33.520  30.727  1.00  0.00     0.134 A 
ATOM     65  F   UNL A   1      43.405  31.828  33.751  1.00  0.00    -0.206 F 
ATOM     66  C   UNL A   1      44.038  34.063  33.413  1.00  0.00     0.040 A 
ATOM     67  C   UNL A   1      44.719  34.804  31.226  1.00  0.00     0.040 A 
ATOM     68  F   UNL A   1      44.720  33.304  29.423  1.00  0.00    -0.206 F 
ATOM     69  C   UNL A   1      44.484  35.080  32.571  1.00  0.00     0.006 A 
ENDBRANCH  48  62
BRANCH  49  70
ATOM     70  C   UNL A   1      42.380  23.562  27.426  1.00  0.00     0.057 A 
ATOM     71  C   UNL A   1      42.011  22.439  28.175  1.00  0.00     0.134 A 
ATOM     72  C   UNL A   1      42.513  23.403  26.042  1.00  0.00     0.134 A 
ATOM     73  F   UNL A   1      41.885  22.528  29.507  1.00  0.00    -0.206 F 
ATOM     74  C   UNL A   1      41.796  21.199  27.573  1.00  0.00     0.040 A 
ATOM     75  C   UNL A   1      42.280  22.173  25.424  1.00  0.00     0.040 A 
ATOM     76  F   UNL A   1      42.856  24.443  25.270  1.00  0.00    -0.206 F 
ATOM     77  C   UNL A   1      41.925  21.065  26.192  1.00  0.00     0.006 A 
ENDBRANCH  49  70
BRANCH  61  78
ATOM     78  C   UNL A   1      47.923  26.500  30.436  1.00  0.00     0.057 A 
ATOM     79  C   UNL A   1      48.954  26.700  29.510  1.00  0.00     0.134 A 
ATOM     80  C   UNL A   1      48.244  25.842  31.630  1.00  0.00     0.134 A 
ATOM     81  F   UNL A   1      48.707  27.311  28.341  1.00  0.00    -0.206 F 
ATOM     82  C   UNL A   1      50.250  26.245  29.753  1.00  0.00     0.040 A 
ATOM     83  C   UNL A   1      49.542  25.402  31.895  1.00  0.00     0.040 A 
ATOM     84  F   UNL A   1      47.304  25.622  32.562  1.00  0.00    -0.206 F 
ATOM     85  C   UNL A   1      50.549  25.599  30.951  1.00  0.00     0.006 A 
ENDBRANCH  61  78
ENDBRANCH  35  36
ENDBRANCH  27  30
ENDBRANCH  25  26
ENDBRANCH   1  25
TORSDOF 13
ENDMDL
