MODEL 1
REMARK VINA RESULT:     -13.6      0.000      0.000
REMARK SMILES O=C(NCCCNC(=O)[C@H](c1c[nH]c2cc(F)ccc12)[NH+]1CC[NH+](CC(=O)N2CCOCC2)CC1)c1ccc(-c2c3nc(c(-c4c(F)cccc4F)c4ccc([nH]4)c(-c4c(F)cccc4F)c4nc(c(-c5c(F)cccc5F)c5ccc2[nH]5)C=C4)C=C3)cc1
REMARK SMILES IDX 5 1 4 2 3 3 1 4 2 5 36 7 37 8 89 9 38 10 88 11 39 12 40 13
REMARK SMILES IDX 41 14 82 15 42 16 87 17 81 18 83 19 43 20 86 21 80 22 79 23
REMARK SMILES IDX 44 25 70 26 53 27 69 28 54 29 57 30 68 31 84 32 55 33 56 34
REMARK SMILES IDX 67 36 85 37 58 38 45 39 46 40 51 41 47 42 48 43 50 44 52 45
REMARK SMILES IDX 49 46 71 47 72 48 77 49 73 50 74 51 76 52 78 53 75 54 59 55
REMARK SMILES IDX 60 56 65 57 61 58 62 59 64 60 66 61 63 62 6 63 7 64 8 65
REMARK SMILES IDX 9 67 10 68 21 69 22 70 35 71 23 73 34 74 24 75 25 77 26 78
REMARK SMILES IDX 27 79 28 80 29 81 33 82 30 83 32 84 31 85 11 86 12 87 20 88
REMARK SMILES IDX 13 89 14 90 19 91 15 93 18 94 16 95 17 96
REMARK H PARENT 3 6 83 24 57 35 7 66 21 72 24 76 13 92
REMARK Flexibility Score: inf
ROOT
ATOM      1  C   UNL A   1      33.339  28.735  27.235  1.00  0.00     0.042 C 
ENDROOT
BRANCH   1   2
ATOM      2  C   UNL A   1      34.762  29.224  27.391  1.00  0.00     0.118 C 
BRANCH   2   3
ATOM      3  N   UNL A   1      34.830  30.330  28.334  1.00  0.00    -0.352 N 
ATOM      4  O   UNL A   1      35.549  31.386  30.189  1.00  0.00    -0.269 OA
ATOM      5  C   UNL A   1      35.797  30.617  29.270  1.00  0.00     0.251 C 
ATOM      6  H   UNL A   1      34.077  30.963  28.297  1.00  0.00     0.163 HD
BRANCH   5   7
ATOM      7  C   UNL A   1      37.131  29.988  29.156  1.00  0.00     0.039 A 
ATOM      8  C   UNL A   1      37.849  30.099  27.968  1.00  0.00     0.014 A 
ATOM      9  C   UNL A   1      37.691  29.312  30.244  1.00  0.00     0.014 A 
ATOM     10  C   UNL A   1      39.005  29.367  27.789  1.00  0.00     0.010 A 
ATOM     11  C   UNL A   1      38.959  28.732  30.121  1.00  0.00     0.010 A 
ATOM     12  C   UNL A   1      39.622  28.747  28.885  1.00  0.00    -0.014 A 
BRANCH  12  13
ATOM     13  C   UNL A   1      41.015  28.270  28.697  1.00  0.00     0.031 A 
ATOM     14  C   UNL A   1      41.323  26.866  28.275  1.00  0.00     0.074 A 
ATOM     15  C   UNL A   1      42.004  29.177  28.842  1.00  0.00     0.049 A 
ATOM     16  N   UNL A   1      42.490  26.330  28.017  1.00  0.00    -0.248 NA
ATOM     17  C   UNL A   1      40.192  25.938  28.134  1.00  0.00     0.031 C 
ATOM     18  C   UNL A   1      41.813  30.569  29.274  1.00  0.00     0.029 A 
ATOM     19  N   UNL A   1      43.349  29.098  28.596  1.00  0.00    -0.354 N 
ATOM     20  C   UNL A   1      42.237  25.003  27.698  1.00  0.00     0.074 A 
ATOM     21  C   UNL A   1      40.808  24.804  27.826  1.00  0.00     0.031 C 
ATOM     22  C   UNL A   1      42.970  31.231  29.168  1.00  0.00     0.029 A 
ATOM     23  C   UNL A   1      44.008  30.291  28.776  1.00  0.00     0.049 A 
ATOM     24  H   UNL A   1      43.799  28.267  28.319  1.00  0.00     0.167 HD
ATOM     25  C   UNL A   1      43.122  24.047  27.326  1.00  0.00     0.037 A 
ATOM     26  C   UNL A   1      45.313  30.595  28.670  1.00  0.00     0.037 A 
ATOM     27  C   UNL A   1      44.542  24.265  27.200  1.00  0.00     0.049 A 
ATOM     28  C   UNL A   1      46.264  29.506  28.281  1.00  0.00     0.074 A 
ATOM     29  C   UNL A   1      45.524  23.362  26.832  1.00  0.00     0.029 A 
ATOM     30  N   UNL A   1      45.182  25.474  27.436  1.00  0.00    -0.354 N 
ATOM     31  N   UNL A   1      46.007  28.257  27.978  1.00  0.00    -0.248 NA
ATOM     32  C   UNL A   1      47.685  29.864  28.227  1.00  0.00     0.031 C 
ATOM     33  C   UNL A   1      46.762  24.012  26.890  1.00  0.00     0.029 A 
ATOM     34  C   UNL A   1      46.547  25.335  27.237  1.00  0.00     0.049 A 
ATOM     35  H   UNL A   1      44.732  26.307  27.706  1.00  0.00     0.167 HD
ATOM     36  C   UNL A   1      47.234  27.678  27.693  1.00  0.00     0.074 A 
ATOM     37  C   UNL A   1      48.226  28.727  27.817  1.00  0.00     0.031 C 
ATOM     38  C   UNL A   1      47.518  26.393  27.373  1.00  0.00     0.037 A 
BRANCH  25  39
ATOM     39  C   UNL A   1      42.586  22.672  27.042  1.00  0.00     0.057 A 
ATOM     40  C   UNL A   1      42.475  22.177  25.737  1.00  0.00     0.134 A 
ATOM     41  C   UNL A   1      42.233  21.811  28.090  1.00  0.00     0.134 A 
ATOM     42  F   UNL A   1      42.786  22.951  24.686  1.00  0.00    -0.206 F 
ATOM     43  C   UNL A   1      42.018  20.881  25.482  1.00  0.00     0.040 A 
ATOM     44  C   UNL A   1      41.800  20.506  27.850  1.00  0.00     0.040 A 
ATOM     45  F   UNL A   1      42.319  22.218  29.365  1.00  0.00    -0.206 F 
ATOM     46  C   UNL A   1      41.688  20.038  26.541  1.00  0.00     0.006 A 
ENDBRANCH  25  39
BRANCH  26  47
ATOM     47  C   UNL A   1      45.789  31.966  28.988  1.00  0.00     0.057 A 
ATOM     48  C   UNL A   1      45.918  32.945  27.997  1.00  0.00     0.134 A 
ATOM     49  C   UNL A   1      46.134  32.327  30.298  1.00  0.00     0.134 A 
ATOM     50  F   UNL A   1      45.616  32.661  26.722  1.00  0.00    -0.206 F 
ATOM     51  C   UNL A   1      46.400  34.222  28.292  1.00  0.00     0.040 A 
ATOM     52  C   UNL A   1      46.579  33.611  30.613  1.00  0.00     0.040 A 
ATOM     53  F   UNL A   1      46.021  31.440  31.298  1.00  0.00    -0.206 F 
ATOM     54  C   UNL A   1      46.726  34.558  29.604  1.00  0.00     0.006 A 
ENDBRANCH  26  47
BRANCH  38  55
ATOM     55  C   UNL A   1      48.960  26.074  27.112  1.00  0.00     0.057 A 
ATOM     56  C   UNL A   1      49.822  25.653  28.135  1.00  0.00     0.134 A 
ATOM     57  C   UNL A   1      49.497  26.203  25.826  1.00  0.00     0.134 A 
ATOM     58  F   UNL A   1      49.373  25.528  29.394  1.00  0.00    -0.206 F 
ATOM     59  C   UNL A   1      51.175  25.415  27.895  1.00  0.00     0.040 A 
ATOM     60  C   UNL A   1      50.841  25.933  25.567  1.00  0.00     0.040 A 
ATOM     61  F   UNL A   1      48.725  26.593  24.800  1.00  0.00    -0.206 F 
ATOM     62  C   UNL A   1      51.687  25.551  26.606  1.00  0.00     0.006 A 
ENDBRANCH  38  55
ENDBRANCH  12  13
ENDBRANCH   5   7
ENDBRANCH   2   3
ENDBRANCH   1   2
BRANCH   1  63
ATOM     63  C   UNL A   1      33.287  27.389  26.525  1.00  0.00     0.118 C 
BRANCH  63  64
ATOM     64  N   UNL A   1      31.968  26.781  26.675  1.00  0.00    -0.351 N 
ATOM     65  C   UNL A   1      31.122  26.331  25.671  1.00  0.00     0.283 C 
ATOM     66  H   UNL A   1      31.640  26.678  27.597  1.00  0.00     0.163 HD
ATOM     67  O   UNL A   1      29.975  26.000  25.976  1.00  0.00    -0.268 OA
BRANCH  65  68
ATOM     68  C   UNL A   1      31.697  26.247  24.253  1.00  0.00     0.308 C 
BRANCH  68  69
ATOM     69  N   UNL A   1      31.484  24.950  23.611  1.00  0.00    -0.312 N 
ATOM     70  C   UNL A   1      32.115  24.550  22.353  1.00  0.00     0.325 C 
ATOM     71  C   UNL A   1      31.478  23.873  24.577  1.00  0.00     0.325 C 
ATOM     72  H   UNL A   1      30.566  25.160  23.218  1.00  0.00     0.349 HD
ATOM     73  C   UNL A   1      33.166  23.377  22.393  1.00  0.00     0.325 C 
ATOM     74  C   UNL A   1      32.840  23.192  24.750  1.00  0.00     0.325 C 
ATOM     75  N   UNL A   1      33.180  22.462  23.550  1.00  0.00    -0.318 N 
ATOM     76  H   UNL A   1      34.149  22.142  23.571  1.00  0.00     0.348 HD
BRANCH  75  77
ATOM     77  C   UNL A   1      32.558  21.129  23.462  1.00  0.00     0.364 C 
BRANCH  77  78
ATOM     78  C   UNL A   1      32.410  20.254  24.727  1.00  0.00     0.277 C 
ATOM     79  O   UNL A   1      31.671  20.636  25.642  1.00  0.00    -0.268 OA
ATOM     80  N   UNL A   1      32.996  18.969  24.763  1.00  0.00    -0.333 N 
ATOM     81  C   UNL A   1      34.397  18.684  24.422  1.00  0.00     0.148 C 
ATOM     82  C   UNL A   1      32.456  18.034  25.751  1.00  0.00     0.148 C 
ATOM     83  C   UNL A   1      34.782  17.211  24.283  1.00  0.00     0.181 C 
ATOM     84  C   UNL A   1      32.834  16.587  25.419  1.00  0.00     0.181 C 
ATOM     85  O   UNL A   1      34.258  16.432  25.358  1.00  0.00    -0.378 OA
ENDBRANCH  77  78
ENDBRANCH  75  77
ENDBRANCH  68  69
BRANCH  68  86
ATOM     86  C   UNL A   1      31.595  27.445  23.346  1.00  0.00     0.044 A 
ATOM     87  C   UNL A   1      32.588  28.232  22.798  1.00  0.00     0.094 A 
ATOM     88  C   UNL A   1      30.336  28.086  23.007  1.00  0.00     0.009 A 
ATOM     89  N   UNL A   1      32.001  29.329  22.214  1.00  0.00    -0.361 N 
ATOM     90  C   UNL A   1      30.630  29.268  22.331  1.00  0.00     0.049 A 
ATOM     91  C   UNL A   1      28.976  27.797  23.289  1.00  0.00     0.014 A 
ATOM     92  H   UNL A   1      32.493  30.059  21.771  1.00  0.00     0.166 HD
ATOM     93  C   UNL A   1      29.631  30.166  21.926  1.00  0.00     0.065 A 
ATOM     94  C   UNL A   1      27.967  28.663  22.870  1.00  0.00     0.040 A 
ATOM     95  C   UNL A   1      28.304  29.829  22.203  1.00  0.00     0.125 A 
ATOM     96  F   UNL A   1      27.323  30.661  21.827  1.00  0.00    -0.207 F 
ENDBRANCH  68  86
ENDBRANCH  65  68
ENDBRANCH  63  64
ENDBRANCH   1  63
TORSDOF 14
ENDMDL
MODEL 2
REMARK VINA RESULT:     -13.4      3.883      7.593
REMARK SMILES O=C(NCCCNC(=O)[C@H](c1c[nH]c2cc(F)ccc12)[NH+]1CC[NH+](CC(=O)N2CCOCC2)CC1)c1ccc(-c2c3nc(c(-c4c(F)cccc4F)c4ccc([nH]4)c(-c4c(F)cccc4F)c4nc(c(-c5c(F)cccc5F)c5ccc2[nH]5)C=C4)C=C3)cc1
REMARK SMILES IDX 5 1 4 2 3 3 1 4 2 5 36 7 37 8 89 9 38 10 88 11 39 12 40 13
REMARK SMILES IDX 41 14 82 15 42 16 87 17 81 18 83 19 43 20 86 21 80 22 79 23
REMARK SMILES IDX 44 25 70 26 53 27 69 28 54 29 57 30 68 31 84 32 55 33 56 34
REMARK SMILES IDX 67 36 85 37 58 38 45 39 46 40 51 41 47 42 48 43 50 44 52 45
REMARK SMILES IDX 49 46 71 47 72 48 77 49 73 50 74 51 76 52 78 53 75 54 59 55
REMARK SMILES IDX 60 56 65 57 61 58 62 59 64 60 66 61 63 62 6 63 7 64 8 65
REMARK SMILES IDX 9 67 10 68 21 69 22 70 35 71 23 73 34 74 24 75 25 77 26 78
REMARK SMILES IDX 27 79 28 80 29 81 33 82 30 83 32 84 31 85 11 86 12 87 20 88
REMARK SMILES IDX 13 89 14 90 19 91 15 93 18 94 16 95 17 96
REMARK H PARENT 3 6 83 24 57 35 7 66 21 72 24 76 13 92
REMARK Flexibility Score: inf
ROOT
ATOM      1  C   UNL A   1      33.278  30.378  26.271  1.00  0.00     0.042 C 
ENDROOT
BRANCH   1   2
ATOM      2  C   UNL A   1      32.258  30.880  27.268  1.00  0.00     0.118 C 
BRANCH   2   3
ATOM      3  N   UNL A   1      32.104  32.323  27.169  1.00  0.00    -0.352 N 
ATOM      4  O   UNL A   1      32.374  34.454  27.847  1.00  0.00    -0.269 OA
ATOM      5  C   UNL A   1      32.829  33.321  27.779  1.00  0.00     0.251 C 
ATOM      6  H   UNL A   1      31.376  32.630  26.581  1.00  0.00     0.163 HD
BRANCH   5   7
ATOM      7  C   UNL A   1      34.157  33.010  28.352  1.00  0.00     0.039 A 
ATOM      8  C   UNL A   1      34.263  32.092  29.393  1.00  0.00     0.014 A 
ATOM      9  C   UNL A   1      35.311  33.605  27.832  1.00  0.00     0.014 A 
ATOM     10  C   UNL A   1      35.464  31.931  30.053  1.00  0.00     0.010 A 
ATOM     11  C   UNL A   1      36.560  33.290  28.381  1.00  0.00     0.010 A 
ATOM     12  C   UNL A   1      36.643  32.456  29.505  1.00  0.00    -0.014 A 
BRANCH  12  13
ATOM     13  C   UNL A   1      37.927  31.972  30.071  1.00  0.00     0.031 A 
ATOM     14  C   UNL A   1      38.539  32.586  31.293  1.00  0.00     0.074 A 
ATOM     15  C   UNL A   1      38.492  30.892  29.488  1.00  0.00     0.049 A 
ATOM     16  N   UNL A   1      39.625  32.227  31.930  1.00  0.00    -0.248 NA
ATOM     17  C   UNL A   1      37.863  33.756  31.872  1.00  0.00     0.031 C 
ATOM     18  C   UNL A   1      37.987  30.230  28.277  1.00  0.00     0.029 A 
ATOM     19  N   UNL A   1      39.566  30.126  29.851  1.00  0.00    -0.354 N 
ATOM     20  C   UNL A   1      39.772  33.130  32.973  1.00  0.00     0.074 A 
ATOM     21  C   UNL A   1      38.682  34.077  32.866  1.00  0.00     0.031 C 
ATOM     22  C   UNL A   1      38.687  29.112  28.057  1.00  0.00     0.029 A 
ATOM     23  C   UNL A   1      39.760  29.036  29.035  1.00  0.00     0.049 A 
ATOM     24  H   UNL A   1      40.146  30.336  30.619  1.00  0.00     0.167 HD
ATOM     25  C   UNL A   1      40.729  33.155  33.931  1.00  0.00     0.037 A 
ATOM     26  C   UNL A   1      40.715  28.091  29.049  1.00  0.00     0.037 A 
ATOM     27  C   UNL A   1      41.806  32.201  34.023  1.00  0.00     0.049 A 
ATOM     28  C   UNL A   1      41.770  28.166  30.109  1.00  0.00     0.074 A 
ATOM     29  C   UNL A   1      42.827  32.139  34.955  1.00  0.00     0.029 A 
ATOM     30  N   UNL A   1      41.999  31.137  33.153  1.00  0.00    -0.354 N 
ATOM     31  N   UNL A   1      41.892  29.025  31.092  1.00  0.00    -0.248 NA
ATOM     32  C   UNL A   1      42.825  27.148  30.059  1.00  0.00     0.031 C 
ATOM     33  C   UNL A   1      43.663  31.068  34.622  1.00  0.00     0.029 A 
ATOM     34  C   UNL A   1      43.131  30.424  33.517  1.00  0.00     0.049 A 
ATOM     35  H   UNL A   1      41.417  30.920  32.388  1.00  0.00     0.167 HD
ATOM     36  C   UNL A   1      43.035  28.651  31.781  1.00  0.00     0.074 A 
ATOM     37  C   UNL A   1      43.542  27.460  31.128  1.00  0.00     0.031 C 
ATOM     38  C   UNL A   1      43.621  29.245  32.848  1.00  0.00     0.037 A 
BRANCH  25  39
ATOM     39  C   UNL A   1      40.666  34.257  34.952  1.00  0.00     0.057 A 
ATOM     40  C   UNL A   1      41.217  35.522  34.709  1.00  0.00     0.134 A 
ATOM     41  C   UNL A   1      39.994  34.069  36.166  1.00  0.00     0.134 A 
ATOM     42  F   UNL A   1      41.883  35.768  33.571  1.00  0.00    -0.206 F 
ATOM     43  C   UNL A   1      41.114  36.555  35.644  1.00  0.00     0.040 A 
ATOM     44  C   UNL A   1      39.863  35.101  37.097  1.00  0.00     0.040 A 
ATOM     45  F   UNL A   1      39.439  32.885  36.462  1.00  0.00    -0.206 F 
ATOM     46  C   UNL A   1      40.427  36.349  36.838  1.00  0.00     0.006 A 
ENDBRANCH  25  39
BRANCH  26  47
ATOM     47  C   UNL A   1      40.741  27.040  27.999  1.00  0.00     0.057 A 
ATOM     48  C   UNL A   1      40.021  25.848  28.137  1.00  0.00     0.134 A 
ATOM     49  C   UNL A   1      41.498  27.202  26.831  1.00  0.00     0.134 A 
ATOM     50  F   UNL A   1      39.286  25.626  29.236  1.00  0.00    -0.206 F 
ATOM     51  C   UNL A   1      40.075  24.846  27.167  1.00  0.00     0.040 A 
ATOM     52  C   UNL A   1      41.531  26.225  25.836  1.00  0.00     0.040 A 
ATOM     53  F   UNL A   1      42.203  28.325  26.629  1.00  0.00    -0.206 F 
ATOM     54  C   UNL A   1      40.828  25.037  26.009  1.00  0.00     0.006 A 
ENDBRANCH  26  47
BRANCH  38  55
ATOM     55  C   UNL A   1      44.861  28.588  33.378  1.00  0.00     0.057 A 
ATOM     56  C   UNL A   1      44.807  27.583  34.353  1.00  0.00     0.134 A 
ATOM     57  C   UNL A   1      46.125  28.977  32.918  1.00  0.00     0.134 A 
ATOM     58  F   UNL A   1      43.626  27.179  34.849  1.00  0.00    -0.206 F 
ATOM     59  C   UNL A   1      45.968  27.019  34.883  1.00  0.00     0.040 A 
ATOM     60  C   UNL A   1      47.292  28.395  33.415  1.00  0.00     0.040 A 
ATOM     61  F   UNL A   1      46.247  29.927  31.980  1.00  0.00    -0.206 F 
ATOM     62  C   UNL A   1      47.215  27.422  34.410  1.00  0.00     0.006 A 
ENDBRANCH  38  55
ENDBRANCH  12  13
ENDBRANCH   5   7
ENDBRANCH   2   3
ENDBRANCH   1   2
BRANCH   1  63
ATOM     63  C   UNL A   1      33.852  29.031  26.691  1.00  0.00     0.118 C 
BRANCH  63  64
ATOM     64  N   UNL A   1      32.801  28.170  27.225  1.00  0.00    -0.351 N 
ATOM     65  C   UNL A   1      32.117  27.157  26.568  1.00  0.00     0.283 C 
ATOM     66  H   UNL A   1      32.547  28.326  28.164  1.00  0.00     0.163 HD
ATOM     67  O   UNL A   1      31.144  26.648  27.126  1.00  0.00    -0.268 OA
BRANCH  65  68
ATOM     68  C   UNL A   1      32.651  26.724  25.199  1.00  0.00     0.308 C 
BRANCH  68  69
ATOM     69  N   UNL A   1      32.568  25.282  24.968  1.00  0.00    -0.312 N 
ATOM     70  C   UNL A   1      32.619  24.664  23.642  1.00  0.00     0.325 C 
ATOM     71  C   UNL A   1      33.348  24.543  25.936  1.00  0.00     0.325 C 
ATOM     72  H   UNL A   1      31.559  25.197  25.096  1.00  0.00     0.349 HD
ATOM     73  C   UNL A   1      33.865  23.767  23.291  1.00  0.00     0.325 C 
ATOM     74  C   UNL A   1      34.764  24.203  25.459  1.00  0.00     0.325 C 
ATOM     75  N   UNL A   1      34.702  23.238  24.385  1.00  0.00    -0.318 N 
ATOM     76  H   UNL A   1      35.611  23.122  23.935  1.00  0.00     0.348 HD
BRANCH  75  77
ATOM     77  C   UNL A   1      34.554  21.844  24.839  1.00  0.00     0.364 C 
BRANCH  77  78
ATOM     78  C   UNL A   1      33.264  21.055  24.522  1.00  0.00     0.277 C 
ATOM     79  O   UNL A   1      32.170  21.624  24.613  1.00  0.00    -0.268 OA
ATOM     80  N   UNL A   1      33.353  19.748  23.993  1.00  0.00    -0.333 N 
ATOM     81  C   UNL A   1      34.172  18.671  24.570  1.00  0.00     0.148 C 
ATOM     82  C   UNL A   1      32.168  19.243  23.300  1.00  0.00     0.148 C 
ATOM     83  C   UNL A   1      34.334  17.408  23.726  1.00  0.00     0.181 C 
ATOM     84  C   UNL A   1      32.508  18.044  22.409  1.00  0.00     0.181 C 
ATOM     85  O   UNL A   1      33.085  16.982  23.181  1.00  0.00    -0.378 OA
ENDBRANCH  77  78
ENDBRANCH  75  77
ENDBRANCH  68  69
BRANCH  68  86
ATOM     86  C   UNL A   1      32.381  27.589  23.996  1.00  0.00     0.044 A 
ATOM     87  C   UNL A   1      33.256  28.305  23.201  1.00  0.00     0.094 A 
ATOM     88  C   UNL A   1      31.045  27.945  23.550  1.00  0.00     0.009 A 
ATOM     89  N   UNL A   1      32.522  29.106  22.360  1.00  0.00    -0.361 N 
ATOM     90  C   UNL A   1      31.173  28.911  22.555  1.00  0.00     0.049 A 
ATOM     91  C   UNL A   1      29.739  27.581  23.967  1.00  0.00     0.014 A 
ATOM     92  H   UNL A   1      32.908  29.735  21.707  1.00  0.00     0.166 HD
ATOM     93  C   UNL A   1      30.059  29.525  21.961  1.00  0.00     0.065 A 
ATOM     94  C   UNL A   1      28.620  28.159  23.368  1.00  0.00     0.040 A 
ATOM     95  C   UNL A   1      28.791  29.118  22.384  1.00  0.00     0.125 A 
ATOM     96  F   UNL A   1      27.705  29.679  21.836  1.00  0.00    -0.207 F 
ENDBRANCH  68  86
ENDBRANCH  65  68
ENDBRANCH  63  64
ENDBRANCH   1  63
TORSDOF 14
ENDMDL
MODEL 3
REMARK VINA RESULT:     -13.4      5.363     10.480
REMARK SMILES O=C(NCCCNC(=O)[C@H](c1c[nH]c2cc(F)ccc12)[NH+]1CC[NH+](CC(=O)N2CCOCC2)CC1)c1ccc(-c2c3nc(c(-c4c(F)cccc4F)c4ccc([nH]4)c(-c4c(F)cccc4F)c4nc(c(-c5c(F)cccc5F)c5ccc2[nH]5)C=C4)C=C3)cc1
REMARK SMILES IDX 5 1 4 2 3 3 1 4 2 5 36 7 37 8 89 9 38 10 88 11 39 12 40 13
REMARK SMILES IDX 41 14 82 15 42 16 87 17 81 18 83 19 43 20 86 21 80 22 79 23
REMARK SMILES IDX 44 25 70 26 53 27 69 28 54 29 57 30 68 31 84 32 55 33 56 34
REMARK SMILES IDX 67 36 85 37 58 38 45 39 46 40 51 41 47 42 48 43 50 44 52 45
REMARK SMILES IDX 49 46 71 47 72 48 77 49 73 50 74 51 76 52 78 53 75 54 59 55
REMARK SMILES IDX 60 56 65 57 61 58 62 59 64 60 66 61 63 62 6 63 7 64 8 65
REMARK SMILES IDX 9 67 10 68 21 69 22 70 35 71 23 73 34 74 24 75 25 77 26 78
REMARK SMILES IDX 27 79 28 80 29 81 33 82 30 83 32 84 31 85 11 86 12 87 20 88
REMARK SMILES IDX 13 89 14 90 19 91 15 93 18 94 16 95 17 96
REMARK H PARENT 3 6 83 24 57 35 7 66 21 72 24 76 13 92
REMARK Flexibility Score: inf
ROOT
ATOM      1  C   UNL A   1      38.972  22.582  26.477  1.00  0.00     0.042 C 
ENDROOT
BRANCH   1   2
ATOM      2  C   UNL A   1      40.125  23.301  27.141  1.00  0.00     0.118 C 
BRANCH   2   3
ATOM      3  N   UNL A   1      40.957  23.970  26.153  1.00  0.00    -0.352 N 
ATOM      4  O   UNL A   1      41.708  25.743  24.985  1.00  0.00    -0.269 OA
ATOM      5  C   UNL A   1      41.271  25.305  26.040  1.00  0.00     0.251 C 
ATOM      6  H   UNL A   1      41.351  23.384  25.467  1.00  0.00     0.163 HD
BRANCH   5   7
ATOM      7  C   UNL A   1      41.074  26.200  27.201  1.00  0.00     0.039 A 
ATOM      8  C   UNL A   1      41.891  27.316  27.360  1.00  0.00     0.014 A 
ATOM      9  C   UNL A   1      40.051  25.953  28.121  1.00  0.00     0.014 A 
ATOM     10  C   UNL A   1      41.836  28.052  28.526  1.00  0.00     0.010 A 
ATOM     11  C   UNL A   1      39.873  26.818  29.208  1.00  0.00     0.010 A 
ATOM     12  C   UNL A   1      40.774  27.870  29.423  1.00  0.00    -0.014 A 
BRANCH  12  13
ATOM     13  C   UNL A   1      40.589  28.904  30.472  1.00  0.00     0.031 A 
ATOM     14  C   UNL A   1      39.506  29.936  30.388  1.00  0.00     0.074 A 
ATOM     15  C   UNL A   1      41.389  28.834  31.558  1.00  0.00     0.049 A 
ATOM     16  N   UNL A   1      39.193  30.862  31.259  1.00  0.00    -0.248 NA
ATOM     17  C   UNL A   1      38.674  29.947  29.175  1.00  0.00     0.031 C 
ATOM     18  C   UNL A   1      42.493  27.879  31.729  1.00  0.00     0.029 A 
ATOM     19  N   UNL A   1      41.374  29.525  32.739  1.00  0.00    -0.354 N 
ATOM     20  C   UNL A   1      38.141  31.573  30.698  1.00  0.00     0.074 A 
ATOM     21  C   UNL A   1      37.889  30.993  29.395  1.00  0.00     0.031 C 
ATOM     22  C   UNL A   1      42.979  27.979  32.971  1.00  0.00     0.029 A 
ATOM     23  C   UNL A   1      42.307  29.078  33.645  1.00  0.00     0.049 A 
ATOM     24  H   UNL A   1      40.757  30.271  32.922  1.00  0.00     0.167 HD
ATOM     25  C   UNL A   1      37.450  32.610  31.231  1.00  0.00     0.037 A 
ATOM     26  C   UNL A   1      42.615  29.522  34.875  1.00  0.00     0.037 A 
ATOM     27  C   UNL A   1      37.714  33.171  32.533  1.00  0.00     0.049 A 
ATOM     28  C   UNL A   1      41.847  30.686  35.421  1.00  0.00     0.074 A 
ATOM     29  C   UNL A   1      37.073  34.222  33.165  1.00  0.00     0.029 A 
ATOM     30  N   UNL A   1      38.698  32.725  33.405  1.00  0.00    -0.354 N 
ATOM     31  N   UNL A   1      40.851  31.343  34.879  1.00  0.00    -0.248 NA
ATOM     32  C   UNL A   1      42.249  31.174  36.745  1.00  0.00     0.031 C 
ATOM     33  C   UNL A   1      37.698  34.441  34.397  1.00  0.00     0.029 A 
ATOM     34  C   UNL A   1      38.691  33.490  34.561  1.00  0.00     0.049 A 
ATOM     35  H   UNL A   1      39.311  31.975  33.227  1.00  0.00     0.167 HD
ATOM     36  C   UNL A   1      40.503  32.323  35.796  1.00  0.00     0.074 A 
ATOM     37  C   UNL A   1      41.366  32.141  36.946  1.00  0.00     0.031 C 
ATOM     38  C   UNL A   1      39.565  33.295  35.691  1.00  0.00     0.037 A 
BRANCH  25  39
ATOM     39  C   UNL A   1      36.351  33.215  30.405  1.00  0.00     0.057 A 
ATOM     40  C   UNL A   1      36.619  34.091  29.345  1.00  0.00     0.134 A 
ATOM     41  C   UNL A   1      35.013  32.870  30.633  1.00  0.00     0.134 A 
ATOM     42  F   UNL A   1      37.878  34.472  29.078  1.00  0.00    -0.206 F 
ATOM     43  C   UNL A   1      35.594  34.614  28.552  1.00  0.00     0.040 A 
ATOM     44  C   UNL A   1      33.982  33.365  29.831  1.00  0.00     0.040 A 
ATOM     45  F   UNL A   1      34.684  32.032  31.627  1.00  0.00    -0.206 F 
ATOM     46  C   UNL A   1      34.272  34.244  28.788  1.00  0.00     0.006 A 
ENDBRANCH  25  39
BRANCH  26  47
ATOM     47  C   UNL A   1      43.730  28.900  35.636  1.00  0.00     0.057 A 
ATOM     48  C   UNL A   1      43.506  27.859  36.544  1.00  0.00     0.134 A 
ATOM     49  C   UNL A   1      45.051  29.341  35.476  1.00  0.00     0.134 A 
ATOM     50  F   UNL A   1      42.264  27.400  36.752  1.00  0.00    -0.206 F 
ATOM     51  C   UNL A   1      44.549  27.301  37.285  1.00  0.00     0.040 A 
ATOM     52  C   UNL A   1      46.107  28.766  36.182  1.00  0.00     0.040 A 
ATOM     53  F   UNL A   1      45.337  30.327  34.613  1.00  0.00    -0.206 F 
ATOM     54  C   UNL A   1      45.855  27.751  37.100  1.00  0.00     0.006 A 
ENDBRANCH  26  47
BRANCH  38  55
ATOM     55  C   UNL A   1      39.419  34.210  36.870  1.00  0.00     0.057 A 
ATOM     56  C   UNL A   1      40.024  35.475  36.905  1.00  0.00     0.134 A 
ATOM     57  C   UNL A   1      38.679  33.816  37.991  1.00  0.00     0.134 A 
ATOM     58  F   UNL A   1      40.762  35.904  35.869  1.00  0.00    -0.206 F 
ATOM     59  C   UNL A   1      39.931  36.296  38.029  1.00  0.00     0.040 A 
ATOM     60  C   UNL A   1      38.551  34.643  39.107  1.00  0.00     0.040 A 
ATOM     61  F   UNL A   1      38.069  32.622  38.020  1.00  0.00    -0.206 F 
ATOM     62  C   UNL A   1      39.189  35.881  39.133  1.00  0.00     0.006 A 
ENDBRANCH  38  55
ENDBRANCH  12  13
ENDBRANCH   5   7
ENDBRANCH   2   3
ENDBRANCH   1   2
BRANCH   1  63
ATOM     63  C   UNL A   1      37.869  23.551  26.073  1.00  0.00     0.118 C 
BRANCH  63  64
ATOM     64  N   UNL A   1      37.573  23.425  24.648  1.00  0.00    -0.351 N 
ATOM     65  C   UNL A   1      36.326  23.389  24.041  1.00  0.00     0.283 C 
ATOM     66  H   UNL A   1      38.350  23.359  24.048  1.00  0.00     0.163 HD
ATOM     67  O   UNL A   1      36.266  23.108  22.843  1.00  0.00    -0.268 OA
BRANCH  65  68
ATOM     68  C   UNL A   1      35.112  23.736  24.909  1.00  0.00     0.308 C 
BRANCH  68  69
ATOM     69  N   UNL A   1      34.226  24.731  24.304  1.00  0.00    -0.312 N 
ATOM     70  C   UNL A   1      33.270  24.430  23.238  1.00  0.00     0.325 C 
ATOM     71  C   UNL A   1      33.661  25.615  25.299  1.00  0.00     0.325 C 
ATOM     72  H   UNL A   1      34.929  25.172  23.708  1.00  0.00     0.349 HD
ATOM     73  C   UNL A   1      31.734  24.541  23.568  1.00  0.00     0.325 C 
ATOM     74  C   UNL A   1      32.281  25.177  25.802  1.00  0.00     0.325 C 
ATOM     75  N   UNL A   1      31.306  25.320  24.746  1.00  0.00    -0.318 N 
ATOM     76  H   UNL A   1      30.420  24.879  24.995  1.00  0.00     0.348 HD
BRANCH  75  77
ATOM     77  C   UNL A   1      30.782  26.689  24.593  1.00  0.00     0.364 C 
BRANCH  77  78
ATOM     78  C   UNL A   1      29.425  26.931  23.897  1.00  0.00     0.277 C 
ATOM     79  O   UNL A   1      28.520  26.099  24.033  1.00  0.00    -0.268 OA
ATOM     80  N   UNL A   1      29.182  28.158  23.240  1.00  0.00    -0.333 N 
ATOM     81  C   UNL A   1      30.085  28.764  22.250  1.00  0.00     0.148 C 
ATOM     82  C   UNL A   1      27.780  28.508  23.011  1.00  0.00     0.148 C 
ATOM     83  C   UNL A   1      29.777  30.201  21.833  1.00  0.00     0.181 C 
ATOM     84  C   UNL A   1      27.618  30.002  22.712  1.00  0.00     0.181 C 
ATOM     85  O   UNL A   1      28.387  30.379  21.562  1.00  0.00    -0.378 OA
ENDBRANCH  77  78
ENDBRANCH  75  77
ENDBRANCH  68  69
BRANCH  68  86
ATOM     86  C   UNL A   1      34.425  22.643  25.684  1.00  0.00     0.044 A 
ATOM     87  C   UNL A   1      34.430  22.376  27.039  1.00  0.00     0.094 A 
ATOM     88  C   UNL A   1      33.722  21.537  25.057  1.00  0.00     0.009 A 
ATOM     89  N   UNL A   1      33.834  21.155  27.244  1.00  0.00    -0.361 N 
ATOM     90  C   UNL A   1      33.397  20.619  26.053  1.00  0.00     0.049 A 
ATOM     91  C   UNL A   1      33.406  21.206  23.713  1.00  0.00     0.014 A 
ATOM     92  H   UNL A   1      33.732  20.722  28.123  1.00  0.00     0.166 HD
ATOM     93  C   UNL A   1      32.774  19.395  25.768  1.00  0.00     0.065 A 
ATOM     94  C   UNL A   1      32.760  20.007  23.414  1.00  0.00     0.040 A 
ATOM     95  C   UNL A   1      32.459  19.122  24.435  1.00  0.00     0.125 A 
ATOM     96  F   UNL A   1      31.859  17.964  24.126  1.00  0.00    -0.207 F 
ENDBRANCH  68  86
ENDBRANCH  65  68
ENDBRANCH  63  64
ENDBRANCH   1  63
TORSDOF 14
ENDMDL
