MODEL 1
REMARK VINA RESULT:     -13.3      0.000      0.000
REMARK SMILES O=C1O[C@@H](c2ccc(O)c(O)c2)[C@H](C(=O)NCCCNC(=O)c2ccc(-c3c4nc(c(-c5c(F)cccc5F)c5ccc([nH]5)c(-c5c(F)cccc5F)c5nc(c(-c6c(F)cccc6F)c6ccc3[nH]6)C=C5)C=C4)cc2)/C1=C\c1ccc(O)c(O)c1
REMARK SMILES IDX 18 1 17 2 16 3 14 4 15 5 13 7 1 8 2 9 3 10 77 11 4 12 78 13
REMARK SMILES IDX 5 14 6 15 12 16 7 17 10 18 8 19 11 20 9 22 79 24 80 25 86 26
REMARK SMILES IDX 81 27 84 28 82 29 85 30 83 32 19 34 20 35 21 36 22 38 23 39
REMARK SMILES IDX 24 40 76 41 25 42 75 43 26 44 27 45 28 46 69 47 29 48 74 49
REMARK SMILES IDX 68 50 70 51 30 52 73 53 67 54 66 55 31 57 57 58 40 59 56 60
REMARK SMILES IDX 41 61 44 62 55 63 71 64 42 65 43 66 54 68 72 69 45 70 32 71
REMARK SMILES IDX 33 72 38 73 34 74 35 75 37 76 39 77 36 78 58 79 59 80 64 81
REMARK SMILES IDX 60 82 61 83 63 84 65 85 62 86 46 87 47 88 52 89 48 90 49 91
REMARK SMILES IDX 51 92 53 93 50 94
REMARK H PARENT 16 6 11 21 9 23 85 31 83 33 20 37 70 56 44 67
REMARK Flexibility Score: inf
ROOT
ATOM      1  C   UNL A   1      37.831  20.070  24.931  1.00  0.00     0.042 C 
ENDROOT
BRANCH   1   2
ATOM      2  C   UNL A   1      37.345  21.282  24.158  1.00  0.00     0.117 C 
BRANCH   2   3
ATOM      3  N   UNL A   1      37.112  22.450  24.987  1.00  0.00    -0.355 N 
ATOM      4  C   UNL A   1      35.989  22.924  25.603  1.00  0.00     0.231 C 
ATOM      5  O   UNL A   1      36.158  23.875  26.370  1.00  0.00    -0.274 OA
ATOM      6  H   UNL A   1      37.913  23.004  25.132  1.00  0.00     0.163 HD
BRANCH   4   7
ATOM      7  C   UNL A   1      34.598  22.379  25.263  1.00  0.00     0.161 C 
ATOM      8  O   UNL A   1      32.528  22.581  28.172  1.00  0.00    -0.247 OA
ATOM      9  C   UNL A   1      33.187  22.247  27.203  1.00  0.00     0.335 C 
ATOM     10  O   UNL A   1      33.709  21.016  27.001  1.00  0.00    -0.453 OA
ATOM     11  C   UNL A   1      33.537  23.083  26.043  1.00  0.00     0.054 C 
ATOM     12  C   UNL A   1      34.377  20.943  25.730  1.00  0.00     0.224 C 
ATOM     13  C   UNL A   1      32.885  24.237  25.843  1.00  0.00     0.020 C 
BRANCH  12  14
ATOM     14  C   UNL A   1      33.617  20.065  24.732  1.00  0.00    -0.002 A 
ATOM     15  C   UNL A   1      32.748  20.631  23.770  1.00  0.00     0.012 A 
ATOM     16  C   UNL A   1      33.827  18.679  24.686  1.00  0.00     0.057 A 
ATOM     17  C   UNL A   1      32.114  19.850  22.798  1.00  0.00     0.050 A 
ATOM     18  C   UNL A   1      33.183  17.907  23.726  1.00  0.00     0.157 A 
ATOM     19  C   UNL A   1      32.338  18.483  22.784  1.00  0.00     0.157 A 
BRANCH  18  20
ATOM     20  O   UNL A   1      33.396  16.558  23.708  1.00  0.00    -0.504 OA
ATOM     21  H   UNL A   1      33.454  16.104  22.891  1.00  0.00     0.293 HD
ENDBRANCH  18  20
BRANCH  19  22
ATOM     22  O   UNL A   1      31.756  17.666  21.858  1.00  0.00    -0.504 OA
ATOM     23  H   UNL A   1      32.140  17.571  21.008  1.00  0.00     0.293 HD
ENDBRANCH  19  22
ENDBRANCH  12  14
BRANCH  13  24
ATOM     24  C   UNL A   1      33.115  25.143  24.719  1.00  0.00    -0.021 A 
ATOM     25  C   UNL A   1      33.525  26.469  24.929  1.00  0.00     0.012 A 
ATOM     26  C   UNL A   1      32.975  24.658  23.415  1.00  0.00     0.058 A 
ATOM     27  C   UNL A   1      33.766  27.318  23.844  1.00  0.00     0.051 A 
ATOM     28  C   UNL A   1      33.224  25.504  22.344  1.00  0.00     0.157 A 
ATOM     29  C   UNL A   1      33.611  26.825  22.554  1.00  0.00     0.157 A 
BRANCH  28  30
ATOM     30  O   UNL A   1      33.092  25.026  21.072  1.00  0.00    -0.504 OA
ATOM     31  H   UNL A   1      33.035  24.102  20.923  1.00  0.00     0.293 HD
ENDBRANCH  28  30
BRANCH  29  32
ATOM     32  O   UNL A   1      33.834  27.604  21.452  1.00  0.00    -0.504 OA
ATOM     33  H   UNL A   1      34.697  27.672  21.093  1.00  0.00     0.293 HD
ENDBRANCH  29  32
ENDBRANCH  13  24
ENDBRANCH   4   7
ENDBRANCH   2   3
ENDBRANCH   1   2
BRANCH   1  34
ATOM     34  C   UNL A   1      38.931  20.381  25.935  1.00  0.00     0.118 C 
BRANCH  34  35
ATOM     35  N   UNL A   1      40.029  19.424  25.880  1.00  0.00    -0.352 N 
ATOM     36  C   UNL A   1      41.379  19.596  26.062  1.00  0.00     0.251 C 
ATOM     37  H   UNL A   1      39.758  18.500  25.678  1.00  0.00     0.163 HD
ATOM     38  O   UNL A   1      42.150  18.690  25.765  1.00  0.00    -0.269 OA
BRANCH  36  39
ATOM     39  C   UNL A   1      41.910  20.871  26.589  1.00  0.00     0.039 A 
ATOM     40  C   UNL A   1      42.314  21.860  25.689  1.00  0.00     0.014 A 
ATOM     41  C   UNL A   1      42.026  21.090  27.964  1.00  0.00     0.014 A 
ATOM     42  C   UNL A   1      42.754  23.096  26.169  1.00  0.00     0.010 A 
ATOM     43  C   UNL A   1      42.364  22.352  28.438  1.00  0.00     0.010 A 
ATOM     44  C   UNL A   1      42.735  23.369  27.547  1.00  0.00    -0.014 A 
BRANCH  44  45
ATOM     45  C   UNL A   1      43.089  24.711  28.074  1.00  0.00     0.031 A 
ATOM     46  C   UNL A   1      42.013  25.733  28.325  1.00  0.00     0.074 A 
ATOM     47  C   UNL A   1      44.385  25.035  28.248  1.00  0.00     0.049 A 
ATOM     48  N   UNL A   1      42.133  26.980  28.704  1.00  0.00    -0.248 NA
ATOM     49  C   UNL A   1      40.623  25.311  28.092  1.00  0.00     0.031 C 
ATOM     50  C   UNL A   1      45.523  24.150  27.982  1.00  0.00     0.029 A 
ATOM     51  N   UNL A   1      44.969  26.201  28.676  1.00  0.00    -0.354 N 
ATOM     52  C   UNL A   1      40.843  27.493  28.734  1.00  0.00     0.074 A 
ATOM     53  C   UNL A   1      39.958  26.440  28.287  1.00  0.00     0.031 C 
ATOM     54  C   UNL A   1      46.662  24.798  28.271  1.00  0.00     0.029 A 
ATOM     55  C   UNL A   1      46.343  26.156  28.697  1.00  0.00     0.049 A 
ATOM     56  H   UNL A   1      44.452  26.995  28.942  1.00  0.00     0.167 HD
ATOM     57  C   UNL A   1      40.432  28.725  29.117  1.00  0.00     0.037 A 
ATOM     58  C   UNL A   1      47.244  27.107  29.007  1.00  0.00     0.037 A 
ATOM     59  C   UNL A   1      41.314  29.757  29.592  1.00  0.00     0.049 A 
ATOM     60  C   UNL A   1      46.757  28.464  29.435  1.00  0.00     0.074 A 
ATOM     61  C   UNL A   1      40.984  31.007  30.087  1.00  0.00     0.029 A 
ATOM     62  N   UNL A   1      42.697  29.664  29.627  1.00  0.00    -0.354 N 
ATOM     63  N   UNL A   1      45.527  28.904  29.544  1.00  0.00    -0.248 NA
ATOM     64  C   UNL A   1      47.782  29.456  29.788  1.00  0.00     0.031 C 
ATOM     65  C   UNL A   1      42.171  31.694  30.361  1.00  0.00     0.029 A 
ATOM     66  C   UNL A   1      43.236  30.849  30.098  1.00  0.00     0.049 A 
ATOM     67  H   UNL A   1      43.217  28.873  29.355  1.00  0.00     0.167 HD
ATOM     68  C   UNL A   1      45.630  30.210  30.005  1.00  0.00     0.074 A 
ATOM     69  C   UNL A   1      47.041  30.485  30.172  1.00  0.00     0.031 C 
ATOM     70  C   UNL A   1      44.645  31.105  30.264  1.00  0.00     0.037 A 
BRANCH  57  71
ATOM     71  C   UNL A   1      38.964  29.031  29.039  1.00  0.00     0.057 A 
ATOM     72  C   UNL A   1      38.124  28.939  30.156  1.00  0.00     0.134 A 
ATOM     73  C   UNL A   1      38.396  29.488  27.841  1.00  0.00     0.134 A 
ATOM     74  F   UNL A   1      38.601  28.499  31.330  1.00  0.00    -0.206 F 
ATOM     75  C   UNL A   1      36.771  29.274  30.083  1.00  0.00     0.040 A 
ATOM     76  C   UNL A   1      37.051  29.853  27.763  1.00  0.00     0.040 A 
ATOM     77  F   UNL A   1      39.144  29.605  26.734  1.00  0.00    -0.206 F 
ATOM     78  C   UNL A   1      36.233  29.742  28.885  1.00  0.00     0.006 A 
ENDBRANCH  57  71
BRANCH  58  79
ATOM     79  C   UNL A   1      48.698  26.815  28.924  1.00  0.00     0.057 A 
ATOM     80  C   UNL A   1      49.416  27.021  27.740  1.00  0.00     0.134 A 
ATOM     81  C   UNL A   1      49.402  26.296  30.019  1.00  0.00     0.134 A 
ATOM     82  F   UNL A   1      48.797  27.501  26.652  1.00  0.00    -0.206 F 
ATOM     83  C   UNL A   1      50.769  26.694  27.637  1.00  0.00     0.040 A 
ATOM     84  C   UNL A   1      50.762  25.993  29.938  1.00  0.00     0.040 A 
ATOM     85  F   UNL A   1      48.779  26.085  31.188  1.00  0.00    -0.206 F 
ATOM     86  C   UNL A   1      51.447  26.180  28.741  1.00  0.00     0.006 A 
ENDBRANCH  58  79
BRANCH  70  87
ATOM     87  C   UNL A   1      45.055  32.451  30.788  1.00  0.00     0.057 A 
ATOM     88  C   UNL A   1      45.281  33.540  29.938  1.00  0.00     0.134 A 
ATOM     89  C   UNL A   1      45.184  32.668  32.166  1.00  0.00     0.134 A 
ATOM     90  F   UNL A   1      45.185  33.395  28.607  1.00  0.00    -0.206 F 
ATOM     91  C   UNL A   1      45.645  34.792  30.438  1.00  0.00     0.040 A 
ATOM     92  C   UNL A   1      45.517  33.922  32.680  1.00  0.00     0.040 A 
ATOM     93  F   UNL A   1      44.972  31.670  33.036  1.00  0.00    -0.206 F 
ATOM     94  C   UNL A   1      45.757  34.986  31.813  1.00  0.00     0.006 A 
ENDBRANCH  70  87
ENDBRANCH  44  45
ENDBRANCH  36  39
ENDBRANCH  34  35
ENDBRANCH   1  34
TORSDOF 16
ENDMDL
MODEL 2
REMARK VINA RESULT:     -13.1      4.176      9.364
REMARK SMILES O=C1O[C@@H](c2ccc(O)c(O)c2)[C@H](C(=O)NCCCNC(=O)c2ccc(-c3c4nc(c(-c5c(F)cccc5F)c5ccc([nH]5)c(-c5c(F)cccc5F)c5nc(c(-c6c(F)cccc6F)c6ccc3[nH]6)C=C5)C=C4)cc2)/C1=C\c1ccc(O)c(O)c1
REMARK SMILES IDX 18 1 17 2 16 3 14 4 15 5 13 7 1 8 2 9 3 10 77 11 4 12 78 13
REMARK SMILES IDX 5 14 6 15 12 16 7 17 10 18 8 19 11 20 9 22 79 24 80 25 86 26
REMARK SMILES IDX 81 27 84 28 82 29 85 30 83 32 19 34 20 35 21 36 22 38 23 39
REMARK SMILES IDX 24 40 76 41 25 42 75 43 26 44 27 45 28 46 69 47 29 48 74 49
REMARK SMILES IDX 68 50 70 51 30 52 73 53 67 54 66 55 31 57 57 58 40 59 56 60
REMARK SMILES IDX 41 61 44 62 55 63 71 64 42 65 43 66 54 68 72 69 45 70 32 71
REMARK SMILES IDX 33 72 38 73 34 74 35 75 37 76 39 77 36 78 58 79 59 80 64 81
REMARK SMILES IDX 60 82 61 83 63 84 65 85 62 86 46 87 47 88 52 89 48 90 49 91
REMARK SMILES IDX 51 92 53 93 50 94
REMARK H PARENT 16 6 11 21 9 23 85 31 83 33 20 37 70 56 44 67
REMARK Flexibility Score: inf
ROOT
ATOM      1  C   UNL A   1      31.552  31.228  26.718  1.00  0.00     0.042 C 
ENDROOT
BRANCH   1   2
ATOM      2  C   UNL A   1      31.724  29.810  27.232  1.00  0.00     0.117 C 
BRANCH   2   3
ATOM      3  N   UNL A   1      32.997  29.210  26.878  1.00  0.00    -0.355 N 
ATOM      4  C   UNL A   1      33.399  28.496  25.785  1.00  0.00     0.231 C 
ATOM      5  O   UNL A   1      34.605  28.252  25.717  1.00  0.00    -0.274 OA
ATOM      6  H   UNL A   1      33.703  29.342  27.552  1.00  0.00     0.163 HD
BRANCH   4   7
ATOM      7  C   UNL A   1      32.387  27.936  24.779  1.00  0.00     0.161 C 
ATOM      8  O   UNL A   1      34.015  27.486  21.626  1.00  0.00    -0.247 OA
ATOM      9  C   UNL A   1      33.305  27.811  22.561  1.00  0.00     0.335 C 
ATOM     10  O   UNL A   1      32.585  28.953  22.635  1.00  0.00    -0.453 OA
ATOM     11  C   UNL A   1      33.053  27.038  23.788  1.00  0.00     0.054 C 
ATOM     12  C   UNL A   1      31.809  28.995  23.844  1.00  0.00     0.224 C 
ATOM     13  C   UNL A   1      33.388  25.740  23.829  1.00  0.00     0.020 C 
BRANCH  12  14
ATOM     14  C   UNL A   1      30.311  28.844  23.570  1.00  0.00    -0.002 A 
ATOM     15  C   UNL A   1      29.670  27.586  23.664  1.00  0.00     0.012 A 
ATOM     16  C   UNL A   1      29.511  29.965  23.303  1.00  0.00     0.057 A 
ATOM     17  C   UNL A   1      28.288  27.448  23.501  1.00  0.00     0.050 A 
ATOM     18  C   UNL A   1      28.140  29.818  23.127  1.00  0.00     0.157 A 
ATOM     19  C   UNL A   1      27.528  28.574  23.231  1.00  0.00     0.157 A 
BRANCH  18  20
ATOM     20  O   UNL A   1      27.384  30.923  22.859  1.00  0.00    -0.504 OA
ATOM     21  H   UNL A   1      26.993  31.030  22.014  1.00  0.00     0.293 HD
ENDBRANCH  18  20
BRANCH  19  22
ATOM     22  O   UNL A   1      26.173  28.508  23.068  1.00  0.00    -0.504 OA
ATOM     23  H   UNL A   1      25.717  27.710  23.249  1.00  0.00     0.293 HD
ENDBRANCH  19  22
ENDBRANCH  12  14
BRANCH  13  24
ATOM     24  C   UNL A   1      33.168  24.856  24.972  1.00  0.00    -0.021 A 
ATOM     25  C   UNL A   1      34.232  24.163  25.569  1.00  0.00     0.012 A 
ATOM     26  C   UNL A   1      31.880  24.745  25.507  1.00  0.00     0.058 A 
ATOM     27  C   UNL A   1      34.011  23.340  26.678  1.00  0.00     0.051 A 
ATOM     28  C   UNL A   1      31.671  23.932  26.612  1.00  0.00     0.157 A 
ATOM     29  C   UNL A   1      32.724  23.230  27.191  1.00  0.00     0.157 A 
BRANCH  28  30
ATOM     30  O   UNL A   1      30.414  23.830  27.136  1.00  0.00    -0.504 OA
ATOM     31  H   UNL A   1      29.792  24.518  26.998  1.00  0.00     0.293 HD
ENDBRANCH  28  30
BRANCH  29  32
ATOM     32  O   UNL A   1      32.444  22.443  28.275  1.00  0.00    -0.504 OA
ATOM     33  H   UNL A   1      32.804  22.655  29.113  1.00  0.00     0.293 HD
ENDBRANCH  29  32
ENDBRANCH  13  24
ENDBRANCH   4   7
ENDBRANCH   2   3
ENDBRANCH   1   2
BRANCH   1  34
ATOM     34  C   UNL A   1      32.791  32.094  26.877  1.00  0.00     0.118 C 
BRANCH  34  35
ATOM     35  N   UNL A   1      32.483  33.431  27.370  1.00  0.00    -0.352 N 
ATOM     36  C   UNL A   1      33.081  34.185  28.349  1.00  0.00     0.251 C 
ATOM     37  H   UNL A   1      31.718  33.865  26.929  1.00  0.00     0.163 HD
ATOM     38  O   UNL A   1      32.529  35.205  28.749  1.00  0.00    -0.269 OA
BRANCH  36  39
ATOM     39  C   UNL A   1      34.369  33.765  28.942  1.00  0.00     0.039 A 
ATOM     40  C   UNL A   1      34.359  32.969  30.089  1.00  0.00     0.014 A 
ATOM     41  C   UNL A   1      35.584  34.165  28.381  1.00  0.00     0.014 A 
ATOM     42  C   UNL A   1      35.564  32.506  30.622  1.00  0.00     0.010 A 
ATOM     43  C   UNL A   1      36.775  33.622  28.849  1.00  0.00     0.010 A 
ATOM     44  C   UNL A   1      36.779  32.788  29.977  1.00  0.00    -0.014 A 
BRANCH  44  45
ATOM     45  C   UNL A   1      38.061  32.215  30.457  1.00  0.00     0.031 A 
ATOM     46  C   UNL A   1      38.595  30.943  29.855  1.00  0.00     0.074 A 
ATOM     47  C   UNL A   1      38.702  32.796  31.491  1.00  0.00     0.049 A 
ATOM     48  N   UNL A   1      39.650  30.247  30.197  1.00  0.00    -0.248 NA
ATOM     49  C   UNL A   1      37.828  30.357  28.744  1.00  0.00     0.031 C 
ATOM     50  C   UNL A   1      38.254  33.998  32.198  1.00  0.00     0.029 A 
ATOM     51  N   UNL A   1      39.860  32.446  32.139  1.00  0.00    -0.354 N 
ATOM     52  C   UNL A   1      39.661  29.139  29.361  1.00  0.00     0.074 A 
ATOM     53  C   UNL A   1      38.481  29.225  28.528  1.00  0.00     0.031 C 
ATOM     54  C   UNL A   1      39.135  34.296  33.166  1.00  0.00     0.029 A 
ATOM     55  C   UNL A   1      40.184  33.283  33.181  1.00  0.00     0.049 A 
ATOM     56  H   UNL A   1      40.407  31.669  31.882  1.00  0.00     0.167 HD
ATOM     57  C   UNL A   1      40.581  28.149  29.282  1.00  0.00     0.037 A 
ATOM     58  C   UNL A   1      41.202  33.230  34.060  1.00  0.00     0.037 A 
ATOM     59  C   UNL A   1      41.770  28.087  30.090  1.00  0.00     0.049 A 
ATOM     60  C   UNL A   1      42.212  32.121  33.944  1.00  0.00     0.074 A 
ATOM     61  C   UNL A   1      42.807  27.173  30.023  1.00  0.00     0.029 A 
ATOM     62  N   UNL A   1      42.077  28.969  31.114  1.00  0.00    -0.354 N 
ATOM     63  N   UNL A   1      42.256  31.130  33.088  1.00  0.00    -0.248 NA
ATOM     64  C   UNL A   1      43.317  32.126  34.912  1.00  0.00     0.031 C 
ATOM     65  C   UNL A   1      43.711  27.464  31.049  1.00  0.00     0.029 A 
ATOM     66  C   UNL A   1      43.270  28.597  31.713  1.00  0.00     0.049 A 
ATOM     67  H   UNL A   1      41.530  29.743  31.378  1.00  0.00     0.167 HD
ATOM     68  C   UNL A   1      43.405  30.412  33.395  1.00  0.00     0.074 A 
ATOM     69  C   UNL A   1      44.039  31.093  34.504  1.00  0.00     0.031 C 
ATOM     70  C   UNL A   1      43.891  29.288  32.813  1.00  0.00     0.037 A 
BRANCH  57  71
ATOM     71  C   UNL A   1      40.343  27.047  28.290  1.00  0.00     0.057 A 
ATOM     72  C   UNL A   1      40.969  27.027  27.036  1.00  0.00     0.134 A 
ATOM     73  C   UNL A   1      39.528  25.956  28.621  1.00  0.00     0.134 A 
ATOM     74  F   UNL A   1      41.754  28.044  26.652  1.00  0.00    -0.206 F 
ATOM     75  C   UNL A   1      40.779  25.972  26.142  1.00  0.00     0.040 A 
ATOM     76  C   UNL A   1      39.353  24.883  27.747  1.00  0.00     0.040 A 
ATOM     77  F   UNL A   1      38.903  25.909  29.807  1.00  0.00    -0.206 F 
ATOM     78  C   UNL A   1      39.976  24.891  26.501  1.00  0.00     0.006 A 
ENDBRANCH  57  71
BRANCH  58  79
ATOM     79  C   UNL A   1      41.321  34.254  35.130  1.00  0.00     0.057 A 
ATOM     80  C   UNL A   1      40.768  34.047  36.399  1.00  0.00     0.134 A 
ATOM     81  C   UNL A   1      41.966  35.476  34.902  1.00  0.00     0.134 A 
ATOM     82  F   UNL A   1      40.124  32.904  36.676  1.00  0.00    -0.206 F 
ATOM     83  C   UNL A   1      40.823  35.029  37.391  1.00  0.00     0.040 A 
ATOM     84  C   UNL A   1      42.055  36.454  35.895  1.00  0.00     0.040 A 
ATOM     85  F   UNL A   1      42.528  35.735  33.712  1.00  0.00    -0.206 F 
ATOM     86  C   UNL A   1      41.472  36.236  37.140  1.00  0.00     0.006 A 
ENDBRANCH  58  79
BRANCH  70  87
ATOM     87  C   UNL A   1      45.187  28.744  33.341  1.00  0.00     0.057 A 
ATOM     88  C   UNL A   1      45.230  27.836  34.406  1.00  0.00     0.134 A 
ATOM     89  C   UNL A   1      46.403  29.102  32.746  1.00  0.00     0.134 A 
ATOM     90  F   UNL A   1      44.102  27.461  35.028  1.00  0.00    -0.206 F 
ATOM     91  C   UNL A   1      46.441  27.323  34.878  1.00  0.00     0.040 A 
ATOM     92  C   UNL A   1      47.617  28.572  33.188  1.00  0.00     0.040 A 
ATOM     93  F   UNL A   1      46.432  29.959  31.715  1.00  0.00    -0.206 F 
ATOM     94  C   UNL A   1      47.637  27.685  34.262  1.00  0.00     0.006 A 
ENDBRANCH  70  87
ENDBRANCH  44  45
ENDBRANCH  36  39
ENDBRANCH  34  35
ENDBRANCH   1  34
TORSDOF 16
ENDMDL
MODEL 3
REMARK VINA RESULT:     -13.1      4.787      9.747
REMARK SMILES O=C1O[C@@H](c2ccc(O)c(O)c2)[C@H](C(=O)NCCCNC(=O)c2ccc(-c3c4nc(c(-c5c(F)cccc5F)c5ccc([nH]5)c(-c5c(F)cccc5F)c5nc(c(-c6c(F)cccc6F)c6ccc3[nH]6)C=C5)C=C4)cc2)/C1=C\c1ccc(O)c(O)c1
REMARK SMILES IDX 18 1 17 2 16 3 14 4 15 5 13 7 1 8 2 9 3 10 77 11 4 12 78 13
REMARK SMILES IDX 5 14 6 15 12 16 7 17 10 18 8 19 11 20 9 22 79 24 80 25 86 26
REMARK SMILES IDX 81 27 84 28 82 29 85 30 83 32 19 34 20 35 21 36 22 38 23 39
REMARK SMILES IDX 24 40 76 41 25 42 75 43 26 44 27 45 28 46 69 47 29 48 74 49
REMARK SMILES IDX 68 50 70 51 30 52 73 53 67 54 66 55 31 57 57 58 40 59 56 60
REMARK SMILES IDX 41 61 44 62 55 63 71 64 42 65 43 66 54 68 72 69 45 70 32 71
REMARK SMILES IDX 33 72 38 73 34 74 35 75 37 76 39 77 36 78 58 79 59 80 64 81
REMARK SMILES IDX 60 82 61 83 63 84 65 85 62 86 46 87 47 88 52 89 48 90 49 91
REMARK SMILES IDX 51 92 53 93 50 94
REMARK H PARENT 16 6 11 21 9 23 85 31 83 33 20 37 70 56 44 67
REMARK Flexibility Score: inf
ROOT
ATOM      1  C   UNL A   1      31.567  31.263  26.725  1.00  0.00     0.042 C 
ENDROOT
BRANCH   1   2
ATOM      2  C   UNL A   1      31.717  29.836  27.222  1.00  0.00     0.117 C 
BRANCH   2   3
ATOM      3  N   UNL A   1      32.989  29.228  26.879  1.00  0.00    -0.355 N 
ATOM      4  C   UNL A   1      33.396  28.509  25.791  1.00  0.00     0.231 C 
ATOM      5  O   UNL A   1      34.601  28.258  25.732  1.00  0.00    -0.274 OA
ATOM      6  H   UNL A   1      33.691  29.360  27.557  1.00  0.00     0.163 HD
BRANCH   4   7
ATOM      7  C   UNL A   1      32.389  27.951  24.780  1.00  0.00     0.161 C 
ATOM      8  O   UNL A   1      34.023  27.533  21.626  1.00  0.00    -0.247 OA
ATOM      9  C   UNL A   1      33.310  27.847  22.563  1.00  0.00     0.335 C 
ATOM     10  O   UNL A   1      32.584  28.985  22.643  1.00  0.00    -0.453 OA
ATOM     11  C   UNL A   1      33.060  27.063  23.784  1.00  0.00     0.054 C 
ATOM     12  C   UNL A   1      31.806  29.014  23.852  1.00  0.00     0.224 C 
ATOM     13  C   UNL A   1      33.403  25.767  23.816  1.00  0.00     0.020 C 
BRANCH  12  14
ATOM     14  C   UNL A   1      30.309  28.857  23.574  1.00  0.00    -0.002 A 
ATOM     15  C   UNL A   1      29.674  27.597  23.667  1.00  0.00     0.012 A 
ATOM     16  C   UNL A   1      29.506  29.975  23.304  1.00  0.00     0.057 A 
ATOM     17  C   UNL A   1      28.292  27.453  23.501  1.00  0.00     0.050 A 
ATOM     18  C   UNL A   1      28.135  29.823  23.126  1.00  0.00     0.157 A 
ATOM     19  C   UNL A   1      27.528  28.576  23.229  1.00  0.00     0.157 A 
BRANCH  18  20
ATOM     20  O   UNL A   1      27.376  30.924  22.855  1.00  0.00    -0.504 OA
ATOM     21  H   UNL A   1      26.484  30.961  23.139  1.00  0.00     0.293 HD
ENDBRANCH  18  20
BRANCH  19  22
ATOM     22  O   UNL A   1      26.174  28.505  23.063  1.00  0.00    -0.504 OA
ATOM     23  H   UNL A   1      25.643  29.262  23.215  1.00  0.00     0.293 HD
ENDBRANCH  19  22
ENDBRANCH  12  14
BRANCH  13  24
ATOM     24  C   UNL A   1      33.185  24.874  24.951  1.00  0.00    -0.021 A 
ATOM     25  C   UNL A   1      34.248  24.161  25.528  1.00  0.00     0.012 A 
ATOM     26  C   UNL A   1      31.903  24.774  25.502  1.00  0.00     0.058 A 
ATOM     27  C   UNL A   1      34.030  23.329  26.630  1.00  0.00     0.051 A 
ATOM     28  C   UNL A   1      31.697  23.951  26.601  1.00  0.00     0.157 A 
ATOM     29  C   UNL A   1      32.748  23.229  27.159  1.00  0.00     0.157 A 
BRANCH  28  30
ATOM     30  O   UNL A   1      30.446  23.861  27.140  1.00  0.00    -0.504 OA
ATOM     31  H   UNL A   1      30.331  23.511  28.002  1.00  0.00     0.293 HD
ENDBRANCH  28  30
BRANCH  29  32
ATOM     32  O   UNL A   1      32.471  22.434  28.237  1.00  0.00    -0.504 OA
ATOM     33  H   UNL A   1      32.788  22.671  29.086  1.00  0.00     0.293 HD
ENDBRANCH  29  32
ENDBRANCH  13  24
ENDBRANCH   4   7
ENDBRANCH   2   3
ENDBRANCH   1   2
BRANCH   1  34
ATOM     34  C   UNL A   1      32.826  32.102  26.876  1.00  0.00     0.118 C 
BRANCH  34  35
ATOM     35  N   UNL A   1      32.543  33.470  27.293  1.00  0.00    -0.352 N 
ATOM     36  C   UNL A   1      33.061  34.220  28.319  1.00  0.00     0.251 C 
ATOM     37  H   UNL A   1      31.867  33.933  26.748  1.00  0.00     0.163 HD
ATOM     38  O   UNL A   1      32.528  35.284  28.621  1.00  0.00    -0.269 OA
BRANCH  36  39
ATOM     39  C   UNL A   1      34.238  33.746  29.078  1.00  0.00     0.039 A 
ATOM     40  C   UNL A   1      34.049  32.839  30.124  1.00  0.00     0.014 A 
ATOM     41  C   UNL A   1      35.523  34.202  28.774  1.00  0.00     0.014 A 
ATOM     42  C   UNL A   1      35.155  32.328  30.806  1.00  0.00     0.010 A 
ATOM     43  C   UNL A   1      36.627  33.617  29.383  1.00  0.00     0.010 A 
ATOM     44  C   UNL A   1      36.456  32.676  30.408  1.00  0.00    -0.014 A 
BRANCH  44  45
ATOM     45  C   UNL A   1      37.649  32.059  31.041  1.00  0.00     0.031 A 
ATOM     46  C   UNL A   1      38.396  30.957  30.338  1.00  0.00     0.074 A 
ATOM     47  C   UNL A   1      38.010  32.437  32.284  1.00  0.00     0.049 A 
ATOM     48  N   UNL A   1      39.406  30.243  30.766  1.00  0.00    -0.248 NA
ATOM     49  C   UNL A   1      37.929  30.587  28.993  1.00  0.00     0.031 C 
ATOM     50  C   UNL A   1      37.330  33.452  33.092  1.00  0.00     0.029 A 
ATOM     51  N   UNL A   1      39.030  32.001  33.093  1.00  0.00    -0.354 N 
ATOM     52  C   UNL A   1      39.679  29.331  29.755  1.00  0.00     0.074 A 
ATOM     53  C   UNL A   1      38.699  29.546  28.713  1.00  0.00     0.031 C 
ATOM     54  C   UNL A   1      37.961  33.574  34.270  1.00  0.00     0.029 A 
ATOM     55  C   UNL A   1      39.060  32.616  34.322  1.00  0.00     0.049 A 
ATOM     56  H   UNL A   1      39.677  31.313  32.819  1.00  0.00     0.167 HD
ATOM     57  C   UNL A   1      40.670  28.410  29.692  1.00  0.00     0.037 A 
ATOM     58  C   UNL A   1      39.871  32.418  35.378  1.00  0.00     0.037 A 
ATOM     59  C   UNL A   1      41.663  28.224  30.716  1.00  0.00     0.049 A 
ATOM     60  C   UNL A   1      40.966  31.392  35.277  1.00  0.00     0.074 A 
ATOM     61  C   UNL A   1      42.759  27.379  30.706  1.00  0.00     0.029 A 
ATOM     62  N   UNL A   1      41.678  28.887  31.934  1.00  0.00    -0.354 N 
ATOM     63  N   UNL A   1      41.267  30.601  34.277  1.00  0.00    -0.248 NA
ATOM     64  C   UNL A   1      41.839  31.236  36.449  1.00  0.00     0.031 C 
ATOM     65  C   UNL A   1      43.401  27.484  31.944  1.00  0.00     0.029 A 
ATOM     66  C   UNL A   1      42.743  28.440  32.699  1.00  0.00     0.049 A 
ATOM     67  H   UNL A   1      41.028  29.571  32.214  1.00  0.00     0.167 HD
ATOM     68  C   UNL A   1      42.378  29.874  34.688  1.00  0.00     0.074 A 
ATOM     69  C   UNL A   1      42.709  30.333  36.020  1.00  0.00     0.031 C 
ATOM     70  C   UNL A   1      43.062  28.911  34.023  1.00  0.00     0.037 A 
BRANCH  57  71
ATOM     71  C   UNL A   1      40.735  27.529  28.478  1.00  0.00     0.057 A 
ATOM     72  C   UNL A   1      40.002  26.338  28.383  1.00  0.00     0.134 A 
ATOM     73  C   UNL A   1      41.490  27.913  27.362  1.00  0.00     0.134 A 
ATOM     74  F   UNL A   1      39.267  25.908  29.419  1.00  0.00    -0.206 F 
ATOM     75  C   UNL A   1      40.032  25.553  27.229  1.00  0.00     0.040 A 
ATOM     76  C   UNL A   1      41.505  27.150  26.193  1.00  0.00     0.040 A 
ATOM     77  F   UNL A   1      42.211  29.043  27.383  1.00  0.00    -0.206 F 
ATOM     78  C   UNL A   1      40.778  25.964  26.126  1.00  0.00     0.006 A 
ENDBRANCH  57  71
BRANCH  58  79
ATOM     79  C   UNL A   1      39.681  33.204  36.625  1.00  0.00     0.057 A 
ATOM     80  C   UNL A   1      38.778  32.793  37.613  1.00  0.00     0.134 A 
ATOM     81  C   UNL A   1      40.376  34.399  36.847  1.00  0.00     0.134 A 
ATOM     82  F   UNL A   1      38.071  31.665  37.453  1.00  0.00    -0.206 F 
ATOM     83  C   UNL A   1      38.550  33.556  38.760  1.00  0.00     0.040 A 
ATOM     84  C   UNL A   1      40.180  35.157  38.004  1.00  0.00     0.040 A 
ATOM     85  F   UNL A   1      41.265  34.845  35.947  1.00  0.00    -0.206 F 
ATOM     86  C   UNL A   1      39.256  34.741  38.959  1.00  0.00     0.006 A 
ENDBRANCH  58  79
BRANCH  70  87
ATOM     87  C   UNL A   1      44.257  28.315  34.710  1.00  0.00     0.057 A 
ATOM     88  C   UNL A   1      44.162  27.149  35.480  1.00  0.00     0.134 A 
ATOM     89  C   UNL A   1      45.524  28.892  34.562  1.00  0.00     0.134 A 
ATOM     90  F   UNL A   1      42.975  26.553  35.671  1.00  0.00    -0.206 F 
ATOM     91  C   UNL A   1      45.283  26.593  36.101  1.00  0.00     0.040 A 
ATOM     92  C   UNL A   1      46.657  28.328  35.151  1.00  0.00     0.040 A 
ATOM     93  F   UNL A   1      45.686  30.003  33.829  1.00  0.00    -0.206 F 
ATOM     94  C   UNL A   1      46.536  27.179  35.930  1.00  0.00     0.006 A 
ENDBRANCH  70  87
ENDBRANCH  44  45
ENDBRANCH  36  39
ENDBRANCH  34  35
ENDBRANCH   1  34
TORSDOF 16
ENDMDL
