MODEL 1
REMARK VINA RESULT:     -12.7      0.000      0.000
REMARK SMILES Cc1cc(C(=O)NCCCNC(=O)c2ccc(-c3c4nc(c(-c5c(F)cccc5F)c5ccc([nH]5)c(-c5c(F)cccc5F)c5nc(c(-c6c(F)cccc6F)c6ccc3[nH]6)C=C5)C=C4)cc2)ccc1NS(=O)(=O)c1c(F)cccc1F
REMARK SMILES IDX 8 1 7 2 5 3 6 4 4 6 1 7 2 8 3 9 70 10 69 11 68 12 71 13
REMARK SMILES IDX 72 15 73 16 74 17 75 18 76 19 81 20 77 21 78 22 80 23 82 24
REMARK SMILES IDX 79 25 9 26 10 27 11 28 12 29 13 31 14 32 15 33 67 34 16 35
REMARK SMILES IDX 66 36 17 37 18 38 19 39 60 40 20 41 65 42 59 43 61 44 21 45
REMARK SMILES IDX 64 46 58 47 57 48 22 50 48 51 31 52 47 53 32 54 35 55 46 56
REMARK SMILES IDX 62 57 33 58 34 59 45 61 63 62 36 63 23 64 24 65 29 66 25 67
REMARK SMILES IDX 26 68 28 69 30 70 27 71 49 72 50 73 55 74 51 75 52 76 54 77
REMARK SMILES IDX 56 78 53 79 37 80 38 81 43 82 39 83 40 84 42 85 44 86 41 87
REMARK H PARENT 7 5 71 14 11 30 61 49 35 60
REMARK Flexibility Score: inf
ROOT
ATOM      1  C   UNL A   1      32.774  30.733  26.823  1.00  0.00     0.118 C 
ENDROOT
BRANCH   1   2
ATOM      2  N   UNL A   1      32.045  29.678  27.514  1.00  0.00    -0.352 N 
ATOM      3  C   UNL A   1      31.779  28.353  27.264  1.00  0.00     0.251 C 
ATOM      4  O   UNL A   1      31.091  27.765  28.101  1.00  0.00    -0.269 OA
ATOM      5  H   UNL A   1      31.647  29.987  28.360  1.00  0.00     0.163 HD
BRANCH   3   6
ATOM      6  C   UNL A   1      32.185  27.615  26.033  1.00  0.00     0.040 A 
ATOM      7  C   UNL A   1      34.924  25.087  25.238  1.00  0.00     0.046 C 
ATOM      8  C   UNL A   1      33.652  25.879  25.097  1.00  0.00    -0.026 A 
ATOM      9  C   UNL A   1      33.288  26.748  26.142  1.00  0.00     0.019 A 
ATOM     10  C   UNL A   1      32.841  25.828  23.956  1.00  0.00     0.052 A 
ATOM     11  C   UNL A   1      31.934  26.864  23.742  1.00  0.00     0.028 A 
ATOM     12  C   UNL A   1      31.593  27.740  24.782  1.00  0.00     0.016 A 
BRANCH  10  13
ATOM     13  N   UNL A   1      32.854  24.632  23.180  1.00  0.00    -0.279 N 
ATOM     14  H   UNL A   1      33.432  24.640  22.384  1.00  0.00     0.180 HD
BRANCH  13  15
ATOM     15  S   UNL A   1      32.009  23.218  23.457  1.00  0.00     0.267 S 
ATOM     16  O   UNL A   1      30.607  23.601  23.524  1.00  0.00    -0.201 OA
ATOM     17  O   UNL A   1      32.485  22.280  22.473  1.00  0.00    -0.201 OA
BRANCH  15  18
ATOM     18  C   UNL A   1      32.455  22.572  25.025  1.00  0.00     0.158 A 
ATOM     19  C   UNL A   1      31.878  23.149  26.151  1.00  0.00     0.146 A 
ATOM     20  C   UNL A   1      33.451  21.622  25.191  1.00  0.00     0.146 A 
ATOM     21  F   UNL A   1      30.848  23.999  26.043  1.00  0.00    -0.205 F 
ATOM     22  C   UNL A   1      32.354  22.861  27.428  1.00  0.00     0.041 A 
ATOM     23  C   UNL A   1      33.949  21.337  26.466  1.00  0.00     0.041 A 
ATOM     24  F   UNL A   1      34.001  20.986  24.150  1.00  0.00    -0.205 F 
ATOM     25  C   UNL A   1      33.417  21.976  27.587  1.00  0.00     0.006 A 
ENDBRANCH  15  18
ENDBRANCH  13  15
ENDBRANCH  10  13
ENDBRANCH   3   6
ENDBRANCH   1   2
BRANCH   1  26
ATOM     26  C   UNL A   1      34.276  30.732  27.117  1.00  0.00     0.042 C 
BRANCH  26  27
ATOM     27  C   UNL A   1      34.585  30.910  28.603  1.00  0.00     0.118 C 
BRANCH  27  28
ATOM     28  N   UNL A   1      35.730  31.776  28.899  1.00  0.00    -0.352 N 
ATOM     29  C   UNL A   1      37.062  31.426  29.081  1.00  0.00     0.251 C 
ATOM     30  H   UNL A   1      35.528  32.737  28.981  1.00  0.00     0.163 HD
ATOM     31  O   UNL A   1      37.902  32.278  29.343  1.00  0.00    -0.269 OA
BRANCH  29  32
ATOM     32  C   UNL A   1      37.471  30.029  28.803  1.00  0.00     0.039 A 
ATOM     33  C   UNL A   1      37.705  29.208  29.909  1.00  0.00     0.014 A 
ATOM     34  C   UNL A   1      37.971  29.697  27.548  1.00  0.00     0.014 A 
ATOM     35  C   UNL A   1      38.716  28.258  29.834  1.00  0.00     0.010 A 
ATOM     36  C   UNL A   1      39.033  28.816  27.493  1.00  0.00     0.010 A 
ATOM     37  C   UNL A   1      39.464  28.175  28.660  1.00  0.00    -0.014 A 
BRANCH  37  38
ATOM     38  C   UNL A   1      40.765  27.522  28.604  1.00  0.00     0.031 A 
ATOM     39  C   UNL A   1      40.846  26.077  28.340  1.00  0.00     0.074 A 
ATOM     40  C   UNL A   1      41.904  28.229  28.777  1.00  0.00     0.049 A 
ATOM     41  N   UNL A   1      41.807  25.322  28.748  1.00  0.00    -0.248 NA
ATOM     42  C   UNL A   1      39.807  25.361  27.618  1.00  0.00     0.031 C 
ATOM     43  C   UNL A   1      43.274  27.770  28.557  1.00  0.00     0.029 A 
ATOM     44  N   UNL A   1      42.053  29.469  29.407  1.00  0.00    -0.354 N 
ATOM     45  C   UNL A   1      41.670  24.104  28.126  1.00  0.00     0.074 A 
ATOM     46  C   UNL A   1      40.370  24.158  27.492  1.00  0.00     0.031 C 
ATOM     47  C   UNL A   1      44.108  28.529  29.284  1.00  0.00     0.029 A 
ATOM     48  C   UNL A   1      43.298  29.428  30.082  1.00  0.00     0.049 A 
ATOM     49  H   UNL A   1      41.419  30.221  29.387  1.00  0.00     0.167 HD
ATOM     50  C   UNL A   1      42.727  23.242  28.110  1.00  0.00     0.037 A 
ATOM     51  C   UNL A   1      43.355  29.559  31.440  1.00  0.00     0.037 A 
ATOM     52  C   UNL A   1      43.865  23.767  28.869  1.00  0.00     0.049 A 
ATOM     53  C   UNL A   1      43.834  28.318  32.164  1.00  0.00     0.074 A 
ATOM     54  C   UNL A   1      45.048  24.404  28.525  1.00  0.00     0.029 A 
ATOM     55  N   UNL A   1      43.734  23.937  30.237  1.00  0.00    -0.354 N 
ATOM     56  N   UNL A   1      44.236  27.225  31.576  1.00  0.00    -0.248 NA
ATOM     57  C   UNL A   1      43.793  28.180  33.621  1.00  0.00     0.031 C 
ATOM     58  C   UNL A   1      45.622  24.955  29.708  1.00  0.00     0.029 A 
ATOM     59  C   UNL A   1      44.794  24.648  30.770  1.00  0.00     0.049 A 
ATOM     60  H   UNL A   1      42.978  23.594  30.765  1.00  0.00     0.167 HD
ATOM     61  C   UNL A   1      44.435  26.248  32.515  1.00  0.00     0.074 A 
ATOM     62  C   UNL A   1      44.147  26.894  33.782  1.00  0.00     0.031 C 
ATOM     63  C   UNL A   1      44.777  24.965  32.190  1.00  0.00     0.037 A 
BRANCH  50  64
ATOM     64  C   UNL A   1      42.808  22.052  27.178  1.00  0.00     0.057 A 
ATOM     65  C   UNL A   1      41.986  20.926  27.370  1.00  0.00     0.134 A 
ATOM     66  C   UNL A   1      43.712  21.928  26.109  1.00  0.00     0.134 A 
ATOM     67  F   UNL A   1      40.981  20.928  28.256  1.00  0.00    -0.206 F 
ATOM     68  C   UNL A   1      42.150  19.731  26.657  1.00  0.00     0.040 A 
ATOM     69  C   UNL A   1      43.933  20.721  25.430  1.00  0.00     0.040 A 
ATOM     70  F   UNL A   1      44.377  22.985  25.626  1.00  0.00    -0.206 F 
ATOM     71  C   UNL A   1      43.160  19.608  25.717  1.00  0.00     0.006 A 
ENDBRANCH  50  64
BRANCH  51  72
ATOM     72  C   UNL A   1      42.336  30.522  31.937  1.00  0.00     0.057 A 
ATOM     73  C   UNL A   1      42.583  31.894  31.734  1.00  0.00     0.134 A 
ATOM     74  C   UNL A   1      41.011  30.135  32.143  1.00  0.00     0.134 A 
ATOM     75  F   UNL A   1      43.839  32.334  31.551  1.00  0.00    -0.206 F 
ATOM     76  C   UNL A   1      41.543  32.807  31.554  1.00  0.00     0.040 A 
ATOM     77  C   UNL A   1      39.964  31.049  31.995  1.00  0.00     0.040 A 
ATOM     78  F   UNL A   1      40.698  28.848  32.349  1.00  0.00    -0.206 F 
ATOM     79  C   UNL A   1      40.226  32.372  31.636  1.00  0.00     0.006 A 
ENDBRANCH  51  72
BRANCH  63  80
ATOM     80  C   UNL A   1      45.092  23.899  33.210  1.00  0.00     0.057 A 
ATOM     81  C   UNL A   1      44.146  22.950  33.630  1.00  0.00     0.134 A 
ATOM     82  C   UNL A   1      46.323  23.861  33.896  1.00  0.00     0.134 A 
ATOM     83  F   UNL A   1      42.897  22.951  33.143  1.00  0.00    -0.206 F 
ATOM     84  C   UNL A   1      44.435  21.977  34.596  1.00  0.00     0.040 A 
ATOM     85  C   UNL A   1      46.606  22.928  34.899  1.00  0.00     0.040 A 
ATOM     86  F   UNL A   1      47.317  24.716  33.618  1.00  0.00    -0.206 F 
ATOM     87  C   UNL A   1      45.668  21.966  35.237  1.00  0.00     0.006 A 
ENDBRANCH  63  80
ENDBRANCH  37  38
ENDBRANCH  29  32
ENDBRANCH  27  28
ENDBRANCH  26  27
ENDBRANCH   1  26
TORSDOF 13
ENDMDL
MODEL 2
REMARK VINA RESULT:     -12.6      1.174      1.988
REMARK SMILES Cc1cc(C(=O)NCCCNC(=O)c2ccc(-c3c4nc(c(-c5c(F)cccc5F)c5ccc([nH]5)c(-c5c(F)cccc5F)c5nc(c(-c6c(F)cccc6F)c6ccc3[nH]6)C=C5)C=C4)cc2)ccc1NS(=O)(=O)c1c(F)cccc1F
REMARK SMILES IDX 8 1 7 2 5 3 6 4 4 6 1 7 2 8 3 9 70 10 69 11 68 12 71 13
REMARK SMILES IDX 72 15 73 16 74 17 75 18 76 19 81 20 77 21 78 22 80 23 82 24
REMARK SMILES IDX 79 25 9 26 10 27 11 28 12 29 13 31 14 32 15 33 67 34 16 35
REMARK SMILES IDX 66 36 17 37 18 38 19 39 60 40 20 41 65 42 59 43 61 44 21 45
REMARK SMILES IDX 64 46 58 47 57 48 22 50 48 51 31 52 47 53 32 54 35 55 46 56
REMARK SMILES IDX 62 57 33 58 34 59 45 61 63 62 36 63 23 64 24 65 29 66 25 67
REMARK SMILES IDX 26 68 28 69 30 70 27 71 49 72 50 73 55 74 51 75 52 76 54 77
REMARK SMILES IDX 56 78 53 79 37 80 38 81 43 82 39 83 40 84 42 85 44 86 41 87
REMARK H PARENT 7 5 71 14 11 30 61 49 35 60
REMARK Flexibility Score: inf
ROOT
ATOM      1  C   UNL A   1      32.530  30.933  26.659  1.00  0.00     0.118 C 
ENDROOT
BRANCH   1   2
ATOM      2  N   UNL A   1      31.834  29.843  27.330  1.00  0.00    -0.352 N 
ATOM      3  C   UNL A   1      31.885  28.471  27.268  1.00  0.00     0.251 C 
ATOM      4  O   UNL A   1      31.106  27.860  28.004  1.00  0.00    -0.269 OA
ATOM      5  H   UNL A   1      31.170  30.164  27.982  1.00  0.00     0.163 HD
BRANCH   3   6
ATOM      6  C   UNL A   1      32.738  27.686  26.331  1.00  0.00     0.040 A 
ATOM      7  C   UNL A   1      33.435  23.970  25.856  1.00  0.00     0.046 C 
ATOM      8  C   UNL A   1      33.365  25.442  25.549  1.00  0.00    -0.026 A 
ATOM      9  C   UNL A   1      32.734  26.287  26.480  1.00  0.00     0.019 A 
ATOM     10  C   UNL A   1      33.940  26.015  24.408  1.00  0.00     0.052 A 
ATOM     11  C   UNL A   1      34.180  27.387  24.404  1.00  0.00     0.028 A 
ATOM     12  C   UNL A   1      33.566  28.221  25.349  1.00  0.00     0.016 A 
BRANCH  10  13
ATOM     13  N   UNL A   1      34.073  25.199  23.246  1.00  0.00    -0.279 N 
ATOM     14  H   UNL A   1      34.981  24.878  23.045  1.00  0.00     0.180 HD
BRANCH  13  15
ATOM     15  S   UNL A   1      32.876  24.720  22.183  1.00  0.00     0.267 S 
ATOM     16  O   UNL A   1      33.278  25.228  20.880  1.00  0.00    -0.201 OA
ATOM     17  O   UNL A   1      32.688  23.311  22.416  1.00  0.00    -0.201 OA
BRANCH  15  18
ATOM     18  C   UNL A   1      31.368  25.506  22.614  1.00  0.00     0.158 A 
ATOM     19  C   UNL A   1      31.267  26.876  22.394  1.00  0.00     0.146 A 
ATOM     20  C   UNL A   1      30.345  24.855  23.285  1.00  0.00     0.146 A 
ATOM     21  F   UNL A   1      32.183  27.531  21.669  1.00  0.00    -0.205 F 
ATOM     22  C   UNL A   1      30.208  27.610  22.923  1.00  0.00     0.041 A 
ATOM     23  C   UNL A   1      29.287  25.583  23.835  1.00  0.00     0.041 A 
ATOM     24  F   UNL A   1      30.355  23.530  23.472  1.00  0.00    -0.205 F 
ATOM     25  C   UNL A   1      29.229  26.968  23.677  1.00  0.00     0.006 A 
ENDBRANCH  15  18
ENDBRANCH  13  15
ENDBRANCH  10  13
ENDBRANCH   3   6
ENDBRANCH   1   2
BRANCH   1  26
ATOM     26  C   UNL A   1      33.463  31.722  27.580  1.00  0.00     0.042 C 
BRANCH  26  27
ATOM     27  C   UNL A   1      34.717  30.935  27.961  1.00  0.00     0.118 C 
BRANCH  27  28
ATOM     28  N   UNL A   1      35.686  31.670  28.780  1.00  0.00    -0.352 N 
ATOM     29  C   UNL A   1      36.860  31.210  29.361  1.00  0.00     0.251 C 
ATOM     30  H   UNL A   1      35.476  32.619  28.940  1.00  0.00     0.163 HD
ATOM     31  O   UNL A   1      37.557  31.956  30.038  1.00  0.00    -0.269 OA
BRANCH  29  32
ATOM     32  C   UNL A   1      37.331  29.846  29.021  1.00  0.00     0.039 A 
ATOM     33  C   UNL A   1      37.565  28.976  30.089  1.00  0.00     0.014 A 
ATOM     34  C   UNL A   1      37.879  29.602  27.766  1.00  0.00     0.014 A 
ATOM     35  C   UNL A   1      38.614  28.069  29.994  1.00  0.00     0.010 A 
ATOM     36  C   UNL A   1      38.975  28.765  27.697  1.00  0.00     0.010 A 
ATOM     37  C   UNL A   1      39.398  28.078  28.841  1.00  0.00    -0.014 A 
BRANCH  37  38
ATOM     38  C   UNL A   1      40.725  27.478  28.790  1.00  0.00     0.031 A 
ATOM     39  C   UNL A   1      40.870  26.055  28.449  1.00  0.00     0.074 A 
ATOM     40  C   UNL A   1      41.830  28.217  29.038  1.00  0.00     0.049 A 
ATOM     41  N   UNL A   1      41.847  25.314  28.844  1.00  0.00    -0.248 NA
ATOM     42  C   UNL A   1      39.881  25.343  27.656  1.00  0.00     0.031 C 
ATOM     43  C   UNL A   1      43.222  27.822  28.837  1.00  0.00     0.029 A 
ATOM     44  N   UNL A   1      41.912  29.423  29.741  1.00  0.00    -0.354 N 
ATOM     45  C   UNL A   1      41.776  24.130  28.152  1.00  0.00     0.074 A 
ATOM     46  C   UNL A   1      40.495  24.171  27.480  1.00  0.00     0.031 C 
ATOM     47  C   UNL A   1      44.004  28.570  29.630  1.00  0.00     0.029 A 
ATOM     48  C   UNL A   1      43.136  29.391  30.452  1.00  0.00     0.049 A 
ATOM     49  H   UNL A   1      41.250  30.151  29.742  1.00  0.00     0.167 HD
ATOM     50  C   UNL A   1      42.866  23.310  28.120  1.00  0.00     0.037 A 
ATOM     51  C   UNL A   1      43.148  29.446  31.815  1.00  0.00     0.037 A 
ATOM     52  C   UNL A   1      43.959  23.833  28.943  1.00  0.00     0.049 A 
ATOM     53  C   UNL A   1      43.654  28.185  32.484  1.00  0.00     0.074 A 
ATOM     54  C   UNL A   1      45.126  24.532  28.673  1.00  0.00     0.029 A 
ATOM     55  N   UNL A   1      43.782  23.920  30.313  1.00  0.00    -0.354 N 
ATOM     56  N   UNL A   1      44.115  27.143  31.849  1.00  0.00    -0.248 NA
ATOM     57  C   UNL A   1      43.576  27.963  33.929  1.00  0.00     0.031 C 
ATOM     58  C   UNL A   1      45.644  25.036  29.902  1.00  0.00     0.029 A 
ATOM     59  C   UNL A   1      44.797  24.638  30.919  1.00  0.00     0.049 A 
ATOM     60  H   UNL A   1      43.024  23.519  30.798  1.00  0.00     0.167 HD
ATOM     61  C   UNL A   1      44.325  26.122  32.738  1.00  0.00     0.074 A 
ATOM     62  C   UNL A   1      43.975  26.684  34.029  1.00  0.00     0.031 C 
ATOM     63  C   UNL A   1      44.726  24.874  32.354  1.00  0.00     0.037 A 
BRANCH  50  64
ATOM     64  C   UNL A   1      43.021  22.179  27.127  1.00  0.00     0.057 A 
ATOM     65  C   UNL A   1      42.227  21.020  27.221  1.00  0.00     0.134 A 
ATOM     66  C   UNL A   1      43.970  22.143  26.091  1.00  0.00     0.134 A 
ATOM     67  F   UNL A   1      41.189  20.942  28.063  1.00  0.00    -0.206 F 
ATOM     68  C   UNL A   1      42.457  19.874  26.448  1.00  0.00     0.040 A 
ATOM     69  C   UNL A   1      44.255  20.984  25.354  1.00  0.00     0.040 A 
ATOM     70  F   UNL A   1      44.620  23.245  25.697  1.00  0.00    -0.206 F 
ATOM     71  C   UNL A   1      43.506  19.834  25.546  1.00  0.00     0.006 A 
ENDBRANCH  50  64
BRANCH  51  72
ATOM     72  C   UNL A   1      42.078  30.341  32.333  1.00  0.00     0.057 A 
ATOM     73  C   UNL A   1      42.264  31.730  32.187  1.00  0.00     0.134 A 
ATOM     74  C   UNL A   1      40.770  29.885  32.503  1.00  0.00     0.134 A 
ATOM     75  F   UNL A   1      43.500  32.234  32.041  1.00  0.00    -0.206 F 
ATOM     76  C   UNL A   1      41.185  32.600  32.025  1.00  0.00     0.040 A 
ATOM     77  C   UNL A   1      39.684  30.755  32.373  1.00  0.00     0.040 A 
ATOM     78  F   UNL A   1      40.515  28.578  32.654  1.00  0.00    -0.206 F 
ATOM     79  C   UNL A   1      39.888  32.101  32.069  1.00  0.00     0.006 A 
ENDBRANCH  51  72
BRANCH  63  80
ATOM     80  C   UNL A   1      45.052  23.763  33.321  1.00  0.00     0.057 A 
ATOM     81  C   UNL A   1      44.092  22.842  33.768  1.00  0.00     0.134 A 
ATOM     82  C   UNL A   1      46.317  23.653  33.933  1.00  0.00     0.134 A 
ATOM     83  F   UNL A   1      42.818  22.910  33.355  1.00  0.00    -0.206 F 
ATOM     84  C   UNL A   1      44.393  21.828  34.687  1.00  0.00     0.040 A 
ATOM     85  C   UNL A   1      46.616  22.678  34.890  1.00  0.00     0.040 A 
ATOM     86  F   UNL A   1      47.330  24.474  33.623  1.00  0.00    -0.206 F 
ATOM     87  C   UNL A   1      45.658  21.745  35.254  1.00  0.00     0.006 A 
ENDBRANCH  63  80
ENDBRANCH  37  38
ENDBRANCH  29  32
ENDBRANCH  27  28
ENDBRANCH  26  27
ENDBRANCH   1  26
TORSDOF 13
ENDMDL
MODEL 3
REMARK VINA RESULT:     -12.5      1.455      2.272
REMARK SMILES Cc1cc(C(=O)NCCCNC(=O)c2ccc(-c3c4nc(c(-c5c(F)cccc5F)c5ccc([nH]5)c(-c5c(F)cccc5F)c5nc(c(-c6c(F)cccc6F)c6ccc3[nH]6)C=C5)C=C4)cc2)ccc1NS(=O)(=O)c1c(F)cccc1F
REMARK SMILES IDX 8 1 7 2 5 3 6 4 4 6 1 7 2 8 3 9 70 10 69 11 68 12 71 13
REMARK SMILES IDX 72 15 73 16 74 17 75 18 76 19 81 20 77 21 78 22 80 23 82 24
REMARK SMILES IDX 79 25 9 26 10 27 11 28 12 29 13 31 14 32 15 33 67 34 16 35
REMARK SMILES IDX 66 36 17 37 18 38 19 39 60 40 20 41 65 42 59 43 61 44 21 45
REMARK SMILES IDX 64 46 58 47 57 48 22 50 48 51 31 52 47 53 32 54 35 55 46 56
REMARK SMILES IDX 62 57 33 58 34 59 45 61 63 62 36 63 23 64 24 65 29 66 25 67
REMARK SMILES IDX 26 68 28 69 30 70 27 71 49 72 50 73 55 74 51 75 52 76 54 77
REMARK SMILES IDX 56 78 53 79 37 80 38 81 43 82 39 83 40 84 42 85 44 86 41 87
REMARK H PARENT 7 5 71 14 11 30 61 49 35 60
REMARK Flexibility Score: inf
ROOT
ATOM      1  C   UNL A   1      32.841  30.915  26.870  1.00  0.00     0.118 C 
ENDROOT
BRANCH   1   2
ATOM      2  N   UNL A   1      33.115  30.420  25.528  1.00  0.00    -0.352 N 
ATOM      3  C   UNL A   1      32.725  29.326  24.795  1.00  0.00     0.251 C 
ATOM      4  O   UNL A   1      33.191  29.233  23.657  1.00  0.00    -0.269 OA
ATOM      5  H   UNL A   1      33.725  31.008  25.027  1.00  0.00     0.163 HD
BRANCH   3   6
ATOM      6  C   UNL A   1      31.861  28.220  25.300  1.00  0.00     0.040 A 
ATOM      7  C   UNL A   1      28.880  26.320  23.875  1.00  0.00     0.046 C 
ATOM      8  C   UNL A   1      30.060  26.639  24.755  1.00  0.00    -0.026 A 
ATOM      9  C   UNL A   1      30.824  27.781  24.455  1.00  0.00     0.019 A 
ATOM     10  C   UNL A   1      30.401  25.882  25.883  1.00  0.00     0.052 A 
ATOM     11  C   UNL A   1      31.227  26.461  26.844  1.00  0.00     0.028 A 
ATOM     12  C   UNL A   1      31.969  27.612  26.546  1.00  0.00     0.016 A 
BRANCH  10  13
ATOM     13  N   UNL A   1      30.041  24.502  25.895  1.00  0.00    -0.279 N 
ATOM     14  H   UNL A   1      29.101  24.300  25.687  1.00  0.00     0.180 HD
BRANCH  13  15
ATOM     15  S   UNL A   1      31.019  23.188  26.219  1.00  0.00     0.267 S 
ATOM     16  O   UNL A   1      31.436  23.337  27.606  1.00  0.00    -0.201 OA
ATOM     17  O   UNL A   1      30.280  22.033  25.777  1.00  0.00    -0.201 OA
BRANCH  15  18
ATOM     18  C   UNL A   1      32.459  23.275  25.223  1.00  0.00     0.158 A 
ATOM     19  C   UNL A   1      32.289  23.347  23.844  1.00  0.00     0.146 A 
ATOM     20  C   UNL A   1      33.739  23.132  25.736  1.00  0.00     0.146 A 
ATOM     21  F   UNL A   1      31.085  23.581  23.306  1.00  0.00    -0.205 F 
ATOM     22  C   UNL A   1      33.368  23.178  22.979  1.00  0.00     0.041 A 
ATOM     23  C   UNL A   1      34.827  22.944  24.878  1.00  0.00     0.041 A 
ATOM     24  F   UNL A   1      33.974  23.119  27.054  1.00  0.00    -0.205 F 
ATOM     25  C   UNL A   1      34.639  22.941  23.496  1.00  0.00     0.006 A 
ENDBRANCH  15  18
ENDBRANCH  13  15
ENDBRANCH  10  13
ENDBRANCH   3   6
ENDBRANCH   1   2
BRANCH   1  26
ATOM     26  C   UNL A   1      33.967  30.638  27.867  1.00  0.00     0.042 C 
BRANCH  26  27
ATOM     27  C   UNL A   1      35.181  31.542  27.651  1.00  0.00     0.118 C 
BRANCH  27  28
ATOM     28  N   UNL A   1      35.861  31.972  28.876  1.00  0.00    -0.352 N 
ATOM     29  C   UNL A   1      36.746  31.260  29.675  1.00  0.00     0.251 C 
ATOM     30  H   UNL A   1      35.664  32.890  29.173  1.00  0.00     0.163 HD
ATOM     31  O   UNL A   1      37.219  31.763  30.687  1.00  0.00    -0.269 OA
BRANCH  29  32
ATOM     32  C   UNL A   1      37.224  29.940  29.200  1.00  0.00     0.039 A 
ATOM     33  C   UNL A   1      37.424  28.955  30.171  1.00  0.00     0.014 A 
ATOM     34  C   UNL A   1      37.810  29.834  27.943  1.00  0.00     0.014 A 
ATOM     35  C   UNL A   1      38.473  28.059  30.008  1.00  0.00     0.010 A 
ATOM     36  C   UNL A   1      38.906  29.004  27.814  1.00  0.00     0.010 A 
ATOM     37  C   UNL A   1      39.292  28.192  28.887  1.00  0.00    -0.014 A 
BRANCH  37  38
ATOM     38  C   UNL A   1      40.619  27.594  28.810  1.00  0.00     0.031 A 
ATOM     39  C   UNL A   1      40.758  26.164  28.494  1.00  0.00     0.074 A 
ATOM     40  C   UNL A   1      41.729  28.340  29.010  1.00  0.00     0.049 A 
ATOM     41  N   UNL A   1      41.748  25.434  28.876  1.00  0.00    -0.248 NA
ATOM     42  C   UNL A   1      39.748  25.434  27.745  1.00  0.00     0.031 C 
ATOM     43  C   UNL A   1      43.115  27.945  28.777  1.00  0.00     0.029 A 
ATOM     44  N   UNL A   1      41.827  29.561  29.685  1.00  0.00    -0.354 N 
ATOM     45  C   UNL A   1      41.661  24.235  28.211  1.00  0.00     0.074 A 
ATOM     46  C   UNL A   1      40.361  24.259  27.576  1.00  0.00     0.031 C 
ATOM     47  C   UNL A   1      43.918  28.710  29.531  1.00  0.00     0.029 A 
ATOM     48  C   UNL A   1      43.072  29.547  30.361  1.00  0.00     0.049 A 
ATOM     49  H   UNL A   1      41.163  30.287  29.691  1.00  0.00     0.167 HD
ATOM     50  C   UNL A   1      42.752  23.417  28.165  1.00  0.00     0.037 A 
ATOM     51  C   UNL A   1      43.123  29.630  31.722  1.00  0.00     0.037 A 
ATOM     52  C   UNL A   1      43.867  23.960  28.944  1.00  0.00     0.049 A 
ATOM     53  C   UNL A   1      43.652  28.384  32.402  1.00  0.00     0.074 A 
ATOM     54  C   UNL A   1      45.024  24.657  28.626  1.00  0.00     0.029 A 
ATOM     55  N   UNL A   1      43.730  24.075  30.317  1.00  0.00    -0.354 N 
ATOM     56  N   UNL A   1      44.097  27.330  31.775  1.00  0.00    -0.248 NA
ATOM     57  C   UNL A   1      43.616  28.192  33.853  1.00  0.00     0.031 C 
ATOM     58  C   UNL A   1      45.575  25.187  29.829  1.00  0.00     0.029 A 
ATOM     59  C   UNL A   1      44.760  24.809  30.878  1.00  0.00     0.049 A 
ATOM     60  H   UNL A   1      42.987  23.683  30.831  1.00  0.00     0.167 HD
ATOM     61  C   UNL A   1      44.336  26.328  32.679  1.00  0.00     0.074 A 
ATOM     62  C   UNL A   1      44.022  26.916  33.968  1.00  0.00     0.031 C 
ATOM     63  C   UNL A   1      44.729  25.073  32.309  1.00  0.00     0.037 A 
BRANCH  50  64
ATOM     64  C   UNL A   1      42.881  22.267  27.191  1.00  0.00     0.057 A 
ATOM     65  C   UNL A   1      42.095  21.108  27.332  1.00  0.00     0.134 A 
ATOM     66  C   UNL A   1      43.799  22.212  26.128  1.00  0.00     0.134 A 
ATOM     67  F   UNL A   1      41.082  21.045  28.206  1.00  0.00    -0.206 F 
ATOM     68  C   UNL A   1      42.305  19.946  26.577  1.00  0.00     0.040 A 
ATOM     69  C   UNL A   1      44.067  21.038  25.407  1.00  0.00     0.040 A 
ATOM     70  F   UNL A   1      44.434  23.307  25.692  1.00  0.00    -0.206 F 
ATOM     71  C   UNL A   1      43.328  19.891  25.645  1.00  0.00     0.006 A 
ENDBRANCH  50  64
BRANCH  51  72
ATOM     72  C   UNL A   1      42.066  30.533  32.252  1.00  0.00     0.057 A 
ATOM     73  C   UNL A   1      40.911  29.936  32.793  1.00  0.00     0.134 A 
ATOM     74  C   UNL A   1      42.360  31.837  32.652  1.00  0.00     0.134 A 
ATOM     75  F   UNL A   1      40.561  28.691  32.430  1.00  0.00    -0.206 F 
ATOM     76  C   UNL A   1      40.192  30.536  33.828  1.00  0.00     0.040 A 
ATOM     77  C   UNL A   1      41.627  32.458  33.667  1.00  0.00     0.040 A 
ATOM     78  F   UNL A   1      43.439  32.474  32.176  1.00  0.00    -0.206 F 
ATOM     79  C   UNL A   1      40.583  31.783  34.302  1.00  0.00     0.006 A 
ENDBRANCH  51  72
BRANCH  63  80
ATOM     80  C   UNL A   1      45.087  23.984  33.289  1.00  0.00     0.057 A 
ATOM     81  C   UNL A   1      46.365  23.866  33.858  1.00  0.00     0.134 A 
ATOM     82  C   UNL A   1      44.192  22.942  33.607  1.00  0.00     0.134 A 
ATOM     83  F   UNL A   1      47.346  24.725  33.545  1.00  0.00    -0.206 F 
ATOM     84  C   UNL A   1      46.700  22.838  34.749  1.00  0.00     0.040 A 
ATOM     85  C   UNL A   1      44.531  21.882  34.454  1.00  0.00     0.040 A 
ATOM     86  F   UNL A   1      42.942  22.907  33.126  1.00  0.00    -0.206 F 
ATOM     87  C   UNL A   1      45.783  21.839  35.047  1.00  0.00     0.006 A 
ENDBRANCH  63  80
ENDBRANCH  37  38
ENDBRANCH  29  32
ENDBRANCH  27  28
ENDBRANCH  26  27
ENDBRANCH   1  26
TORSDOF 13
ENDMDL
