MODEL 1
REMARK VINA RESULT:     -10.3      0.000      0.000
REMARK SMILES COCCNC(=O)Cn1ccc(C(=O)NCCCNC(=O)c2ccc(-c3c4nc(c(-c5c(F)cccc5F)c5ccc([nH]5)c(-c5c(F)cccc5F)c5nc(c(-c6c(F)cccc6F)c6ccc3[nH]6)C=C5)C=C4)cc2)c1
REMARK SMILES IDX 13 1 14 2 15 3 12 5 9 6 10 7 76 8 11 9 8 10 6 11 5 12 7 14
REMARK SMILES IDX 4 15 3 16 2 17 1 18 16 19 17 20 18 21 19 22 20 23 21 25
REMARK SMILES IDX 22 26 23 27 75 28 24 29 74 30 25 31 26 32 27 33 68 34 28 35
REMARK SMILES IDX 73 36 67 37 69 38 29 39 72 40 66 41 65 42 30 44 56 45 39 46
REMARK SMILES IDX 55 47 40 48 43 49 54 50 70 51 41 52 42 53 53 55 71 56 44 57
REMARK SMILES IDX 31 58 32 59 37 60 33 61 34 62 36 63 38 64 35 65 57 66 58 67
REMARK SMILES IDX 63 68 59 69 60 70 62 71 64 72 61 73 45 74 46 75 51 76 47 77
REMARK SMILES IDX 48 78 50 79 52 80 49 81
REMARK H PARENT 15 4 5 13 19 24 69 43 43 54
REMARK Flexibility Score: inf
ROOT
ATOM      1  C   UNL A   1      37.213  23.602  25.682  1.00  0.00     0.252 C 
ATOM      2  O   UNL A   1      37.885  24.374  26.355  1.00  0.00    -0.269 OA
ATOM      3  N   UNL A   1      37.853  22.504  25.161  1.00  0.00    -0.352 N 
ATOM      4  H   UNL A   1      38.821  22.479  25.339  1.00  0.00     0.163 HD
ENDROOT
BRANCH   1   5
ATOM      5  C   UNL A   1      35.778  23.812  25.489  1.00  0.00     0.057 A 
ATOM      6  N   UNL A   1      33.743  24.318  24.690  1.00  0.00    -0.344 N 
ATOM      7  C   UNL A   1      33.537  23.683  25.883  1.00  0.00     0.087 A 
ATOM      8  C   UNL A   1      35.091  24.448  24.469  1.00  0.00     0.100 A 
ATOM      9  C   UNL A   1      34.772  23.389  26.416  1.00  0.00     0.033 A 
BRANCH   6  10
ATOM     10  C   UNL A   1      32.699  24.729  23.766  1.00  0.00     0.221 C 
BRANCH  10  11
ATOM     11  C   UNL A   1      32.855  24.133  22.384  1.00  0.00     0.239 C 
ATOM     12  N   UNL A   1      32.509  22.834  22.154  1.00  0.00    -0.352 N 
ATOM     13  H   UNL A   1      32.769  22.476  21.274  1.00  0.00     0.163 HD
ATOM     14  O   UNL A   1      33.330  24.788  21.454  1.00  0.00    -0.273 OA
BRANCH  12  15
ATOM     15  C   UNL A   1      31.807  21.902  23.029  1.00  0.00     0.144 C 
BRANCH  15  16
ATOM     16  C   UNL A   1      32.261  20.447  22.836  1.00  0.00     0.181 C 
BRANCH  16  17
ATOM     17  O   UNL A   1      32.527  19.783  24.076  1.00  0.00    -0.383 OA
ATOM     18  C   UNL A   1      33.767  20.138  24.668  1.00  0.00     0.194 C 
ENDBRANCH  16  17
ENDBRANCH  15  16
ENDBRANCH  12  15
ENDBRANCH  10  11
ENDBRANCH   6  10
ENDBRANCH   1   5
BRANCH   3  19
ATOM     19  C   UNL A   1      37.359  21.376  24.399  1.00  0.00     0.118 C 
BRANCH  19  20
ATOM     20  C   UNL A   1      37.994  20.067  24.876  1.00  0.00     0.042 C 
BRANCH  20  21
ATOM     21  C   UNL A   1      38.957  20.302  26.040  1.00  0.00     0.118 C 
BRANCH  21  22
ATOM     22  N   UNL A   1      40.055  19.347  25.988  1.00  0.00    -0.352 N 
ATOM     23  C   UNL A   1      41.410  19.529  26.032  1.00  0.00     0.251 C 
ATOM     24  H   UNL A   1      39.774  18.407  25.908  1.00  0.00     0.163 HD
ATOM     25  O   UNL A   1      42.137  18.604  25.672  1.00  0.00    -0.269 OA
BRANCH  23  26
ATOM     26  C   UNL A   1      42.021  20.796  26.475  1.00  0.00     0.039 A 
ATOM     27  C   UNL A   1      42.485  21.666  25.478  1.00  0.00     0.014 A 
ATOM     28  C   UNL A   1      42.235  21.097  27.824  1.00  0.00     0.014 A 
ATOM     29  C   UNL A   1      43.105  22.857  25.830  1.00  0.00     0.010 A 
ATOM     30  C   UNL A   1      42.833  22.302  28.183  1.00  0.00     0.010 A 
ATOM     31  C   UNL A   1      43.250  23.187  27.184  1.00  0.00    -0.014 A 
BRANCH  31  32
ATOM     32  C   UNL A   1      43.662  24.569  27.516  1.00  0.00     0.031 A 
ATOM     33  C   UNL A   1      42.426  25.476  27.719  1.00  0.00     0.074 A 
ATOM     34  C   UNL A   1      45.007  24.824  27.538  1.00  0.00     0.049 A 
ATOM     35  N   UNL A   1      42.284  26.752  27.531  1.00  0.00    -0.248 NA
ATOM     36  C   UNL A   1      41.129  24.858  28.128  1.00  0.00     0.031 C 
ATOM     37  C   UNL A   1      46.059  23.796  27.383  1.00  0.00     0.029 A 
ATOM     38  N   UNL A   1      45.771  25.967  27.686  1.00  0.00    -0.354 N 
ATOM     39  C   UNL A   1      40.989  27.115  27.974  1.00  0.00     0.074 A 
ATOM     40  C   UNL A   1      40.289  25.893  28.218  1.00  0.00     0.031 C 
ATOM     41  C   UNL A   1      47.287  24.356  27.355  1.00  0.00     0.029 A 
ATOM     42  C   UNL A   1      47.174  25.795  27.494  1.00  0.00     0.049 A 
ATOM     43  H   UNL A   1      45.375  26.840  27.910  1.00  0.00     0.167 HD
ATOM     44  C   UNL A   1      40.626  28.406  28.235  1.00  0.00     0.037 A 
ATOM     45  C   UNL A   1      48.161  26.744  27.403  1.00  0.00     0.037 A 
ATOM     46  C   UNL A   1      41.715  29.273  27.949  1.00  0.00     0.049 A 
ATOM     47  C   UNL A   1      47.501  28.010  27.739  1.00  0.00     0.074 A 
ATOM     48  C   UNL A   1      42.265  29.685  26.765  1.00  0.00     0.029 A 
ATOM     49  N   UNL A   1      42.601  29.503  28.973  1.00  0.00    -0.354 N 
ATOM     50  N   UNL A   1      47.145  28.359  28.938  1.00  0.00    -0.248 NA
ATOM     51  C   UNL A   1      47.124  28.919  26.650  1.00  0.00     0.031 C 
ATOM     52  C   UNL A   1      43.644  29.685  27.044  1.00  0.00     0.029 A 
ATOM     53  C   UNL A   1      43.854  29.537  28.420  1.00  0.00     0.049 A 
ATOM     54  H   UNL A   1      42.377  29.621  29.924  1.00  0.00     0.167 HD
ATOM     55  C   UNL A   1      46.208  29.328  28.684  1.00  0.00     0.074 A 
ATOM     56  C   UNL A   1      46.493  29.848  27.364  1.00  0.00     0.031 C 
ATOM     57  C   UNL A   1      44.984  29.237  29.266  1.00  0.00     0.037 A 
BRANCH  44  58
ATOM     58  C   UNL A   1      39.459  29.023  28.957  1.00  0.00     0.057 A 
ATOM     59  C   UNL A   1      39.327  28.779  30.347  1.00  0.00     0.134 A 
ATOM     60  C   UNL A   1      38.316  29.500  28.312  1.00  0.00     0.134 A 
ATOM     61  F   UNL A   1      40.375  28.369  31.079  1.00  0.00    -0.206 F 
ATOM     62  C   UNL A   1      38.104  28.859  31.014  1.00  0.00     0.040 A 
ATOM     63  C   UNL A   1      37.092  29.630  28.985  1.00  0.00     0.040 A 
ATOM     64  F   UNL A   1      38.316  29.764  26.999  1.00  0.00    -0.206 F 
ATOM     65  C   UNL A   1      36.972  29.265  30.325  1.00  0.00     0.006 A 
ENDBRANCH  44  58
BRANCH  45  66
ATOM     66  C   UNL A   1      49.621  26.851  27.002  1.00  0.00     0.057 A 
ATOM     67  C   UNL A   1      50.671  27.309  27.801  1.00  0.00     0.134 A 
ATOM     68  C   UNL A   1      50.046  26.395  25.718  1.00  0.00     0.134 A 
ATOM     69  F   UNL A   1      50.445  27.895  28.980  1.00  0.00    -0.206 F 
ATOM     70  C   UNL A   1      52.025  27.204  27.408  1.00  0.00     0.040 A 
ATOM     71  C   UNL A   1      51.383  26.241  25.335  1.00  0.00     0.040 A 
ATOM     72  F   UNL A   1      49.178  26.067  24.753  1.00  0.00    -0.206 F 
ATOM     73  C   UNL A   1      52.387  26.630  26.193  1.00  0.00     0.006 A 
ENDBRANCH  45  66
BRANCH  57  74
ATOM     74  C   UNL A   1      44.967  28.460  30.571  1.00  0.00     0.057 A 
ATOM     75  C   UNL A   1      45.691  28.933  31.674  1.00  0.00     0.134 A 
ATOM     76  C   UNL A   1      44.367  27.204  30.741  1.00  0.00     0.134 A 
ATOM     77  F   UNL A   1      46.289  30.133  31.621  1.00  0.00    -0.206 F 
ATOM     78  C   UNL A   1      45.830  28.192  32.856  1.00  0.00     0.040 A 
ATOM     79  C   UNL A   1      44.488  26.451  31.918  1.00  0.00     0.040 A 
ATOM     80  F   UNL A   1      43.644  26.653  29.769  1.00  0.00    -0.206 F 
ATOM     81  C   UNL A   1      45.232  26.942  32.980  1.00  0.00     0.006 A 
ENDBRANCH  57  74
ENDBRANCH  31  32
ENDBRANCH  23  26
ENDBRANCH  21  22
ENDBRANCH  20  21
ENDBRANCH  19  20
ENDBRANCH   3  19
TORSDOF 15
ENDMDL
MODEL 2
REMARK VINA RESULT:     -10.2      2.874      7.156
REMARK SMILES COCCNC(=O)Cn1ccc(C(=O)NCCCNC(=O)c2ccc(-c3c4nc(c(-c5c(F)cccc5F)c5ccc([nH]5)c(-c5c(F)cccc5F)c5nc(c(-c6c(F)cccc6F)c6ccc3[nH]6)C=C5)C=C4)cc2)c1
REMARK SMILES IDX 13 1 14 2 15 3 12 5 9 6 10 7 76 8 11 9 8 10 6 11 5 12 7 14
REMARK SMILES IDX 4 15 3 16 2 17 1 18 16 19 17 20 18 21 19 22 20 23 21 25
REMARK SMILES IDX 22 26 23 27 75 28 24 29 74 30 25 31 26 32 27 33 68 34 28 35
REMARK SMILES IDX 73 36 67 37 69 38 29 39 72 40 66 41 65 42 30 44 56 45 39 46
REMARK SMILES IDX 55 47 40 48 43 49 54 50 70 51 41 52 42 53 53 55 71 56 44 57
REMARK SMILES IDX 31 58 32 59 37 60 33 61 34 62 36 63 38 64 35 65 57 66 58 67
REMARK SMILES IDX 63 68 59 69 60 70 62 71 64 72 61 73 45 74 46 75 51 76 47 77
REMARK SMILES IDX 48 78 50 79 52 80 49 81
REMARK H PARENT 15 4 5 13 19 24 69 43 43 54
REMARK Flexibility Score: inf
ROOT
ATOM      1  C   UNL A   1      30.975  25.861  26.136  1.00  0.00     0.252 C 
ATOM      2  O   UNL A   1      29.798  25.867  26.479  1.00  0.00    -0.269 OA
ATOM      3  N   UNL A   1      31.696  27.010  26.348  1.00  0.00    -0.352 N 
ATOM      4  H   UNL A   1      31.168  27.758  26.711  1.00  0.00     0.163 HD
ENDROOT
BRANCH   1   5
ATOM      5  C   UNL A   1      31.597  24.661  25.576  1.00  0.00     0.057 A 
ATOM      6  N   UNL A   1      32.901  22.886  25.149  1.00  0.00    -0.344 N 
ATOM      7  C   UNL A   1      31.856  22.811  24.271  1.00  0.00     0.087 A 
ATOM      8  C   UNL A   1      32.782  24.026  25.904  1.00  0.00     0.100 A 
ATOM      9  C   UNL A   1      31.054  23.908  24.486  1.00  0.00     0.033 A 
BRANCH   6  10
ATOM     10  C   UNL A   1      33.938  21.880  25.308  1.00  0.00     0.221 C 
BRANCH  10  11
ATOM     11  C   UNL A   1      33.754  21.019  26.538  1.00  0.00     0.239 C 
ATOM     12  N   UNL A   1      33.134  19.808  26.442  1.00  0.00    -0.352 N 
ATOM     13  H   UNL A   1      32.924  19.371  27.299  1.00  0.00     0.163 HD
ATOM     14  O   UNL A   1      34.119  21.406  27.651  1.00  0.00    -0.273 OA
BRANCH  12  15
ATOM     15  C   UNL A   1      32.741  19.071  25.247  1.00  0.00     0.144 C 
BRANCH  15  16
ATOM     16  C   UNL A   1      32.858  17.549  25.421  1.00  0.00     0.181 C 
BRANCH  16  17
ATOM     17  O   UNL A   1      34.012  17.007  24.770  1.00  0.00    -0.383 OA
ATOM     18  C   UNL A   1      33.849  16.807  23.375  1.00  0.00     0.194 C 
ENDBRANCH  16  17
ENDBRANCH  15  16
ENDBRANCH  12  15
ENDBRANCH  10  11
ENDBRANCH   6  10
ENDBRANCH   1   5
BRANCH   3  19
ATOM     19  C   UNL A   1      33.095  27.318  26.135  1.00  0.00     0.118 C 
BRANCH  19  20
ATOM     20  C   UNL A   1      33.485  28.624  26.833  1.00  0.00     0.042 C 
BRANCH  20  21
ATOM     21  C   UNL A   1      34.992  28.872  26.758  1.00  0.00     0.118 C 
BRANCH  21  22
ATOM     22  N   UNL A   1      35.324  30.158  27.356  1.00  0.00    -0.352 N 
ATOM     23  C   UNL A   1      36.359  30.535  28.166  1.00  0.00     0.251 C 
ATOM     24  H   UNL A   1      34.691  30.882  27.140  1.00  0.00     0.163 HD
ATOM     25  O   UNL A   1      36.264  31.594  28.783  1.00  0.00    -0.269 OA
BRANCH  23  26
ATOM     26  C   UNL A   1      37.569  29.709  28.334  1.00  0.00     0.039 A 
ATOM     27  C   UNL A   1      38.497  29.712  27.283  1.00  0.00     0.014 A 
ATOM     28  C   UNL A   1      37.760  28.869  29.436  1.00  0.00     0.014 A 
ATOM     29  C   UNL A   1      39.638  28.925  27.362  1.00  0.00     0.010 A 
ATOM     30  C   UNL A   1      38.915  28.098  29.533  1.00  0.00     0.010 A 
ATOM     31  C   UNL A   1      39.859  28.141  28.502  1.00  0.00    -0.014 A 
BRANCH  31  32
ATOM     32  C   UNL A   1      41.198  27.535  28.672  1.00  0.00     0.031 A 
ATOM     33  C   UNL A   1      41.189  26.053  28.233  1.00  0.00     0.074 A 
ATOM     34  C   UNL A   1      42.172  28.330  29.216  1.00  0.00     0.049 A 
ATOM     35  N   UNL A   1      41.912  25.055  28.638  1.00  0.00    -0.248 NA
ATOM     36  C   UNL A   1      40.174  25.595  27.238  1.00  0.00     0.031 C 
ATOM     37  C   UNL A   1      42.009  29.769  29.517  1.00  0.00     0.029 A 
ATOM     38  N   UNL A   1      43.474  28.117  29.630  1.00  0.00    -0.354 N 
ATOM     39  C   UNL A   1      41.592  23.932  27.836  1.00  0.00     0.074 A 
ATOM     40  C   UNL A   1      40.438  24.296  27.076  1.00  0.00     0.031 C 
ATOM     41  C   UNL A   1      43.105  30.265  30.131  1.00  0.00     0.029 A 
ATOM     42  C   UNL A   1      44.094  29.218  30.291  1.00  0.00     0.049 A 
ATOM     43  H   UNL A   1      43.942  27.264  29.478  1.00  0.00     0.167 HD
ATOM     44  C   UNL A   1      42.385  22.822  27.758  1.00  0.00     0.037 A 
ATOM     45  C   UNL A   1      45.292  29.267  30.959  1.00  0.00     0.037 A 
ATOM     46  C   UNL A   1      43.503  22.976  28.622  1.00  0.00     0.049 A 
ATOM     47  C   UNL A   1      45.925  27.970  30.697  1.00  0.00     0.074 A 
ATOM     48  C   UNL A   1      43.614  22.939  29.986  1.00  0.00     0.029 A 
ATOM     49  N   UNL A   1      44.612  23.585  28.087  1.00  0.00    -0.354 N 
ATOM     50  N   UNL A   1      46.463  27.629  29.565  1.00  0.00    -0.248 NA
ATOM     51  C   UNL A   1      45.878  26.939  31.740  1.00  0.00     0.031 C 
ATOM     52  C   UNL A   1      44.538  23.965  30.254  1.00  0.00     0.029 A 
ATOM     53  C   UNL A   1      45.137  24.392  29.062  1.00  0.00     0.049 A 
ATOM     54  H   UNL A   1      44.962  23.465  27.175  1.00  0.00     0.167 HD
ATOM     55  C   UNL A   1      46.480  26.260  29.662  1.00  0.00     0.074 A 
ATOM     56  C   UNL A   1      46.452  25.942  31.073  1.00  0.00     0.031 C 
ATOM     57  C   UNL A   1      45.945  25.517  28.659  1.00  0.00     0.037 A 
BRANCH  44  58
ATOM     58  C   UNL A   1      42.434  21.654  26.812  1.00  0.00     0.057 A 
ATOM     59  C   UNL A   1      41.804  20.446  27.207  1.00  0.00     0.134 A 
ATOM     60  C   UNL A   1      43.347  21.547  25.761  1.00  0.00     0.134 A 
ATOM     61  F   UNL A   1      40.870  20.437  28.172  1.00  0.00    -0.206 F 
ATOM     62  C   UNL A   1      42.170  19.201  26.693  1.00  0.00     0.040 A 
ATOM     63  C   UNL A   1      43.688  20.305  25.205  1.00  0.00     0.040 A 
ATOM     64  F   UNL A   1      44.008  22.618  25.302  1.00  0.00    -0.206 F 
ATOM     65  C   UNL A   1      43.135  19.125  25.701  1.00  0.00     0.006 A 
ENDBRANCH  44  58
BRANCH  45  66
ATOM     66  C   UNL A   1      46.052  30.192  31.892  1.00  0.00     0.057 A 
ATOM     67  C   UNL A   1      47.288  30.792  31.642  1.00  0.00     0.134 A 
ATOM     68  C   UNL A   1      45.477  30.584  33.138  1.00  0.00     0.134 A 
ATOM     69  F   UNL A   1      48.033  30.442  30.589  1.00  0.00    -0.206 F 
ATOM     70  C   UNL A   1      47.837  31.782  32.490  1.00  0.00     0.040 A 
ATOM     71  C   UNL A   1      45.983  31.594  33.962  1.00  0.00     0.040 A 
ATOM     72  F   UNL A   1      44.376  30.002  33.630  1.00  0.00    -0.206 F 
ATOM     73  C   UNL A   1      47.165  32.217  33.628  1.00  0.00     0.006 A 
ENDBRANCH  45  66
BRANCH  57  74
ATOM     74  C   UNL A   1      45.944  26.202  27.303  1.00  0.00     0.057 A 
ATOM     75  C   UNL A   1      47.159  26.538  26.691  1.00  0.00     0.134 A 
ATOM     76  C   UNL A   1      44.793  26.653  26.640  1.00  0.00     0.134 A 
ATOM     77  F   UNL A   1      48.320  26.141  27.235  1.00  0.00    -0.206 F 
ATOM     78  C   UNL A   1      47.224  27.296  25.512  1.00  0.00     0.040 A 
ATOM     79  C   UNL A   1      44.837  27.404  25.457  1.00  0.00     0.040 A 
ATOM     80  F   UNL A   1      43.580  26.387  27.117  1.00  0.00    -0.206 F 
ATOM     81  C   UNL A   1      46.059  27.737  24.893  1.00  0.00     0.006 A 
ENDBRANCH  57  74
ENDBRANCH  31  32
ENDBRANCH  23  26
ENDBRANCH  21  22
ENDBRANCH  20  21
ENDBRANCH  19  20
ENDBRANCH   3  19
TORSDOF 15
ENDMDL
MODEL 3
REMARK VINA RESULT:     -10.1      0.982      2.164
REMARK SMILES COCCNC(=O)Cn1ccc(C(=O)NCCCNC(=O)c2ccc(-c3c4nc(c(-c5c(F)cccc5F)c5ccc([nH]5)c(-c5c(F)cccc5F)c5nc(c(-c6c(F)cccc6F)c6ccc3[nH]6)C=C5)C=C4)cc2)c1
REMARK SMILES IDX 13 1 14 2 15 3 12 5 9 6 10 7 76 8 11 9 8 10 6 11 5 12 7 14
REMARK SMILES IDX 4 15 3 16 2 17 1 18 16 19 17 20 18 21 19 22 20 23 21 25
REMARK SMILES IDX 22 26 23 27 75 28 24 29 74 30 25 31 26 32 27 33 68 34 28 35
REMARK SMILES IDX 73 36 67 37 69 38 29 39 72 40 66 41 65 42 30 44 56 45 39 46
REMARK SMILES IDX 55 47 40 48 43 49 54 50 70 51 41 52 42 53 53 55 71 56 44 57
REMARK SMILES IDX 31 58 32 59 37 60 33 61 34 62 36 63 38 64 35 65 57 66 58 67
REMARK SMILES IDX 63 68 59 69 60 70 62 71 64 72 61 73 45 74 46 75 51 76 47 77
REMARK SMILES IDX 48 78 50 79 52 80 49 81
REMARK H PARENT 15 4 5 13 19 24 69 43 43 54
REMARK Flexibility Score: inf
ROOT
ATOM      1  C   UNL A   1      33.862  19.480  24.885  1.00  0.00     0.252 C 
ATOM      2  O   UNL A   1      33.205  18.446  24.843  1.00  0.00    -0.269 OA
ATOM      3  N   UNL A   1      35.224  19.353  25.014  1.00  0.00    -0.352 N 
ATOM      4  H   UNL A   1      35.535  18.425  25.118  1.00  0.00     0.163 HD
ENDROOT
BRANCH   1   5
ATOM      5  C   UNL A   1      33.226  20.790  24.749  1.00  0.00     0.057 A 
ATOM      6  N   UNL A   1      32.327  22.702  23.993  1.00  0.00    -0.344 N 
ATOM      7  C   UNL A   1      32.088  22.675  25.339  1.00  0.00     0.087 A 
ATOM      8  C   UNL A   1      33.058  21.597  23.636  1.00  0.00     0.100 A 
ATOM      9  C   UNL A   1      32.660  21.527  25.838  1.00  0.00     0.033 A 
BRANCH   6  10
ATOM     10  C   UNL A   1      31.825  23.708  23.072  1.00  0.00     0.221 C 
BRANCH  10  11
ATOM     11  C   UNL A   1      32.923  24.472  22.365  1.00  0.00     0.239 C 
ATOM     12  N   UNL A   1      33.477  25.574  22.947  1.00  0.00    -0.352 N 
ATOM     13  H   UNL A   1      34.080  26.099  22.372  1.00  0.00     0.163 HD
ATOM     14  O   UNL A   1      33.309  24.145  21.240  1.00  0.00    -0.273 OA
BRANCH  12  15
ATOM     15  C   UNL A   1      33.302  26.081  24.303  1.00  0.00     0.144 C 
BRANCH  15  16
ATOM     16  C   UNL A   1      34.397  25.598  25.266  1.00  0.00     0.181 C 
BRANCH  16  17
ATOM     17  O   UNL A   1      35.129  24.479  24.754  1.00  0.00    -0.383 OA
ATOM     18  C   UNL A   1      36.106  23.969  25.648  1.00  0.00     0.194 C 
ENDBRANCH  16  17
ENDBRANCH  15  16
ENDBRANCH  12  15
ENDBRANCH  10  11
ENDBRANCH   6  10
ENDBRANCH   1   5
BRANCH   3  19
ATOM     19  C   UNL A   1      36.283  20.341  25.022  1.00  0.00     0.118 C 
BRANCH  19  20
ATOM     20  C   UNL A   1      37.641  19.695  24.735  1.00  0.00     0.042 C 
BRANCH  20  21
ATOM     21  C   UNL A   1      38.726  20.230  25.670  1.00  0.00     0.118 C 
BRANCH  21  22
ATOM     22  N   UNL A   1      39.777  19.239  25.846  1.00  0.00    -0.352 N 
ATOM     23  C   UNL A   1      41.120  19.377  26.064  1.00  0.00     0.251 C 
ATOM     24  H   UNL A   1      39.468  18.305  25.798  1.00  0.00     0.163 HD
ATOM     25  O   UNL A   1      41.848  18.403  25.881  1.00  0.00    -0.269 OA
BRANCH  23  26
ATOM     26  C   UNL A   1      41.721  20.655  26.491  1.00  0.00     0.039 A 
ATOM     27  C   UNL A   1      42.181  21.514  25.483  1.00  0.00     0.014 A 
ATOM     28  C   UNL A   1      41.929  20.978  27.837  1.00  0.00     0.014 A 
ATOM     29  C   UNL A   1      42.791  22.715  25.819  1.00  0.00     0.010 A 
ATOM     30  C   UNL A   1      42.516  22.192  28.180  1.00  0.00     0.010 A 
ATOM     31  C   UNL A   1      42.930  23.065  27.169  1.00  0.00    -0.014 A 
BRANCH  31  32
ATOM     32  C   UNL A   1      43.331  24.455  27.483  1.00  0.00     0.031 A 
ATOM     33  C   UNL A   1      42.088  25.359  27.654  1.00  0.00     0.074 A 
ATOM     34  C   UNL A   1      44.674  24.718  27.518  1.00  0.00     0.049 A 
ATOM     35  N   UNL A   1      41.942  26.630  27.443  1.00  0.00    -0.248 NA
ATOM     36  C   UNL A   1      40.789  24.742  28.057  1.00  0.00     0.031 C 
ATOM     37  C   UNL A   1      45.733  23.692  27.394  1.00  0.00     0.029 A 
ATOM     38  N   UNL A   1      45.431  25.867  27.656  1.00  0.00    -0.354 N 
ATOM     39  C   UNL A   1      40.639  26.994  27.862  1.00  0.00     0.074 A 
ATOM     40  C   UNL A   1      39.942  25.773  28.119  1.00  0.00     0.031 C 
ATOM     41  C   UNL A   1      46.959  24.258  27.371  1.00  0.00     0.029 A 
ATOM     42  C   UNL A   1      46.836  25.698  27.484  1.00  0.00     0.049 A 
ATOM     43  H   UNL A   1      45.027  26.741  27.859  1.00  0.00     0.167 HD
ATOM     44  C   UNL A   1      40.266  28.288  28.097  1.00  0.00     0.037 A 
ATOM     45  C   UNL A   1      47.820  26.651  27.389  1.00  0.00     0.037 A 
ATOM     46  C   UNL A   1      41.355  29.156  27.809  1.00  0.00     0.049 A 
ATOM     47  C   UNL A   1      47.150  27.919  27.695  1.00  0.00     0.074 A 
ATOM     48  C   UNL A   1      41.918  29.550  26.626  1.00  0.00     0.029 A 
ATOM     49  N   UNL A   1      42.227  29.408  28.840  1.00  0.00    -0.354 N 
ATOM     50  N   UNL A   1      46.777  28.287  28.883  1.00  0.00    -0.248 NA
ATOM     51  C   UNL A   1      46.782  28.808  26.586  1.00  0.00     0.031 C 
ATOM     52  C   UNL A   1      43.294  29.562  26.922  1.00  0.00     0.029 A 
ATOM     53  C   UNL A   1      43.487  29.439  28.303  1.00  0.00     0.049 A 
ATOM     54  H   UNL A   1      41.990  29.541  29.787  1.00  0.00     0.167 HD
ATOM     55  C   UNL A   1      45.838  29.247  28.601  1.00  0.00     0.074 A 
ATOM     56  C   UNL A   1      46.137  29.745  27.276  1.00  0.00     0.031 C 
ATOM     57  C   UNL A   1      44.607  29.160  29.168  1.00  0.00     0.037 A 
BRANCH  44  58
ATOM     58  C   UNL A   1      39.088  28.911  28.792  1.00  0.00     0.057 A 
ATOM     59  C   UNL A   1      38.279  29.815  28.059  1.00  0.00     0.134 A 
ATOM     60  C   UNL A   1      38.945  28.958  30.181  1.00  0.00     0.134 A 
ATOM     61  F   UNL A   1      38.294  29.823  26.716  1.00  0.00    -0.206 F 
ATOM     62  C   UNL A   1      37.498  30.797  28.671  1.00  0.00     0.040 A 
ATOM     63  C   UNL A   1      38.126  29.911  30.805  1.00  0.00     0.040 A 
ATOM     64  F   UNL A   1      39.659  28.155  30.981  1.00  0.00    -0.206 F 
ATOM     65  C   UNL A   1      37.438  30.862  30.054  1.00  0.00     0.006 A 
ENDBRANCH  44  58
BRANCH  45  66
ATOM     66  C   UNL A   1      49.284  26.759  27.005  1.00  0.00     0.057 A 
ATOM     67  C   UNL A   1      50.342  27.106  27.848  1.00  0.00     0.134 A 
ATOM     68  C   UNL A   1      49.705  26.422  25.684  1.00  0.00     0.134 A 
ATOM     69  F   UNL A   1      50.124  27.578  29.080  1.00  0.00    -0.206 F 
ATOM     70  C   UNL A   1      51.695  27.005  27.451  1.00  0.00     0.040 A 
ATOM     71  C   UNL A   1      51.039  26.272  25.290  1.00  0.00     0.040 A 
ATOM     72  F   UNL A   1      48.834  26.215  24.688  1.00  0.00    -0.206 F 
ATOM     73  C   UNL A   1      52.048  26.546  26.186  1.00  0.00     0.006 A 
ENDBRANCH  45  66
BRANCH  57  74
ATOM     74  C   UNL A   1      44.577  28.405  30.486  1.00  0.00     0.057 A 
ATOM     75  C   UNL A   1      45.275  28.906  31.593  1.00  0.00     0.134 A 
ATOM     76  C   UNL A   1      43.990  27.144  30.667  1.00  0.00     0.134 A 
ATOM     77  F   UNL A   1      45.860  30.113  31.530  1.00  0.00    -0.206 F 
ATOM     78  C   UNL A   1      45.404  28.188  32.790  1.00  0.00     0.040 A 
ATOM     79  C   UNL A   1      44.101  26.413  31.860  1.00  0.00     0.040 A 
ATOM     80  F   UNL A   1      43.292  26.567  29.693  1.00  0.00    -0.206 F 
ATOM     81  C   UNL A   1      44.819  26.932  32.926  1.00  0.00     0.006 A 
ENDBRANCH  57  74
ENDBRANCH  31  32
ENDBRANCH  23  26
ENDBRANCH  21  22
ENDBRANCH  20  21
ENDBRANCH  19  20
ENDBRANCH   3  19
TORSDOF 15
ENDMDL
