MODEL 1
REMARK VINA RESULT:     -12.3      0.000      0.000
REMARK SMILES CC[C@]1(C(=O)NCCCNC(=O)c2ccc(-c3c4nc(c(-c5c(F)cccc5F)c5ccc([nH]5)c(-c5c(F)cccc5F)c5nc(c(-c6c(F)cccc6F)c6ccc3[nH]6)C=C5)C=C4)cc2)CCC[N@@H+](Cc2cc(OC)ccc2F)C1
REMARK SMILES IDX 7 1 6 2 4 3 5 4 3 6 67 7 81 8 68 9 70 10 69 11 2 13 1 14
REMARK SMILES IDX 71 15 72 16 73 17 79 18 74 19 78 20 80 21 77 22 75 23 76 24
REMARK SMILES IDX 8 25 9 26 10 27 11 28 12 30 13 31 14 32 66 33 15 34 65 35
REMARK SMILES IDX 16 36 17 37 18 38 59 39 19 40 64 41 58 42 60 43 20 44 63 45
REMARK SMILES IDX 57 46 56 47 21 49 47 50 30 51 46 52 31 53 34 54 45 55 61 56
REMARK SMILES IDX 32 57 33 58 44 60 62 61 35 62 22 63 23 64 28 65 24 66 25 67
REMARK SMILES IDX 27 68 29 69 26 70 48 71 49 72 54 73 50 74 51 75 53 76 55 77
REMARK SMILES IDX 52 78 36 79 37 80 42 81 38 82 39 83 41 84 43 85 40 86
REMARK H PARENT 6 5 70 12 10 29 60 48 34 59
REMARK Flexibility Score: inf
ROOT
ATOM      1  C   UNL A   1      31.667  30.866  26.117  1.00  0.00     0.117 C 
ENDROOT
BRANCH   1   2
ATOM      2  N   UNL A   1      31.486  29.801  27.094  1.00  0.00    -0.355 N 
ATOM      3  C   UNL A   1      31.787  28.471  27.079  1.00  0.00     0.231 C 
ATOM      4  O   UNL A   1      31.357  27.830  28.042  1.00  0.00    -0.274 OA
ATOM      5  H   UNL A   1      31.062  30.101  27.932  1.00  0.00     0.163 HD
BRANCH   3   6
ATOM      6  C   UNL A   1      32.585  27.815  25.924  1.00  0.00     0.098 C 
ATOM      7  C   UNL A   1      32.749  26.310  26.260  1.00  0.00     0.028 C 
ATOM      8  C   UNL A   1      31.811  28.046  24.592  1.00  0.00     0.279 C 
ATOM      9  C   UNL A   1      33.067  25.466  25.033  1.00  0.00     0.063 C 
ATOM     10  N   UNL A   1      32.011  27.080  23.502  1.00  0.00    -0.330 N 
ATOM     11  C   UNL A   1      32.035  25.685  23.930  1.00  0.00     0.262 C 
ATOM     12  H   UNL A   1      32.958  27.257  23.165  1.00  0.00     0.348 HD
BRANCH   6  13
ATOM     13  C   UNL A   1      34.024  28.421  25.795  1.00  0.00     0.019 C 
ATOM     14  C   UNL A   1      34.705  28.892  27.081  1.00  0.00     0.005 C 
ENDBRANCH   6  13
BRANCH  10  15
ATOM     15  C   UNL A   1      31.107  27.324  22.349  1.00  0.00     0.302 C 
BRANCH  15  16
ATOM     16  C   UNL A   1      29.911  28.241  22.550  1.00  0.00     0.046 A 
ATOM     17  C   UNL A   1      29.970  29.598  22.177  1.00  0.00     0.059 A 
ATOM     18  C   UNL A   1      28.737  27.801  23.171  1.00  0.00     0.132 A 
ATOM     19  C   UNL A   1      28.882  30.458  22.398  1.00  0.00     0.119 A 
ATOM     20  C   UNL A   1      27.616  28.618  23.293  1.00  0.00     0.043 A 
ATOM     21  F   UNL A   1      28.658  26.565  23.683  1.00  0.00    -0.206 F 
ATOM     22  C   UNL A   1      27.682  29.949  22.893  1.00  0.00     0.049 A 
BRANCH  19  23
ATOM     23  O   UNL A   1      29.091  31.779  22.103  1.00  0.00    -0.497 OA
ATOM     24  C   UNL A   1      28.072  32.386  21.305  1.00  0.00     0.278 C 
ENDBRANCH  19  23
ENDBRANCH  15  16
ENDBRANCH  10  15
ENDBRANCH   3   6
ENDBRANCH   1   2
BRANCH   1  25
ATOM     25  C   UNL A   1      31.380  32.232  26.717  1.00  0.00     0.042 C 
BRANCH  25  26
ATOM     26  C   UNL A   1      32.613  32.892  27.314  1.00  0.00     0.118 C 
BRANCH  26  27
ATOM     27  N   UNL A   1      32.391  34.294  27.647  1.00  0.00    -0.352 N 
ATOM     28  C   UNL A   1      32.991  35.073  28.606  1.00  0.00     0.251 C 
ATOM     29  H   UNL A   1      31.709  34.750  27.104  1.00  0.00     0.163 HD
ATOM     30  O   UNL A   1      32.524  36.175  28.884  1.00  0.00    -0.269 OA
BRANCH  28  31
ATOM     31  C   UNL A   1      34.181  34.569  29.323  1.00  0.00     0.039 A 
ATOM     32  C   UNL A   1      34.019  33.982  30.580  1.00  0.00     0.014 A 
ATOM     33  C   UNL A   1      35.449  34.651  28.744  1.00  0.00     0.014 A 
ATOM     34  C   UNL A   1      35.117  33.397  31.212  1.00  0.00     0.010 A 
ATOM     35  C   UNL A   1      36.518  33.980  29.326  1.00  0.00     0.010 A 
ATOM     36  C   UNL A   1      36.363  33.343  30.566  1.00  0.00    -0.014 A 
BRANCH  36  37
ATOM     37  C   UNL A   1      37.509  32.608  31.156  1.00  0.00     0.031 A 
ATOM     38  C   UNL A   1      38.130  33.077  32.442  1.00  0.00     0.074 A 
ATOM     39  C   UNL A   1      38.042  31.567  30.489  1.00  0.00     0.049 A 
ATOM     40  N   UNL A   1      39.181  32.612  33.071  1.00  0.00    -0.248 NA
ATOM     41  C   UNL A   1      37.511  34.244  33.092  1.00  0.00     0.031 C 
ATOM     42  C   UNL A   1      37.572  31.057  29.200  1.00  0.00     0.029 A 
ATOM     43  N   UNL A   1      39.109  30.758  30.794  1.00  0.00    -0.354 N 
ATOM     44  C   UNL A   1      39.357  33.438  34.174  1.00  0.00     0.074 A 
ATOM     45  C   UNL A   1      38.341  34.466  34.100  1.00  0.00     0.031 C 
ATOM     46  C   UNL A   1      38.329  30.009  28.837  1.00  0.00     0.029 A 
ATOM     47  C   UNL A   1      39.364  29.800  29.843  1.00  0.00     0.049 A 
ATOM     48  H   UNL A   1      39.641  30.856  31.616  1.00  0.00     0.167 HD
ATOM     49  C   UNL A   1      40.267  33.335  35.170  1.00  0.00     0.037 A 
ATOM     50  C   UNL A   1      40.331  28.866  29.781  1.00  0.00     0.037 A 
ATOM     51  C   UNL A   1      41.260  32.295  35.251  1.00  0.00     0.049 A 
ATOM     52  C   UNL A   1      41.331  28.771  30.899  1.00  0.00     0.074 A 
ATOM     53  C   UNL A   1      42.172  32.053  36.262  1.00  0.00     0.029 A 
ATOM     54  N   UNL A   1      41.475  31.330  34.278  1.00  0.00    -0.354 N 
ATOM     55  N   UNL A   1      41.429  29.502  31.983  1.00  0.00    -0.248 NA
ATOM     56  C   UNL A   1      42.353  27.720  30.788  1.00  0.00     0.031 C 
ATOM     57  C   UNL A   1      42.977  30.977  35.876  1.00  0.00     0.029 A 
ATOM     58  C   UNL A   1      42.530  30.512  34.650  1.00  0.00     0.049 A 
ATOM     59  H   UNL A   1      40.955  31.240  33.448  1.00  0.00     0.167 HD
ATOM     60  C   UNL A   1      42.509  28.990  32.691  1.00  0.00     0.074 A 
ATOM     61  C   UNL A   1      43.019  27.873  31.923  1.00  0.00     0.031 C 
ATOM     62  C   UNL A   1      43.031  29.408  33.870  1.00  0.00     0.037 A 
BRANCH  49  63
ATOM     63  C   UNL A   1      40.233  34.376  36.252  1.00  0.00     0.057 A 
ATOM     64  C   UNL A   1      39.425  34.239  37.388  1.00  0.00     0.134 A 
ATOM     65  C   UNL A   1      41.040  35.518  36.171  1.00  0.00     0.134 A 
ATOM     66  F   UNL A   1      38.617  33.175  37.525  1.00  0.00    -0.206 F 
ATOM     67  C   UNL A   1      39.397  35.212  38.388  1.00  0.00     0.040 A 
ATOM     68  C   UNL A   1      41.045  36.483  37.178  1.00  0.00     0.040 A 
ATOM     69  F   UNL A   1      41.844  35.710  35.113  1.00  0.00    -0.206 F 
ATOM     70  C   UNL A   1      40.214  36.336  38.288  1.00  0.00     0.006 A 
ENDBRANCH  49  63
BRANCH  50  71
ATOM     71  C   UNL A   1      40.391  27.938  28.624  1.00  0.00     0.057 A 
ATOM     72  C   UNL A   1      41.117  28.264  27.472  1.00  0.00     0.134 A 
ATOM     73  C   UNL A   1      39.732  26.703  28.642  1.00  0.00     0.134 A 
ATOM     74  F   UNL A   1      41.756  29.440  27.389  1.00  0.00    -0.206 F 
ATOM     75  C   UNL A   1      41.173  27.404  26.374  1.00  0.00     0.040 A 
ATOM     76  C   UNL A   1      39.800  25.822  27.562  1.00  0.00     0.040 A 
ATOM     77  F   UNL A   1      39.026  26.327  29.718  1.00  0.00    -0.206 F 
ATOM     78  C   UNL A   1      40.517  26.174  26.420  1.00  0.00     0.006 A 
ENDBRANCH  50  71
BRANCH  62  79
ATOM     79  C   UNL A   1      44.206  28.646  34.410  1.00  0.00     0.057 A 
ATOM     80  C   UNL A   1      45.524  29.039  34.147  1.00  0.00     0.134 A 
ATOM     81  C   UNL A   1      44.016  27.530  35.234  1.00  0.00     0.134 A 
ATOM     82  F   UNL A   1      45.776  30.090  33.351  1.00  0.00    -0.206 F 
ATOM     83  C   UNL A   1      46.612  28.335  34.668  1.00  0.00     0.040 A 
ATOM     84  C   UNL A   1      45.094  26.837  35.785  1.00  0.00     0.040 A 
ATOM     85  F   UNL A   1      42.779  27.106  35.534  1.00  0.00    -0.206 F 
ATOM     86  C   UNL A   1      46.398  27.236  35.496  1.00  0.00     0.006 A 
ENDBRANCH  62  79
ENDBRANCH  36  37
ENDBRANCH  28  31
ENDBRANCH  26  27
ENDBRANCH  25  26
ENDBRANCH   1  25
TORSDOF 14
ENDMDL
MODEL 2
REMARK VINA RESULT:     -12.2      0.861      6.283
REMARK SMILES CC[C@]1(C(=O)NCCCNC(=O)c2ccc(-c3c4nc(c(-c5c(F)cccc5F)c5ccc([nH]5)c(-c5c(F)cccc5F)c5nc(c(-c6c(F)cccc6F)c6ccc3[nH]6)C=C5)C=C4)cc2)CCC[N@@H+](Cc2cc(OC)ccc2F)C1
REMARK SMILES IDX 7 1 6 2 4 3 5 4 3 6 67 7 81 8 68 9 70 10 69 11 2 13 1 14
REMARK SMILES IDX 71 15 72 16 73 17 79 18 74 19 78 20 80 21 77 22 75 23 76 24
REMARK SMILES IDX 8 25 9 26 10 27 11 28 12 30 13 31 14 32 66 33 15 34 65 35
REMARK SMILES IDX 16 36 17 37 18 38 59 39 19 40 64 41 58 42 60 43 20 44 63 45
REMARK SMILES IDX 57 46 56 47 21 49 47 50 30 51 46 52 31 53 34 54 45 55 61 56
REMARK SMILES IDX 32 57 33 58 44 60 62 61 35 62 22 63 23 64 28 65 24 66 25 67
REMARK SMILES IDX 27 68 29 69 26 70 48 71 49 72 54 73 50 74 51 75 53 76 55 77
REMARK SMILES IDX 52 78 36 79 37 80 42 81 38 82 39 83 41 84 43 85 40 86
REMARK H PARENT 6 5 70 12 10 29 60 48 34 59
REMARK Flexibility Score: inf
ROOT
ATOM      1  C   UNL A   1      31.550  30.913  26.151  1.00  0.00     0.117 C 
ENDROOT
BRANCH   1   2
ATOM      2  N   UNL A   1      31.448  29.840  27.130  1.00  0.00    -0.355 N 
ATOM      3  C   UNL A   1      31.872  28.544  27.130  1.00  0.00     0.231 C 
ATOM      4  O   UNL A   1      31.481  27.869  28.086  1.00  0.00    -0.274 OA
ATOM      5  H   UNL A   1      30.979  30.102  27.956  1.00  0.00     0.163 HD
BRANCH   3   6
ATOM      6  C   UNL A   1      32.753  27.961  25.997  1.00  0.00     0.098 C 
ATOM      7  C   UNL A   1      33.020  26.469  26.328  1.00  0.00     0.028 C 
ATOM      8  C   UNL A   1      32.008  28.145  24.642  1.00  0.00     0.279 C 
ATOM      9  C   UNL A   1      33.440  25.663  25.106  1.00  0.00     0.063 C 
ATOM     10  N   UNL A   1      32.315  27.207  23.553  1.00  0.00    -0.330 N 
ATOM     11  C   UNL A   1      32.431  25.814  23.971  1.00  0.00     0.262 C 
ATOM     12  H   UNL A   1      33.256  27.458  23.248  1.00  0.00     0.348 HD
BRANCH   6  13
ATOM     13  C   UNL A   1      34.146  28.674  25.920  1.00  0.00     0.019 C 
ATOM     14  C   UNL A   1      34.788  29.107  27.239  1.00  0.00     0.005 C 
ENDBRANCH   6  13
BRANCH  10  15
ATOM     15  C   UNL A   1      31.433  27.393  22.372  1.00  0.00     0.302 C 
BRANCH  15  16
ATOM     16  C   UNL A   1      30.161  28.209  22.542  1.00  0.00     0.046 A 
ATOM     17  C   UNL A   1      30.095  29.545  22.106  1.00  0.00     0.059 A 
ATOM     18  C   UNL A   1      29.035  27.696  23.196  1.00  0.00     0.132 A 
ATOM     19  C   UNL A   1      28.936  30.315  22.297  1.00  0.00     0.119 A 
ATOM     20  C   UNL A   1      27.845  28.415  23.292  1.00  0.00     0.043 A 
ATOM     21  F   UNL A   1      29.070  26.484  23.767  1.00  0.00    -0.206 F 
ATOM     22  C   UNL A   1      27.790  29.725  22.829  1.00  0.00     0.049 A 
BRANCH  19  23
ATOM     23  O   UNL A   1      29.023  31.634  21.938  1.00  0.00    -0.497 OA
ATOM     24  C   UNL A   1      28.150  32.028  20.879  1.00  0.00     0.278 C 
ENDBRANCH  19  23
ENDBRANCH  15  16
ENDBRANCH  10  15
ENDBRANCH   3   6
ENDBRANCH   1   2
BRANCH   1  25
ATOM     25  C   UNL A   1      31.347  32.277  26.790  1.00  0.00     0.042 C 
BRANCH  25  26
ATOM     26  C   UNL A   1      32.616  33.113  26.826  1.00  0.00     0.118 C 
BRANCH  26  27
ATOM     27  N   UNL A   1      32.487  34.289  27.680  1.00  0.00    -0.352 N 
ATOM     28  C   UNL A   1      33.172  34.623  28.822  1.00  0.00     0.251 C 
ATOM     29  H   UNL A   1      31.807  34.940  27.394  1.00  0.00     0.163 HD
ATOM     30  O   UNL A   1      32.779  35.550  29.525  1.00  0.00    -0.269 OA
BRANCH  28  31
ATOM     31  C   UNL A   1      34.364  33.844  29.218  1.00  0.00     0.039 A 
ATOM     32  C   UNL A   1      35.634  34.355  28.938  1.00  0.00     0.014 A 
ATOM     33  C   UNL A   1      34.230  32.627  29.890  1.00  0.00     0.014 A 
ATOM     34  C   UNL A   1      36.764  33.688  29.412  1.00  0.00     0.010 A 
ATOM     35  C   UNL A   1      35.348  32.020  30.448  1.00  0.00     0.010 A 
ATOM     36  C   UNL A   1      36.628  32.545  30.217  1.00  0.00    -0.014 A 
BRANCH  36  37
ATOM     37  C   UNL A   1      37.806  31.898  30.846  1.00  0.00     0.031 A 
ATOM     38  C   UNL A   1      38.563  30.824  30.114  1.00  0.00     0.074 A 
ATOM     39  C   UNL A   1      38.142  32.218  32.110  1.00  0.00     0.049 A 
ATOM     40  N   UNL A   1      39.568  30.094  30.528  1.00  0.00    -0.248 NA
ATOM     41  C   UNL A   1      38.112  30.507  28.750  1.00  0.00     0.031 C 
ATOM     42  C   UNL A   1      37.444  33.196  32.949  1.00  0.00     0.029 A 
ATOM     43  N   UNL A   1      39.145  31.746  32.919  1.00  0.00    -0.354 N 
ATOM     44  C   UNL A   1      39.854  29.222  29.485  1.00  0.00     0.074 A 
ATOM     45  C   UNL A   1      38.883  29.475  28.443  1.00  0.00     0.031 C 
ATOM     46  C   UNL A   1      38.055  33.267  34.143  1.00  0.00     0.029 A 
ATOM     47  C   UNL A   1      39.157  32.312  34.171  1.00  0.00     0.049 A 
ATOM     48  H   UNL A   1      39.794  31.065  32.629  1.00  0.00     0.167 HD
ATOM     49  C   UNL A   1      40.850  28.309  29.396  1.00  0.00     0.037 A 
ATOM     50  C   UNL A   1      39.958  32.079  35.227  1.00  0.00     0.037 A 
ATOM     51  C   UNL A   1      41.828  28.079  30.427  1.00  0.00     0.049 A 
ATOM     52  C   UNL A   1      41.056  31.061  35.104  1.00  0.00     0.074 A 
ATOM     53  C   UNL A   1      42.926  27.238  30.399  1.00  0.00     0.029 A 
ATOM     54  N   UNL A   1      41.819  28.686  31.674  1.00  0.00    -0.354 N 
ATOM     55  N   UNL A   1      41.373  30.308  34.078  1.00  0.00    -0.248 NA
ATOM     56  C   UNL A   1      41.911  30.862  36.283  1.00  0.00     0.031 C 
ATOM     57  C   UNL A   1      43.550  27.294  31.650  1.00  0.00     0.029 A 
ATOM     58  C   UNL A   1      42.874  28.211  32.437  1.00  0.00     0.049 A 
ATOM     59  H   UNL A   1      41.162  29.355  31.972  1.00  0.00     0.167 HD
ATOM     60  C   UNL A   1      42.472  29.560  34.480  1.00  0.00     0.074 A 
ATOM     61  C   UNL A   1      42.780  29.967  35.836  1.00  0.00     0.031 C 
ATOM     62  C   UNL A   1      43.163  28.621  33.789  1.00  0.00     0.037 A 
BRANCH  49  63
ATOM     63  C   UNL A   1      40.929  27.489  28.141  1.00  0.00     0.057 A 
ATOM     64  C   UNL A   1      41.690  27.895  27.036  1.00  0.00     0.134 A 
ATOM     65  C   UNL A   1      40.258  26.263  28.043  1.00  0.00     0.134 A 
ATOM     66  F   UNL A   1      42.348  29.064  27.056  1.00  0.00    -0.206 F 
ATOM     67  C   UNL A   1      41.757  27.128  25.872  1.00  0.00     0.040 A 
ATOM     68  C   UNL A   1      40.341  25.473  26.897  1.00  0.00     0.040 A 
ATOM     69  F   UNL A   1      39.517  25.810  29.066  1.00  0.00    -0.206 F 
ATOM     70  C   UNL A   1      41.086  25.909  25.802  1.00  0.00     0.006 A 
ENDBRANCH  49  63
BRANCH  50  71
ATOM     71  C   UNL A   1      39.756  32.834  36.489  1.00  0.00     0.057 A 
ATOM     72  C   UNL A   1      40.520  33.970  36.783  1.00  0.00     0.134 A 
ATOM     73  C   UNL A   1      38.792  32.446  37.428  1.00  0.00     0.134 A 
ATOM     74  F   UNL A   1      41.470  34.382  35.930  1.00  0.00    -0.206 F 
ATOM     75  C   UNL A   1      40.345  34.683  37.970  1.00  0.00     0.040 A 
ATOM     76  C   UNL A   1      38.589  33.164  38.607  1.00  0.00     0.040 A 
ATOM     77  F   UNL A   1      38.022  31.372  37.203  1.00  0.00    -0.206 F 
ATOM     78  C   UNL A   1      39.371  34.283  38.885  1.00  0.00     0.006 A 
ENDBRANCH  50  71
BRANCH  62  79
ATOM     79  C   UNL A   1      44.329  27.978  34.482  1.00  0.00     0.057 A 
ATOM     80  C   UNL A   1      44.190  26.794  35.217  1.00  0.00     0.134 A 
ATOM     81  C   UNL A   1      45.613  28.528  34.378  1.00  0.00     0.134 A 
ATOM     82  F   UNL A   1      42.985  26.224  35.367  1.00  0.00    -0.206 F 
ATOM     83  C   UNL A   1      45.284  26.192  35.842  1.00  0.00     0.040 A 
ATOM     84  C   UNL A   1      46.718  27.920  34.974  1.00  0.00     0.040 A 
ATOM     85  F   UNL A   1      45.817  29.656  33.681  1.00  0.00    -0.206 F 
ATOM     86  C   UNL A   1      46.553  26.750  35.714  1.00  0.00     0.006 A 
ENDBRANCH  62  79
ENDBRANCH  36  37
ENDBRANCH  28  31
ENDBRANCH  26  27
ENDBRANCH  25  26
ENDBRANCH   1  25
TORSDOF 14
ENDMDL
MODEL 3
REMARK VINA RESULT:     -12.0      5.843     10.677
REMARK SMILES CC[C@]1(C(=O)NCCCNC(=O)c2ccc(-c3c4nc(c(-c5c(F)cccc5F)c5ccc([nH]5)c(-c5c(F)cccc5F)c5nc(c(-c6c(F)cccc6F)c6ccc3[nH]6)C=C5)C=C4)cc2)CCC[N@@H+](Cc2cc(OC)ccc2F)C1
REMARK SMILES IDX 7 1 6 2 4 3 5 4 3 6 67 7 81 8 68 9 70 10 69 11 2 13 1 14
REMARK SMILES IDX 71 15 72 16 73 17 79 18 74 19 78 20 80 21 77 22 75 23 76 24
REMARK SMILES IDX 8 25 9 26 10 27 11 28 12 30 13 31 14 32 66 33 15 34 65 35
REMARK SMILES IDX 16 36 17 37 18 38 59 39 19 40 64 41 58 42 60 43 20 44 63 45
REMARK SMILES IDX 57 46 56 47 21 49 47 50 30 51 46 52 31 53 34 54 45 55 61 56
REMARK SMILES IDX 32 57 33 58 44 60 62 61 35 62 22 63 23 64 28 65 24 66 25 67
REMARK SMILES IDX 27 68 29 69 26 70 48 71 49 72 54 73 50 74 51 75 53 76 55 77
REMARK SMILES IDX 52 78 36 79 37 80 42 81 38 82 39 83 41 84 43 85 40 86
REMARK H PARENT 6 5 70 12 10 29 60 48 34 59
REMARK Flexibility Score: inf
ROOT
ATOM      1  C   UNL A   1      36.630  20.775  25.094  1.00  0.00     0.117 C 
ENDROOT
BRANCH   1   2
ATOM      2  N   UNL A   1      37.009  21.987  25.808  1.00  0.00    -0.355 N 
ATOM      3  C   UNL A   1      36.475  23.241  25.851  1.00  0.00     0.231 C 
ATOM      4  O   UNL A   1      37.149  24.073  26.463  1.00  0.00    -0.274 OA
ATOM      5  H   UNL A   1      37.810  21.880  26.371  1.00  0.00     0.163 HD
BRANCH   3   6
ATOM      6  C   UNL A   1      35.135  23.595  25.157  1.00  0.00     0.098 C 
ATOM      7  C   UNL A   1      35.426  23.807  23.649  1.00  0.00     0.028 C 
ATOM      8  C   UNL A   1      34.124  22.436  25.409  1.00  0.00     0.279 C 
ATOM      9  C   UNL A   1      34.179  23.678  22.786  1.00  0.00     0.063 C 
ATOM     10  N   UNL A   1      33.047  22.235  24.430  1.00  0.00    -0.330 N 
ATOM     11  C   UNL A   1      33.468  22.350  23.038  1.00  0.00     0.262 C 
ATOM     12  H   UNL A   1      32.416  23.026  24.568  1.00  0.00     0.348 HD
BRANCH   6  13
ATOM     13  C   UNL A   1      34.532  24.933  25.706  1.00  0.00     0.019 C 
ATOM     14  C   UNL A   1      33.077  24.905  26.179  1.00  0.00     0.005 C 
ENDBRANCH   6  13
BRANCH  10  15
ATOM     15  C   UNL A   1      32.247  21.014  24.701  1.00  0.00     0.302 C 
BRANCH  15  16
ATOM     16  C   UNL A   1      32.711  19.698  24.096  1.00  0.00     0.046 A 
ATOM     17  C   UNL A   1      33.666  18.898  24.751  1.00  0.00     0.059 A 
ATOM     18  C   UNL A   1      32.267  19.263  22.843  1.00  0.00     0.132 A 
ATOM     19  C   UNL A   1      34.127  17.702  24.176  1.00  0.00     0.119 A 
ATOM     20  C   UNL A   1      32.635  18.026  22.317  1.00  0.00     0.043 A 
ATOM     21  F   UNL A   1      31.470  20.037  22.094  1.00  0.00    -0.206 F 
ATOM     22  C   UNL A   1      33.559  17.235  22.992  1.00  0.00     0.049 A 
BRANCH  19  23
ATOM     23  O   UNL A   1      35.139  17.065  24.845  1.00  0.00    -0.497 OA
ATOM     24  C   UNL A   1      34.828  15.743  25.289  1.00  0.00     0.278 C 
ENDBRANCH  19  23
ENDBRANCH  15  16
ENDBRANCH  10  15
ENDBRANCH   3   6
ENDBRANCH   1   2
BRANCH   1  25
ATOM     25  C   UNL A   1      37.792  19.802  24.984  1.00  0.00     0.042 C 
BRANCH  25  26
ATOM     26  C   UNL A   1      39.034  20.271  25.726  1.00  0.00     0.118 C 
BRANCH  26  27
ATOM     27  N   UNL A   1      40.029  19.215  25.873  1.00  0.00    -0.352 N 
ATOM     28  C   UNL A   1      41.380  19.309  26.100  1.00  0.00     0.251 C 
ATOM     29  H   UNL A   1      39.680  18.298  25.797  1.00  0.00     0.163 HD
ATOM     30  O   UNL A   1      42.094  18.316  25.981  1.00  0.00    -0.269 OA
BRANCH  28  31
ATOM     31  C   UNL A   1      41.976  20.613  26.457  1.00  0.00     0.039 A 
ATOM     32  C   UNL A   1      42.423  21.458  25.438  1.00  0.00     0.014 A 
ATOM     33  C   UNL A   1      42.068  21.013  27.792  1.00  0.00     0.014 A 
ATOM     34  C   UNL A   1      42.877  22.739  25.756  1.00  0.00     0.010 A 
ATOM     35  C   UNL A   1      42.423  22.322  28.097  1.00  0.00     0.010 A 
ATOM     36  C   UNL A   1      42.829  23.200  27.082  1.00  0.00    -0.014 A 
BRANCH  36  37
ATOM     37  C   UNL A   1      43.176  24.601  27.427  1.00  0.00     0.031 A 
ATOM     38  C   UNL A   1      44.612  25.048  27.434  1.00  0.00     0.074 A 
ATOM     39  C   UNL A   1      42.203  25.448  27.815  1.00  0.00     0.049 A 
ATOM     40  N   UNL A   1      45.115  26.206  27.779  1.00  0.00    -0.248 NA
ATOM     41  C   UNL A   1      45.618  24.053  27.032  1.00  0.00     0.031 C 
ATOM     42  C   UNL A   1      40.780  25.116  27.913  1.00  0.00     0.029 A 
ATOM     43  N   UNL A   1      42.264  26.760  28.214  1.00  0.00    -0.354 N 
ATOM     44  C   UNL A   1      46.491  26.071  27.654  1.00  0.00     0.074 A 
ATOM     45  C   UNL A   1      46.749  24.704  27.256  1.00  0.00     0.031 C 
ATOM     46  C   UNL A   1      40.101  26.200  28.321  1.00  0.00     0.029 A 
ATOM     47  C   UNL A   1      41.042  27.290  28.556  1.00  0.00     0.049 A 
ATOM     48  H   UNL A   1      43.103  27.273  28.254  1.00  0.00     0.167 HD
ATOM     49  C   UNL A   1      47.452  27.008  27.832  1.00  0.00     0.037 A 
ATOM     50  C   UNL A   1      40.718  28.512  29.017  1.00  0.00     0.037 A 
ATOM     51  C   UNL A   1      47.188  28.374  28.205  1.00  0.00     0.049 A 
ATOM     52  C   UNL A   1      41.802  29.534  29.207  1.00  0.00     0.074 A 
ATOM     53  C   UNL A   1      48.084  29.421  28.328  1.00  0.00     0.029 A 
ATOM     54  N   UNL A   1      45.935  28.878  28.523  1.00  0.00    -0.354 N 
ATOM     55  N   UNL A   1      43.091  29.420  28.996  1.00  0.00    -0.248 NA
ATOM     56  C   UNL A   1      41.387  30.858  29.695  1.00  0.00     0.031 C 
ATOM     57  C   UNL A   1      47.382  30.545  28.776  1.00  0.00     0.029 A 
ATOM     58  C   UNL A   1      46.041  30.213  28.877  1.00  0.00     0.049 A 
ATOM     59  H   UNL A   1      45.097  28.363  28.500  1.00  0.00     0.167 HD
ATOM     60  C   UNL A   1      43.638  30.659  29.308  1.00  0.00     0.074 A 
ATOM     61  C   UNL A   1      42.538  31.514  29.701  1.00  0.00     0.031 C 
ATOM     62  C   UNL A   1      44.936  31.050  29.273  1.00  0.00     0.037 A 
BRANCH  49  63
ATOM     63  C   UNL A   1      48.879  26.586  27.629  1.00  0.00     0.057 A 
ATOM     64  C   UNL A   1      49.496  26.635  26.371  1.00  0.00     0.134 A 
ATOM     65  C   UNL A   1      49.657  26.152  28.709  1.00  0.00     0.134 A 
ATOM     66  F   UNL A   1      48.805  27.031  25.290  1.00  0.00    -0.206 F 
ATOM     67  C   UNL A   1      50.821  26.240  26.190  1.00  0.00     0.040 A 
ATOM     68  C   UNL A   1      50.993  25.782  28.547  1.00  0.00     0.040 A 
ATOM     69  F   UNL A   1      49.133  26.086  29.943  1.00  0.00    -0.206 F 
ATOM     70  C   UNL A   1      51.576  25.818  27.282  1.00  0.00     0.006 A 
ENDBRANCH  49  63
BRANCH  50  71
ATOM     71  C   UNL A   1      39.301  28.836  29.319  1.00  0.00     0.057 A 
ATOM     72  C   UNL A   1      38.455  29.364  28.337  1.00  0.00     0.134 A 
ATOM     73  C   UNL A   1      38.757  28.620  30.591  1.00  0.00     0.134 A 
ATOM     74  F   UNL A   1      38.923  29.609  27.104  1.00  0.00    -0.206 F 
ATOM     75  C   UNL A   1      37.123  29.682  28.612  1.00  0.00     0.040 A 
ATOM     76  C   UNL A   1      37.421  28.909  30.873  1.00  0.00     0.040 A 
ATOM     77  F   UNL A   1      39.512  28.108  31.573  1.00  0.00    -0.206 F 
ATOM     78  C   UNL A   1      36.601  29.448  29.884  1.00  0.00     0.006 A 
ENDBRANCH  50  71
BRANCH  62  79
ATOM     79  C   UNL A   1      45.235  32.471  29.657  1.00  0.00     0.057 A 
ATOM     80  C   UNL A   1      45.602  32.821  30.962  1.00  0.00     0.134 A 
ATOM     81  C   UNL A   1      45.195  33.492  28.699  1.00  0.00     0.134 A 
ATOM     82  F   UNL A   1      45.644  31.892  31.929  1.00  0.00    -0.206 F 
ATOM     83  C   UNL A   1      45.897  34.142  31.306  1.00  0.00     0.040 A 
ATOM     84  C   UNL A   1      45.516  34.810  29.025  1.00  0.00     0.040 A 
ATOM     85  F   UNL A   1      44.860  33.223  27.428  1.00  0.00    -0.206 F 
ATOM     86  C   UNL A   1      45.863  35.139  30.334  1.00  0.00     0.006 A 
ENDBRANCH  62  79
ENDBRANCH  36  37
ENDBRANCH  28  31
ENDBRANCH  26  27
ENDBRANCH  25  26
ENDBRANCH   1  25
TORSDOF 14
ENDMDL
