MODEL 1
REMARK VINA RESULT:     -12.3      0.000      0.000
REMARK SMILES Cc1ccccc1NC(=O)C[NH+]1CCC(CC(=O)NCCCNC(=O)c2ccc(-c3c4nc(c(-c5c(F)cccc5F)c5ccc([nH]5)c(-c5c(F)cccc5F)c5nc(c(-c6c(F)cccc6F)c6ccc3[nH]6)C=C5)C=C4)cc2)CC1
REMARK SMILES IDX 20 1 19 2 17 3 18 4 16 6 15 7 12 8 13 9 81 10 14 12 80 13
REMARK SMILES IDX 11 14 9 15 8 16 10 18 7 19 1 20 2 21 3 22 4 23 6 24 5 25
REMARK SMILES IDX 21 26 22 27 23 28 24 29 25 31 26 32 27 33 79 34 28 35 78 36
REMARK SMILES IDX 29 37 30 38 31 39 72 40 32 41 77 42 71 43 73 44 33 45 76 46
REMARK SMILES IDX 70 47 69 48 34 50 60 51 43 52 59 53 44 54 47 55 58 56 74 57
REMARK SMILES IDX 45 58 46 59 57 61 75 62 48 63 35 64 36 65 41 66 37 67 38 68
REMARK SMILES IDX 40 69 42 70 39 71 61 72 62 73 67 74 63 75 64 76 66 77 68 78
REMARK SMILES IDX 65 79 49 80 50 81 55 82 51 83 52 84 54 85 56 86 53 87
REMARK H PARENT 19 5 12 11 8 17 23 30 73 49 47 60
REMARK Flexibility Score: inf
ROOT
ATOM      1  C   UNL A   1      32.255  28.867  26.959  1.00  0.00     0.117 C 
ENDROOT
BRANCH   1   2
ATOM      2  N   UNL A   1      31.421  28.702  25.777  1.00  0.00    -0.356 N 
ATOM      3  C   UNL A   1      31.516  27.796  24.754  1.00  0.00     0.220 C 
ATOM      4  O   UNL A   1      30.632  27.783  23.897  1.00  0.00    -0.275 OA
ATOM      5  H   UNL A   1      30.676  29.339  25.701  1.00  0.00     0.163 HD
BRANCH   3   6
ATOM      6  C   UNL A   1      32.715  26.870  24.650  1.00  0.00     0.104 C 
BRANCH   6   7
ATOM      7  C   UNL A   1      32.370  25.496  24.048  1.00  0.00     0.009 C 
ATOM      8  N   UNL A   1      32.637  22.565  24.135  1.00  0.00    -0.327 N 
ATOM      9  C   UNL A   1      33.302  23.323  23.080  1.00  0.00     0.262 C 
ATOM     10  C   UNL A   1      31.399  23.216  24.565  1.00  0.00     0.262 C 
ATOM     11  H   UNL A   1      33.245  22.578  24.955  1.00  0.00     0.348 HD
ATOM     12  C   UNL A   1      33.606  24.720  23.598  1.00  0.00     0.066 C 
ATOM     13  C   UNL A   1      31.626  24.638  25.083  1.00  0.00     0.066 C 
BRANCH   8  14
ATOM     14  C   UNL A   1      32.511  21.122  23.824  1.00  0.00     0.363 C 
BRANCH  14  15
ATOM     15  C   UNL A   1      32.919  20.149  24.943  1.00  0.00     0.279 C 
ATOM     16  N   UNL A   1      34.066  20.284  25.674  1.00  0.00    -0.321 N 
ATOM     17  H   UNL A   1      34.190  19.610  26.381  1.00  0.00     0.170 HD
ATOM     18  O   UNL A   1      32.153  19.231  25.271  1.00  0.00    -0.268 OA
BRANCH  16  19
ATOM     19  C   UNL A   1      35.092  21.231  25.575  1.00  0.00     0.044 A 
ATOM     20  C   UNL A   1      34.052  22.592  27.496  1.00  0.00     0.046 C 
ATOM     21  C   UNL A   1      35.056  22.376  26.396  1.00  0.00    -0.027 A 
ATOM     22  C   UNL A   1      35.977  23.409  26.149  1.00  0.00     0.005 A 
ATOM     23  C   UNL A   1      36.927  23.301  25.133  1.00  0.00     0.000 A 
ATOM     24  C   UNL A   1      36.113  21.090  24.627  1.00  0.00     0.026 A 
ATOM     25  C   UNL A   1      37.014  22.129  24.392  1.00  0.00     0.002 A 
ENDBRANCH  16  19
ENDBRANCH  14  15
ENDBRANCH   8  14
ENDBRANCH   6   7
ENDBRANCH   3   6
ENDBRANCH   1   2
BRANCH   1  26
ATOM     26  C   UNL A   1      32.711  30.302  27.225  1.00  0.00     0.042 C 
BRANCH  26  27
ATOM     27  C   UNL A   1      34.216  30.496  27.281  1.00  0.00     0.118 C 
BRANCH  27  28
ATOM     28  N   UNL A   1      34.612  31.182  28.515  1.00  0.00    -0.352 N 
ATOM     29  C   UNL A   1      35.758  31.034  29.281  1.00  0.00     0.251 C 
ATOM     30  H   UNL A   1      33.968  31.848  28.849  1.00  0.00     0.163 HD
ATOM     31  O   UNL A   1      36.038  31.811  30.162  1.00  0.00    -0.269 OA
BRANCH  29  32
ATOM     32  C   UNL A   1      36.686  29.957  28.886  1.00  0.00     0.039 A 
ATOM     33  C   UNL A   1      36.922  28.952  29.826  1.00  0.00     0.014 A 
ATOM     34  C   UNL A   1      37.540  30.171  27.808  1.00  0.00     0.014 A 
ATOM     35  C   UNL A   1      38.167  28.341  29.841  1.00  0.00     0.010 A 
ATOM     36  C   UNL A   1      38.806  29.623  27.875  1.00  0.00     0.010 A 
ATOM     37  C   UNL A   1      39.140  28.776  28.939  1.00  0.00    -0.014 A 
BRANCH  37  38
ATOM     38  C   UNL A   1      40.554  28.476  29.128  1.00  0.00     0.031 A 
ATOM     39  C   UNL A   1      41.135  27.274  28.508  1.00  0.00     0.074 A 
ATOM     40  C   UNL A   1      41.338  29.252  29.913  1.00  0.00     0.049 A 
ATOM     41  N   UNL A   1      42.053  26.561  29.068  1.00  0.00    -0.248 NA
ATOM     42  C   UNL A   1      40.688  26.751  27.222  1.00  0.00     0.031 C 
ATOM     43  C   UNL A   1      42.789  29.157  30.060  1.00  0.00     0.029 A 
ATOM     44  N   UNL A   1      40.943  30.150  30.915  1.00  0.00    -0.354 N 
ATOM     45  C   UNL A   1      42.500  25.670  28.129  1.00  0.00     0.074 A 
ATOM     46  C   UNL A   1      41.573  25.769  27.024  1.00  0.00     0.031 C 
ATOM     47  C   UNL A   1      43.142  29.701  31.234  1.00  0.00     0.029 A 
ATOM     48  C   UNL A   1      41.923  30.067  31.929  1.00  0.00     0.049 A 
ATOM     49  H   UNL A   1      40.144  30.723  30.913  1.00  0.00     0.167 HD
ATOM     50  C   UNL A   1      43.694  25.039  28.295  1.00  0.00     0.037 A 
ATOM     51  C   UNL A   1      41.622  29.739  33.217  1.00  0.00     0.037 A 
ATOM     52  C   UNL A   1      44.373  25.456  29.512  1.00  0.00     0.049 A 
ATOM     53  C   UNL A   1      42.374  28.540  33.736  1.00  0.00     0.074 A 
ATOM     54  C   UNL A   1      45.351  26.408  29.750  1.00  0.00     0.029 A 
ATOM     55  N   UNL A   1      43.853  25.111  30.753  1.00  0.00    -0.354 N 
ATOM     56  N   UNL A   1      42.947  27.658  32.965  1.00  0.00    -0.248 NA
ATOM     57  C   UNL A   1      42.525  28.219  35.153  1.00  0.00     0.031 C 
ATOM     58  C   UNL A   1      45.419  26.640  31.142  1.00  0.00     0.029 A 
ATOM     59  C   UNL A   1      44.487  25.822  31.754  1.00  0.00     0.049 A 
ATOM     60  H   UNL A   1      43.133  24.454  30.899  1.00  0.00     0.167 HD
ATOM     61  C   UNL A   1      43.516  26.671  33.733  1.00  0.00     0.074 A 
ATOM     62  C   UNL A   1      43.237  27.079  35.096  1.00  0.00     0.031 C 
ATOM     63  C   UNL A   1      44.161  25.611  33.156  1.00  0.00     0.037 A 
BRANCH  50  64
ATOM     64  C   UNL A   1      44.339  24.305  27.158  1.00  0.00     0.057 A 
ATOM     65  C   UNL A   1      44.069  22.950  26.903  1.00  0.00     0.134 A 
ATOM     66  C   UNL A   1      45.299  24.893  26.317  1.00  0.00     0.134 A 
ATOM     67  F   UNL A   1      43.130  22.278  27.580  1.00  0.00    -0.206 F 
ATOM     68  C   UNL A   1      44.775  22.207  25.952  1.00  0.00     0.040 A 
ATOM     69  C   UNL A   1      46.046  24.152  25.393  1.00  0.00     0.040 A 
ATOM     70  F   UNL A   1      45.552  26.210  26.377  1.00  0.00    -0.206 F 
ATOM     71  C   UNL A   1      45.794  22.798  25.218  1.00  0.00     0.006 A 
ENDBRANCH  50  64
BRANCH  51  72
ATOM     72  C   UNL A   1      40.256  30.143  33.624  1.00  0.00     0.057 A 
ATOM     73  C   UNL A   1      40.041  31.474  34.019  1.00  0.00     0.134 A 
ATOM     74  C   UNL A   1      39.134  29.396  33.257  1.00  0.00     0.134 A 
ATOM     75  F   UNL A   1      41.079  32.244  34.383  1.00  0.00    -0.206 F 
ATOM     76  C   UNL A   1      38.783  32.074  33.937  1.00  0.00     0.040 A 
ATOM     77  C   UNL A   1      37.867  29.985  33.178  1.00  0.00     0.040 A 
ATOM     78  F   UNL A   1      39.264  28.125  32.853  1.00  0.00    -0.206 F 
ATOM     79  C   UNL A   1      37.696  31.336  33.478  1.00  0.00     0.006 A 
ENDBRANCH  51  72
BRANCH  63  80
ATOM     80  C   UNL A   1      44.656  24.340  33.820  1.00  0.00     0.057 A 
ATOM     81  C   UNL A   1      43.839  23.296  34.275  1.00  0.00     0.134 A 
ATOM     82  C   UNL A   1      46.047  24.070  33.898  1.00  0.00     0.134 A 
ATOM     83  F   UNL A   1      42.506  23.347  34.175  1.00  0.00    -0.206 F 
ATOM     84  C   UNL A   1      44.359  22.105  34.807  1.00  0.00     0.040 A 
ATOM     85  C   UNL A   1      46.574  22.866  34.375  1.00  0.00     0.040 A 
ATOM     86  F   UNL A   1      46.968  24.956  33.490  1.00  0.00    -0.206 F 
ATOM     87  C   UNL A   1      45.729  21.879  34.846  1.00  0.00     0.006 A 
ENDBRANCH  63  80
ENDBRANCH  37  38
ENDBRANCH  29  32
ENDBRANCH  27  28
ENDBRANCH  26  27
ENDBRANCH   1  26
TORSDOF 14
ENDMDL
MODEL 2
REMARK VINA RESULT:     -12.2      2.819      5.152
REMARK SMILES Cc1ccccc1NC(=O)C[NH+]1CCC(CC(=O)NCCCNC(=O)c2ccc(-c3c4nc(c(-c5c(F)cccc5F)c5ccc([nH]5)c(-c5c(F)cccc5F)c5nc(c(-c6c(F)cccc6F)c6ccc3[nH]6)C=C5)C=C4)cc2)CC1
REMARK SMILES IDX 20 1 19 2 17 3 18 4 16 6 15 7 12 8 13 9 81 10 14 12 80 13
REMARK SMILES IDX 11 14 9 15 8 16 10 18 7 19 1 20 2 21 3 22 4 23 6 24 5 25
REMARK SMILES IDX 21 26 22 27 23 28 24 29 25 31 26 32 27 33 79 34 28 35 78 36
REMARK SMILES IDX 29 37 30 38 31 39 72 40 32 41 77 42 71 43 73 44 33 45 76 46
REMARK SMILES IDX 70 47 69 48 34 50 60 51 43 52 59 53 44 54 47 55 58 56 74 57
REMARK SMILES IDX 45 58 46 59 57 61 75 62 48 63 35 64 36 65 41 66 37 67 38 68
REMARK SMILES IDX 40 69 42 70 39 71 61 72 62 73 67 74 63 75 64 76 66 77 68 78
REMARK SMILES IDX 65 79 49 80 50 81 55 82 51 83 52 84 54 85 56 86 53 87
REMARK H PARENT 19 5 12 11 8 17 23 30 73 49 47 60
REMARK Flexibility Score: inf
ROOT
ATOM      1  C   UNL A   1      32.867  35.980  29.113  1.00  0.00     0.117 C 
ENDROOT
BRANCH   1   2
ATOM      2  N   UNL A   1      34.069  35.534  28.425  1.00  0.00    -0.356 N 
ATOM      3  C   UNL A   1      34.411  34.287  27.973  1.00  0.00     0.220 C 
ATOM      4  O   UNL A   1      35.452  34.162  27.326  1.00  0.00    -0.275 OA
ATOM      5  H   UNL A   1      34.739  36.235  28.259  1.00  0.00     0.163 HD
BRANCH   3   6
ATOM      6  C   UNL A   1      33.555  33.079  28.312  1.00  0.00     0.104 C 
BRANCH   6   7
ATOM      7  C   UNL A   1      33.779  31.890  27.361  1.00  0.00     0.009 C 
ATOM      8  N   UNL A   1      33.385  29.036  26.755  1.00  0.00    -0.327 N 
ATOM      9  C   UNL A   1      34.710  29.523  27.127  1.00  0.00     0.262 C 
ATOM     10  C   UNL A   1      32.613  30.063  26.054  1.00  0.00     0.262 C 
ATOM     11  H   UNL A   1      32.869  28.856  27.617  1.00  0.00     0.348 HD
ATOM     12  C   UNL A   1      34.550  30.746  28.015  1.00  0.00     0.066 C 
ATOM     13  C   UNL A   1      32.428  31.336  26.884  1.00  0.00     0.066 C 
BRANCH   8  14
ATOM     14  C   UNL A   1      33.416  27.713  26.090  1.00  0.00     0.363 C 
BRANCH  14  15
ATOM     15  C   UNL A   1      32.256  26.759  26.423  1.00  0.00     0.279 C 
ATOM     16  N   UNL A   1      32.152  25.496  25.909  1.00  0.00    -0.321 N 
ATOM     17  H   UNL A   1      31.377  24.980  26.230  1.00  0.00     0.170 HD
ATOM     18  O   UNL A   1      31.401  27.096  27.254  1.00  0.00    -0.268 OA
BRANCH  16  19
ATOM     19  C   UNL A   1      32.974  24.823  24.998  1.00  0.00     0.044 A 
ATOM     20  C   UNL A   1      31.378  25.432  23.073  1.00  0.00     0.046 C 
ATOM     21  C   UNL A   1      32.577  24.727  23.650  1.00  0.00    -0.027 A 
ATOM     22  C   UNL A   1      33.306  23.884  22.792  1.00  0.00     0.005 A 
ATOM     23  C   UNL A   1      34.416  23.175  23.251  1.00  0.00     0.000 A 
ATOM     24  C   UNL A   1      34.148  24.187  25.421  1.00  0.00     0.026 A 
ATOM     25  C   UNL A   1      34.855  23.350  24.558  1.00  0.00     0.002 A 
ENDBRANCH  16  19
ENDBRANCH  14  15
ENDBRANCH   8  14
ENDBRANCH   6   7
ENDBRANCH   3   6
ENDBRANCH   1   2
BRANCH   1  26
ATOM     26  C   UNL A   1      33.086  36.432  30.557  1.00  0.00     0.042 C 
BRANCH  26  27
ATOM     27  C   UNL A   1      32.590  35.461  31.614  1.00  0.00     0.118 C 
BRANCH  27  28
ATOM     28  N   UNL A   1      33.326  35.630  32.870  1.00  0.00    -0.352 N 
ATOM     29  C   UNL A   1      34.493  35.018  33.302  1.00  0.00     0.251 C 
ATOM     30  H   UNL A   1      32.935  36.276  33.502  1.00  0.00     0.163 HD
ATOM     31  O   UNL A   1      35.092  35.405  34.277  1.00  0.00    -0.269 OA
BRANCH  29  32
ATOM     32  C   UNL A   1      35.040  33.951  32.442  1.00  0.00     0.039 A 
ATOM     33  C   UNL A   1      35.220  32.698  33.030  1.00  0.00     0.014 A 
ATOM     34  C   UNL A   1      35.681  34.307  31.259  1.00  0.00     0.014 A 
ATOM     35  C   UNL A   1      36.262  31.900  32.579  1.00  0.00     0.010 A 
ATOM     36  C   UNL A   1      36.768  33.551  30.866  1.00  0.00     0.010 A 
ATOM     37  C   UNL A   1      37.104  32.395  31.581  1.00  0.00    -0.014 A 
BRANCH  37  38
ATOM     38  C   UNL A   1      38.415  31.814  31.323  1.00  0.00     0.031 A 
ATOM     39  C   UNL A   1      38.524  30.595  30.503  1.00  0.00     0.074 A 
ATOM     40  C   UNL A   1      39.537  32.339  31.869  1.00  0.00     0.049 A 
ATOM     41  N   UNL A   1      39.391  29.666  30.729  1.00  0.00    -0.248 NA
ATOM     42  C   UNL A   1      37.629  30.305  29.389  1.00  0.00     0.031 C 
ATOM     43  C   UNL A   1      40.915  31.955  31.567  1.00  0.00     0.029 A 
ATOM     44  N   UNL A   1      39.645  33.184  32.981  1.00  0.00    -0.354 N 
ATOM     45  C   UNL A   1      39.351  28.811  29.659  1.00  0.00     0.074 A 
ATOM     46  C   UNL A   1      38.189  29.200  28.891  1.00  0.00     0.031 C 
ATOM     47  C   UNL A   1      41.696  32.294  32.603  1.00  0.00     0.029 A 
ATOM     48  C   UNL A   1      40.833  32.810  33.649  1.00  0.00     0.049 A 
ATOM     49  H   UNL A   1      39.020  33.897  33.246  1.00  0.00     0.167 HD
ATOM     50  C   UNL A   1      40.379  27.950  29.431  1.00  0.00     0.037 A 
ATOM     51  C   UNL A   1      40.850  32.411  34.952  1.00  0.00     0.037 A 
ATOM     52  C   UNL A   1      41.450  28.099  30.404  1.00  0.00     0.049 A 
ATOM     53  C   UNL A   1      41.445  31.042  35.166  1.00  0.00     0.074 A 
ATOM     54  C   UNL A   1      42.635  28.817  30.378  1.00  0.00     0.029 A 
ATOM     55  N   UNL A   1      41.245  27.730  31.727  1.00  0.00    -0.354 N 
ATOM     56  N   UNL A   1      41.572  30.155  34.220  1.00  0.00    -0.248 NA
ATOM     57  C   UNL A   1      41.923  30.551  36.456  1.00  0.00     0.031 C 
ATOM     58  C   UNL A   1      43.145  28.883  31.694  1.00  0.00     0.029 A 
ATOM     59  C   UNL A   1      42.274  28.198  32.521  1.00  0.00     0.049 A 
ATOM     60  H   UNL A   1      40.474  27.210  32.054  1.00  0.00     0.167 HD
ATOM     61  C   UNL A   1      42.113  29.001  34.737  1.00  0.00     0.074 A 
ATOM     62  C   UNL A   1      42.329  29.309  36.137  1.00  0.00     0.031 C 
ATOM     63  C   UNL A   1      42.325  27.906  33.946  1.00  0.00     0.037 A 
BRANCH  50  64
ATOM     64  C   UNL A   1      40.501  27.231  28.120  1.00  0.00     0.057 A 
ATOM     65  C   UNL A   1      39.929  25.964  27.915  1.00  0.00     0.134 A 
ATOM     66  C   UNL A   1      41.243  27.735  27.039  1.00  0.00     0.134 A 
ATOM     67  F   UNL A   1      39.141  25.388  28.831  1.00  0.00    -0.206 F 
ATOM     68  C   UNL A   1      40.163  25.209  26.761  1.00  0.00     0.040 A 
ATOM     69  C   UNL A   1      41.524  26.974  25.898  1.00  0.00     0.040 A 
ATOM     70  F   UNL A   1      41.732  28.985  27.064  1.00  0.00    -0.206 F 
ATOM     71  C   UNL A   1      40.994  25.698  25.763  1.00  0.00     0.006 A 
ENDBRANCH  50  64
BRANCH  51  72
ATOM     72  C   UNL A   1      39.775  33.022  35.769  1.00  0.00     0.057 A 
ATOM     73  C   UNL A   1      38.600  32.283  35.989  1.00  0.00     0.134 A 
ATOM     74  C   UNL A   1      40.032  34.088  36.635  1.00  0.00     0.134 A 
ATOM     75  F   UNL A   1      38.297  31.246  35.191  1.00  0.00    -0.206 F 
ATOM     76  C   UNL A   1      37.778  32.516  37.093  1.00  0.00     0.040 A 
ATOM     77  C   UNL A   1      39.211  34.335  37.741  1.00  0.00     0.040 A 
ATOM     78  F   UNL A   1      41.141  34.826  36.496  1.00  0.00    -0.206 F 
ATOM     79  C   UNL A   1      38.106  33.522  37.995  1.00  0.00     0.006 A 
ENDBRANCH  51  72
BRANCH  63  80
ATOM     80  C   UNL A   1      42.707  26.501  34.372  1.00  0.00     0.057 A 
ATOM     81  C   UNL A   1      41.904  25.644  35.138  1.00  0.00     0.134 A 
ATOM     82  C   UNL A   1      43.897  25.903  33.882  1.00  0.00     0.134 A 
ATOM     83  F   UNL A   1      40.701  26.017  35.589  1.00  0.00    -0.206 F 
ATOM     84  C   UNL A   1      42.275  24.322  35.433  1.00  0.00     0.040 A 
ATOM     85  C   UNL A   1      44.249  24.572  34.124  1.00  0.00     0.040 A 
ATOM     86  F   UNL A   1      44.770  26.578  33.119  1.00  0.00    -0.206 F 
ATOM     87  C   UNL A   1      43.443  23.776  34.915  1.00  0.00     0.006 A 
ENDBRANCH  63  80
ENDBRANCH  37  38
ENDBRANCH  29  32
ENDBRANCH  27  28
ENDBRANCH  26  27
ENDBRANCH   1  26
TORSDOF 14
ENDMDL
MODEL 3
REMARK VINA RESULT:     -12.2      3.229      8.612
REMARK SMILES Cc1ccccc1NC(=O)C[NH+]1CCC(CC(=O)NCCCNC(=O)c2ccc(-c3c4nc(c(-c5c(F)cccc5F)c5ccc([nH]5)c(-c5c(F)cccc5F)c5nc(c(-c6c(F)cccc6F)c6ccc3[nH]6)C=C5)C=C4)cc2)CC1
REMARK SMILES IDX 20 1 19 2 17 3 18 4 16 6 15 7 12 8 13 9 81 10 14 12 80 13
REMARK SMILES IDX 11 14 9 15 8 16 10 18 7 19 1 20 2 21 3 22 4 23 6 24 5 25
REMARK SMILES IDX 21 26 22 27 23 28 24 29 25 31 26 32 27 33 79 34 28 35 78 36
REMARK SMILES IDX 29 37 30 38 31 39 72 40 32 41 77 42 71 43 73 44 33 45 76 46
REMARK SMILES IDX 70 47 69 48 34 50 60 51 43 52 59 53 44 54 47 55 58 56 74 57
REMARK SMILES IDX 45 58 46 59 57 61 75 62 48 63 35 64 36 65 41 66 37 67 38 68
REMARK SMILES IDX 40 69 42 70 39 71 61 72 62 73 67 74 63 75 64 76 66 77 68 78
REMARK SMILES IDX 65 79 49 80 50 81 55 82 51 83 52 84 54 85 56 86 53 87
REMARK H PARENT 19 5 12 11 8 17 23 30 73 49 47 60
REMARK Flexibility Score: inf
ROOT
ATOM      1  C   UNL A   1      37.781  21.761  25.705  1.00  0.00     0.117 C 
ENDROOT
BRANCH   1   2
ATOM      2  N   UNL A   1      37.396  21.966  24.317  1.00  0.00    -0.356 N 
ATOM      3  C   UNL A   1      36.674  22.981  23.746  1.00  0.00     0.220 C 
ATOM      4  O   UNL A   1      36.549  22.996  22.521  1.00  0.00    -0.275 OA
ATOM      5  H   UNL A   1      37.699  21.269  23.693  1.00  0.00     0.163 HD
BRANCH   3   6
ATOM      6  C   UNL A   1      35.996  24.029  24.611  1.00  0.00     0.104 C 
BRANCH   6   7
ATOM      7  C   UNL A   1      34.475  23.824  24.733  1.00  0.00     0.009 C 
ATOM      8  N   UNL A   1      31.772  24.987  24.818  1.00  0.00    -0.327 N 
ATOM      9  C   UNL A   1      32.362  24.435  26.033  1.00  0.00     0.262 C 
ATOM     10  C   UNL A   1      32.248  24.289  23.624  1.00  0.00     0.262 C 
ATOM     11  H   UNL A   1      32.109  25.946  24.720  1.00  0.00     0.348 HD
ATOM     12  C   UNL A   1      33.875  24.547  25.937  1.00  0.00     0.066 C 
ATOM     13  C   UNL A   1      33.770  24.344  23.472  1.00  0.00     0.066 C 
BRANCH   8  14
ATOM     14  C   UNL A   1      30.302  25.148  24.906  1.00  0.00     0.363 C 
BRANCH  14  15
ATOM     15  C   UNL A   1      29.732  26.478  24.385  1.00  0.00     0.279 C 
ATOM     16  N   UNL A   1      30.367  27.679  24.541  1.00  0.00    -0.321 N 
ATOM     17  H   UNL A   1      29.908  28.449  24.131  1.00  0.00     0.170 HD
ATOM     18  O   UNL A   1      28.686  26.483  23.720  1.00  0.00    -0.268 OA
BRANCH  16  19
ATOM     19  C   UNL A   1      31.567  27.987  25.193  1.00  0.00     0.044 A 
ATOM     20  C   UNL A   1      32.799  28.070  22.935  1.00  0.00     0.046 C 
ATOM     21  C   UNL A   1      32.751  28.107  24.439  1.00  0.00    -0.027 A 
ATOM     22  C   UNL A   1      33.975  28.218  25.122  1.00  0.00     0.005 A 
ATOM     23  C   UNL A   1      34.023  28.237  26.516  1.00  0.00     0.000 A 
ATOM     24  C   UNL A   1      31.618  28.109  26.587  1.00  0.00     0.026 A 
ATOM     25  C   UNL A   1      32.843  28.213  27.248  1.00  0.00     0.002 A 
ENDBRANCH  16  19
ENDBRANCH  14  15
ENDBRANCH   8  14
ENDBRANCH   6   7
ENDBRANCH   3   6
ENDBRANCH   1   2
BRANCH   1  26
ATOM     26  C   UNL A   1      39.078  22.457  26.119  1.00  0.00     0.042 C 
BRANCH  26  27
ATOM     27  C   UNL A   1      40.037  21.598  26.925  1.00  0.00     0.118 C 
BRANCH  27  28
ATOM     28  N   UNL A   1      40.869  20.772  26.045  1.00  0.00    -0.352 N 
ATOM     29  C   UNL A   1      42.250  20.713  25.932  1.00  0.00     0.251 C 
ATOM     30  H   UNL A   1      40.374  20.168  25.445  1.00  0.00     0.163 HD
ATOM     31  O   UNL A   1      42.800  19.840  25.304  1.00  0.00    -0.269 OA
BRANCH  29  32
ATOM     32  C   UNL A   1      43.023  21.693  26.719  1.00  0.00     0.039 A 
ATOM     33  C   UNL A   1      42.987  21.556  28.108  1.00  0.00     0.014 A 
ATOM     34  C   UNL A   1      43.420  22.879  26.107  1.00  0.00     0.014 A 
ATOM     35  C   UNL A   1      43.083  22.699  28.887  1.00  0.00     0.010 A 
ATOM     36  C   UNL A   1      43.432  24.025  26.878  1.00  0.00     0.010 A 
ATOM     37  C   UNL A   1      43.179  23.939  28.253  1.00  0.00    -0.014 A 
BRANCH  37  38
ATOM     38  C   UNL A   1      42.901  25.186  28.954  1.00  0.00     0.031 A 
ATOM     39  C   UNL A   1      41.707  25.972  28.601  1.00  0.00     0.074 A 
ATOM     40  C   UNL A   1      43.752  25.672  29.889  1.00  0.00     0.049 A 
ATOM     41  N   UNL A   1      41.681  27.262  28.604  1.00  0.00    -0.248 NA
ATOM     42  C   UNL A   1      40.455  25.361  28.169  1.00  0.00     0.031 C 
ATOM     43  C   UNL A   1      43.519  26.814  30.770  1.00  0.00     0.029 A 
ATOM     44  N   UNL A   1      45.105  25.356  30.076  1.00  0.00    -0.354 N 
ATOM     45  C   UNL A   1      40.374  27.639  28.445  1.00  0.00     0.074 A 
ATOM     46  C   UNL A   1      39.658  26.431  28.100  1.00  0.00     0.031 C 
ATOM     47  C   UNL A   1      44.702  27.298  31.175  1.00  0.00     0.029 A 
ATOM     48  C   UNL A   1      45.737  26.551  30.485  1.00  0.00     0.049 A 
ATOM     49  H   UNL A   1      45.530  24.477  29.949  1.00  0.00     0.167 HD
ATOM     50  C   UNL A   1      39.980  28.901  28.765  1.00  0.00     0.037 A 
ATOM     51  C   UNL A   1      46.783  27.099  29.806  1.00  0.00     0.037 A 
ATOM     52  C   UNL A   1      41.074  29.703  29.291  1.00  0.00     0.049 A 
ATOM     53  C   UNL A   1      46.546  28.519  29.356  1.00  0.00     0.074 A 
ATOM     54  C   UNL A   1      41.482  29.983  30.585  1.00  0.00     0.029 A 
ATOM     55  N   UNL A   1      42.120  30.085  28.460  1.00  0.00    -0.354 N 
ATOM     56  N   UNL A   1      45.362  29.056  29.256  1.00  0.00    -0.248 NA
ATOM     57  C   UNL A   1      47.608  29.440  28.961  1.00  0.00     0.031 C 
ATOM     58  C   UNL A   1      42.783  30.533  30.534  1.00  0.00     0.029 A 
ATOM     59  C   UNL A   1      43.164  30.597  29.207  1.00  0.00     0.049 A 
ATOM     60  H   UNL A   1      42.119  30.001  27.479  1.00  0.00     0.167 HD
ATOM     61  C   UNL A   1      45.475  30.343  28.788  1.00  0.00     0.074 A 
ATOM     62  C   UNL A   1      46.903  30.539  28.636  1.00  0.00     0.031 C 
ATOM     63  C   UNL A   1      44.366  31.115  28.572  1.00  0.00     0.037 A 
BRANCH  50  64
ATOM     64  C   UNL A   1      38.526  29.243  28.889  1.00  0.00     0.057 A 
ATOM     65  C   UNL A   1      37.801  29.793  27.817  1.00  0.00     0.134 A 
ATOM     66  C   UNL A   1      37.808  29.104  30.089  1.00  0.00     0.134 A 
ATOM     67  F   UNL A   1      38.334  29.922  26.597  1.00  0.00    -0.206 F 
ATOM     68  C   UNL A   1      36.492  30.265  27.957  1.00  0.00     0.040 A 
ATOM     69  C   UNL A   1      36.514  29.613  30.256  1.00  0.00     0.040 A 
ATOM     70  F   UNL A   1      38.349  28.477  31.145  1.00  0.00    -0.206 F 
ATOM     71  C   UNL A   1      35.856  30.210  29.190  1.00  0.00     0.006 A 
ENDBRANCH  50  64
BRANCH  51  72
ATOM     72  C   UNL A   1      47.616  26.098  29.098  1.00  0.00     0.057 A 
ATOM     73  C   UNL A   1      47.383  25.883  27.729  1.00  0.00     0.134 A 
ATOM     74  C   UNL A   1      48.842  25.673  29.613  1.00  0.00     0.134 A 
ATOM     75  F   UNL A   1      46.224  26.270  27.173  1.00  0.00    -0.206 F 
ATOM     76  C   UNL A   1      48.373  25.378  26.884  1.00  0.00     0.040 A 
ATOM     77  C   UNL A   1      49.839  25.158  28.776  1.00  0.00     0.040 A 
ATOM     78  F   UNL A   1      49.140  25.860  30.906  1.00  0.00    -0.206 F 
ATOM     79  C   UNL A   1      49.621  25.048  27.403  1.00  0.00     0.006 A 
ENDBRANCH  51  72
BRANCH  63  80
ATOM     80  C   UNL A   1      44.280  32.457  27.872  1.00  0.00     0.057 A 
ATOM     81  C   UNL A   1      44.592  32.686  26.524  1.00  0.00     0.134 A 
ATOM     82  C   UNL A   1      43.727  33.579  28.541  1.00  0.00     0.134 A 
ATOM     83  F   UNL A   1      45.025  31.706  25.723  1.00  0.00    -0.206 F 
ATOM     84  C   UNL A   1      44.414  33.935  25.907  1.00  0.00     0.040 A 
ATOM     85  C   UNL A   1      43.495  34.811  27.922  1.00  0.00     0.040 A 
ATOM     86  F   UNL A   1      43.358  33.529  29.830  1.00  0.00    -0.206 F 
ATOM     87  C   UNL A   1      43.851  34.999  26.600  1.00  0.00     0.006 A 
ENDBRANCH  63  80
ENDBRANCH  37  38
ENDBRANCH  29  32
ENDBRANCH  27  28
ENDBRANCH  26  27
ENDBRANCH   1  26
TORSDOF 14
ENDMDL
