MODEL 1
REMARK VINA RESULT:     -11.0      0.000      0.000
REMARK SMILES C[C@@H]1C[C@H]([NH3+])C[N@@H+](CCC(=O)NCCCNC(=O)c2ccc(-c3c4nc(c(-c5c(F)cccc5F)c5ccc([nH]5)c(-c5c(F)cccc5F)c5nc(c(-c6c(F)cccc6F)c6ccc3[nH]6)C=C5)C=C4)cc2)C1
REMARK SMILES IDX 13 1 12 2 10 3 11 4 9 6 8 7 7 8 1 9 2 10 3 11 73 12 4 13
REMARK SMILES IDX 6 14 5 16 14 20 15 21 16 22 17 23 18 25 19 26 20 27 72 28
REMARK SMILES IDX 21 29 71 30 22 31 23 32 24 33 65 34 25 35 70 36 64 37 66 38
REMARK SMILES IDX 26 39 69 40 63 41 62 42 27 44 53 45 36 46 52 47 37 48 40 49
REMARK SMILES IDX 51 50 67 51 38 52 39 53 50 55 68 56 41 57 28 58 29 59 34 60
REMARK SMILES IDX 30 61 31 62 33 63 35 64 32 65 54 66 55 67 60 68 56 69 57 70
REMARK SMILES IDX 59 71 61 72 58 73 42 74 43 75 48 76 44 77 45 78 47 79 49 80
REMARK SMILES IDX 46 81
REMARK H PARENT 12 5 7 15 5 17 5 18 5 19 16 24 66 43 40 54
REMARK Flexibility Score: inf
ROOT
ATOM      1  C   UNL A   1      32.830  30.073  26.745  1.00  0.00     0.117 C 
ENDROOT
BRANCH   1   2
ATOM      2  N   UNL A   1      33.515  29.716  25.507  1.00  0.00    -0.356 N 
ATOM      3  C   UNL A   1      33.145  28.820  24.542  1.00  0.00     0.225 C 
ATOM      4  O   UNL A   1      34.035  28.300  23.867  1.00  0.00    -0.275 OA
ATOM      5  H   UNL A   1      34.365  30.185  25.344  1.00  0.00     0.163 HD
BRANCH   3   6
ATOM      6  C   UNL A   1      31.683  28.568  24.236  1.00  0.00     0.161 C 
BRANCH   6   7
ATOM      7  C   UNL A   1      31.202  28.999  22.832  1.00  0.00     0.272 C 
BRANCH   7   8
ATOM      8  N   UNL A   1      30.307  30.173  22.693  1.00  0.00    -0.329 N 
ATOM      9  C   UNL A   1      28.038  31.934  20.523  1.00  0.00     0.014 C 
ATOM     10  C   UNL A   1      28.038  30.870  21.622  1.00  0.00     0.047 C 
ATOM     11  C   UNL A   1      27.660  31.461  22.991  1.00  0.00     0.080 C 
ATOM     12  C   UNL A   1      29.334  30.013  21.612  1.00  0.00     0.265 C 
ATOM     13  C   UNL A   1      28.859  31.896  23.829  1.00  0.00     0.237 C 
ATOM     14  C   UNL A   1      29.817  30.697  23.967  1.00  0.00     0.327 C 
ATOM     15  H   UNL A   1      30.877  30.954  22.369  1.00  0.00     0.348 HD
BRANCH  13  16
ATOM     16  N   UNL A   1      29.515  33.074  23.253  1.00  0.00    -0.350 N 
ATOM     17  H   UNL A   1      30.522  33.009  23.405  1.00  0.00     0.344 HD
ATOM     18  H   UNL A   1      29.157  33.916  23.702  1.00  0.00     0.344 HD
ATOM     19  H   UNL A   1      29.324  33.114  22.252  1.00  0.00     0.344 HD
ENDBRANCH  13  16
ENDBRANCH   7   8
ENDBRANCH   6   7
ENDBRANCH   3   6
ENDBRANCH   1   2
BRANCH   1  20
ATOM     20  C   UNL A   1      33.047  31.558  27.015  1.00  0.00     0.042 C 
BRANCH  20  21
ATOM     21  C   UNL A   1      31.879  32.520  26.847  1.00  0.00     0.118 C 
BRANCH  21  22
ATOM     22  N   UNL A   1      32.087  33.807  27.481  1.00  0.00    -0.352 N 
ATOM     23  C   UNL A   1      33.060  34.369  28.275  1.00  0.00     0.251 C 
ATOM     24  H   UNL A   1      31.351  34.434  27.297  1.00  0.00     0.163 HD
ATOM     25  O   UNL A   1      32.847  35.537  28.610  1.00  0.00    -0.269 OA
BRANCH  23  26
ATOM     26  C   UNL A   1      34.315  33.712  28.779  1.00  0.00     0.039 A 
ATOM     27  C   UNL A   1      34.148  32.740  29.786  1.00  0.00     0.014 A 
ATOM     28  C   UNL A   1      35.625  34.003  28.399  1.00  0.00     0.014 A 
ATOM     29  C   UNL A   1      35.243  32.084  30.376  1.00  0.00     0.010 A 
ATOM     30  C   UNL A   1      36.718  33.287  28.927  1.00  0.00     0.010 A 
ATOM     31  C   UNL A   1      36.548  32.331  29.937  1.00  0.00    -0.014 A 
BRANCH  31  32
ATOM     32  C   UNL A   1      37.718  31.615  30.536  1.00  0.00     0.031 A 
ATOM     33  C   UNL A   1      38.163  31.897  31.953  1.00  0.00     0.074 A 
ATOM     34  C   UNL A   1      38.409  30.713  29.809  1.00  0.00     0.049 A 
ATOM     35  N   UNL A   1      39.170  31.389  32.625  1.00  0.00    -0.248 NA
ATOM     36  C   UNL A   1      37.390  32.893  32.708  1.00  0.00     0.031 C 
ATOM     37  C   UNL A   1      38.125  30.352  28.420  1.00  0.00     0.029 A 
ATOM     38  N   UNL A   1      39.497  29.936  30.136  1.00  0.00    -0.354 N 
ATOM     39  C   UNL A   1      39.155  32.011  33.869  1.00  0.00     0.074 A 
ATOM     40  C   UNL A   1      38.073  32.971  33.841  1.00  0.00     0.031 C 
ATOM     41  C   UNL A   1      38.994  29.407  28.024  1.00  0.00     0.029 A 
ATOM     42  C   UNL A   1      39.926  29.124  29.112  1.00  0.00     0.049 A 
ATOM     43  H   UNL A   1      39.928  29.960  31.021  1.00  0.00     0.167 HD
ATOM     44  C   UNL A   1      39.951  31.793  34.947  1.00  0.00     0.037 A 
ATOM     45  C   UNL A   1      40.955  28.257  29.044  1.00  0.00     0.037 A 
ATOM     46  C   UNL A   1      41.018  30.825  34.996  1.00  0.00     0.049 A 
ATOM     47  C   UNL A   1      41.840  28.050  30.244  1.00  0.00     0.074 A 
ATOM     48  C   UNL A   1      41.837  30.500  36.065  1.00  0.00     0.029 A 
ATOM     49  N   UNL A   1      41.420  30.029  33.934  1.00  0.00    -0.354 N 
ATOM     50  N   UNL A   1      41.772  28.602  31.430  1.00  0.00    -0.248 NA
ATOM     51  C   UNL A   1      42.947  27.093  30.095  1.00  0.00     0.031 C 
ATOM     52  C   UNL A   1      42.769  29.550  35.636  1.00  0.00     0.029 A 
ATOM     53  C   UNL A   1      42.492  29.236  34.316  1.00  0.00     0.049 A 
ATOM     54  H   UNL A   1      41.005  30.027  33.042  1.00  0.00     0.167 HD
ATOM     55  C   UNL A   1      42.800  28.038  32.175  1.00  0.00     0.074 A 
ATOM     56  C   UNL A   1      43.470  27.088  31.312  1.00  0.00     0.031 C 
ATOM     57  C   UNL A   1      43.155  28.286  33.460  1.00  0.00     0.037 A 
BRANCH  44  58
ATOM     58  C   UNL A   1      39.702  32.622  36.177  1.00  0.00     0.057 A 
ATOM     59  C   UNL A   1      38.712  32.284  37.110  1.00  0.00     0.134 A 
ATOM     60  C   UNL A   1      40.495  33.742  36.458  1.00  0.00     0.134 A 
ATOM     61  F   UNL A   1      37.912  31.228  36.902  1.00  0.00    -0.206 F 
ATOM     62  C   UNL A   1      38.503  33.046  38.261  1.00  0.00     0.040 A 
ATOM     63  C   UNL A   1      40.315  34.493  37.621  1.00  0.00     0.040 A 
ATOM     64  F   UNL A   1      41.471  34.116  35.616  1.00  0.00    -0.206 F 
ATOM     65  C   UNL A   1      39.310  34.150  38.523  1.00  0.00     0.006 A 
ENDBRANCH  44  58
BRANCH  45  66
ATOM     66  C   UNL A   1      41.208  27.498  27.791  1.00  0.00     0.057 A 
ATOM     67  C   UNL A   1      40.684  26.213  27.603  1.00  0.00     0.134 A 
ATOM     68  C   UNL A   1      41.997  28.029  26.763  1.00  0.00     0.134 A 
ATOM     69  F   UNL A   1      39.942  25.640  28.561  1.00  0.00    -0.206 F 
ATOM     70  C   UNL A   1      40.952  25.475  26.448  1.00  0.00     0.040 A 
ATOM     71  C   UNL A   1      42.248  27.314  25.591  1.00  0.00     0.040 A 
ATOM     72  F   UNL A   1      42.527  29.255  26.881  1.00  0.00    -0.206 F 
ATOM     73  C   UNL A   1      41.732  26.029  25.435  1.00  0.00     0.006 A 
ENDBRANCH  45  66
BRANCH  57  74
ATOM     74  C   UNL A   1      44.295  27.490  34.031  1.00  0.00     0.057 A 
ATOM     75  C   UNL A   1      45.620  27.945  33.982  1.00  0.00     0.134 A 
ATOM     76  C   UNL A   1      44.060  26.263  34.666  1.00  0.00     0.134 A 
ATOM     77  F   UNL A   1      45.918  29.105  33.379  1.00  0.00    -0.206 F 
ATOM     78  C   UNL A   1      46.670  27.196  34.518  1.00  0.00     0.040 A 
ATOM     79  C   UNL A   1      45.098  25.520  35.231  1.00  0.00     0.040 A 
ATOM     80  F   UNL A   1      42.816  25.771  34.757  1.00  0.00    -0.206 F 
ATOM     81  C   UNL A   1      46.409  25.983  35.152  1.00  0.00     0.006 A 
ENDBRANCH  57  74
ENDBRANCH  31  32
ENDBRANCH  23  26
ENDBRANCH  21  22
ENDBRANCH  20  21
ENDBRANCH   1  20
TORSDOF 13
ENDMDL
MODEL 2
REMARK VINA RESULT:     -10.9      1.776      6.598
REMARK SMILES C[C@@H]1C[C@H]([NH3+])C[N@@H+](CCC(=O)NCCCNC(=O)c2ccc(-c3c4nc(c(-c5c(F)cccc5F)c5ccc([nH]5)c(-c5c(F)cccc5F)c5nc(c(-c6c(F)cccc6F)c6ccc3[nH]6)C=C5)C=C4)cc2)C1
REMARK SMILES IDX 13 1 12 2 10 3 11 4 9 6 8 7 7 8 1 9 2 10 3 11 73 12 4 13
REMARK SMILES IDX 6 14 5 16 14 20 15 21 16 22 17 23 18 25 19 26 20 27 72 28
REMARK SMILES IDX 21 29 71 30 22 31 23 32 24 33 65 34 25 35 70 36 64 37 66 38
REMARK SMILES IDX 26 39 69 40 63 41 62 42 27 44 53 45 36 46 52 47 37 48 40 49
REMARK SMILES IDX 51 50 67 51 38 52 39 53 50 55 68 56 41 57 28 58 29 59 34 60
REMARK SMILES IDX 30 61 31 62 33 63 35 64 32 65 54 66 55 67 60 68 56 69 57 70
REMARK SMILES IDX 59 71 61 72 58 73 42 74 43 75 48 76 44 77 45 78 47 79 49 80
REMARK SMILES IDX 46 81
REMARK H PARENT 12 5 7 15 5 17 5 18 5 19 16 24 66 43 40 54
REMARK Flexibility Score: inf
ROOT
ATOM      1  C   UNL A   1      32.799  29.922  26.827  1.00  0.00     0.117 C 
ENDROOT
BRANCH   1   2
ATOM      2  N   UNL A   1      33.482  29.729  25.552  1.00  0.00    -0.356 N 
ATOM      3  C   UNL A   1      33.153  28.905  24.511  1.00  0.00     0.225 C 
ATOM      4  O   UNL A   1      34.062  28.512  23.778  1.00  0.00    -0.275 OA
ATOM      5  H   UNL A   1      34.294  30.269  25.422  1.00  0.00     0.163 HD
BRANCH   3   6
ATOM      6  C   UNL A   1      31.706  28.583  24.202  1.00  0.00     0.161 C 
BRANCH   6   7
ATOM      7  C   UNL A   1      31.200  29.014  22.807  1.00  0.00     0.272 C 
BRANCH   7   8
ATOM      8  N   UNL A   1      30.311  30.195  22.683  1.00  0.00    -0.329 N 
ATOM      9  C   UNL A   1      28.055  31.997  20.534  1.00  0.00     0.014 C 
ATOM     10  C   UNL A   1      28.048  30.919  21.619  1.00  0.00     0.047 C 
ATOM     11  C   UNL A   1      27.672  31.494  22.996  1.00  0.00     0.080 C 
ATOM     12  C   UNL A   1      29.338  30.055  21.599  1.00  0.00     0.265 C 
ATOM     13  C   UNL A   1      28.873  31.911  23.841  1.00  0.00     0.237 C 
ATOM     14  C   UNL A   1      29.823  30.705  23.963  1.00  0.00     0.327 C 
ATOM     15  H   UNL A   1      30.886  30.976  22.370  1.00  0.00     0.348 HD
BRANCH  13  16
ATOM     16  N   UNL A   1      29.536  33.092  23.281  1.00  0.00    -0.350 N 
ATOM     17  H   UNL A   1      30.365  33.310  23.834  1.00  0.00     0.344 HD
ATOM     18  H   UNL A   1      28.895  33.884  23.302  1.00  0.00     0.344 HD
ATOM     19  H   UNL A   1      29.811  32.902  22.317  1.00  0.00     0.344 HD
ENDBRANCH  13  16
ENDBRANCH   7   8
ENDBRANCH   6   7
ENDBRANCH   3   6
ENDBRANCH   1   2
BRANCH   1  20
ATOM     20  C   UNL A   1      32.923  31.386  27.234  1.00  0.00     0.042 C 
BRANCH  20  21
ATOM     21  C   UNL A   1      31.844  32.369  26.802  1.00  0.00     0.118 C 
BRANCH  21  22
ATOM     22  N   UNL A   1      31.982  33.685  27.394  1.00  0.00    -0.352 N 
ATOM     23  C   UNL A   1      32.908  34.314  28.194  1.00  0.00     0.251 C 
ATOM     24  H   UNL A   1      31.228  34.276  27.165  1.00  0.00     0.163 HD
ATOM     25  O   UNL A   1      32.639  35.484  28.479  1.00  0.00    -0.269 OA
BRANCH  23  26
ATOM     26  C   UNL A   1      34.171  33.726  28.758  1.00  0.00     0.039 A 
ATOM     27  C   UNL A   1      35.341  33.915  27.994  1.00  0.00     0.014 A 
ATOM     28  C   UNL A   1      34.297  32.966  29.920  1.00  0.00     0.014 A 
ATOM     29  C   UNL A   1      36.580  33.377  28.384  1.00  0.00     0.010 A 
ATOM     30  C   UNL A   1      35.553  32.497  30.358  1.00  0.00     0.010 A 
ATOM     31  C   UNL A   1      36.710  32.678  29.589  1.00  0.00    -0.014 A 
BRANCH  31  32
ATOM     32  C   UNL A   1      38.031  32.128  30.029  1.00  0.00     0.031 A 
ATOM     33  C   UNL A   1      38.540  30.805  29.503  1.00  0.00     0.074 A 
ATOM     34  C   UNL A   1      38.785  32.801  30.923  1.00  0.00     0.049 A 
ATOM     35  N   UNL A   1      39.649  30.165  29.794  1.00  0.00    -0.248 NA
ATOM     36  C   UNL A   1      37.684  30.098  28.539  1.00  0.00     0.031 C 
ATOM     37  C   UNL A   1      38.421  34.073  31.546  1.00  0.00     0.029 A 
ATOM     38  N   UNL A   1      40.015  32.507  31.466  1.00  0.00    -0.354 N 
ATOM     39  C   UNL A   1      39.615  28.983  29.062  1.00  0.00     0.074 A 
ATOM     40  C   UNL A   1      38.353  28.969  28.353  1.00  0.00     0.031 C 
ATOM     41  C   UNL A   1      39.414  34.465  32.362  1.00  0.00     0.029 A 
ATOM     42  C   UNL A   1      40.467  33.453  32.356  1.00  0.00     0.049 A 
ATOM     43  H   UNL A   1      40.523  31.695  31.239  1.00  0.00     0.167 HD
ATOM     44  C   UNL A   1      40.552  28.006  28.966  1.00  0.00     0.037 A 
ATOM     45  C   UNL A   1      41.594  33.503  33.095  1.00  0.00     0.037 A 
ATOM     46  C   UNL A   1      41.822  28.018  29.648  1.00  0.00     0.049 A 
ATOM     47  C   UNL A   1      42.608  32.395  32.990  1.00  0.00     0.074 A 
ATOM     48  C   UNL A   1      42.853  27.096  29.564  1.00  0.00     0.029 A 
ATOM     49  N   UNL A   1      42.235  28.992  30.543  1.00  0.00    -0.354 N 
ATOM     50  N   UNL A   1      42.585  31.318  32.246  1.00  0.00    -0.248 NA
ATOM     51  C   UNL A   1      43.809  32.516  33.831  1.00  0.00     0.031 C 
ATOM     52  C   UNL A   1      43.865  27.483  30.448  1.00  0.00     0.029 A 
ATOM     53  C   UNL A   1      43.492  28.679  31.038  1.00  0.00     0.049 A 
ATOM     54  H   UNL A   1      41.713  29.789  30.790  1.00  0.00     0.167 HD
ATOM     55  C   UNL A   1      43.777  30.651  32.502  1.00  0.00     0.074 A 
ATOM     56  C   UNL A   1      44.508  31.453  33.459  1.00  0.00     0.031 C 
ATOM     57  C   UNL A   1      44.223  29.479  31.986  1.00  0.00     0.037 A 
BRANCH  44  58
ATOM     58  C   UNL A   1      40.242  26.827  28.084  1.00  0.00     0.057 A 
ATOM     59  C   UNL A   1      40.757  26.718  26.786  1.00  0.00     0.134 A 
ATOM     60  C   UNL A   1      39.463  25.764  28.559  1.00  0.00     0.134 A 
ATOM     61  F   UNL A   1      41.506  27.701  26.265  1.00  0.00    -0.206 F 
ATOM     62  C   UNL A   1      40.483  25.608  25.982  1.00  0.00     0.040 A 
ATOM     63  C   UNL A   1      39.209  24.636  27.776  1.00  0.00     0.040 A 
ATOM     64  F   UNL A   1      38.949  25.795  29.799  1.00  0.00    -0.206 F 
ATOM     65  C   UNL A   1      39.713  24.561  26.480  1.00  0.00     0.006 A 
ENDBRANCH  44  58
BRANCH  45  66
ATOM     66  C   UNL A   1      41.838  34.656  34.000  1.00  0.00     0.057 A 
ATOM     67  C   UNL A   1      42.520  35.796  33.557  1.00  0.00     0.134 A 
ATOM     68  C   UNL A   1      41.419  34.637  35.336  1.00  0.00     0.134 A 
ATOM     69  F   UNL A   1      42.970  35.864  32.295  1.00  0.00    -0.206 F 
ATOM     70  C   UNL A   1      42.794  36.866  34.411  1.00  0.00     0.040 A 
ATOM     71  C   UNL A   1      41.659  35.711  36.194  1.00  0.00     0.040 A 
ATOM     72  F   UNL A   1      40.760  33.576  35.824  1.00  0.00    -0.206 F 
ATOM     73  C   UNL A   1      42.356  36.827  35.734  1.00  0.00     0.006 A 
ENDBRANCH  45  66
BRANCH  57  74
ATOM     74  C   UNL A   1      45.586  29.008  32.413  1.00  0.00     0.057 A 
ATOM     75  C   UNL A   1      45.776  28.208  33.548  1.00  0.00     0.134 A 
ATOM     76  C   UNL A   1      46.722  29.336  31.660  1.00  0.00     0.134 A 
ATOM     77  F   UNL A   1      44.734  27.866  34.321  1.00  0.00    -0.206 F 
ATOM     78  C   UNL A   1      47.047  27.775  33.932  1.00  0.00     0.040 A 
ATOM     79  C   UNL A   1      47.993  28.884  32.017  1.00  0.00     0.040 A 
ATOM     80  F   UNL A   1      46.612  30.090  30.556  1.00  0.00    -0.206 F 
ATOM     81  C   UNL A   1      48.160  28.107  33.161  1.00  0.00     0.006 A 
ENDBRANCH  57  74
ENDBRANCH  31  32
ENDBRANCH  23  26
ENDBRANCH  21  22
ENDBRANCH  20  21
ENDBRANCH   1  20
TORSDOF 13
ENDMDL
MODEL 3
REMARK VINA RESULT:     -10.9      0.442      6.489
REMARK SMILES C[C@@H]1C[C@H]([NH3+])C[N@@H+](CCC(=O)NCCCNC(=O)c2ccc(-c3c4nc(c(-c5c(F)cccc5F)c5ccc([nH]5)c(-c5c(F)cccc5F)c5nc(c(-c6c(F)cccc6F)c6ccc3[nH]6)C=C5)C=C4)cc2)C1
REMARK SMILES IDX 13 1 12 2 10 3 11 4 9 6 8 7 7 8 1 9 2 10 3 11 73 12 4 13
REMARK SMILES IDX 6 14 5 16 14 20 15 21 16 22 17 23 18 25 19 26 20 27 72 28
REMARK SMILES IDX 21 29 71 30 22 31 23 32 24 33 65 34 25 35 70 36 64 37 66 38
REMARK SMILES IDX 26 39 69 40 63 41 62 42 27 44 53 45 36 46 52 47 37 48 40 49
REMARK SMILES IDX 51 50 67 51 38 52 39 53 50 55 68 56 41 57 28 58 29 59 34 60
REMARK SMILES IDX 30 61 31 62 33 63 35 64 32 65 54 66 55 67 60 68 56 69 57 70
REMARK SMILES IDX 59 71 61 72 58 73 42 74 43 75 48 76 44 77 45 78 47 79 49 80
REMARK SMILES IDX 46 81
REMARK H PARENT 12 5 7 15 5 17 5 18 5 19 16 24 66 43 40 54
REMARK Flexibility Score: inf
ROOT
ATOM      1  C   UNL A   1      32.704  30.194  26.969  1.00  0.00     0.117 C 
ENDROOT
BRANCH   1   2
ATOM      2  N   UNL A   1      33.409  29.846  25.740  1.00  0.00    -0.356 N 
ATOM      3  C   UNL A   1      33.075  28.928  24.782  1.00  0.00     0.225 C 
ATOM      4  O   UNL A   1      33.986  28.430  24.119  1.00  0.00    -0.275 OA
ATOM      5  H   UNL A   1      34.244  30.342  25.577  1.00  0.00     0.163 HD
BRANCH   3   6
ATOM      6  C   UNL A   1      31.625  28.625  24.470  1.00  0.00     0.161 C 
BRANCH   6   7
ATOM      7  C   UNL A   1      31.158  28.958  23.036  1.00  0.00     0.272 C 
BRANCH   7   8
ATOM      8  N   UNL A   1      30.279  30.131  22.805  1.00  0.00    -0.329 N 
ATOM      9  C   UNL A   1      28.040  31.753  20.501  1.00  0.00     0.014 C 
ATOM     10  C   UNL A   1      28.023  30.777  21.678  1.00  0.00     0.047 C 
ATOM     11  C   UNL A   1      27.652  31.476  22.997  1.00  0.00     0.080 C 
ATOM     12  C   UNL A   1      29.305  29.903  21.737  1.00  0.00     0.265 C 
ATOM     13  C   UNL A   1      28.855  31.957  23.802  1.00  0.00     0.237 C 
ATOM     14  C   UNL A   1      29.795  30.758  24.034  1.00  0.00     0.327 C 
ATOM     15  H   UNL A   1      30.861  30.876  22.423  1.00  0.00     0.348 HD
BRANCH  13  16
ATOM     16  N   UNL A   1      29.530  33.077  23.139  1.00  0.00    -0.350 N 
ATOM     17  H   UNL A   1      28.921  33.460  22.415  1.00  0.00     0.344 HD
ATOM     18  H   UNL A   1      30.397  32.749  22.716  1.00  0.00     0.344 HD
ATOM     19  H   UNL A   1      29.739  33.802  23.826  1.00  0.00     0.344 HD
ENDBRANCH  13  16
ENDBRANCH   7   8
ENDBRANCH   6   7
ENDBRANCH   3   6
ENDBRANCH   1   2
BRANCH   1  20
ATOM     20  C   UNL A   1      32.966  31.663  27.287  1.00  0.00     0.042 C 
BRANCH  20  21
ATOM     21  C   UNL A   1      31.955  32.709  26.840  1.00  0.00     0.118 C 
BRANCH  21  22
ATOM     22  N   UNL A   1      32.088  33.979  27.525  1.00  0.00    -0.352 N 
ATOM     23  C   UNL A   1      32.995  34.541  28.393  1.00  0.00     0.251 C 
ATOM     24  H   UNL A   1      31.345  34.592  27.318  1.00  0.00     0.163 HD
ATOM     25  O   UNL A   1      32.729  35.692  28.751  1.00  0.00    -0.269 OA
BRANCH  23  26
ATOM     26  C   UNL A   1      34.238  33.903  28.948  1.00  0.00     0.039 A 
ATOM     27  C   UNL A   1      34.048  32.969  29.987  1.00  0.00     0.014 A 
ATOM     28  C   UNL A   1      35.557  34.179  28.587  1.00  0.00     0.014 A 
ATOM     29  C   UNL A   1      35.128  32.335  30.625  1.00  0.00     0.010 A 
ATOM     30  C   UNL A   1      36.637  33.483  29.165  1.00  0.00     0.010 A 
ATOM     31  C   UNL A   1      36.443  32.564  30.206  1.00  0.00    -0.014 A 
BRANCH  31  32
ATOM     32  C   UNL A   1      37.599  31.871  30.858  1.00  0.00     0.031 A 
ATOM     33  C   UNL A   1      38.392  30.815  30.122  1.00  0.00     0.074 A 
ATOM     34  C   UNL A   1      37.941  32.167  32.128  1.00  0.00     0.049 A 
ATOM     35  N   UNL A   1      39.407  30.095  30.540  1.00  0.00    -0.248 NA
ATOM     36  C   UNL A   1      37.980  30.514  28.743  1.00  0.00     0.031 C 
ATOM     37  C   UNL A   1      37.257  33.139  32.983  1.00  0.00     0.029 A 
ATOM     38  N   UNL A   1      38.949  31.679  32.927  1.00  0.00    -0.354 N 
ATOM     39  C   UNL A   1      39.742  29.253  29.484  1.00  0.00     0.074 A 
ATOM     40  C   UNL A   1      38.791  29.515  28.425  1.00  0.00     0.031 C 
ATOM     41  C   UNL A   1      37.881  33.196  34.171  1.00  0.00     0.029 A 
ATOM     42  C   UNL A   1      38.981  32.236  34.184  1.00  0.00     0.049 A 
ATOM     43  H   UNL A   1      39.589  30.993  32.626  1.00  0.00     0.167 HD
ATOM     44  C   UNL A   1      40.759  28.360  29.390  1.00  0.00     0.037 A 
ATOM     45  C   UNL A   1      39.791  32.000  35.234  1.00  0.00     0.037 A 
ATOM     46  C   UNL A   1      41.727  28.105  30.427  1.00  0.00     0.049 A 
ATOM     47  C   UNL A   1      40.897  30.986  35.115  1.00  0.00     0.074 A 
ATOM     48  C   UNL A   1      42.822  27.257  30.395  1.00  0.00     0.029 A 
ATOM     49  N   UNL A   1      41.716  28.689  31.685  1.00  0.00    -0.354 N 
ATOM     50  N   UNL A   1      41.236  30.246  34.088  1.00  0.00    -0.248 NA
ATOM     51  C   UNL A   1      41.737  30.777  36.304  1.00  0.00     0.031 C 
ATOM     52  C   UNL A   1      43.441  27.286  31.648  1.00  0.00     0.029 A 
ATOM     53  C   UNL A   1      42.769  28.198  32.444  1.00  0.00     0.049 A 
ATOM     54  H   UNL A   1      41.059  29.353  31.994  1.00  0.00     0.167 HD
ATOM     55  C   UNL A   1      42.343  29.511  34.495  1.00  0.00     0.074 A 
ATOM     56  C   UNL A   1      42.630  29.906  35.858  1.00  0.00     0.031 C 
ATOM     57  C   UNL A   1      43.058  28.594  33.798  1.00  0.00     0.037 A 
BRANCH  44  58
ATOM     58  C   UNL A   1      40.885  27.579  28.110  1.00  0.00     0.057 A 
ATOM     59  C   UNL A   1      41.698  28.012  27.055  1.00  0.00     0.134 A 
ATOM     60  C   UNL A   1      40.225  26.353  27.952  1.00  0.00     0.134 A 
ATOM     61  F   UNL A   1      42.355  29.178  27.136  1.00  0.00    -0.206 F 
ATOM     62  C   UNL A   1      41.827  27.269  25.879  1.00  0.00     0.040 A 
ATOM     63  C   UNL A   1      40.371  25.587  26.794  1.00  0.00     0.040 A 
ATOM     64  F   UNL A   1      39.440  25.870  28.928  1.00  0.00    -0.206 F 
ATOM     65  C   UNL A   1      41.168  26.049  25.750  1.00  0.00     0.006 A 
ENDBRANCH  44  58
BRANCH  45  66
ATOM     66  C   UNL A   1      39.600  32.749  36.505  1.00  0.00     0.057 A 
ATOM     67  C   UNL A   1      38.639  32.353  37.443  1.00  0.00     0.134 A 
ATOM     68  C   UNL A   1      40.355  33.890  36.799  1.00  0.00     0.134 A 
ATOM     69  F   UNL A   1      37.866  31.283  37.206  1.00  0.00    -0.206 F 
ATOM     70  C   UNL A   1      38.421  33.075  38.618  1.00  0.00     0.040 A 
ATOM     71  C   UNL A   1      40.169  34.605  37.984  1.00  0.00     0.040 A 
ATOM     72  F   UNL A   1      41.292  34.322  35.943  1.00  0.00    -0.206 F 
ATOM     73  C   UNL A   1      39.193  34.202  38.893  1.00  0.00     0.006 A 
ENDBRANCH  45  66
BRANCH  57  74
ATOM     74  C   UNL A   1      44.249  27.979  34.480  1.00  0.00     0.057 A 
ATOM     75  C   UNL A   1      45.519  28.570  34.438  1.00  0.00     0.134 A 
ATOM     76  C   UNL A   1      44.116  26.792  35.213  1.00  0.00     0.134 A 
ATOM     77  F   UNL A   1      45.720  29.700  33.745  1.00  0.00    -0.206 F 
ATOM     78  C   UNL A   1      46.616  27.989  35.077  1.00  0.00     0.040 A 
ATOM     79  C   UNL A   1      45.199  26.217  35.880  1.00  0.00     0.040 A 
ATOM     80  F   UNL A   1      42.927  26.177  35.303  1.00  0.00    -0.206 F 
ATOM     81  C   UNL A   1      46.456  26.812  35.807  1.00  0.00     0.006 A 
ENDBRANCH  57  74
ENDBRANCH  31  32
ENDBRANCH  23  26
ENDBRANCH  21  22
ENDBRANCH  20  21
ENDBRANCH   1  20
TORSDOF 13
ENDMDL
