MODEL 1
REMARK VINA RESULT:     -12.5      0.000      0.000
REMARK SMILES CC(C)n1ncnc1C[C@H](C(=O)NCCCNC(=O)c1ccc(-c2c3nc(c(-c4c(F)cccc4F)c4ccc([nH]4)c(-c4c(F)cccc4F)c4nc(c(-c5c(F)cccc5F)c5ccc2[nH]5)C=C4)C=C3)cc1)c1ccccc1F
REMARK SMILES IDX 14 1 13 2 11 3 12 4 10 6 9 7 8 8 4 9 5 10 6 11 7 12 2 13
REMARK SMILES IDX 1 14 3 15 74 16 75 17 79 18 76 19 78 20 80 21 77 22 15 23
REMARK SMILES IDX 16 24 17 25 18 26 19 28 20 29 21 30 73 31 22 32 72 33 23 34
REMARK SMILES IDX 24 35 25 36 66 37 26 38 71 39 65 40 67 41 27 42 70 43 64 44
REMARK SMILES IDX 63 45 28 47 54 48 37 49 53 50 38 51 41 52 52 53 68 54 39 55
REMARK SMILES IDX 40 56 51 58 69 59 42 60 29 61 30 62 35 63 31 64 32 65 34 66
REMARK SMILES IDX 36 67 33 68 55 69 56 70 61 71 57 72 58 73 60 74 62 75 59 76
REMARK SMILES IDX 43 77 44 78 49 79 45 80 46 81 48 82 50 83 47 84
REMARK H PARENT 13 5 17 27 67 46 41 57
REMARK Flexibility Score: inf
ROOT
ATOM      1  C   UNL A   1      37.120  21.438  24.966  1.00  0.00     0.117 C 
ENDROOT
BRANCH   1   2
ATOM      2  N   UNL A   1      36.247  21.742  26.098  1.00  0.00    -0.355 N 
ATOM      3  C   UNL A   1      34.897  21.448  26.193  1.00  0.00     0.228 C 
ATOM      4  O   UNL A   1      34.359  21.496  27.302  1.00  0.00    -0.274 OA
ATOM      5  H   UNL A   1      36.657  22.201  26.866  1.00  0.00     0.163 HD
BRANCH   3   6
ATOM      6  C   UNL A   1      34.054  21.215  24.911  1.00  0.00     0.119 C 
BRANCH   6   7
ATOM      7  C   UNL A   1      33.396  19.833  25.263  1.00  0.00     0.095 C 
BRANCH   7   8
ATOM      8  C   UNL A   1      33.045  18.888  24.180  1.00  0.00     0.128 A 
ATOM      9  N   UNL A   1      33.151  17.518  24.221  1.00  0.00    -0.248 N 
ATOM     10  N   UNL A   1      32.697  16.978  23.066  1.00  0.00    -0.159 NA
ATOM     11  C   UNL A   1      32.352  18.060  22.371  1.00  0.00     0.246 A 
ATOM     12  N   UNL A   1      32.517  19.243  23.022  1.00  0.00    -0.220 NA
BRANCH   9  13
ATOM     13  C   UNL A   1      33.590  16.615  25.277  1.00  0.00     0.103 C 
ATOM     14  C   UNL A   1      32.696  15.397  25.523  1.00  0.00     0.033 C 
ATOM     15  C   UNL A   1      35.045  16.204  25.058  1.00  0.00     0.033 C 
ENDBRANCH   9  13
ENDBRANCH   7   8
ENDBRANCH   6   7
BRANCH   6  16
ATOM     16  C   UNL A   1      33.276  22.477  24.496  1.00  0.00     0.001 A 
ATOM     17  C   UNL A   1      32.011  22.755  25.056  1.00  0.00     0.007 A 
ATOM     18  C   UNL A   1      33.669  23.300  23.442  1.00  0.00     0.127 A 
ATOM     19  C   UNL A   1      31.070  23.510  24.341  1.00  0.00     0.001 A 
ATOM     20  C   UNL A   1      32.738  24.024  22.701  1.00  0.00     0.039 A 
ATOM     21  F   UNL A   1      34.955  23.413  23.106  1.00  0.00    -0.207 F 
ATOM     22  C   UNL A   1      31.413  24.069  23.115  1.00  0.00     0.003 A 
ENDBRANCH   6  16
ENDBRANCH   3   6
ENDBRANCH   1   2
BRANCH   1  23
ATOM     23  C   UNL A   1      38.007  20.212  25.025  1.00  0.00     0.042 C 
BRANCH  23  24
ATOM     24  C   UNL A   1      39.285  20.451  25.782  1.00  0.00     0.118 C 
BRANCH  24  25
ATOM     25  N   UNL A   1      40.218  19.310  25.828  1.00  0.00    -0.352 N 
ATOM     26  C   UNL A   1      41.608  19.350  25.994  1.00  0.00     0.251 C 
ATOM     27  H   UNL A   1      39.818  18.416  25.729  1.00  0.00     0.163 HD
ATOM     28  O   UNL A   1      42.316  18.395  25.778  1.00  0.00    -0.269 OA
BRANCH  26  29
ATOM     29  C   UNL A   1      42.171  20.626  26.479  1.00  0.00     0.039 A 
ATOM     30  C   UNL A   1      42.687  21.626  25.649  1.00  0.00     0.014 A 
ATOM     31  C   UNL A   1      41.971  20.853  27.825  1.00  0.00     0.014 A 
ATOM     32  C   UNL A   1      42.906  22.890  26.205  1.00  0.00     0.010 A 
ATOM     33  C   UNL A   1      41.784  22.137  28.213  1.00  0.00     0.010 A 
ATOM     34  C   UNL A   1      42.426  23.131  27.498  1.00  0.00    -0.014 A 
BRANCH  34  35
ATOM     35  C   UNL A   1      42.488  24.402  28.198  1.00  0.00     0.031 A 
ATOM     36  C   UNL A   1      41.270  25.236  28.060  1.00  0.00     0.074 A 
ATOM     37  C   UNL A   1      43.398  24.582  29.187  1.00  0.00     0.049 A 
ATOM     38  N   UNL A   1      41.146  26.359  27.438  1.00  0.00    -0.248 NA
ATOM     39  C   UNL A   1      39.990  24.671  28.527  1.00  0.00     0.031 C 
ATOM     40  C   UNL A   1      44.408  23.630  29.686  1.00  0.00     0.029 A 
ATOM     41  N   UNL A   1      43.517  25.611  30.066  1.00  0.00    -0.354 N 
ATOM     42  C   UNL A   1      39.831  26.760  27.661  1.00  0.00     0.074 A 
ATOM     43  C   UNL A   1      39.123  25.583  28.084  1.00  0.00     0.031 C 
ATOM     44  C   UNL A   1      44.859  24.026  30.895  1.00  0.00     0.029 A 
ATOM     45  C   UNL A   1      44.315  25.338  31.178  1.00  0.00     0.049 A 
ATOM     46  H   UNL A   1      43.076  26.480  29.930  1.00  0.00     0.167 HD
ATOM     47  C   UNL A   1      39.511  28.079  27.787  1.00  0.00     0.037 A 
ATOM     48  C   UNL A   1      44.477  26.137  32.262  1.00  0.00     0.037 A 
ATOM     49  C   UNL A   1      40.604  28.913  27.339  1.00  0.00     0.049 A 
ATOM     50  C   UNL A   1      44.015  27.493  31.868  1.00  0.00     0.074 A 
ATOM     51  C   UNL A   1      41.314  29.034  26.160  1.00  0.00     0.029 A 
ATOM     52  N   UNL A   1      41.387  29.498  28.305  1.00  0.00    -0.354 N 
ATOM     53  N   UNL A   1      44.616  28.231  30.975  1.00  0.00    -0.248 NA
ATOM     54  C   UNL A   1      42.613  27.809  32.095  1.00  0.00     0.031 C 
ATOM     55  C   UNL A   1      42.669  29.219  26.566  1.00  0.00     0.029 A 
ATOM     56  C   UNL A   1      42.698  29.294  27.959  1.00  0.00     0.049 A 
ATOM     57  H   UNL A   1      41.065  29.978  29.102  1.00  0.00     0.167 HD
ATOM     58  C   UNL A   1      43.590  28.799  30.231  1.00  0.00     0.074 A 
ATOM     59  C   UNL A   1      42.378  28.560  31.016  1.00  0.00     0.031 C 
ATOM     60  C   UNL A   1      43.769  29.129  28.918  1.00  0.00     0.037 A 
BRANCH  47  61
ATOM     61  C   UNL A   1      38.412  28.623  28.675  1.00  0.00     0.057 A 
ATOM     62  C   UNL A   1      37.561  29.618  28.160  1.00  0.00     0.134 A 
ATOM     63  C   UNL A   1      38.322  28.432  30.070  1.00  0.00     0.134 A 
ATOM     64  F   UNL A   1      37.549  29.902  26.848  1.00  0.00    -0.206 F 
ATOM     65  C   UNL A   1      36.755  30.419  28.977  1.00  0.00     0.040 A 
ATOM     66  C   UNL A   1      37.479  29.190  30.889  1.00  0.00     0.040 A 
ATOM     67  F   UNL A   1      39.105  27.582  30.741  1.00  0.00    -0.206 F 
ATOM     68  C   UNL A   1      36.719  30.213  30.350  1.00  0.00     0.006 A 
ENDBRANCH  47  61
BRANCH  48  69
ATOM     69  C   UNL A   1      44.709  25.755  33.675  1.00  0.00     0.057 A 
ATOM     70  C   UNL A   1      43.645  25.428  34.526  1.00  0.00     0.134 A 
ATOM     71  C   UNL A   1      45.995  25.436  34.149  1.00  0.00     0.134 A 
ATOM     72  F   UNL A   1      42.378  25.656  34.148  1.00  0.00    -0.206 F 
ATOM     73  C   UNL A   1      43.843  24.798  35.764  1.00  0.00     0.040 A 
ATOM     74  C   UNL A   1      46.209  24.814  35.384  1.00  0.00     0.040 A 
ATOM     75  F   UNL A   1      47.081  25.638  33.388  1.00  0.00    -0.206 F 
ATOM     76  C   UNL A   1      45.129  24.478  36.191  1.00  0.00     0.006 A 
ENDBRANCH  48  69
BRANCH  60  77
ATOM     77  C   UNL A   1      45.168  29.090  28.359  1.00  0.00     0.057 A 
ATOM     78  C   UNL A   1      45.732  27.979  27.712  1.00  0.00     0.134 A 
ATOM     79  C   UNL A   1      45.907  30.276  28.323  1.00  0.00     0.134 A 
ATOM     80  F   UNL A   1      45.067  26.825  27.607  1.00  0.00    -0.206 F 
ATOM     81  C   UNL A   1      46.983  28.038  27.087  1.00  0.00     0.040 A 
ATOM     82  C   UNL A   1      47.143  30.359  27.675  1.00  0.00     0.040 A 
ATOM     83  F   UNL A   1      45.410  31.397  28.870  1.00  0.00    -0.206 F 
ATOM     84  C   UNL A   1      47.689  29.235  27.062  1.00  0.00     0.006 A 
ENDBRANCH  60  77
ENDBRANCH  34  35
ENDBRANCH  26  29
ENDBRANCH  24  25
ENDBRANCH  23  24
ENDBRANCH   1  23
TORSDOF 14
ENDMDL
MODEL 2
REMARK VINA RESULT:     -12.1      1.724      3.312
REMARK SMILES CC(C)n1ncnc1C[C@H](C(=O)NCCCNC(=O)c1ccc(-c2c3nc(c(-c4c(F)cccc4F)c4ccc([nH]4)c(-c4c(F)cccc4F)c4nc(c(-c5c(F)cccc5F)c5ccc2[nH]5)C=C4)C=C3)cc1)c1ccccc1F
REMARK SMILES IDX 14 1 13 2 11 3 12 4 10 6 9 7 8 8 4 9 5 10 6 11 7 12 2 13
REMARK SMILES IDX 1 14 3 15 74 16 75 17 79 18 76 19 78 20 80 21 77 22 15 23
REMARK SMILES IDX 16 24 17 25 18 26 19 28 20 29 21 30 73 31 22 32 72 33 23 34
REMARK SMILES IDX 24 35 25 36 66 37 26 38 71 39 65 40 67 41 27 42 70 43 64 44
REMARK SMILES IDX 63 45 28 47 54 48 37 49 53 50 38 51 41 52 52 53 68 54 39 55
REMARK SMILES IDX 40 56 51 58 69 59 42 60 29 61 30 62 35 63 31 64 32 65 34 66
REMARK SMILES IDX 36 67 33 68 55 69 56 70 61 71 57 72 58 73 60 74 62 75 59 76
REMARK SMILES IDX 43 77 44 78 49 79 45 80 46 81 48 82 50 83 47 84
REMARK H PARENT 13 5 17 27 67 46 41 57
REMARK Flexibility Score: inf
ROOT
ATOM      1  C   UNL A   1      37.193  21.060  25.127  1.00  0.00     0.117 C 
ENDROOT
BRANCH   1   2
ATOM      2  N   UNL A   1      36.850  21.804  23.917  1.00  0.00    -0.355 N 
ATOM      3  C   UNL A   1      35.987  22.884  23.836  1.00  0.00     0.228 C 
ATOM      4  O   UNL A   1      36.014  23.588  22.823  1.00  0.00    -0.274 OA
ATOM      5  H   UNL A   1      37.272  21.509  23.078  1.00  0.00     0.163 HD
BRANCH   3   6
ATOM      6  C   UNL A   1      34.906  23.106  24.927  1.00  0.00     0.119 C 
BRANCH   6   7
ATOM      7  C   UNL A   1      34.737  24.664  24.833  1.00  0.00     0.095 C 
BRANCH   7   8
ATOM      8  C   UNL A   1      33.383  25.254  24.741  1.00  0.00     0.128 A 
ATOM      9  N   UNL A   1      32.854  25.929  23.666  1.00  0.00    -0.248 N 
ATOM     10  N   UNL A   1      31.574  26.286  23.920  1.00  0.00    -0.159 NA
ATOM     11  C   UNL A   1      31.397  25.819  25.154  1.00  0.00     0.246 A 
ATOM     12  N   UNL A   1      32.461  25.156  25.681  1.00  0.00    -0.220 NA
BRANCH   9  13
ATOM     13  C   UNL A   1      33.408  26.241  22.355  1.00  0.00     0.103 C 
ATOM     14  C   UNL A   1      32.613  25.719  21.156  1.00  0.00     0.033 C 
ATOM     15  C   UNL A   1      33.681  27.740  22.233  1.00  0.00     0.033 C 
ENDBRANCH   9  13
ENDBRANCH   7   8
ENDBRANCH   6   7
BRANCH   6  16
ATOM     16  C   UNL A   1      33.754  22.091  24.812  1.00  0.00     0.001 A 
ATOM     17  C   UNL A   1      33.464  21.212  25.876  1.00  0.00     0.007 A 
ATOM     18  C   UNL A   1      33.067  21.854  23.622  1.00  0.00     0.127 A 
ATOM     19  C   UNL A   1      32.864  19.970  25.626  1.00  0.00     0.001 A 
ATOM     20  C   UNL A   1      32.499  20.612  23.347  1.00  0.00     0.039 A 
ATOM     21  F   UNL A   1      32.938  22.814  22.705  1.00  0.00    -0.207 F 
ATOM     22  C   UNL A   1      32.463  19.637  24.336  1.00  0.00     0.003 A 
ENDBRANCH   6  16
ENDBRANCH   3   6
ENDBRANCH   1   2
BRANCH   1  23
ATOM     23  C   UNL A   1      38.217  19.948  25.045  1.00  0.00     0.042 C 
BRANCH  23  24
ATOM     24  C   UNL A   1      39.479  20.259  25.803  1.00  0.00     0.118 C 
BRANCH  24  25
ATOM     25  N   UNL A   1      40.471  19.169  25.858  1.00  0.00    -0.352 N 
ATOM     26  C   UNL A   1      41.860  19.285  25.991  1.00  0.00     0.251 C 
ATOM     27  H   UNL A   1      40.115  18.253  25.793  1.00  0.00     0.163 HD
ATOM     28  O   UNL A   1      42.612  18.362  25.785  1.00  0.00    -0.269 OA
BRANCH  26  29
ATOM     29  C   UNL A   1      42.367  20.602  26.427  1.00  0.00     0.039 A 
ATOM     30  C   UNL A   1      42.720  21.639  25.559  1.00  0.00     0.014 A 
ATOM     31  C   UNL A   1      42.281  20.813  27.789  1.00  0.00     0.014 A 
ATOM     32  C   UNL A   1      42.892  22.916  26.099  1.00  0.00     0.010 A 
ATOM     33  C   UNL A   1      42.033  22.079  28.201  1.00  0.00     0.010 A 
ATOM     34  C   UNL A   1      42.523  23.119  27.434  1.00  0.00    -0.014 A 
BRANCH  34  35
ATOM     35  C   UNL A   1      42.553  24.392  28.134  1.00  0.00     0.031 A 
ATOM     36  C   UNL A   1      41.306  25.184  28.015  1.00  0.00     0.074 A 
ATOM     37  C   UNL A   1      43.472  24.603  29.109  1.00  0.00     0.049 A 
ATOM     38  N   UNL A   1      41.135  26.303  27.396  1.00  0.00    -0.248 NA
ATOM     39  C   UNL A   1      40.053  24.578  28.502  1.00  0.00     0.031 C 
ATOM     40  C   UNL A   1      44.521  23.685  29.592  1.00  0.00     0.029 A 
ATOM     41  N   UNL A   1      43.571  25.634  29.987  1.00  0.00    -0.354 N 
ATOM     42  C   UNL A   1      39.811  26.660  27.640  1.00  0.00     0.074 A 
ATOM     43  C   UNL A   1      39.150  25.460  28.073  1.00  0.00     0.031 C 
ATOM     44  C   UNL A   1      44.977  24.095  30.794  1.00  0.00     0.029 A 
ATOM     45  C   UNL A   1      44.395  25.388  31.086  1.00  0.00     0.049 A 
ATOM     46  H   UNL A   1      43.099  26.488  29.858  1.00  0.00     0.167 HD
ATOM     47  C   UNL A   1      39.450  27.967  27.771  1.00  0.00     0.037 A 
ATOM     48  C   UNL A   1      44.547  26.192  32.167  1.00  0.00     0.037 A 
ATOM     49  C   UNL A   1      40.507  28.837  27.307  1.00  0.00     0.049 A 
ATOM     50  C   UNL A   1      44.034  27.532  31.781  1.00  0.00     0.074 A 
ATOM     51  C   UNL A   1      41.194  28.982  26.117  1.00  0.00     0.029 A 
ATOM     52  N   UNL A   1      41.285  29.449  28.261  1.00  0.00    -0.354 N 
ATOM     53  N   UNL A   1      44.596  28.290  30.880  1.00  0.00    -0.248 NA
ATOM     54  C   UNL A   1      42.626  27.801  32.031  1.00  0.00     0.031 C 
ATOM     55  C   UNL A   1      42.548  29.212  26.502  1.00  0.00     0.029 A 
ATOM     56  C   UNL A   1      42.597  29.288  27.894  1.00  0.00     0.049 A 
ATOM     57  H   UNL A   1      40.960  29.917  29.064  1.00  0.00     0.167 HD
ATOM     58  C   UNL A   1      43.540  28.823  30.152  1.00  0.00     0.074 A 
ATOM     59  C   UNL A   1      42.349  28.544  30.955  1.00  0.00     0.031 C 
ATOM     60  C   UNL A   1      43.687  29.159  28.837  1.00  0.00     0.037 A 
BRANCH  47  61
ATOM     61  C   UNL A   1      38.347  28.474  28.676  1.00  0.00     0.057 A 
ATOM     62  C   UNL A   1      37.455  29.440  28.175  1.00  0.00     0.134 A 
ATOM     63  C   UNL A   1      38.286  28.282  30.073  1.00  0.00     0.134 A 
ATOM     64  F   UNL A   1      37.412  29.722  26.864  1.00  0.00    -0.206 F 
ATOM     65  C   UNL A   1      36.635  30.214  29.005  1.00  0.00     0.040 A 
ATOM     66  C   UNL A   1      37.431  29.011  30.905  1.00  0.00     0.040 A 
ATOM     67  F   UNL A   1      39.108  27.459  30.732  1.00  0.00    -0.206 F 
ATOM     68  C   UNL A   1      36.628  30.007  30.378  1.00  0.00     0.006 A 
ENDBRANCH  47  61
BRANCH  48  69
ATOM     69  C   UNL A   1      44.813  25.818  33.576  1.00  0.00     0.057 A 
ATOM     70  C   UNL A   1      45.659  26.586  34.388  1.00  0.00     0.134 A 
ATOM     71  C   UNL A   1      44.033  24.854  34.241  1.00  0.00     0.134 A 
ATOM     72  F   UNL A   1      46.415  27.557  33.854  1.00  0.00    -0.206 F 
ATOM     73  C   UNL A   1      45.708  26.425  35.781  1.00  0.00     0.040 A 
ATOM     74  C   UNL A   1      44.075  24.679  35.629  1.00  0.00     0.040 A 
ATOM     75  F   UNL A   1      43.135  24.112  33.575  1.00  0.00    -0.206 F 
ATOM     76  C   UNL A   1      44.905  25.476  36.407  1.00  0.00     0.006 A 
ENDBRANCH  48  69
BRANCH  60  77
ATOM     77  C   UNL A   1      45.078  29.167  28.256  1.00  0.00     0.057 A 
ATOM     78  C   UNL A   1      45.663  28.080  27.585  1.00  0.00     0.134 A 
ATOM     79  C   UNL A   1      45.782  30.374  28.224  1.00  0.00     0.134 A 
ATOM     80  F   UNL A   1      45.029  26.909  27.476  1.00  0.00    -0.206 F 
ATOM     81  C   UNL A   1      46.902  28.183  26.943  1.00  0.00     0.040 A 
ATOM     82  C   UNL A   1      47.005  30.500  27.558  1.00  0.00     0.040 A 
ATOM     83  F   UNL A   1      45.262  31.473  28.793  1.00  0.00    -0.206 F 
ATOM     84  C   UNL A   1      47.573  29.400  26.922  1.00  0.00     0.006 A 
ENDBRANCH  60  77
ENDBRANCH  34  35
ENDBRANCH  26  29
ENDBRANCH  24  25
ENDBRANCH  23  24
ENDBRANCH   1  23
TORSDOF 14
ENDMDL
MODEL 3
REMARK VINA RESULT:     -11.9      4.120      7.820
REMARK SMILES CC(C)n1ncnc1C[C@H](C(=O)NCCCNC(=O)c1ccc(-c2c3nc(c(-c4c(F)cccc4F)c4ccc([nH]4)c(-c4c(F)cccc4F)c4nc(c(-c5c(F)cccc5F)c5ccc2[nH]5)C=C4)C=C3)cc1)c1ccccc1F
REMARK SMILES IDX 14 1 13 2 11 3 12 4 10 6 9 7 8 8 4 9 5 10 6 11 7 12 2 13
REMARK SMILES IDX 1 14 3 15 74 16 75 17 79 18 76 19 78 20 80 21 77 22 15 23
REMARK SMILES IDX 16 24 17 25 18 26 19 28 20 29 21 30 73 31 22 32 72 33 23 34
REMARK SMILES IDX 24 35 25 36 66 37 26 38 71 39 65 40 67 41 27 42 70 43 64 44
REMARK SMILES IDX 63 45 28 47 54 48 37 49 53 50 38 51 41 52 52 53 68 54 39 55
REMARK SMILES IDX 40 56 51 58 69 59 42 60 29 61 30 62 35 63 31 64 32 65 34 66
REMARK SMILES IDX 36 67 33 68 55 69 56 70 61 71 57 72 58 73 60 74 62 75 59 76
REMARK SMILES IDX 43 77 44 78 49 79 45 80 46 81 48 82 50 83 47 84
REMARK H PARENT 13 5 17 27 67 46 41 57
REMARK Flexibility Score: inf
ROOT
ATOM      1  C   UNL A   1      32.107  29.884  25.365  1.00  0.00     0.117 C 
ENDROOT
BRANCH   1   2
ATOM      2  N   UNL A   1      33.271  29.701  24.500  1.00  0.00    -0.355 N 
ATOM      3  C   UNL A   1      33.458  28.682  23.581  1.00  0.00     0.228 C 
ATOM      4  O   UNL A   1      34.337  28.811  22.726  1.00  0.00    -0.274 OA
ATOM      5  H   UNL A   1      33.993  30.365  24.580  1.00  0.00     0.163 HD
BRANCH   3   6
ATOM      6  C   UNL A   1      32.679  27.347  23.724  1.00  0.00     0.119 C 
BRANCH   6   7
ATOM      7  C   UNL A   1      31.729  27.449  22.478  1.00  0.00     0.095 C 
BRANCH   7   8
ATOM      8  C   UNL A   1      30.298  27.775  22.669  1.00  0.00     0.128 A 
ATOM      9  N   UNL A   1      29.380  27.047  23.390  1.00  0.00    -0.248 N 
ATOM     10  N   UNL A   1      28.179  27.670  23.383  1.00  0.00    -0.159 NA
ATOM     11  C   UNL A   1      28.429  28.746  22.639  1.00  0.00     0.246 A 
ATOM     12  N   UNL A   1      29.714  28.866  22.209  1.00  0.00    -0.220 NA
BRANCH   9  13
ATOM     13  C   UNL A   1      29.514  25.818  24.161  1.00  0.00     0.103 C 
ATOM     14  C   UNL A   1      30.227  24.664  23.452  1.00  0.00     0.033 C 
ATOM     15  C   UNL A   1      30.140  26.108  25.524  1.00  0.00     0.033 C 
ENDBRANCH   9  13
ENDBRANCH   7   8
ENDBRANCH   6   7
BRANCH   6  16
ATOM     16  C   UNL A   1      33.618  26.161  24.017  1.00  0.00     0.001 A 
ATOM     17  C   UNL A   1      33.910  25.215  23.013  1.00  0.00     0.007 A 
ATOM     18  C   UNL A   1      34.074  25.852  25.297  1.00  0.00     0.127 A 
ATOM     19  C   UNL A   1      34.253  23.899  23.358  1.00  0.00     0.001 A 
ATOM     20  C   UNL A   1      34.381  24.543  25.661  1.00  0.00     0.039 A 
ATOM     21  F   UNL A   1      34.225  26.806  26.217  1.00  0.00    -0.207 F 
ATOM     22  C   UNL A   1      34.399  23.546  24.695  1.00  0.00     0.003 A 
ENDBRANCH   6  16
ENDBRANCH   3   6
ENDBRANCH   1   2
BRANCH   1  23
ATOM     23  C   UNL A   1      32.259  29.693  26.859  1.00  0.00     0.042 C 
BRANCH  23  24
ATOM     24  C   UNL A   1      33.656  29.972  27.345  1.00  0.00     0.118 C 
BRANCH  24  25
ATOM     25  N   UNL A   1      34.081  31.382  27.276  1.00  0.00    -0.352 N 
ATOM     26  C   UNL A   1      35.208  31.964  27.868  1.00  0.00     0.251 C 
ATOM     27  H   UNL A   1      33.506  31.985  26.752  1.00  0.00     0.163 HD
ATOM     28  O   UNL A   1      35.350  33.160  27.962  1.00  0.00    -0.269 OA
BRANCH  26  29
ATOM     29  C   UNL A   1      36.245  31.031  28.356  1.00  0.00     0.039 A 
ATOM     30  C   UNL A   1      36.403  29.719  27.899  1.00  0.00     0.014 A 
ATOM     31  C   UNL A   1      37.191  31.619  29.171  1.00  0.00     0.014 A 
ATOM     32  C   UNL A   1      37.591  29.054  28.216  1.00  0.00     0.010 A 
ATOM     33  C   UNL A   1      38.455  31.137  29.095  1.00  0.00     0.010 A 
ATOM     34  C   UNL A   1      38.621  29.795  28.806  1.00  0.00    -0.014 A 
BRANCH  34  35
ATOM     35  C   UNL A   1      39.947  29.294  29.124  1.00  0.00     0.031 A 
ATOM     36  C   UNL A   1      40.165  29.015  30.564  1.00  0.00     0.074 A 
ATOM     37  C   UNL A   1      40.720  28.765  28.144  1.00  0.00     0.049 A 
ATOM     38  N   UNL A   1      40.947  29.636  31.381  1.00  0.00    -0.248 NA
ATOM     39  C   UNL A   1      39.282  28.031  31.218  1.00  0.00     0.031 C 
ATOM     40  C   UNL A   1      40.408  28.622  26.709  1.00  0.00     0.029 A 
ATOM     41  N   UNL A   1      41.901  28.101  28.246  1.00  0.00    -0.354 N 
ATOM     42  C   UNL A   1      40.838  28.949  32.588  1.00  0.00     0.074 A 
ATOM     43  C   UNL A   1      39.630  28.176  32.498  1.00  0.00     0.031 C 
ATOM     44  C   UNL A   1      41.247  27.730  26.141  1.00  0.00     0.029 A 
ATOM     45  C   UNL A   1      42.262  27.376  27.110  1.00  0.00     0.049 A 
ATOM     46  H   UNL A   1      42.458  28.131  29.057  1.00  0.00     0.167 HD
ATOM     47  C   UNL A   1      41.907  28.827  33.424  1.00  0.00     0.037 A 
ATOM     48  C   UNL A   1      43.310  26.520  27.007  1.00  0.00     0.037 A 
ATOM     49  C   UNL A   1      42.959  29.743  33.043  1.00  0.00     0.049 A 
ATOM     50  C   UNL A   1      44.222  26.821  28.142  1.00  0.00     0.074 A 
ATOM     51  C   UNL A   1      43.042  31.112  32.879  1.00  0.00     0.029 A 
ATOM     52  N   UNL A   1      44.034  29.222  32.363  1.00  0.00    -0.354 N 
ATOM     53  N   UNL A   1      44.880  27.941  28.263  1.00  0.00    -0.248 NA
ATOM     54  C   UNL A   1      44.005  26.088  29.380  1.00  0.00     0.031 C 
ATOM     55  C   UNL A   1      43.845  31.293  31.714  1.00  0.00     0.029 A 
ATOM     56  C   UNL A   1      44.282  30.038  31.289  1.00  0.00     0.049 A 
ATOM     57  H   UNL A   1      44.535  28.409  32.603  1.00  0.00     0.167 HD
ATOM     58  C   UNL A   1      44.783  28.267  29.610  1.00  0.00     0.074 A 
ATOM     59  C   UNL A   1      44.297  27.050  30.260  1.00  0.00     0.031 C 
ATOM     60  C   UNL A   1      44.807  29.568  30.025  1.00  0.00     0.037 A 
BRANCH  47  61
ATOM     61  C   UNL A   1      42.182  27.630  34.310  1.00  0.00     0.057 A 
ATOM     62  C   UNL A   1      41.889  27.728  35.683  1.00  0.00     0.134 A 
ATOM     63  C   UNL A   1      42.963  26.512  33.951  1.00  0.00     0.134 A 
ATOM     64  F   UNL A   1      41.155  28.745  36.159  1.00  0.00    -0.206 F 
ATOM     65  C   UNL A   1      42.408  26.837  36.630  1.00  0.00     0.040 A 
ATOM     66  C   UNL A   1      43.440  25.585  34.882  1.00  0.00     0.040 A 
ATOM     67  F   UNL A   1      43.398  26.297  32.705  1.00  0.00    -0.206 F 
ATOM     68  C   UNL A   1      43.195  25.765  36.233  1.00  0.00     0.006 A 
ENDBRANCH  47  61
BRANCH  48  69
ATOM     69  C   UNL A   1      43.428  25.286  26.197  1.00  0.00     0.057 A 
ATOM     70  C   UNL A   1      44.472  25.114  25.277  1.00  0.00     0.134 A 
ATOM     71  C   UNL A   1      42.680  24.133  26.500  1.00  0.00     0.134 A 
ATOM     72  F   UNL A   1      45.266  26.144  24.952  1.00  0.00    -0.206 F 
ATOM     73  C   UNL A   1      44.772  23.866  24.711  1.00  0.00     0.040 A 
ATOM     74  C   UNL A   1      42.965  22.883  25.939  1.00  0.00     0.040 A 
ATOM     75  F   UNL A   1      41.706  24.163  27.420  1.00  0.00    -0.206 F 
ATOM     76  C   UNL A   1      44.024  22.742  25.050  1.00  0.00     0.006 A 
ENDBRANCH  48  69
BRANCH  60  77
ATOM     77  C   UNL A   1      45.181  30.628  29.020  1.00  0.00     0.057 A 
ATOM     78  C   UNL A   1      44.259  31.331  28.229  1.00  0.00     0.134 A 
ATOM     79  C   UNL A   1      46.506  31.073  28.980  1.00  0.00     0.134 A 
ATOM     80  F   UNL A   1      42.953  31.048  28.268  1.00  0.00    -0.206 F 
ATOM     81  C   UNL A   1      44.642  32.402  27.414  1.00  0.00     0.040 A 
ATOM     82  C   UNL A   1      46.898  32.161  28.196  1.00  0.00     0.040 A 
ATOM     83  F   UNL A   1      47.437  30.489  29.752  1.00  0.00    -0.206 F 
ATOM     84  C   UNL A   1      45.966  32.825  27.403  1.00  0.00     0.006 A 
ENDBRANCH  60  77
ENDBRANCH  34  35
ENDBRANCH  26  29
ENDBRANCH  24  25
ENDBRANCH  23  24
ENDBRANCH   1  23
TORSDOF 14
ENDMDL
