MODEL 1
REMARK VINA RESULT:     -11.0      0.000      0.000
REMARK SMILES COC[C@@H](C)N(C)C(=O)N1CCC(CC(=O)NCCCNC(=O)c2ccc(-c3c4nc(c(-c5c(F)cccc5F)c5ccc([nH]5)c(-c5c(F)cccc5F)c5nc(c(-c6c(F)cccc6F)c6ccc3[nH]6)C=C5)C=C4)cc2)CC1
REMARK SMILES IDX 15 1 16 2 17 3 14 5 13 6 8 7 9 8 10 9 11 10 79 11 12 12
REMARK SMILES IDX 78 13 6 14 7 15 4 16 5 17 3 18 2 19 1 20 18 21 19 22 20 23
REMARK SMILES IDX 21 24 22 25 23 27 24 28 25 29 77 30 26 31 76 32 27 33 28 34
REMARK SMILES IDX 29 35 70 36 30 37 75 38 69 39 71 40 31 41 74 42 68 43 67 44
REMARK SMILES IDX 32 46 58 47 41 48 57 49 42 50 45 51 56 52 72 53 43 54 44 55
REMARK SMILES IDX 55 57 73 58 46 59 33 60 34 61 39 62 35 63 36 64 38 65 40 66
REMARK SMILES IDX 37 67 59 68 60 69 65 70 61 71 62 72 64 73 66 74 63 75 47 76
REMARK SMILES IDX 48 77 53 78 49 79 50 80 52 81 54 82 51 83
REMARK H PARENT 17 4 21 26 71 45 45 56
REMARK Flexibility Score: inf
ROOT
ATOM      1  C   UNL A   1      33.452  20.243  24.886  1.00  0.00     0.220 C 
ATOM      2  O   UNL A   1      32.582  19.528  25.389  1.00  0.00    -0.275 OA
ATOM      3  N   UNL A   1      34.730  20.116  25.346  1.00  0.00    -0.356 N 
ATOM      4  H   UNL A   1      34.841  19.441  26.053  1.00  0.00     0.163 HD
ENDROOT
BRANCH   1   5
ATOM      5  C   UNL A   1      33.098  21.255  23.812  1.00  0.00     0.103 C 
BRANCH   5   6
ATOM      6  C   UNL A   1      33.018  22.698  24.349  1.00  0.00     0.002 C 
ATOM      7  C   UNL A   1      31.371  25.971  22.869  1.00  0.00     0.320 C 
ATOM      8  O   UNL A   1      31.623  25.668  21.704  1.00  0.00    -0.248 OA
ATOM      9  N   UNL A   1      32.073  25.418  23.925  1.00  0.00    -0.325 N 
ATOM     10  C   UNL A   1      33.479  25.131  23.748  1.00  0.00     0.121 C 
ATOM     11  C   UNL A   1      31.399  24.598  24.924  1.00  0.00     0.121 C 
ATOM     12  C   UNL A   1      33.692  23.675  23.381  1.00  0.00     0.026 C 
ATOM     13  C   UNL A   1      31.550  23.107  24.592  1.00  0.00     0.026 C 
BRANCH   7  14
ATOM     14  N   UNL A   1      30.418  26.920  23.209  1.00  0.00    -0.323 N 
ATOM     15  C   UNL A   1      29.162  26.575  23.865  1.00  0.00     0.149 C 
BRANCH  14  16
ATOM     16  C   UNL A   1      30.734  28.362  23.106  1.00  0.00     0.109 C 
ATOM     17  C   UNL A   1      31.608  28.811  24.278  1.00  0.00     0.033 C 
BRANCH  16  18
ATOM     18  C   UNL A   1      29.465  29.231  22.927  1.00  0.00     0.184 C 
BRANCH  18  19
ATOM     19  O   UNL A   1      29.356  29.807  21.619  1.00  0.00    -0.383 OA
ATOM     20  C   UNL A   1      28.066  30.321  21.323  1.00  0.00     0.194 C 
ENDBRANCH  18  19
ENDBRANCH  16  18
ENDBRANCH  14  16
ENDBRANCH   7  14
ENDBRANCH   5   6
ENDBRANCH   1   5
BRANCH   3  21
ATOM     21  C   UNL A   1      35.961  20.803  24.973  1.00  0.00     0.117 C 
BRANCH  21  22
ATOM     22  C   UNL A   1      37.172  19.869  24.903  1.00  0.00     0.042 C 
BRANCH  22  23
ATOM     23  C   UNL A   1      38.474  20.484  25.400  1.00  0.00     0.118 C 
BRANCH  23  24
ATOM     24  N   UNL A   1      39.487  19.473  25.643  1.00  0.00    -0.352 N 
ATOM     25  C   UNL A   1      40.798  19.612  26.028  1.00  0.00     0.251 C 
ATOM     26  H   UNL A   1      39.187  18.544  25.513  1.00  0.00     0.163 HD
ATOM     27  O   UNL A   1      41.554  18.650  25.926  1.00  0.00    -0.269 OA
BRANCH  25  28
ATOM     28  C   UNL A   1      41.322  20.894  26.565  1.00  0.00     0.039 A 
ATOM     29  C   UNL A   1      41.207  21.141  27.939  1.00  0.00     0.014 A 
ATOM     30  C   UNL A   1      41.831  21.892  25.731  1.00  0.00     0.014 A 
ATOM     31  C   UNL A   1      41.624  22.366  28.473  1.00  0.00     0.010 A 
ATOM     32  C   UNL A   1      42.313  23.086  26.273  1.00  0.00     0.010 A 
ATOM     33  C   UNL A   1      42.193  23.347  27.647  1.00  0.00    -0.014 A 
BRANCH  33  34
ATOM     34  C   UNL A   1      42.609  24.670  28.187  1.00  0.00     0.031 A 
ATOM     35  C   UNL A   1      41.581  25.748  28.415  1.00  0.00     0.074 A 
ATOM     36  C   UNL A   1      43.908  24.925  28.435  1.00  0.00     0.049 A 
ATOM     37  N   UNL A   1      41.750  26.991  28.792  1.00  0.00    -0.248 NA
ATOM     38  C   UNL A   1      40.178  25.387  28.159  1.00  0.00     0.031 C 
ATOM     39  C   UNL A   1      45.011  23.985  28.236  1.00  0.00     0.029 A 
ATOM     40  N   UNL A   1      44.521  26.063  28.901  1.00  0.00    -0.354 N 
ATOM     41  C   UNL A   1      40.484  27.563  28.793  1.00  0.00     0.074 A 
ATOM     42  C   UNL A   1      39.561  26.546  28.340  1.00  0.00     0.031 C 
ATOM     43  C   UNL A   1      46.163  24.577  28.594  1.00  0.00     0.029 A 
ATOM     44  C   UNL A   1      45.886  25.948  29.014  1.00  0.00     0.049 A 
ATOM     45  H   UNL A   1      44.029  26.884  29.132  1.00  0.00     0.167 HD
ATOM     46  C   UNL A   1      40.118  28.815  29.157  1.00  0.00     0.037 A 
ATOM     47  C   UNL A   1      46.810  26.847  29.405  1.00  0.00     0.037 A 
ATOM     48  C   UNL A   1      41.024  29.818  29.650  1.00  0.00     0.049 A 
ATOM     49  C   UNL A   1      46.376  28.227  29.815  1.00  0.00     0.074 A 
ATOM     50  C   UNL A   1      40.737  31.098  30.095  1.00  0.00     0.029 A 
ATOM     51  N   UNL A   1      42.394  29.650  29.774  1.00  0.00    -0.354 N 
ATOM     52  N   UNL A   1      45.171  28.740  29.848  1.00  0.00    -0.248 NA
ATOM     53  C   UNL A   1      47.434  29.153  30.246  1.00  0.00     0.031 C 
ATOM     54  C   UNL A   1      41.938  31.714  30.460  1.00  0.00     0.029 A 
ATOM     55  C   UNL A   1      42.967  30.806  30.278  1.00  0.00     0.049 A 
ATOM     56  H   UNL A   1      42.886  28.831  29.539  1.00  0.00     0.167 HD
ATOM     57  C   UNL A   1      45.320  30.034  30.330  1.00  0.00     0.074 A 
ATOM     58  C   UNL A   1      46.733  30.226  30.584  1.00  0.00     0.031 C 
ATOM     59  C   UNL A   1      44.372  30.978  30.542  1.00  0.00     0.037 A 
BRANCH  46  60
ATOM     60  C   UNL A   1      38.664  29.170  29.041  1.00  0.00     0.057 A 
ATOM     61  C   UNL A   1      37.793  29.077  30.134  1.00  0.00     0.134 A 
ATOM     62  C   UNL A   1      38.138  29.644  27.833  1.00  0.00     0.134 A 
ATOM     63  F   UNL A   1      38.233  28.621  31.316  1.00  0.00    -0.206 F 
ATOM     64  C   UNL A   1      36.444  29.418  30.023  1.00  0.00     0.040 A 
ATOM     65  C   UNL A   1      36.796  30.011  27.715  1.00  0.00     0.040 A 
ATOM     66  F   UNL A   1      38.919  29.764  26.749  1.00  0.00    -0.206 F 
ATOM     67  C   UNL A   1      35.943  29.892  28.811  1.00  0.00     0.006 A 
ENDBRANCH  46  60
BRANCH  47  68
ATOM     68  C   UNL A   1      48.243  26.464  29.452  1.00  0.00     0.057 A 
ATOM     69  C   UNL A   1      49.089  26.715  28.366  1.00  0.00     0.134 A 
ATOM     70  C   UNL A   1      48.796  25.833  30.571  1.00  0.00     0.134 A 
ATOM     71  F   UNL A   1      48.609  27.297  27.258  1.00  0.00    -0.206 F 
ATOM     72  C   UNL A   1      50.432  26.338  28.384  1.00  0.00     0.040 A 
ATOM     73  C   UNL A   1      50.142  25.470  30.612  1.00  0.00     0.040 A 
ATOM     74  F   UNL A   1      48.036  25.568  31.644  1.00  0.00    -0.206 F 
ATOM     75  C   UNL A   1      50.964  25.716  29.513  1.00  0.00     0.006 A 
ENDBRANCH  47  68
BRANCH  59  76
ATOM     76  C   UNL A   1      44.822  32.288  31.113  1.00  0.00     0.057 A 
ATOM     77  C   UNL A   1      45.182  33.366  30.295  1.00  0.00     0.134 A 
ATOM     78  C   UNL A   1      44.855  32.487  32.499  1.00  0.00     0.134 A 
ATOM     79  F   UNL A   1      45.183  33.235  28.960  1.00  0.00    -0.206 F 
ATOM     80  C   UNL A   1      45.574  34.591  30.836  1.00  0.00     0.040 A 
ATOM     81  C   UNL A   1      45.225  33.714  33.052  1.00  0.00     0.040 A 
ATOM     82  F   UNL A   1      44.514  31.496  33.337  1.00  0.00    -0.206 F 
ATOM     83  C   UNL A   1      45.591  34.769  32.219  1.00  0.00     0.006 A 
ENDBRANCH  59  76
ENDBRANCH  33  34
ENDBRANCH  25  28
ENDBRANCH  23  24
ENDBRANCH  22  23
ENDBRANCH  21  22
ENDBRANCH   3  21
TORSDOF 15
ENDMDL
MODEL 2
REMARK VINA RESULT:     -10.9      3.967      9.496
REMARK SMILES COC[C@@H](C)N(C)C(=O)N1CCC(CC(=O)NCCCNC(=O)c2ccc(-c3c4nc(c(-c5c(F)cccc5F)c5ccc([nH]5)c(-c5c(F)cccc5F)c5nc(c(-c6c(F)cccc6F)c6ccc3[nH]6)C=C5)C=C4)cc2)CC1
REMARK SMILES IDX 15 1 16 2 17 3 14 5 13 6 8 7 9 8 10 9 11 10 79 11 12 12
REMARK SMILES IDX 78 13 6 14 7 15 4 16 5 17 3 18 2 19 1 20 18 21 19 22 20 23
REMARK SMILES IDX 21 24 22 25 23 27 24 28 25 29 77 30 26 31 76 32 27 33 28 34
REMARK SMILES IDX 29 35 70 36 30 37 75 38 69 39 71 40 31 41 74 42 68 43 67 44
REMARK SMILES IDX 32 46 58 47 41 48 57 49 42 50 45 51 56 52 72 53 43 54 44 55
REMARK SMILES IDX 55 57 73 58 46 59 33 60 34 61 39 62 35 63 36 64 38 65 40 66
REMARK SMILES IDX 37 67 59 68 60 69 65 70 61 71 62 72 64 73 66 74 63 75 47 76
REMARK SMILES IDX 48 77 53 78 49 79 50 80 52 81 54 82 51 83
REMARK H PARENT 17 4 21 26 71 45 45 56
REMARK Flexibility Score: inf
ROOT
ATOM      1  C   UNL A   1      30.557  29.188  23.843  1.00  0.00     0.220 C 
ATOM      2  O   UNL A   1      30.120  29.331  22.699  1.00  0.00    -0.275 OA
ATOM      3  N   UNL A   1      30.885  30.309  24.548  1.00  0.00    -0.356 N 
ATOM      4  H   UNL A   1      30.732  31.152  24.063  1.00  0.00     0.163 HD
ENDROOT
BRANCH   1   5
ATOM      5  C   UNL A   1      30.752  27.802  24.430  1.00  0.00     0.103 C 
BRANCH   5   6
ATOM      6  C   UNL A   1      32.214  27.321  24.361  1.00  0.00     0.002 C 
ATOM      7  C   UNL A   1      33.930  23.944  25.486  1.00  0.00     0.320 C 
ATOM      8  O   UNL A   1      33.186  23.794  26.453  1.00  0.00    -0.248 OA
ATOM      9  N   UNL A   1      34.115  25.185  24.905  1.00  0.00    -0.325 N 
ATOM     10  C   UNL A   1      34.116  26.355  25.755  1.00  0.00     0.121 C 
ATOM     11  C   UNL A   1      33.726  25.430  23.522  1.00  0.00     0.121 C 
ATOM     12  C   UNL A   1      32.752  27.019  25.763  1.00  0.00     0.026 C 
ATOM     13  C   UNL A   1      32.334  26.076  23.458  1.00  0.00     0.026 C 
BRANCH   7  14
ATOM     14  N   UNL A   1      34.677  22.906  24.944  1.00  0.00    -0.323 N 
ATOM     15  C   UNL A   1      34.069  21.683  24.435  1.00  0.00     0.149 C 
BRANCH  14  16
ATOM     16  C   UNL A   1      36.119  23.092  24.669  1.00  0.00     0.109 C 
ATOM     17  C   UNL A   1      36.406  22.965  23.172  1.00  0.00     0.033 C 
BRANCH  16  18
ATOM     18  C   UNL A   1      37.006  22.169  25.538  1.00  0.00     0.184 C 
BRANCH  18  19
ATOM     19  O   UNL A   1      38.254  22.770  25.906  1.00  0.00    -0.383 OA
ATOM     20  C   UNL A   1      39.277  21.832  26.212  1.00  0.00     0.194 C 
ENDBRANCH  18  19
ENDBRANCH  16  18
ENDBRANCH  14  16
ENDBRANCH   7  14
ENDBRANCH   5   6
ENDBRANCH   1   5
BRANCH   3  21
ATOM     21  C   UNL A   1      31.420  30.478  25.894  1.00  0.00     0.117 C 
BRANCH  21  22
ATOM     22  C   UNL A   1      31.294  31.912  26.414  1.00  0.00     0.042 C 
BRANCH  22  23
ATOM     23  C   UNL A   1      32.534  32.439  27.124  1.00  0.00     0.118 C 
BRANCH  23  24
ATOM     24  N   UNL A   1      32.392  33.838  27.485  1.00  0.00    -0.352 N 
ATOM     25  C   UNL A   1      33.039  34.571  28.451  1.00  0.00     0.251 C 
ATOM     26  H   UNL A   1      31.731  34.340  26.955  1.00  0.00     0.163 HD
ATOM     27  O   UNL A   1      32.589  35.669  28.767  1.00  0.00    -0.269 OA
BRANCH  25  28
ATOM     28  C   UNL A   1      34.267  34.068  29.119  1.00  0.00     0.039 A 
ATOM     29  C   UNL A   1      35.510  34.365  28.546  1.00  0.00     0.014 A 
ATOM     30  C   UNL A   1      34.212  33.233  30.237  1.00  0.00     0.014 A 
ATOM     31  C   UNL A   1      36.686  33.851  29.105  1.00  0.00     0.010 A 
ATOM     32  C   UNL A   1      35.388  32.779  30.837  1.00  0.00     0.010 A 
ATOM     33  C   UNL A   1      36.638  33.062  30.264  1.00  0.00    -0.014 A 
BRANCH  33  34
ATOM     34  C   UNL A   1      37.872  32.476  30.855  1.00  0.00     0.031 A 
ATOM     35  C   UNL A   1      38.519  31.277  30.210  1.00  0.00     0.074 A 
ATOM     36  C   UNL A   1      38.392  32.984  31.989  1.00  0.00     0.049 A 
ATOM     37  N   UNL A   1      39.541  30.566  30.616  1.00  0.00    -0.248 NA
ATOM     38  C   UNL A   1      37.920  30.799  28.954  1.00  0.00     0.031 C 
ATOM     39  C   UNL A   1      37.855  34.123  32.733  1.00  0.00     0.029 A 
ATOM     40  N   UNL A   1      39.488  32.596  32.720  1.00  0.00    -0.354 N 
ATOM     41  C   UNL A   1      39.690  29.548  29.684  1.00  0.00     0.074 A 
ATOM     42  C   UNL A   1      38.630  29.706  28.713  1.00  0.00     0.031 C 
ATOM     43  C   UNL A   1      38.632  34.354  33.804  1.00  0.00     0.029 A 
ATOM     44  C   UNL A   1      39.700  33.360  33.843  1.00  0.00     0.049 A 
ATOM     45  H   UNL A   1      40.068  31.843  32.464  1.00  0.00     0.167 HD
ATOM     46  C   UNL A   1      40.635  28.578  29.627  1.00  0.00     0.037 A 
ATOM     47  C   UNL A   1      40.644  33.265  34.799  1.00  0.00     0.037 A 
ATOM     48  C   UNL A   1      41.719  28.441  30.564  1.00  0.00     0.049 A 
ATOM     49  C   UNL A   1      41.689  32.187  34.707  1.00  0.00     0.074 A 
ATOM     50  C   UNL A   1      42.755  27.522  30.556  1.00  0.00     0.029 A 
ATOM     51  N   UNL A   1      41.911  29.252  31.670  1.00  0.00    -0.354 N 
ATOM     52  N   UNL A   1      41.839  31.256  33.798  1.00  0.00    -0.248 NA
ATOM     53  C   UNL A   1      42.699  32.151  35.775  1.00  0.00     0.031 C 
ATOM     54  C   UNL A   1      43.559  27.761  31.676  1.00  0.00     0.029 A 
ATOM     55  C   UNL A   1      43.043  28.850  32.359  1.00  0.00     0.049 A 
ATOM     56  H   UNL A   1      41.329  30.003  31.929  1.00  0.00     0.167 HD
ATOM     57  C   UNL A   1      42.973  30.543  34.165  1.00  0.00     0.074 A 
ATOM     58  C   UNL A   1      43.478  31.154  35.377  1.00  0.00     0.031 C 
ATOM     59  C   UNL A   1      43.543  29.477  33.554  1.00  0.00     0.037 A 
BRANCH  46  60
ATOM     60  C   UNL A   1      40.541  27.588  28.502  1.00  0.00     0.057 A 
ATOM     61  C   UNL A   1      41.264  27.752  27.314  1.00  0.00     0.134 A 
ATOM     62  C   UNL A   1      39.748  26.441  28.624  1.00  0.00     0.134 A 
ATOM     63  F   UNL A   1      42.034  28.836  27.131  1.00  0.00    -0.206 F 
ATOM     64  C   UNL A   1      41.180  26.823  26.275  1.00  0.00     0.040 A 
ATOM     65  C   UNL A   1      39.675  25.492  27.602  1.00  0.00     0.040 A 
ATOM     66  F   UNL A   1      39.036  26.219  29.739  1.00  0.00    -0.206 F 
ATOM     67  C   UNL A   1      40.389  25.686  26.420  1.00  0.00     0.006 A 
ENDBRANCH  46  60
BRANCH  47  68
ATOM     68  C   UNL A   1      40.663  34.235  35.921  1.00  0.00     0.057 A 
ATOM     69  C   UNL A   1      39.983  33.967  37.115  1.00  0.00     0.134 A 
ATOM     70  C   UNL A   1      41.347  35.452  35.825  1.00  0.00     0.134 A 
ATOM     71  F   UNL A   1      39.292  32.827  37.255  1.00  0.00    -0.206 F 
ATOM     72  C   UNL A   1      39.969  34.881  38.169  1.00  0.00     0.040 A 
ATOM     73  C   UNL A   1      41.360  36.366  36.880  1.00  0.00     0.040 A 
ATOM     74  F   UNL A   1      42.019  35.766  34.708  1.00  0.00    -0.206 F 
ATOM     75  C   UNL A   1      40.663  36.085  38.055  1.00  0.00     0.006 A 
ENDBRANCH  47  68
BRANCH  59  76
ATOM     76  C   UNL A   1      44.800  28.929  34.159  1.00  0.00     0.057 A 
ATOM     77  C   UNL A   1      46.065  29.406  33.794  1.00  0.00     0.134 A 
ATOM     78  C   UNL A   1      44.741  27.943  35.152  1.00  0.00     0.134 A 
ATOM     79  F   UNL A   1      46.189  30.341  32.840  1.00  0.00    -0.206 F 
ATOM     80  C   UNL A   1      47.228  28.908  34.382  1.00  0.00     0.040 A 
ATOM     81  C   UNL A   1      45.895  27.453  35.763  1.00  0.00     0.040 A 
ATOM     82  F   UNL A   1      43.559  27.450  35.553  1.00  0.00    -0.206 F 
ATOM     83  C   UNL A   1      47.144  27.932  35.375  1.00  0.00     0.006 A 
ENDBRANCH  59  76
ENDBRANCH  33  34
ENDBRANCH  25  28
ENDBRANCH  23  24
ENDBRANCH  22  23
ENDBRANCH  21  22
ENDBRANCH   3  21
TORSDOF 15
ENDMDL
MODEL 3
REMARK VINA RESULT:     -10.9      1.510      6.539
REMARK SMILES COC[C@@H](C)N(C)C(=O)N1CCC(CC(=O)NCCCNC(=O)c2ccc(-c3c4nc(c(-c5c(F)cccc5F)c5ccc([nH]5)c(-c5c(F)cccc5F)c5nc(c(-c6c(F)cccc6F)c6ccc3[nH]6)C=C5)C=C4)cc2)CC1
REMARK SMILES IDX 15 1 16 2 17 3 14 5 13 6 8 7 9 8 10 9 11 10 79 11 12 12
REMARK SMILES IDX 78 13 6 14 7 15 4 16 5 17 3 18 2 19 1 20 18 21 19 22 20 23
REMARK SMILES IDX 21 24 22 25 23 27 24 28 25 29 77 30 26 31 76 32 27 33 28 34
REMARK SMILES IDX 29 35 70 36 30 37 75 38 69 39 71 40 31 41 74 42 68 43 67 44
REMARK SMILES IDX 32 46 58 47 41 48 57 49 42 50 45 51 56 52 72 53 43 54 44 55
REMARK SMILES IDX 55 57 73 58 46 59 33 60 34 61 39 62 35 63 36 64 38 65 40 66
REMARK SMILES IDX 37 67 59 68 60 69 65 70 61 71 62 72 64 73 66 74 63 75 47 76
REMARK SMILES IDX 48 77 53 78 49 79 50 80 52 81 54 82 51 83
REMARK H PARENT 17 4 21 26 71 45 45 56
REMARK Flexibility Score: inf
ROOT
ATOM      1  C   UNL A   1      37.182  23.120  25.684  1.00  0.00     0.220 C 
ATOM      2  O   UNL A   1      37.844  24.150  25.825  1.00  0.00    -0.275 OA
ATOM      3  N   UNL A   1      37.718  22.111  24.939  1.00  0.00    -0.356 N 
ATOM      4  H   UNL A   1      38.612  22.305  24.577  1.00  0.00     0.163 HD
ENDROOT
BRANCH   1   5
ATOM      5  C   UNL A   1      35.798  22.998  26.297  1.00  0.00     0.103 C 
BRANCH   5   6
ATOM      6  C   UNL A   1      34.667  23.269  25.286  1.00  0.00     0.002 C 
ATOM      7  C   UNL A   1      31.579  25.732  25.388  1.00  0.00     0.320 C 
ATOM      8  O   UNL A   1      31.423  25.614  26.602  1.00  0.00    -0.248 OA
ATOM      9  N   UNL A   1      32.260  24.778  24.654  1.00  0.00    -0.325 N 
ATOM     10  C   UNL A   1      32.134  23.390  25.036  1.00  0.00     0.121 C 
ATOM     11  C   UNL A   1      33.492  25.114  23.951  1.00  0.00     0.121 C 
ATOM     12  C   UNL A   1      33.301  22.959  25.905  1.00  0.00     0.026 C 
ATOM     13  C   UNL A   1      34.717  24.731  24.794  1.00  0.00     0.026 C 
BRANCH   7  14
ATOM     14  N   UNL A   1      31.043  26.785  24.660  1.00  0.00    -0.323 N 
ATOM     15  C   UNL A   1      29.945  26.611  23.717  1.00  0.00     0.149 C 
BRANCH  14  16
ATOM     16  C   UNL A   1      31.430  28.179  24.972  1.00  0.00     0.109 C 
ATOM     17  C   UNL A   1      30.724  29.161  24.036  1.00  0.00     0.033 C 
BRANCH  16  18
ATOM     18  C   UNL A   1      32.966  28.369  25.006  1.00  0.00     0.184 C 
BRANCH  18  19
ATOM     19  O   UNL A   1      33.414  29.141  26.127  1.00  0.00    -0.383 OA
ATOM     20  C   UNL A   1      32.997  28.627  27.383  1.00  0.00     0.194 C 
ENDBRANCH  18  19
ENDBRANCH  16  18
ENDBRANCH  14  16
ENDBRANCH   7  14
ENDBRANCH   5   6
ENDBRANCH   1   5
BRANCH   3  21
ATOM     21  C   UNL A   1      37.199  20.795  24.584  1.00  0.00     0.117 C 
BRANCH  21  22
ATOM     22  C   UNL A   1      38.200  19.666  24.844  1.00  0.00     0.042 C 
BRANCH  22  23
ATOM     23  C   UNL A   1      39.132  19.906  26.025  1.00  0.00     0.118 C 
BRANCH  23  24
ATOM     24  N   UNL A   1      40.362  19.146  25.901  1.00  0.00    -0.352 N 
ATOM     25  C   UNL A   1      41.669  19.567  25.958  1.00  0.00     0.251 C 
ATOM     26  H   UNL A   1      40.242  18.180  25.755  1.00  0.00     0.163 HD
ATOM     27  O   UNL A   1      42.556  18.811  25.570  1.00  0.00    -0.269 OA
BRANCH  25  28
ATOM     28  C   UNL A   1      42.034  20.910  26.477  1.00  0.00     0.039 A 
ATOM     29  C   UNL A   1      41.981  21.130  27.859  1.00  0.00     0.014 A 
ATOM     30  C   UNL A   1      42.330  21.976  25.625  1.00  0.00     0.014 A 
ATOM     31  C   UNL A   1      42.249  22.401  28.381  1.00  0.00     0.010 A 
ATOM     32  C   UNL A   1      42.668  23.226  26.150  1.00  0.00     0.010 A 
ATOM     33  C   UNL A   1      42.607  23.460  27.533  1.00  0.00    -0.014 A 
BRANCH  33  34
ATOM     34  C   UNL A   1      42.861  24.827  28.063  1.00  0.00     0.031 A 
ATOM     35  C   UNL A   1      44.255  25.232  28.466  1.00  0.00     0.074 A 
ATOM     36  C   UNL A   1      41.842  25.694  28.225  1.00  0.00     0.049 A 
ATOM     37  N   UNL A   1      44.668  26.339  29.031  1.00  0.00    -0.248 NA
ATOM     38  C   UNL A   1      45.324  24.249  28.226  1.00  0.00     0.031 C 
ATOM     39  C   UNL A   1      40.441  25.427  27.902  1.00  0.00     0.029 A 
ATOM     40  N   UNL A   1      41.832  26.977  28.715  1.00  0.00    -0.354 N 
ATOM     41  C   UNL A   1      46.032  26.175  29.236  1.00  0.00     0.074 A 
ATOM     42  C   UNL A   1      46.372  24.848  28.773  1.00  0.00     0.031 C 
ATOM     43  C   UNL A   1      39.709  26.517  28.185  1.00  0.00     0.029 A 
ATOM     44  C   UNL A   1      40.582  27.547  28.741  1.00  0.00     0.049 A 
ATOM     45  H   UNL A   1      42.643  27.445  29.019  1.00  0.00     0.167 HD
ATOM     46  C   UNL A   1      46.927  27.057  29.743  1.00  0.00     0.037 A 
ATOM     47  C   UNL A   1      40.183  28.760  29.171  1.00  0.00     0.037 A 
ATOM     48  C   UNL A   1      46.605  28.394  30.164  1.00  0.00     0.049 A 
ATOM     49  C   UNL A   1      41.198  29.724  29.720  1.00  0.00     0.074 A 
ATOM     50  C   UNL A   1      47.455  29.378  30.642  1.00  0.00     0.029 A 
ATOM     51  N   UNL A   1      45.332  28.940  30.148  1.00  0.00    -0.354 N 
ATOM     52  N   UNL A   1      42.490  29.569  29.871  1.00  0.00    -0.248 NA
ATOM     53  C   UNL A   1      40.697  31.037  30.157  1.00  0.00     0.031 C 
ATOM     54  C   UNL A   1      46.691  30.510  30.941  1.00  0.00     0.029 A 
ATOM     55  C   UNL A   1      45.371  30.243  30.616  1.00  0.00     0.049 A 
ATOM     56  H   UNL A   1      44.520  28.472  29.849  1.00  0.00     0.167 HD
ATOM     57  C   UNL A   1      42.961  30.768  30.389  1.00  0.00     0.074 A 
ATOM     58  C   UNL A   1      41.817  31.646  30.520  1.00  0.00     0.031 C 
ATOM     59  C   UNL A   1      44.228  31.110  30.727  1.00  0.00     0.037 A 
BRANCH  46  60
ATOM     60  C   UNL A   1      48.352  26.600  29.866  1.00  0.00     0.057 A 
ATOM     61  C   UNL A   1      48.808  25.901  30.991  1.00  0.00     0.134 A 
ATOM     62  C   UNL A   1      49.268  26.830  28.832  1.00  0.00     0.134 A 
ATOM     63  F   UNL A   1      47.982  25.658  32.020  1.00  0.00    -0.206 F 
ATOM     64  C   UNL A   1      50.131  25.470  31.096  1.00  0.00     0.040 A 
ATOM     65  C   UNL A   1      50.589  26.382  28.914  1.00  0.00     0.040 A 
ATOM     66  F   UNL A   1      48.896  27.486  27.724  1.00  0.00    -0.206 F 
ATOM     67  C   UNL A   1      51.025  25.705  30.052  1.00  0.00     0.006 A 
ENDBRANCH  46  60
BRANCH  47  68
ATOM     68  C   UNL A   1      38.753  29.146  29.079  1.00  0.00     0.057 A 
ATOM     69  C   UNL A   1      38.203  29.586  27.870  1.00  0.00     0.134 A 
ATOM     70  C   UNL A   1      37.908  29.095  30.194  1.00  0.00     0.134 A 
ATOM     71  F   UNL A   1      38.971  29.677  26.775  1.00  0.00    -0.206 F 
ATOM     72  C   UNL A   1      36.867  29.977  27.774  1.00  0.00     0.040 A 
ATOM     73  C   UNL A   1      36.565  29.462  30.108  1.00  0.00     0.040 A 
ATOM     74  F   UNL A   1      38.376  28.679  31.380  1.00  0.00    -0.206 F 
ATOM     75  C   UNL A   1      36.042  29.912  28.896  1.00  0.00     0.006 A 
ENDBRANCH  47  68
BRANCH  59  76
ATOM     76  C   UNL A   1      44.452  32.504  31.231  1.00  0.00     0.057 A 
ATOM     77  C   UNL A   1      44.420  32.809  32.596  1.00  0.00     0.134 A 
ATOM     78  C   UNL A   1      44.746  33.544  30.340  1.00  0.00     0.134 A 
ATOM     79  F   UNL A   1      44.131  31.859  33.499  1.00  0.00    -0.206 F 
ATOM     80  C   UNL A   1      44.655  34.105  33.058  1.00  0.00     0.040 A 
ATOM     81  C   UNL A   1      45.005  34.839  30.791  1.00  0.00     0.040 A 
ATOM     82  F   UNL A   1      44.799  33.315  29.019  1.00  0.00    -0.206 F 
ATOM     83  C   UNL A   1      44.955  35.124  32.154  1.00  0.00     0.006 A 
ENDBRANCH  59  76
ENDBRANCH  33  34
ENDBRANCH  25  28
ENDBRANCH  23  24
ENDBRANCH  22  23
ENDBRANCH  21  22
ENDBRANCH   3  21
TORSDOF 15
ENDMDL
