MODEL 1
REMARK VINA RESULT:     -10.4      0.000      0.000
REMARK SMILES CCC(CC)[C@@H](C(=O)NCCCNC(=O)c1ccc(-c2c3nc(c(-c4c(F)cccc4F)c4ccc([nH]4)c(-c4c(F)cccc4F)c4nc(c(-c5c(F)cccc5F)c5ccc2[nH]5)C=C4)C=C3)cc1)c1ccccc1OC
REMARK SMILES IDX 11 1 10 2 9 3 7 4 8 5 6 7 3 8 2 9 1 10 4 11 5 12 70 13 71 14
REMARK SMILES IDX 75 15 72 16 74 17 73 18 76 19 77 20 12 21 13 22 14 23 15 25
REMARK SMILES IDX 16 26 17 27 69 28 18 29 68 30 19 31 20 32 21 33 62 34 22 35
REMARK SMILES IDX 67 36 61 37 63 38 23 39 66 40 60 41 59 42 24 44 50 45 33 46
REMARK SMILES IDX 49 47 34 48 37 49 48 50 64 51 35 52 36 53 47 55 65 56 38 57
REMARK SMILES IDX 25 58 26 59 31 60 27 61 28 62 30 63 32 64 29 65 51 66 52 67
REMARK SMILES IDX 57 68 53 69 54 70 56 71 58 72 55 73 39 74 40 75 45 76 41 77
REMARK SMILES IDX 42 78 44 79 46 80 43 81
REMARK H PARENT 9 6 13 24 63 43 37 54
REMARK Flexibility Score: inf
ROOT
ATOM      1  C   UNL A   1      37.776  19.642  24.979  1.00  0.00     0.042 C 
ENDROOT
BRANCH   1   2
ATOM      2  C   UNL A   1      36.641  20.638  24.691  1.00  0.00     0.117 C 
BRANCH   2   3
ATOM      3  N   UNL A   1      35.724  20.769  25.810  1.00  0.00    -0.355 N 
ATOM      4  C   UNL A   1      34.872  21.751  26.220  1.00  0.00     0.227 C 
ATOM      5  O   UNL A   1      34.505  21.630  27.393  1.00  0.00    -0.274 OA
ATOM      6  H   UNL A   1      35.717  19.980  26.400  1.00  0.00     0.163 HD
BRANCH   4   7
ATOM      7  C   UNL A   1      34.421  22.925  25.295  1.00  0.00     0.115 C 
BRANCH   7   8
ATOM      8  C   UNL A   1      33.633  24.042  26.078  1.00  0.00     0.005 C 
BRANCH   8   9
ATOM      9  C   UNL A   1      34.208  25.445  25.806  1.00  0.00     0.001 C 
ATOM     10  C   UNL A   1      33.193  26.571  25.669  1.00  0.00     0.004 C 
ENDBRANCH   8   9
BRANCH   8  11
ATOM     11  C   UNL A   1      32.103  24.019  25.807  1.00  0.00     0.001 C 
ATOM     12  C   UNL A   1      31.256  23.377  26.904  1.00  0.00     0.004 C 
ENDBRANCH   8  11
ENDBRANCH   7   8
BRANCH   7  13
ATOM     13  C   UNL A   1      33.605  22.418  24.079  1.00  0.00     0.007 A 
ATOM     14  C   UNL A   1      32.786  21.272  24.163  1.00  0.00     0.008 A 
ATOM     15  C   UNL A   1      33.580  23.113  22.856  1.00  0.00     0.122 A 
ATOM     16  C   UNL A   1      32.031  20.816  23.077  1.00  0.00     0.001 A 
ATOM     17  C   UNL A   1      32.789  22.684  21.779  1.00  0.00     0.047 A 
ATOM     18  C   UNL A   1      32.032  21.522  21.883  1.00  0.00     0.004 A 
BRANCH  15  19
ATOM     19  O   UNL A   1      34.185  24.336  22.731  1.00  0.00    -0.496 OA
ATOM     20  C   UNL A   1      33.324  25.306  22.147  1.00  0.00     0.278 C 
ENDBRANCH  15  19
ENDBRANCH   7  13
ENDBRANCH   4   7
ENDBRANCH   2   3
ENDBRANCH   1   2
BRANCH   1  21
ATOM     21  C   UNL A   1      38.963  20.197  25.768  1.00  0.00     0.118 C 
BRANCH  21  22
ATOM     22  N   UNL A   1      40.042  19.233  25.898  1.00  0.00    -0.352 N 
ATOM     23  C   UNL A   1      41.379  19.436  26.135  1.00  0.00     0.251 C 
ATOM     24  H   UNL A   1      39.774  18.290  25.802  1.00  0.00     0.163 HD
ATOM     25  O   UNL A   1      42.165  18.499  25.987  1.00  0.00    -0.269 OA
BRANCH  23  26
ATOM     26  C   UNL A   1      41.903  20.762  26.544  1.00  0.00     0.039 A 
ATOM     27  C   UNL A   1      42.256  21.680  25.549  1.00  0.00     0.014 A 
ATOM     28  C   UNL A   1      42.113  21.089  27.887  1.00  0.00     0.014 A 
ATOM     29  C   UNL A   1      42.759  22.938  25.897  1.00  0.00     0.010 A 
ATOM     30  C   UNL A   1      42.555  22.368  28.237  1.00  0.00     0.010 A 
ATOM     31  C   UNL A   1      42.885  23.307  27.246  1.00  0.00    -0.014 A 
BRANCH  31  32
ATOM     32  C   UNL A   1      43.348  24.666  27.634  1.00  0.00     0.031 A 
ATOM     33  C   UNL A   1      42.366  25.723  28.057  1.00  0.00     0.074 A 
ATOM     34  C   UNL A   1      44.659  24.971  27.556  1.00  0.00     0.049 A 
ATOM     35  N   UNL A   1      42.582  26.976  28.373  1.00  0.00    -0.248 NA
ATOM     36  C   UNL A   1      40.951  25.325  28.112  1.00  0.00     0.031 C 
ATOM     37  C   UNL A   1      45.717  24.052  27.134  1.00  0.00     0.029 A 
ATOM     38  N   UNL A   1      45.322  26.144  27.820  1.00  0.00    -0.354 N 
ATOM     39  C   UNL A   1      41.333  27.518  28.651  1.00  0.00     0.074 A 
ATOM     40  C   UNL A   1      40.361  26.470  28.422  1.00  0.00     0.031 C 
ATOM     41  C   UNL A   1      46.898  24.686  27.194  1.00  0.00     0.029 A 
ATOM     42  C   UNL A   1      46.679  26.066  27.618  1.00  0.00     0.049 A 
ATOM     43  H   UNL A   1      44.869  26.962  28.127  1.00  0.00     0.167 HD
ATOM     44  C   UNL A   1      41.024  28.768  29.076  1.00  0.00     0.037 A 
ATOM     45  C   UNL A   1      47.640  27.001  27.749  1.00  0.00     0.037 A 
ATOM     46  C   UNL A   1      41.989  29.807  29.323  1.00  0.00     0.049 A 
ATOM     47  C   UNL A   1      47.270  28.391  28.182  1.00  0.00     0.074 A 
ATOM     48  C   UNL A   1      41.778  31.080  29.826  1.00  0.00     0.029 A 
ATOM     49  N   UNL A   1      43.350  29.696  29.078  1.00  0.00    -0.354 N 
ATOM     50  N   UNL A   1      46.093  28.870  28.500  1.00  0.00    -0.248 NA
ATOM     51  C   UNL A   1      48.362  29.370  28.266  1.00  0.00     0.031 C 
ATOM     52  C   UNL A   1      43.005  31.755  29.840  1.00  0.00     0.029 A 
ATOM     53  C   UNL A   1      43.986  30.889  29.385  1.00  0.00     0.049 A 
ATOM     54  H   UNL A   1      43.798  28.889  28.735  1.00  0.00     0.167 HD
ATOM     55  C   UNL A   1      46.303  30.200  28.840  1.00  0.00     0.074 A 
ATOM     56  C   UNL A   1      47.723  30.449  28.700  1.00  0.00     0.031 C 
ATOM     57  C   UNL A   1      45.398  31.130  29.232  1.00  0.00     0.037 A 
BRANCH  44  58
ATOM     58  C   UNL A   1      39.571  29.078  29.294  1.00  0.00     0.057 A 
ATOM     59  C   UNL A   1      38.729  29.453  28.237  1.00  0.00     0.134 A 
ATOM     60  C   UNL A   1      39.004  28.990  30.570  1.00  0.00     0.134 A 
ATOM     61  F   UNL A   1      39.212  29.565  26.991  1.00  0.00    -0.206 F 
ATOM     62  C   UNL A   1      37.385  29.764  28.450  1.00  0.00     0.040 A 
ATOM     63  C   UNL A   1      37.654  29.273  30.792  1.00  0.00     0.040 A 
ATOM     64  F   UNL A   1      39.750  28.629  31.625  1.00  0.00    -0.206 F 
ATOM     65  C   UNL A   1      36.843  29.671  29.730  1.00  0.00     0.006 A 
ENDBRANCH  44  58
BRANCH  45  66
ATOM     66  C   UNL A   1      49.054  26.640  27.488  1.00  0.00     0.057 A 
ATOM     67  C   UNL A   1      49.852  26.094  28.500  1.00  0.00     0.134 A 
ATOM     68  C   UNL A   1      49.636  26.811  26.227  1.00  0.00     0.134 A 
ATOM     69  F   UNL A   1      49.354  25.926  29.735  1.00  0.00    -0.206 F 
ATOM     70  C   UNL A   1      51.179  25.732  28.269  1.00  0.00     0.040 A 
ATOM     71  C   UNL A   1      50.956  26.435  25.976  1.00  0.00     0.040 A 
ATOM     72  F   UNL A   1      48.921  27.326  25.216  1.00  0.00    -0.206 F 
ATOM     73  C   UNL A   1      51.732  25.896  27.000  1.00  0.00     0.006 A 
ENDBRANCH  45  66
BRANCH  57  74
ATOM     74  C   UNL A   1      45.918  32.502  29.548  1.00  0.00     0.057 A 
ATOM     75  C   UNL A   1      46.383  32.834  30.827  1.00  0.00     0.134 A 
ATOM     76  C   UNL A   1      45.989  33.487  28.556  1.00  0.00     0.134 A 
ATOM     77  F   UNL A   1      46.327  31.939  31.824  1.00  0.00    -0.206 F 
ATOM     78  C   UNL A   1      46.887  34.104  31.111  1.00  0.00     0.040 A 
ATOM     79  C   UNL A   1      46.512  34.754  28.822  1.00  0.00     0.040 A 
ATOM     80  F   UNL A   1      45.565  33.230  27.310  1.00  0.00    -0.206 F 
ATOM     81  C   UNL A   1      46.959  35.066  30.105  1.00  0.00     0.006 A 
ENDBRANCH  57  74
ENDBRANCH  31  32
ENDBRANCH  23  26
ENDBRANCH  21  22
ENDBRANCH   1  21
TORSDOF 15
ENDMDL
MODEL 2
REMARK VINA RESULT:     -10.3      3.045      7.543
REMARK SMILES CCC(CC)[C@@H](C(=O)NCCCNC(=O)c1ccc(-c2c3nc(c(-c4c(F)cccc4F)c4ccc([nH]4)c(-c4c(F)cccc4F)c4nc(c(-c5c(F)cccc5F)c5ccc2[nH]5)C=C4)C=C3)cc1)c1ccccc1OC
REMARK SMILES IDX 11 1 10 2 9 3 7 4 8 5 6 7 3 8 2 9 1 10 4 11 5 12 70 13 71 14
REMARK SMILES IDX 75 15 72 16 74 17 73 18 76 19 77 20 12 21 13 22 14 23 15 25
REMARK SMILES IDX 16 26 17 27 69 28 18 29 68 30 19 31 20 32 21 33 62 34 22 35
REMARK SMILES IDX 67 36 61 37 63 38 23 39 66 40 60 41 59 42 24 44 50 45 33 46
REMARK SMILES IDX 49 47 34 48 37 49 48 50 64 51 35 52 36 53 47 55 65 56 38 57
REMARK SMILES IDX 25 58 26 59 31 60 27 61 28 62 30 63 32 64 29 65 51 66 52 67
REMARK SMILES IDX 57 68 53 69 54 70 56 71 58 72 55 73 39 74 40 75 45 76 41 77
REMARK SMILES IDX 42 78 44 79 46 80 43 81
REMARK H PARENT 9 6 13 24 63 43 37 54
REMARK Flexibility Score: inf
ROOT
ATOM      1  C   UNL A   1      34.152  28.672  25.992  1.00  0.00     0.042 C 
ENDROOT
BRANCH   1   2
ATOM      2  C   UNL A   1      33.344  29.563  25.034  1.00  0.00     0.117 C 
BRANCH   2   3
ATOM      3  N   UNL A   1      33.639  29.284  23.639  1.00  0.00    -0.355 N 
ATOM      4  C   UNL A   1      33.729  28.140  22.905  1.00  0.00     0.227 C 
ATOM      5  O   UNL A   1      34.319  28.286  21.830  1.00  0.00    -0.274 OA
ATOM      6  H   UNL A   1      33.812  30.097  23.110  1.00  0.00     0.163 HD
BRANCH   4   7
ATOM      7  C   UNL A   1      33.157  26.771  23.392  1.00  0.00     0.115 C 
BRANCH   7   8
ATOM      8  C   UNL A   1      33.567  25.575  22.451  1.00  0.00     0.005 C 
BRANCH   8   9
ATOM      9  C   UNL A   1      34.117  24.381  23.253  1.00  0.00     0.001 C 
ATOM     10  C   UNL A   1      34.847  24.718  24.545  1.00  0.00     0.004 C 
ENDBRANCH   8   9
BRANCH   8  11
ATOM     11  C   UNL A   1      32.423  25.116  21.506  1.00  0.00     0.001 C 
ATOM     12  C   UNL A   1      32.545  25.587  20.058  1.00  0.00     0.004 C 
ENDBRANCH   8  11
ENDBRANCH   7   8
BRANCH   7  13
ATOM     13  C   UNL A   1      31.619  26.827  23.580  1.00  0.00     0.007 A 
ATOM     14  C   UNL A   1      30.796  27.594  22.728  1.00  0.00     0.008 A 
ATOM     15  C   UNL A   1      30.959  26.059  24.558  1.00  0.00     0.122 A 
ATOM     16  C   UNL A   1      29.406  27.637  22.879  1.00  0.00     0.001 A 
ATOM     17  C   UNL A   1      29.562  26.064  24.682  1.00  0.00     0.047 A 
ATOM     18  C   UNL A   1      28.786  26.872  23.856  1.00  0.00     0.004 A 
BRANCH  15  19
ATOM     19  O   UNL A   1      31.644  25.138  25.306  1.00  0.00    -0.496 OA
ATOM     20  C   UNL A   1      30.855  23.993  25.605  1.00  0.00     0.278 C 
ENDBRANCH  15  19
ENDBRANCH   7  13
ENDBRANCH   4   7
ENDBRANCH   2   3
ENDBRANCH   1   2
BRANCH   1  21
ATOM     21  C   UNL A   1      33.796  28.797  27.475  1.00  0.00     0.118 C 
BRANCH  21  22
ATOM     22  N   UNL A   1      33.777  30.179  27.924  1.00  0.00    -0.352 N 
ATOM     23  C   UNL A   1      34.733  30.895  28.601  1.00  0.00     0.251 C 
ATOM     24  H   UNL A   1      32.955  30.677  27.711  1.00  0.00     0.163 HD
ATOM     25  O   UNL A   1      34.434  31.988  29.087  1.00  0.00    -0.269 OA
BRANCH  23  26
ATOM     26  C   UNL A   1      36.111  30.377  28.781  1.00  0.00     0.039 A 
ATOM     27  C   UNL A   1      37.010  30.474  27.713  1.00  0.00     0.014 A 
ATOM     28  C   UNL A   1      36.510  29.738  29.959  1.00  0.00     0.014 A 
ATOM     29  C   UNL A   1      38.315  29.990  27.845  1.00  0.00     0.010 A 
ATOM     30  C   UNL A   1      37.832  29.312  30.113  1.00  0.00     0.010 A 
ATOM     31  C   UNL A   1      38.750  29.431  29.057  1.00  0.00    -0.014 A 
BRANCH  31  32
ATOM     32  C   UNL A   1      40.156  28.979  29.239  1.00  0.00     0.031 A 
ATOM     33  C   UNL A   1      41.186  29.891  29.844  1.00  0.00     0.074 A 
ATOM     34  C   UNL A   1      40.523  27.756  28.807  1.00  0.00     0.049 A 
ATOM     35  N   UNL A   1      42.468  29.689  30.025  1.00  0.00    -0.248 NA
ATOM     36  C   UNL A   1      40.719  31.214  30.285  1.00  0.00     0.031 C 
ATOM     37  C   UNL A   1      39.633  26.780  28.176  1.00  0.00     0.029 A 
ATOM     38  N   UNL A   1      41.744  27.129  28.827  1.00  0.00    -0.354 N 
ATOM     39  C   UNL A   1      42.961  30.860  30.587  1.00  0.00     0.074 A 
ATOM     40  C   UNL A   1      41.850  31.783  30.675  1.00  0.00     0.031 C 
ATOM     41  C   UNL A   1      40.332  25.669  27.894  1.00  0.00     0.029 A 
ATOM     42  C   UNL A   1      41.724  25.867  28.285  1.00  0.00     0.049 A 
ATOM     43  H   UNL A   1      42.557  27.544  29.196  1.00  0.00     0.167 HD
ATOM     44  C   UNL A   1      44.219  31.135  31.010  1.00  0.00     0.037 A 
ATOM     45  C   UNL A   1      42.715  24.971  28.113  1.00  0.00     0.037 A 
ATOM     46  C   UNL A   1      45.323  30.212  30.943  1.00  0.00     0.049 A 
ATOM     47  C   UNL A   1      44.110  25.313  28.551  1.00  0.00     0.074 A 
ATOM     48  C   UNL A   1      46.615  30.376  31.413  1.00  0.00     0.029 A 
ATOM     49  N   UNL A   1      45.267  28.956  30.360  1.00  0.00    -0.354 N 
ATOM     50  N   UNL A   1      44.548  26.400  29.137  1.00  0.00    -0.248 NA
ATOM     51  C   UNL A   1      45.150  24.305  28.297  1.00  0.00     0.031 C 
ATOM     52  C   UNL A   1      47.353  29.235  31.074  1.00  0.00     0.029 A 
ATOM     53  C   UNL A   1      46.510  28.346  30.427  1.00  0.00     0.049 A 
ATOM     54  H   UNL A   1      44.463  28.555  29.956  1.00  0.00     0.167 HD
ATOM     55  C   UNL A   1      45.908  26.202  29.339  1.00  0.00     0.074 A 
ATOM     56  C   UNL A   1      46.220  24.885  28.823  1.00  0.00     0.031 C 
ATOM     57  C   UNL A   1      46.814  27.039  29.902  1.00  0.00     0.037 A 
BRANCH  44  58
ATOM     58  C   UNL A   1      44.468  32.502  31.579  1.00  0.00     0.057 A 
ATOM     59  C   UNL A   1      44.300  32.776  32.944  1.00  0.00     0.134 A 
ATOM     60  C   UNL A   1      44.891  33.554  30.758  1.00  0.00     0.134 A 
ATOM     61  F   UNL A   1      43.889  31.815  33.784  1.00  0.00    -0.206 F 
ATOM     62  C   UNL A   1      44.510  34.054  33.463  1.00  0.00     0.040 A 
ATOM     63  C   UNL A   1      45.128  34.831  31.270  1.00  0.00     0.040 A 
ATOM     64  F   UNL A   1      45.079  33.360  29.444  1.00  0.00    -0.206 F 
ATOM     65  C   UNL A   1      44.929  35.087  32.626  1.00  0.00     0.006 A 
ENDBRANCH  44  58
BRANCH  45  66
ATOM     66  C   UNL A   1      42.412  23.648  27.515  1.00  0.00     0.057 A 
ATOM     67  C   UNL A   1      42.457  23.463  26.128  1.00  0.00     0.134 A 
ATOM     68  C   UNL A   1      42.090  22.540  28.306  1.00  0.00     0.134 A 
ATOM     69  F   UNL A   1      42.739  24.495  25.318  1.00  0.00    -0.206 F 
ATOM     70  C   UNL A   1      42.192  22.222  25.549  1.00  0.00     0.040 A 
ATOM     71  C   UNL A   1      41.843  21.288  27.741  1.00  0.00     0.040 A 
ATOM     72  F   UNL A   1      42.035  22.655  29.641  1.00  0.00    -0.206 F 
ATOM     73  C   UNL A   1      41.890  21.128  26.357  1.00  0.00     0.006 A 
ENDBRANCH  45  66
BRANCH  57  74
ATOM     74  C   UNL A   1      48.230  26.551  29.998  1.00  0.00     0.057 A 
ATOM     75  C   UNL A   1      48.678  25.811  31.099  1.00  0.00     0.134 A 
ATOM     76  C   UNL A   1      49.142  26.792  28.964  1.00  0.00     0.134 A 
ATOM     77  F   UNL A   1      47.856  25.561  32.130  1.00  0.00    -0.206 F 
ATOM     78  C   UNL A   1      49.989  25.340  31.175  1.00  0.00     0.040 A 
ATOM     79  C   UNL A   1      50.450  26.307  29.017  1.00  0.00     0.040 A 
ATOM     80  F   UNL A   1      48.774  27.490  27.879  1.00  0.00    -0.206 F 
ATOM     81  C   UNL A   1      50.878  25.582  30.128  1.00  0.00     0.006 A 
ENDBRANCH  57  74
ENDBRANCH  31  32
ENDBRANCH  23  26
ENDBRANCH  21  22
ENDBRANCH   1  21
TORSDOF 15
ENDMDL
MODEL 3
REMARK VINA RESULT:     -10.3      3.907      7.447
REMARK SMILES CCC(CC)[C@@H](C(=O)NCCCNC(=O)c1ccc(-c2c3nc(c(-c4c(F)cccc4F)c4ccc([nH]4)c(-c4c(F)cccc4F)c4nc(c(-c5c(F)cccc5F)c5ccc2[nH]5)C=C4)C=C3)cc1)c1ccccc1OC
REMARK SMILES IDX 11 1 10 2 9 3 7 4 8 5 6 7 3 8 2 9 1 10 4 11 5 12 70 13 71 14
REMARK SMILES IDX 75 15 72 16 74 17 73 18 76 19 77 20 12 21 13 22 14 23 15 25
REMARK SMILES IDX 16 26 17 27 69 28 18 29 68 30 19 31 20 32 21 33 62 34 22 35
REMARK SMILES IDX 67 36 61 37 63 38 23 39 66 40 60 41 59 42 24 44 50 45 33 46
REMARK SMILES IDX 49 47 34 48 37 49 48 50 64 51 35 52 36 53 47 55 65 56 38 57
REMARK SMILES IDX 25 58 26 59 31 60 27 61 28 62 30 63 32 64 29 65 51 66 52 67
REMARK SMILES IDX 57 68 53 69 54 70 56 71 58 72 55 73 39 74 40 75 45 76 41 77
REMARK SMILES IDX 42 78 44 79 46 80 43 81
REMARK H PARENT 9 6 13 24 63 43 37 54
REMARK Flexibility Score: inf
ROOT
ATOM      1  C   UNL A   1      33.417  27.874  26.747  1.00  0.00     0.042 C 
ENDROOT
BRANCH   1   2
ATOM      2  C   UNL A   1      31.883  27.837  26.643  1.00  0.00     0.117 C 
BRANCH   2   3
ATOM      3  N   UNL A   1      31.344  26.510  26.887  1.00  0.00    -0.355 N 
ATOM      4  C   UNL A   1      31.152  25.412  26.103  1.00  0.00     0.227 C 
ATOM      5  O   UNL A   1      30.370  24.588  26.588  1.00  0.00    -0.274 OA
ATOM      6  H   UNL A   1      31.055  26.375  27.819  1.00  0.00     0.163 HD
BRANCH   4   7
ATOM      7  C   UNL A   1      31.841  25.229  24.714  1.00  0.00     0.115 C 
BRANCH   7   8
ATOM      8  C   UNL A   1      30.880  25.566  23.512  1.00  0.00     0.005 C 
BRANCH   8   9
ATOM      9  C   UNL A   1      29.672  26.408  23.965  1.00  0.00     0.001 C 
ATOM     10  C   UNL A   1      29.578  27.813  23.389  1.00  0.00     0.004 C 
ENDBRANCH   8   9
BRANCH   8  11
ATOM     11  C   UNL A   1      31.604  26.251  22.320  1.00  0.00     0.001 C 
ATOM     12  C   UNL A   1      32.978  26.836  22.641  1.00  0.00     0.004 C 
ENDBRANCH   8  11
ENDBRANCH   7   8
BRANCH   7  13
ATOM     13  C   UNL A   1      32.449  23.811  24.558  1.00  0.00     0.007 A 
ATOM     14  C   UNL A   1      31.709  22.745  24.004  1.00  0.00     0.008 A 
ATOM     15  C   UNL A   1      33.788  23.534  24.888  1.00  0.00     0.122 A 
ATOM     16  C   UNL A   1      32.253  21.467  23.842  1.00  0.00     0.001 A 
ATOM     17  C   UNL A   1      34.352  22.265  24.685  1.00  0.00     0.047 A 
ATOM     18  C   UNL A   1      33.576  21.224  24.183  1.00  0.00     0.004 A 
BRANCH  15  19
ATOM     19  O   UNL A   1      34.644  24.540  25.250  1.00  0.00    -0.496 OA
ATOM     20  C   UNL A   1      35.926  24.050  25.624  1.00  0.00     0.278 C 
ENDBRANCH  15  19
ENDBRANCH   7  13
ENDBRANCH   4   7
ENDBRANCH   2   3
ENDBRANCH   1   2
BRANCH   1  21
ATOM     21  C   UNL A   1      34.106  29.013  25.994  1.00  0.00     0.118 C 
BRANCH  21  22
ATOM     22  N   UNL A   1      33.836  30.311  26.587  1.00  0.00    -0.352 N 
ATOM     23  C   UNL A   1      34.464  30.949  27.629  1.00  0.00     0.251 C 
ATOM     24  H   UNL A   1      33.090  30.810  26.181  1.00  0.00     0.163 HD
ATOM     25  O   UNL A   1      33.940  31.948  28.126  1.00  0.00    -0.269 OA
BRANCH  23  26
ATOM     26  C   UNL A   1      35.746  30.453  28.184  1.00  0.00     0.039 A 
ATOM     27  C   UNL A   1      35.720  29.697  29.362  1.00  0.00     0.014 A 
ATOM     28  C   UNL A   1      36.975  30.775  27.602  1.00  0.00     0.014 A 
ATOM     29  C   UNL A   1      36.910  29.218  29.918  1.00  0.00     0.010 A 
ATOM     30  C   UNL A   1      38.159  30.243  28.121  1.00  0.00     0.010 A 
ATOM     31  C   UNL A   1      38.140  29.459  29.287  1.00  0.00    -0.014 A 
BRANCH  31  32
ATOM     32  C   UNL A   1      39.407  28.895  29.824  1.00  0.00     0.031 A 
ATOM     33  C   UNL A   1      40.057  29.488  31.044  1.00  0.00     0.074 A 
ATOM     34  C   UNL A   1      40.008  27.875  29.181  1.00  0.00     0.049 A 
ATOM     35  N   UNL A   1      41.190  29.165  31.619  1.00  0.00    -0.248 NA
ATOM     36  C   UNL A   1      39.353  30.604  31.691  1.00  0.00     0.031 C 
ATOM     37  C   UNL A   1      39.503  27.223  27.972  1.00  0.00     0.029 A 
ATOM     38  N   UNL A   1      41.180  27.212  29.451  1.00  0.00    -0.354 N 
ATOM     39  C   UNL A   1      41.339  30.044  32.683  1.00  0.00     0.074 A 
ATOM     40  C   UNL A   1      40.205  30.942  32.647  1.00  0.00     0.031 C 
ATOM     41  C   UNL A   1      40.344  26.238  27.620  1.00  0.00     0.029 A 
ATOM     42  C   UNL A   1      41.468  26.214  28.552  1.00  0.00     0.049 A 
ATOM     43  H   UNL A   1      41.758  27.431  30.217  1.00  0.00     0.167 HD
ATOM     44  C   UNL A   1      42.320  30.089  33.618  1.00  0.00     0.037 A 
ATOM     45  C   UNL A   1      42.521  25.377  28.479  1.00  0.00     0.037 A 
ATOM     46  C   UNL A   1      43.440  29.185  33.669  1.00  0.00     0.049 A 
ATOM     47  C   UNL A   1      43.617  25.471  29.501  1.00  0.00     0.074 A 
ATOM     48  C   UNL A   1      44.444  29.106  34.619  1.00  0.00     0.029 A 
ATOM     49  N   UNL A   1      43.710  28.208  32.723  1.00  0.00    -0.354 N 
ATOM     50  N   UNL A   1      43.713  26.267  30.537  1.00  0.00    -0.248 NA
ATOM     51  C   UNL A   1      44.755  24.555  29.338  1.00  0.00     0.031 C 
ATOM     52  C   UNL A   1      45.346  28.111  34.223  1.00  0.00     0.029 A 
ATOM     53  C   UNL A   1      44.882  27.544  33.047  1.00  0.00     0.049 A 
ATOM     54  H   UNL A   1      43.151  28.014  31.935  1.00  0.00     0.167 HD
ATOM     55  C   UNL A   1      44.910  25.938  31.161  1.00  0.00     0.074 A 
ATOM     56  C   UNL A   1      45.499  24.860  30.392  1.00  0.00     0.031 C 
ATOM     57  C   UNL A   1      45.467  26.480  32.271  1.00  0.00     0.037 A 
BRANCH  44  58
ATOM     58  C   UNL A   1      42.225  31.164  34.662  1.00  0.00     0.057 A 
ATOM     59  C   UNL A   1      41.500  30.979  35.848  1.00  0.00     0.134 A 
ATOM     60  C   UNL A   1      42.873  32.392  34.488  1.00  0.00     0.134 A 
ATOM     61  F   UNL A   1      40.848  29.829  36.073  1.00  0.00    -0.206 F 
ATOM     62  C   UNL A   1      41.395  31.990  36.804  1.00  0.00     0.040 A 
ATOM     63  C   UNL A   1      42.797  33.402  35.448  1.00  0.00     0.040 A 
ATOM     64  F   UNL A   1      43.591  32.633  33.380  1.00  0.00    -0.206 F 
ATOM     65  C   UNL A   1      42.048  33.206  36.608  1.00  0.00     0.006 A 
ENDBRANCH  44  58
BRANCH  45  66
ATOM     66  C   UNL A   1      42.573  24.357  27.403  1.00  0.00     0.057 A 
ATOM     67  C   UNL A   1      43.113  24.666  26.150  1.00  0.00     0.134 A 
ATOM     68  C   UNL A   1      42.107  23.053  27.604  1.00  0.00     0.134 A 
ATOM     69  F   UNL A   1      43.556  25.906  25.893  1.00  0.00    -0.206 F 
ATOM     70  C   UNL A   1      43.186  23.715  25.132  1.00  0.00     0.040 A 
ATOM     71  C   UNL A   1      42.193  22.086  26.602  1.00  0.00     0.040 A 
ATOM     72  F   UNL A   1      41.582  22.696  28.785  1.00  0.00    -0.206 F 
ATOM     73  C   UNL A   1      42.732  22.418  25.360  1.00  0.00     0.006 A 
ENDBRANCH  45  66
BRANCH  57  74
ATOM     74  C   UNL A   1      46.778  25.911  32.727  1.00  0.00     0.057 A 
ATOM     75  C   UNL A   1      47.999  26.420  32.268  1.00  0.00     0.134 A 
ATOM     76  C   UNL A   1      46.820  24.869  33.661  1.00  0.00     0.134 A 
ATOM     77  F   UNL A   1      48.026  27.408  31.360  1.00  0.00    -0.206 F 
ATOM     78  C   UNL A   1      49.217  25.903  32.712  1.00  0.00     0.040 A 
ATOM     79  C   UNL A   1      48.032  24.358  34.130  1.00  0.00     0.040 A 
ATOM     80  F   UNL A   1      45.686  24.341  34.144  1.00  0.00    -0.206 F 
ATOM     81  C   UNL A   1      49.236  24.873  33.651  1.00  0.00     0.006 A 
ENDBRANCH  57  74
ENDBRANCH  31  32
ENDBRANCH  23  26
ENDBRANCH  21  22
ENDBRANCH   1  21
TORSDOF 15
ENDMDL
