MODEL 1
REMARK VINA RESULT:     -12.2      0.000      0.000
REMARK SMILES CC(=O)n1cc2c3c(cccc31)C(=O)C[C@@H]2C(=O)NCCCNC(=O)c1ccc(-c2c3nc(c(-c4c(F)cccc4F)c4ccc([nH]4)c(-c4c(F)cccc4F)c4nc(c(-c5c(F)cccc5F)c5ccc2[nH]5)C=C4)C=C3)cc1
REMARK SMILES IDX 21 1 20 2 19 3 17 4 18 5 16 7 4 8 5 9 12 10 6 11 7 12 11 13
REMARK SMILES IDX 8 14 10 15 15 16 9 17 13 18 14 19 2 20 1 21 3 22 22 23 23 24
REMARK SMILES IDX 24 25 25 27 26 28 27 29 79 30 28 31 78 32 29 33 30 34 31 35
REMARK SMILES IDX 72 36 32 37 77 38 71 39 73 40 33 41 76 42 70 43 69 44 34 46
REMARK SMILES IDX 60 47 43 48 59 49 44 50 47 51 58 52 74 53 45 54 46 55 57 57
REMARK SMILES IDX 75 58 48 59 35 60 36 61 41 62 37 63 38 64 40 65 42 66 39 67
REMARK SMILES IDX 61 68 62 69 67 70 63 71 64 72 66 73 68 74 65 75 49 76 50 77
REMARK SMILES IDX 55 78 51 79 52 80 54 81 56 82 53 83
REMARK H PARENT 19 6 23 26 73 45 47 56
REMARK Flexibility Score: inf
ROOT
ATOM      1  C   UNL A   1      33.634  30.323  27.370  1.00  0.00     0.042 C 
ENDROOT
BRANCH   1   2
ATOM      2  C   UNL A   1      34.228  28.949  27.066  1.00  0.00     0.117 C 
BRANCH   2   3
ATOM      3  N   UNL A   1      34.033  28.515  25.687  1.00  0.00    -0.355 N 
ATOM      4  C   UNL A   1      33.609  27.319  25.177  1.00  0.00     0.228 C 
ATOM      5  O   UNL A   1      33.459  27.245  23.953  1.00  0.00    -0.274 OA
ATOM      6  H   UNL A   1      34.241  29.198  25.009  1.00  0.00     0.163 HD
BRANCH   4   7
ATOM      7  C   UNL A   1      33.364  26.095  26.064  1.00  0.00     0.118 C 
ATOM      8  N   UNL A   1      35.309  23.333  24.456  1.00  0.00    -0.287 N 
ATOM      9  C   UNL A   1      35.276  24.626  24.985  1.00  0.00     0.100 A 
ATOM     10  C   UNL A   1      34.070  22.738  24.719  1.00  0.00     0.057 A 
ATOM     11  C   UNL A   1      34.026  24.869  25.512  1.00  0.00    -0.008 A 
ATOM     12  C   UNL A   1      33.312  23.668  25.412  1.00  0.00     0.015 A 
ATOM     13  C   UNL A   1      33.534  21.469  24.438  1.00  0.00     0.027 A 
ATOM     14  C   UNL A   1      32.014  23.385  25.832  1.00  0.00     0.027 A 
ATOM     15  C   UNL A   1      32.235  21.180  24.895  1.00  0.00     0.003 A 
ATOM     16  C   UNL A   1      31.840  25.921  26.294  1.00  0.00     0.099 C 
ATOM     17  C   UNL A   1      31.477  22.122  25.593  1.00  0.00     0.012 A 
ATOM     18  C   UNL A   1      31.295  24.501  26.483  1.00  0.00     0.164 C 
ATOM     19  O   UNL A   1      30.236  24.285  27.067  1.00  0.00    -0.294 OA
BRANCH   8  20
ATOM     20  C   UNL A   1      36.383  22.733  23.771  1.00  0.00     0.227 C 
ATOM     21  C   UNL A   1      37.256  21.840  24.594  1.00  0.00     0.115 C 
ATOM     22  O   UNL A   1      36.518  22.912  22.560  1.00  0.00    -0.274 OA
ENDBRANCH   8  20
ENDBRANCH   4   7
ENDBRANCH   2   3
ENDBRANCH   1   2
BRANCH   1  23
ATOM     23  C   UNL A   1      34.701  31.375  27.597  1.00  0.00     0.118 C 
BRANCH  23  24
ATOM     24  N   UNL A   1      34.490  32.130  28.830  1.00  0.00    -0.352 N 
ATOM     25  C   UNL A   1      35.074  31.936  30.064  1.00  0.00     0.251 C 
ATOM     26  H   UNL A   1      33.849  32.875  28.773  1.00  0.00     0.163 HD
ATOM     27  O   UNL A   1      34.563  32.404  31.075  1.00  0.00    -0.269 OA
BRANCH  25  28
ATOM     28  C   UNL A   1      36.326  31.165  30.154  1.00  0.00     0.039 A 
ATOM     29  C   UNL A   1      36.306  29.787  30.386  1.00  0.00     0.014 A 
ATOM     30  C   UNL A   1      37.536  31.847  30.030  1.00  0.00     0.014 A 
ATOM     31  C   UNL A   1      37.516  29.104  30.449  1.00  0.00     0.010 A 
ATOM     32  C   UNL A   1      38.711  31.156  29.920  1.00  0.00     0.010 A 
ATOM     33  C   UNL A   1      38.709  29.803  30.211  1.00  0.00    -0.014 A 
BRANCH  33  34
ATOM     34  C   UNL A   1      39.985  29.115  30.161  1.00  0.00     0.031 A 
ATOM     35  C   UNL A   1      40.613  28.954  31.490  1.00  0.00     0.074 A 
ATOM     36  C   UNL A   1      40.446  28.497  29.053  1.00  0.00     0.049 A 
ATOM     37  N   UNL A   1      41.597  29.638  31.968  1.00  0.00    -0.248 NA
ATOM     38  C   UNL A   1      39.957  28.081  32.478  1.00  0.00     0.031 C 
ATOM     39  C   UNL A   1      39.763  28.296  27.770  1.00  0.00     0.029 A 
ATOM     40  N   UNL A   1      41.619  27.834  28.873  1.00  0.00    -0.354 N 
ATOM     41  C   UNL A   1      41.857  29.090  33.218  1.00  0.00     0.074 A 
ATOM     42  C   UNL A   1      40.686  28.332  33.569  1.00  0.00     0.031 C 
ATOM     43  C   UNL A   1      40.442  27.388  27.033  1.00  0.00     0.029 A 
ATOM     44  C   UNL A   1      41.682  27.065  27.715  1.00  0.00     0.049 A 
ATOM     45  H   UNL A   1      42.366  27.893  29.513  1.00  0.00     0.167 HD
ATOM     46  C   UNL A   1      43.132  29.050  33.690  1.00  0.00     0.037 A 
ATOM     47  C   UNL A   1      42.679  26.213  27.365  1.00  0.00     0.037 A 
ATOM     48  C   UNL A   1      43.988  29.932  32.923  1.00  0.00     0.049 A 
ATOM     49  C   UNL A   1      43.878  26.587  28.158  1.00  0.00     0.074 A 
ATOM     50  C   UNL A   1      43.981  31.279  32.613  1.00  0.00     0.029 A 
ATOM     51  N   UNL A   1      44.825  29.345  32.005  1.00  0.00    -0.354 N 
ATOM     52  N   UNL A   1      44.544  27.691  27.981  1.00  0.00    -0.248 NA
ATOM     53  C   UNL A   1      44.054  25.956  29.456  1.00  0.00     0.031 C 
ATOM     54  C   UNL A   1      44.425  31.351  31.258  1.00  0.00     0.029 A 
ATOM     55  C   UNL A   1      44.756  30.062  30.840  1.00  0.00     0.049 A 
ATOM     56  H   UNL A   1      45.380  28.547  32.159  1.00  0.00     0.167 HD
ATOM     57  C   UNL A   1      44.830  28.136  29.263  1.00  0.00     0.074 A 
ATOM     58  C   UNL A   1      44.597  26.977  30.124  1.00  0.00     0.031 C 
ATOM     59  C   UNL A   1      44.932  29.473  29.532  1.00  0.00     0.037 A 
BRANCH  46  60
ATOM     60  C   UNL A   1      43.704  27.907  34.502  1.00  0.00     0.057 A 
ATOM     61  C   UNL A   1      43.887  26.589  34.033  1.00  0.00     0.134 A 
ATOM     62  C   UNL A   1      44.399  28.213  35.687  1.00  0.00     0.134 A 
ATOM     63  F   UNL A   1      43.335  26.134  32.904  1.00  0.00    -0.206 F 
ATOM     64  C   UNL A   1      44.746  25.675  34.649  1.00  0.00     0.040 A 
ATOM     65  C   UNL A   1      45.301  27.323  36.282  1.00  0.00     0.040 A 
ATOM     66  F   UNL A   1      44.302  29.429  36.247  1.00  0.00    -0.206 F 
ATOM     67  C   UNL A   1      45.489  26.054  35.753  1.00  0.00     0.006 A 
ENDBRANCH  46  60
BRANCH  47  68
ATOM     68  C   UNL A   1      42.615  24.943  26.607  1.00  0.00     0.057 A 
ATOM     69  C   UNL A   1      42.070  23.779  27.174  1.00  0.00     0.134 A 
ATOM     70  C   UNL A   1      43.354  24.763  25.427  1.00  0.00     0.134 A 
ATOM     71  F   UNL A   1      41.402  23.823  28.336  1.00  0.00    -0.206 F 
ATOM     72  C   UNL A   1      42.273  22.509  26.621  1.00  0.00     0.040 A 
ATOM     73  C   UNL A   1      43.569  23.497  24.866  1.00  0.00     0.040 A 
ATOM     74  F   UNL A   1      43.946  25.807  24.830  1.00  0.00    -0.206 F 
ATOM     75  C   UNL A   1      43.040  22.362  25.472  1.00  0.00     0.006 A 
ENDBRANCH  47  68
BRANCH  59  76
ATOM     76  C   UNL A   1      45.035  30.409  28.357  1.00  0.00     0.057 A 
ATOM     77  C   UNL A   1      46.307  30.812  27.937  1.00  0.00     0.134 A 
ATOM     78  C   UNL A   1      43.941  30.982  27.689  1.00  0.00     0.134 A 
ATOM     79  F   UNL A   1      47.402  30.354  28.564  1.00  0.00    -0.206 F 
ATOM     80  C   UNL A   1      46.489  31.713  26.886  1.00  0.00     0.040 A 
ATOM     81  C   UNL A   1      44.109  31.857  26.610  1.00  0.00     0.040 A 
ATOM     82  F   UNL A   1      42.683  30.746  28.083  1.00  0.00    -0.206 F 
ATOM     83  C   UNL A   1      45.388  32.224  26.205  1.00  0.00     0.006 A 
ENDBRANCH  59  76
ENDBRANCH  33  34
ENDBRANCH  25  28
ENDBRANCH  23  24
ENDBRANCH   1  23
TORSDOF 11
ENDMDL
MODEL 2
REMARK VINA RESULT:     -12.1      1.910      6.224
REMARK SMILES CC(=O)n1cc2c3c(cccc31)C(=O)C[C@@H]2C(=O)NCCCNC(=O)c1ccc(-c2c3nc(c(-c4c(F)cccc4F)c4ccc([nH]4)c(-c4c(F)cccc4F)c4nc(c(-c5c(F)cccc5F)c5ccc2[nH]5)C=C4)C=C3)cc1
REMARK SMILES IDX 21 1 20 2 19 3 17 4 18 5 16 7 4 8 5 9 12 10 6 11 7 12 11 13
REMARK SMILES IDX 8 14 10 15 15 16 9 17 13 18 14 19 2 20 1 21 3 22 22 23 23 24
REMARK SMILES IDX 24 25 25 27 26 28 27 29 79 30 28 31 78 32 29 33 30 34 31 35
REMARK SMILES IDX 72 36 32 37 77 38 71 39 73 40 33 41 76 42 70 43 69 44 34 46
REMARK SMILES IDX 60 47 43 48 59 49 44 50 47 51 58 52 74 53 45 54 46 55 57 57
REMARK SMILES IDX 75 58 48 59 35 60 36 61 41 62 37 63 38 64 40 65 42 66 39 67
REMARK SMILES IDX 61 68 62 69 67 70 63 71 64 72 66 73 68 74 65 75 49 76 50 77
REMARK SMILES IDX 55 78 51 79 52 80 54 81 56 82 53 83
REMARK H PARENT 19 6 23 26 73 45 47 56
REMARK Flexibility Score: inf
ROOT
ATOM      1  C   UNL A   1      34.266  29.853  27.067  1.00  0.00     0.042 C 
ENDROOT
BRANCH   1   2
ATOM      2  C   UNL A   1      33.329  28.658  26.907  1.00  0.00     0.117 C 
BRANCH   2   3
ATOM      3  N   UNL A   1      33.248  28.151  25.541  1.00  0.00    -0.355 N 
ATOM      4  C   UNL A   1      33.053  26.883  25.067  1.00  0.00     0.228 C 
ATOM      5  O   UNL A   1      32.950  26.744  23.844  1.00  0.00    -0.274 OA
ATOM      6  H   UNL A   1      33.350  28.838  24.842  1.00  0.00     0.163 HD
BRANCH   4   7
ATOM      7  C   UNL A   1      33.004  25.665  25.994  1.00  0.00     0.118 C 
ATOM      8  N   UNL A   1      35.264  23.146  24.398  1.00  0.00    -0.287 N 
ATOM      9  C   UNL A   1      35.069  24.439  24.893  1.00  0.00     0.100 A 
ATOM     10  C   UNL A   1      34.126  22.397  24.716  1.00  0.00     0.057 A 
ATOM     11  C   UNL A   1      33.813  24.525  25.453  1.00  0.00    -0.008 A 
ATOM     12  C   UNL A   1      33.268  23.235  25.408  1.00  0.00     0.015 A 
ATOM     13  C   UNL A   1      33.763  21.058  24.486  1.00  0.00     0.027 A 
ATOM     14  C   UNL A   1      32.034  22.790  25.877  1.00  0.00     0.027 A 
ATOM     15  C   UNL A   1      32.529  20.609  24.992  1.00  0.00     0.003 A 
ATOM     16  C   UNL A   1      31.526  25.291  26.277  1.00  0.00     0.099 C 
ATOM     17  C   UNL A   1      31.669  21.459  25.690  1.00  0.00     0.012 A 
ATOM     18  C   UNL A   1      31.186  23.817  26.521  1.00  0.00     0.164 C 
ATOM     19  O   UNL A   1      30.184  23.476  27.144  1.00  0.00    -0.294 OA
BRANCH   8  20
ATOM     20  C   UNL A   1      36.391  22.678  23.694  1.00  0.00     0.227 C 
ATOM     21  C   UNL A   1      37.304  21.777  24.463  1.00  0.00     0.115 C 
ATOM     22  O   UNL A   1      36.540  22.969  22.507  1.00  0.00    -0.274 OA
ENDBRANCH   8  20
ENDBRANCH   4   7
ENDBRANCH   2   3
ENDBRANCH   1   2
BRANCH   1  23
ATOM     23  C   UNL A   1      35.571  29.477  27.738  1.00  0.00     0.118 C 
BRANCH  23  24
ATOM     24  N   UNL A   1      35.592  29.822  29.158  1.00  0.00    -0.352 N 
ATOM     25  C   UNL A   1      36.540  29.496  30.104  1.00  0.00     0.251 C 
ATOM     26  H   UNL A   1      34.831  30.357  29.480  1.00  0.00     0.163 HD
ATOM     27  O   UNL A   1      36.269  29.547  31.299  1.00  0.00    -0.269 OA
BRANCH  25  28
ATOM     28  C   UNL A   1      37.887  29.094  29.665  1.00  0.00     0.039 A 
ATOM     29  C   UNL A   1      38.540  29.777  28.634  1.00  0.00     0.014 A 
ATOM     30  C   UNL A   1      38.488  27.998  30.282  1.00  0.00     0.014 A 
ATOM     31  C   UNL A   1      39.817  29.366  28.266  1.00  0.00     0.010 A 
ATOM     32  C   UNL A   1      39.802  27.703  30.043  1.00  0.00     0.010 A 
ATOM     33  C   UNL A   1      40.435  28.330  28.982  1.00  0.00    -0.014 A 
BRANCH  33  34
ATOM     34  C   UNL A   1      41.804  27.938  28.706  1.00  0.00     0.031 A 
ATOM     35  C   UNL A   1      41.905  26.686  27.926  1.00  0.00     0.074 A 
ATOM     36  C   UNL A   1      42.862  28.740  28.946  1.00  0.00     0.049 A 
ATOM     37  N   UNL A   1      42.218  25.518  28.376  1.00  0.00    -0.248 NA
ATOM     38  C   UNL A   1      41.414  26.679  26.539  1.00  0.00     0.031 C 
ATOM     39  C   UNL A   1      42.865  30.135  29.401  1.00  0.00     0.029 A 
ATOM     40  N   UNL A   1      44.184  28.491  28.744  1.00  0.00    -0.354 N 
ATOM     41  C   UNL A   1      42.227  24.683  27.267  1.00  0.00     0.074 A 
ATOM     42  C   UNL A   1      41.496  25.379  26.241  1.00  0.00     0.031 C 
ATOM     43  C   UNL A   1      44.099  30.664  29.236  1.00  0.00     0.029 A 
ATOM     44  C   UNL A   1      45.006  29.610  28.817  1.00  0.00     0.049 A 
ATOM     45  H   UNL A   1      44.530  27.587  28.560  1.00  0.00     0.167 HD
ATOM     46  C   UNL A   1      43.109  23.649  27.200  1.00  0.00     0.037 A 
ATOM     47  C   UNL A   1      46.332  29.658  28.532  1.00  0.00     0.037 A 
ATOM     48  C   UNL A   1      43.679  23.382  28.505  1.00  0.00     0.049 A 
ATOM     49  C   UNL A   1      46.847  28.266  28.595  1.00  0.00     0.074 A 
ATOM     50  C   UNL A   1      43.169  23.069  29.751  1.00  0.00     0.029 A 
ATOM     51  N   UNL A   1      44.960  23.825  28.730  1.00  0.00    -0.354 N 
ATOM     52  N   UNL A   1      46.947  27.582  29.698  1.00  0.00    -0.248 NA
ATOM     53  C   UNL A   1      46.808  27.476  27.375  1.00  0.00     0.031 C 
ATOM     54  C   UNL A   1      43.988  23.784  30.678  1.00  0.00     0.029 A 
ATOM     55  C   UNL A   1      44.998  24.425  29.960  1.00  0.00     0.049 A 
ATOM     56  H   UNL A   1      45.719  23.727  28.112  1.00  0.00     0.167 HD
ATOM     57  C   UNL A   1      46.511  26.310  29.361  1.00  0.00     0.074 A 
ATOM     58  C   UNL A   1      46.541  26.277  27.899  1.00  0.00     0.031 C 
ATOM     59  C   UNL A   1      45.885  25.519  30.284  1.00  0.00     0.037 A 
BRANCH  46  60
ATOM     60  C   UNL A   1      43.803  23.201  25.931  1.00  0.00     0.057 A 
ATOM     61  C   UNL A   1      44.668  23.999  25.153  1.00  0.00     0.134 A 
ATOM     62  C   UNL A   1      43.866  21.822  25.657  1.00  0.00     0.134 A 
ATOM     63  F   UNL A   1      44.769  25.323  25.301  1.00  0.00    -0.206 F 
ATOM     64  C   UNL A   1      45.572  23.463  24.231  1.00  0.00     0.040 A 
ATOM     65  C   UNL A   1      44.803  21.272  24.775  1.00  0.00     0.040 A 
ATOM     66  F   UNL A   1      43.086  20.953  26.319  1.00  0.00    -0.206 F 
ATOM     67  C   UNL A   1      45.671  22.093  24.071  1.00  0.00     0.006 A 
ENDBRANCH  46  60
BRANCH  47  68
ATOM     68  C   UNL A   1      47.136  30.758  27.953  1.00  0.00     0.057 A 
ATOM     69  C   UNL A   1      48.255  31.279  28.625  1.00  0.00     0.134 A 
ATOM     70  C   UNL A   1      46.656  31.520  26.876  1.00  0.00     0.134 A 
ATOM     71  F   UNL A   1      48.757  30.669  29.708  1.00  0.00    -0.206 F 
ATOM     72  C   UNL A   1      48.840  32.501  28.271  1.00  0.00     0.040 A 
ATOM     73  C   UNL A   1      47.229  32.747  26.515  1.00  0.00     0.040 A 
ATOM     74  F   UNL A   1      45.571  31.126  26.195  1.00  0.00    -0.206 F 
ATOM     75  C   UNL A   1      48.317  33.248  27.223  1.00  0.00     0.006 A 
ENDBRANCH  47  68
BRANCH  59  76
ATOM     76  C   UNL A   1      45.966  25.943  31.727  1.00  0.00     0.057 A 
ATOM     77  C   UNL A   1      44.894  26.655  32.273  1.00  0.00     0.134 A 
ATOM     78  C   UNL A   1      47.080  25.747  32.559  1.00  0.00     0.134 A 
ATOM     79  F   UNL A   1      43.816  26.934  31.522  1.00  0.00    -0.206 F 
ATOM     80  C   UNL A   1      44.908  27.124  33.588  1.00  0.00     0.040 A 
ATOM     81  C   UNL A   1      47.093  26.178  33.891  1.00  0.00     0.040 A 
ATOM     82  F   UNL A   1      48.199  25.172  32.102  1.00  0.00    -0.206 F 
ATOM     83  C   UNL A   1      46.003  26.869  34.409  1.00  0.00     0.006 A 
ENDBRANCH  59  76
ENDBRANCH  33  34
ENDBRANCH  25  28
ENDBRANCH  23  24
ENDBRANCH   1  23
TORSDOF 11
ENDMDL
MODEL 3
REMARK VINA RESULT:     -11.9      2.512      7.750
REMARK SMILES CC(=O)n1cc2c3c(cccc31)C(=O)C[C@@H]2C(=O)NCCCNC(=O)c1ccc(-c2c3nc(c(-c4c(F)cccc4F)c4ccc([nH]4)c(-c4c(F)cccc4F)c4nc(c(-c5c(F)cccc5F)c5ccc2[nH]5)C=C4)C=C3)cc1
REMARK SMILES IDX 21 1 20 2 19 3 17 4 18 5 16 7 4 8 5 9 12 10 6 11 7 12 11 13
REMARK SMILES IDX 8 14 10 15 15 16 9 17 13 18 14 19 2 20 1 21 3 22 22 23 23 24
REMARK SMILES IDX 24 25 25 27 26 28 27 29 79 30 28 31 78 32 29 33 30 34 31 35
REMARK SMILES IDX 72 36 32 37 77 38 71 39 73 40 33 41 76 42 70 43 69 44 34 46
REMARK SMILES IDX 60 47 43 48 59 49 44 50 47 51 58 52 74 53 45 54 46 55 57 57
REMARK SMILES IDX 75 58 48 59 35 60 36 61 41 62 37 63 38 64 40 65 42 66 39 67
REMARK SMILES IDX 61 68 62 69 67 70 63 71 64 72 66 73 68 74 65 75 49 76 50 77
REMARK SMILES IDX 55 78 51 79 52 80 54 81 56 82 53 83
REMARK H PARENT 19 6 23 26 73 45 47 56
REMARK Flexibility Score: inf
ROOT
ATOM      1  C   UNL A   1      38.052  22.652  25.372  1.00  0.00     0.042 C 
ENDROOT
BRANCH   1   2
ATOM      2  C   UNL A   1      37.136  23.809  25.766  1.00  0.00     0.117 C 
BRANCH   2   3
ATOM      3  N   UNL A   1      35.763  23.404  26.046  1.00  0.00    -0.355 N 
ATOM      4  C   UNL A   1      34.579  23.819  25.501  1.00  0.00     0.228 C 
ATOM      5  O   UNL A   1      33.551  23.247  25.876  1.00  0.00    -0.274 OA
ATOM      6  H   UNL A   1      35.673  22.716  26.745  1.00  0.00     0.163 HD
BRANCH   4   7
ATOM      7  C   UNL A   1      34.503  24.973  24.497  1.00  0.00     0.118 C 
ATOM      8  N   UNL A   1      32.356  27.552  26.150  1.00  0.00    -0.287 N 
ATOM      9  C   UNL A   1      33.470  26.709  26.198  1.00  0.00     0.100 A 
ATOM     10  C   UNL A   1      31.833  27.486  24.855  1.00  0.00     0.057 A 
ATOM     11  C   UNL A   1      33.611  26.073  24.984  1.00  0.00    -0.008 A 
ATOM     12  C   UNL A   1      32.639  26.620  24.135  1.00  0.00     0.015 A 
ATOM     13  C   UNL A   1      30.742  28.112  24.226  1.00  0.00     0.027 A 
ATOM     14  C   UNL A   1      32.391  26.335  22.794  1.00  0.00     0.027 A 
ATOM     15  C   UNL A   1      30.518  27.844  22.863  1.00  0.00     0.003 A 
ATOM     16  C   UNL A   1      34.097  24.421  23.106  1.00  0.00     0.099 C 
ATOM     17  C   UNL A   1      31.336  26.970  22.143  1.00  0.00     0.012 A 
ATOM     18  C   UNL A   1      33.280  25.327  22.178  1.00  0.00     0.164 C 
ATOM     19  O   UNL A   1      33.271  25.169  20.960  1.00  0.00    -0.294 OA
BRANCH   8  20
ATOM     20  C   UNL A   1      31.840  28.323  27.210  1.00  0.00     0.227 C 
ATOM     21  C   UNL A   1      32.286  29.750  27.248  1.00  0.00     0.115 C 
ATOM     22  O   UNL A   1      31.030  27.827  27.995  1.00  0.00    -0.274 OA
ENDBRANCH   8  20
ENDBRANCH   4   7
ENDBRANCH   2   3
ENDBRANCH   1   2
BRANCH   1  23
ATOM     23  C   UNL A   1      38.963  22.225  26.505  1.00  0.00     0.118 C 
BRANCH  23  24
ATOM     24  N   UNL A   1      40.334  21.983  26.062  1.00  0.00    -0.352 N 
ATOM     25  C   UNL A   1      41.382  22.876  25.989  1.00  0.00     0.251 C 
ATOM     26  H   UNL A   1      40.537  21.062  25.778  1.00  0.00     0.163 HD
ATOM     27  O   UNL A   1      42.358  22.635  25.288  1.00  0.00    -0.269 OA
BRANCH  25  28
ATOM     28  C   UNL A   1      41.319  24.123  26.771  1.00  0.00     0.039 A 
ATOM     29  C   UNL A   1      41.908  24.207  28.036  1.00  0.00     0.014 A 
ATOM     30  C   UNL A   1      40.635  25.211  26.233  1.00  0.00     0.014 A 
ATOM     31  C   UNL A   1      41.833  25.411  28.728  1.00  0.00     0.010 A 
ATOM     32  C   UNL A   1      40.708  26.440  26.832  1.00  0.00     0.010 A 
ATOM     33  C   UNL A   1      41.232  26.518  28.111  1.00  0.00    -0.014 A 
BRANCH  33  34
ATOM     34  C   UNL A   1      41.224  27.821  28.749  1.00  0.00     0.031 A 
ATOM     35  C   UNL A   1      42.336  28.691  28.310  1.00  0.00     0.074 A 
ATOM     36  C   UNL A   1      40.193  28.269  29.496  1.00  0.00     0.049 A 
ATOM     37  N   UNL A   1      43.413  28.960  28.968  1.00  0.00    -0.248 NA
ATOM     38  C   UNL A   1      42.358  29.155  26.913  1.00  0.00     0.031 C 
ATOM     39  C   UNL A   1      38.890  27.636  29.725  1.00  0.00     0.029 A 
ATOM     40  N   UNL A   1      40.068  29.454  30.151  1.00  0.00    -0.354 N 
ATOM     41  C   UNL A   1      44.122  29.849  28.171  1.00  0.00     0.074 A 
ATOM     42  C   UNL A   1      43.561  29.732  26.851  1.00  0.00     0.031 C 
ATOM     43  C   UNL A   1      38.043  28.531  30.282  1.00  0.00     0.029 A 
ATOM     44  C   UNL A   1      38.781  29.742  30.594  1.00  0.00     0.049 A 
ATOM     45  H   UNL A   1      40.829  30.061  30.300  1.00  0.00     0.167 HD
ATOM     46  C   UNL A   1      44.877  30.825  28.746  1.00  0.00     0.037 A 
ATOM     47  C   UNL A   1      38.362  30.903  31.157  1.00  0.00     0.037 A 
ATOM     48  C   UNL A   1      45.091  30.540  30.150  1.00  0.00     0.049 A 
ATOM     49  C   UNL A   1      39.569  31.616  31.649  1.00  0.00     0.074 A 
ATOM     50  C   UNL A   1      45.629  29.487  30.866  1.00  0.00     0.029 A 
ATOM     51  N   UNL A   1      44.346  31.259  31.054  1.00  0.00    -0.354 N 
ATOM     52  N   UNL A   1      40.290  31.205  32.652  1.00  0.00    -0.248 NA
ATOM     53  C   UNL A   1      40.237  32.524  30.732  1.00  0.00     0.031 C 
ATOM     54  C   UNL A   1      44.802  29.364  32.025  1.00  0.00     0.029 A 
ATOM     55  C   UNL A   1      43.860  30.393  31.997  1.00  0.00     0.049 A 
ATOM     56  H   UNL A   1      44.188  32.230  31.026  1.00  0.00     0.167 HD
ATOM     57  C   UNL A   1      41.600  31.408  32.245  1.00  0.00     0.074 A 
ATOM     58  C   UNL A   1      41.503  32.318  31.104  1.00  0.00     0.031 C 
ATOM     59  C   UNL A   1      42.601  30.585  32.681  1.00  0.00     0.037 A 
BRANCH  46  60
ATOM     60  C   UNL A   1      45.020  32.228  28.195  1.00  0.00     0.057 A 
ATOM     61  C   UNL A   1      44.004  33.207  28.193  1.00  0.00     0.134 A 
ATOM     62  C   UNL A   1      46.316  32.722  27.958  1.00  0.00     0.134 A 
ATOM     63  F   UNL A   1      42.720  32.926  28.436  1.00  0.00    -0.206 F 
ATOM     64  C   UNL A   1      44.264  34.571  28.039  1.00  0.00     0.040 A 
ATOM     65  C   UNL A   1      46.593  34.090  27.855  1.00  0.00     0.040 A 
ATOM     66  F   UNL A   1      47.371  31.894  27.923  1.00  0.00    -0.206 F 
ATOM     67  C   UNL A   1      45.567  35.021  27.912  1.00  0.00     0.006 A 
ENDBRANCH  46  60
BRANCH  47  68
ATOM     68  C   UNL A   1      37.045  31.574  31.072  1.00  0.00     0.057 A 
ATOM     69  C   UNL A   1      36.649  32.266  29.915  1.00  0.00     0.134 A 
ATOM     70  C   UNL A   1      36.272  31.807  32.221  1.00  0.00     0.134 A 
ATOM     71  F   UNL A   1      37.353  32.171  28.778  1.00  0.00    -0.206 F 
ATOM     72  C   UNL A   1      35.572  33.160  29.907  1.00  0.00     0.040 A 
ATOM     73  C   UNL A   1      35.195  32.704  32.228  1.00  0.00     0.040 A 
ATOM     74  F   UNL A   1      36.591  31.223  33.385  1.00  0.00    -0.206 F 
ATOM     75  C   UNL A   1      34.851  33.395  31.071  1.00  0.00     0.006 A 
ENDBRANCH  47  68
BRANCH  59  76
ATOM     76  C   UNL A   1      42.292  29.669  33.836  1.00  0.00     0.057 A 
ATOM     77  C   UNL A   1      42.618  30.095  35.127  1.00  0.00     0.134 A 
ATOM     78  C   UNL A   1      41.768  28.372  33.713  1.00  0.00     0.134 A 
ATOM     79  F   UNL A   1      43.177  31.300  35.321  1.00  0.00    -0.206 F 
ATOM     80  C   UNL A   1      42.407  29.289  36.248  1.00  0.00     0.040 A 
ATOM     81  C   UNL A   1      41.517  27.568  34.831  1.00  0.00     0.040 A 
ATOM     82  F   UNL A   1      41.524  27.829  32.514  1.00  0.00    -0.206 F 
ATOM     83  C   UNL A   1      41.836  28.028  36.104  1.00  0.00     0.006 A 
ENDBRANCH  59  76
ENDBRANCH  33  34
ENDBRANCH  25  28
ENDBRANCH  23  24
ENDBRANCH   1  23
TORSDOF 11
ENDMDL
