MODEL 1
REMARK VINA RESULT:     -11.0      0.000      0.000
REMARK SMILES Cc1ccc(C)c([C@@H](O)[C@@H](C)[C@@H](C)C(=O)NCCCNC(=O)c2ccc(-c3c4nc(c(-c5c(F)cccc5F)c5ccc([nH]5)c(-c5c(F)cccc5F)c5nc(c(-c6c(F)cccc6F)c6ccc3[nH]6)C=C5)C=C4)cc2)c1
REMARK SMILES IDX 17 1 16 2 14 3 15 4 12 6 13 7 10 8 11 9 8 10 7 11 1 12 2 13
REMARK SMILES IDX 3 14 77 15 4 16 5 17 6 18 9 19 18 21 19 22 20 23 21 24 22 26
REMARK SMILES IDX 23 27 24 28 76 29 25 30 75 31 26 32 27 33 28 34 69 35 29 36
REMARK SMILES IDX 74 37 68 38 70 39 30 40 73 41 67 42 66 43 31 45 57 46 40 47
REMARK SMILES IDX 56 48 41 49 44 50 55 51 71 52 42 53 43 54 54 56 72 57 45 58
REMARK SMILES IDX 32 59 33 60 38 61 34 62 35 63 37 64 39 65 36 66 58 67 59 68
REMARK SMILES IDX 64 69 60 70 61 71 63 72 65 73 62 74 46 75 47 76 52 77 48 78
REMARK SMILES IDX 49 79 51 80 53 81 50 82
REMARK H PARENT 16 5 9 20 20 25 70 44 44 55
REMARK Flexibility Score: inf
ROOT
ATOM      1  C   UNL A   1      33.623  30.152  27.172  1.00  0.00     0.117 C 
ENDROOT
BRANCH   1   2
ATOM      2  N   UNL A   1      32.645  29.170  27.623  1.00  0.00    -0.356 N 
ATOM      3  C   UNL A   1      32.068  28.102  26.999  1.00  0.00     0.223 C 
ATOM      4  O   UNL A   1      31.416  27.328  27.708  1.00  0.00    -0.275 OA
ATOM      5  H   UNL A   1      32.343  29.302  28.550  1.00  0.00     0.163 HD
BRANCH   3   6
ATOM      6  C   UNL A   1      32.168  27.851  25.488  1.00  0.00     0.081 C 
ATOM      7  C   UNL A   1      30.791  27.549  24.902  1.00  0.00     0.018 C 
BRANCH   6   8
ATOM      8  C   UNL A   1      33.362  26.902  25.172  1.00  0.00     0.031 C 
ATOM      9  C   UNL A   1      34.026  27.377  23.859  1.00  0.00     0.011 C 
BRANCH   8  10
ATOM     10  C   UNL A   1      33.061  25.381  25.109  1.00  0.00     0.148 C 
BRANCH  10  11
ATOM     11  C   UNL A   1      34.254  24.540  24.645  1.00  0.00    -0.016 A 
ATOM     12  C   UNL A   1      37.704  23.661  26.071  1.00  0.00     0.044 C 
ATOM     13  C   UNL A   1      36.501  23.698  25.177  1.00  0.00    -0.051 A 
ATOM     14  C   UNL A   1      36.497  22.945  24.005  1.00  0.00     0.004 A 
ATOM     15  C   UNL A   1      35.378  24.477  25.495  1.00  0.00     0.010 A 
ATOM     16  C   UNL A   1      35.408  23.005  23.144  1.00  0.00     0.004 A 
ATOM     17  C   UNL A   1      34.294  23.814  23.432  1.00  0.00    -0.045 A 
ATOM     18  C   UNL A   1      33.228  23.837  22.375  1.00  0.00     0.045 C 
ENDBRANCH  10  11
BRANCH  10  19
ATOM     19  O   UNL A   1      32.631  24.875  26.370  1.00  0.00    -0.388 OA
ATOM     20  H   UNL A   1      32.281  23.977  26.256  1.00  0.00     0.211 HD
ENDBRANCH  10  19
ENDBRANCH   8  10
ENDBRANCH   6   8
ENDBRANCH   3   6
ENDBRANCH   1   2
BRANCH   1  21
ATOM     21  C   UNL A   1      33.351  31.600  27.587  1.00  0.00     0.042 C 
BRANCH  21  22
ATOM     22  C   UNL A   1      34.540  32.448  27.985  1.00  0.00     0.118 C 
BRANCH  22  23
ATOM     23  N   UNL A   1      34.623  32.717  29.426  1.00  0.00    -0.352 N 
ATOM     24  C   UNL A   1      35.313  32.091  30.449  1.00  0.00     0.251 C 
ATOM     25  H   UNL A   1      34.086  33.488  29.719  1.00  0.00     0.163 HD
ATOM     26  O   UNL A   1      35.018  32.337  31.620  1.00  0.00    -0.269 OA
BRANCH  24  27
ATOM     27  C   UNL A   1      36.399  31.135  30.161  1.00  0.00     0.039 A 
ATOM     28  C   UNL A   1      36.244  29.752  30.034  1.00  0.00     0.014 A 
ATOM     29  C   UNL A   1      37.682  31.625  30.180  1.00  0.00     0.014 A 
ATOM     30  C   UNL A   1      37.399  28.955  29.998  1.00  0.00     0.010 A 
ATOM     31  C   UNL A   1      38.688  30.928  29.606  1.00  0.00     0.010 A 
ATOM     32  C   UNL A   1      38.640  29.581  29.861  1.00  0.00    -0.014 A 
BRANCH  32  33
ATOM     33  C   UNL A   1      39.944  28.955  29.880  1.00  0.00     0.031 A 
ATOM     34  C   UNL A   1      40.521  28.766  31.226  1.00  0.00     0.074 A 
ATOM     35  C   UNL A   1      40.387  28.184  28.861  1.00  0.00     0.049 A 
ATOM     36  N   UNL A   1      41.479  29.432  31.774  1.00  0.00    -0.248 NA
ATOM     37  C   UNL A   1      39.847  27.822  32.133  1.00  0.00     0.031 C 
ATOM     38  C   UNL A   1      39.693  27.788  27.629  1.00  0.00     0.029 A 
ATOM     39  N   UNL A   1      41.554  27.490  28.786  1.00  0.00    -0.354 N 
ATOM     40  C   UNL A   1      41.661  28.842  33.018  1.00  0.00     0.074 A 
ATOM     41  C   UNL A   1      40.474  28.075  33.281  1.00  0.00     0.031 C 
ATOM     42  C   UNL A   1      40.384  26.795  27.022  1.00  0.00     0.029 A 
ATOM     43  C   UNL A   1      41.627  26.577  27.743  1.00  0.00     0.049 A 
ATOM     44  H   UNL A   1      42.292  27.624  29.424  1.00  0.00     0.167 HD
ATOM     45  C   UNL A   1      42.886  28.781  33.608  1.00  0.00     0.037 A 
ATOM     46  C   UNL A   1      42.626  25.685  27.534  1.00  0.00     0.037 A 
ATOM     47  C   UNL A   1      43.842  29.610  32.915  1.00  0.00     0.049 A 
ATOM     48  C   UNL A   1      43.782  26.106  28.372  1.00  0.00     0.074 A 
ATOM     49  C   UNL A   1      43.894  30.944  32.555  1.00  0.00     0.029 A 
ATOM     50  N   UNL A   1      44.777  28.979  32.127  1.00  0.00    -0.354 N 
ATOM     51  N   UNL A   1      44.501  27.172  28.161  1.00  0.00    -0.248 NA
ATOM     52  C   UNL A   1      43.885  25.544  29.711  1.00  0.00     0.031 C 
ATOM     53  C   UNL A   1      44.486  30.954  31.255  1.00  0.00     0.029 A 
ATOM     54  C   UNL A   1      44.806  29.637  30.923  1.00  0.00     0.049 A 
ATOM     55  H   UNL A   1      45.324  28.201  32.381  1.00  0.00     0.167 HD
ATOM     56  C   UNL A   1      44.810  27.651  29.427  1.00  0.00     0.074 A 
ATOM     57  C   UNL A   1      44.504  26.551  30.334  1.00  0.00     0.031 C 
ATOM     58  C   UNL A   1      45.007  28.985  29.648  1.00  0.00     0.037 A 
BRANCH  45  59
ATOM     59  C   UNL A   1      43.309  27.710  34.581  1.00  0.00     0.057 A 
ATOM     60  C   UNL A   1      43.688  28.087  35.880  1.00  0.00     0.134 A 
ATOM     61  C   UNL A   1      43.591  26.370  34.241  1.00  0.00     0.134 A 
ATOM     62  F   UNL A   1      43.500  29.343  36.312  1.00  0.00    -0.206 F 
ATOM     63  C   UNL A   1      44.340  27.212  36.755  1.00  0.00     0.040 A 
ATOM     64  C   UNL A   1      44.181  25.469  35.131  1.00  0.00     0.040 A 
ATOM     65  F   UNL A   1      43.408  25.882  33.009  1.00  0.00    -0.206 F 
ATOM     66  C   UNL A   1      44.586  25.897  36.383  1.00  0.00     0.006 A 
ENDBRANCH  45  59
BRANCH  46  67
ATOM     67  C   UNL A   1      42.603  24.377  26.844  1.00  0.00     0.057 A 
ATOM     68  C   UNL A   1      43.267  24.192  25.622  1.00  0.00     0.134 A 
ATOM     69  C   UNL A   1      42.153  23.209  27.483  1.00  0.00     0.134 A 
ATOM     70  F   UNL A   1      43.769  25.240  24.954  1.00  0.00    -0.206 F 
ATOM     71  C   UNL A   1      43.491  22.919  25.079  1.00  0.00     0.040 A 
ATOM     72  C   UNL A   1      42.358  21.934  26.945  1.00  0.00     0.040 A 
ATOM     73  F   UNL A   1      41.580  23.261  28.694  1.00  0.00    -0.206 F 
ATOM     74  C   UNL A   1      43.044  21.784  25.746  1.00  0.00     0.006 A 
ENDBRANCH  46  67
BRANCH  58  75
ATOM     75  C   UNL A   1      45.179  29.876  28.449  1.00  0.00     0.057 A 
ATOM     76  C   UNL A   1      44.125  30.553  27.815  1.00  0.00     0.134 A 
ATOM     77  C   UNL A   1      46.473  30.171  28.006  1.00  0.00     0.134 A 
ATOM     78  F   UNL A   1      42.862  30.421  28.237  1.00  0.00    -0.206 F 
ATOM     79  C   UNL A   1      44.345  31.439  26.757  1.00  0.00     0.040 A 
ATOM     80  C   UNL A   1      46.710  31.081  26.973  1.00  0.00     0.040 A 
ATOM     81  F   UNL A   1      47.536  29.608  28.602  1.00  0.00    -0.206 F 
ATOM     82  C   UNL A   1      45.644  31.710  26.336  1.00  0.00     0.006 A 
ENDBRANCH  58  75
ENDBRANCH  32  33
ENDBRANCH  24  27
ENDBRANCH  22  23
ENDBRANCH  21  22
ENDBRANCH   1  21
TORSDOF 14
ENDMDL
MODEL 2
REMARK VINA RESULT:     -10.7      1.531      3.158
REMARK SMILES Cc1ccc(C)c([C@@H](O)[C@@H](C)[C@@H](C)C(=O)NCCCNC(=O)c2ccc(-c3c4nc(c(-c5c(F)cccc5F)c5ccc([nH]5)c(-c5c(F)cccc5F)c5nc(c(-c6c(F)cccc6F)c6ccc3[nH]6)C=C5)C=C4)cc2)c1
REMARK SMILES IDX 17 1 16 2 14 3 15 4 12 6 13 7 10 8 11 9 8 10 7 11 1 12 2 13
REMARK SMILES IDX 3 14 77 15 4 16 5 17 6 18 9 19 18 21 19 22 20 23 21 24 22 26
REMARK SMILES IDX 23 27 24 28 76 29 25 30 75 31 26 32 27 33 28 34 69 35 29 36
REMARK SMILES IDX 74 37 68 38 70 39 30 40 73 41 67 42 66 43 31 45 57 46 40 47
REMARK SMILES IDX 56 48 41 49 44 50 55 51 71 52 42 53 43 54 54 56 72 57 45 58
REMARK SMILES IDX 32 59 33 60 38 61 34 62 35 63 37 64 39 65 36 66 58 67 59 68
REMARK SMILES IDX 64 69 60 70 61 71 63 72 65 73 62 74 46 75 47 76 52 77 48 78
REMARK SMILES IDX 49 79 51 80 53 81 50 82
REMARK H PARENT 16 5 9 20 20 25 70 44 44 55
REMARK Flexibility Score: inf
ROOT
ATOM      1  C   UNL A   1      34.409  30.448  27.418  1.00  0.00     0.117 C 
ENDROOT
BRANCH   1   2
ATOM      2  N   UNL A   1      33.445  29.375  27.624  1.00  0.00    -0.356 N 
ATOM      3  C   UNL A   1      32.598  28.731  26.771  1.00  0.00     0.223 C 
ATOM      4  O   UNL A   1      32.037  27.717  27.200  1.00  0.00    -0.275 OA
ATOM      5  H   UNL A   1      33.394  29.056  28.554  1.00  0.00     0.163 HD
BRANCH   3   6
ATOM      6  C   UNL A   1      32.299  29.223  25.347  1.00  0.00     0.081 C 
ATOM      7  C   UNL A   1      31.288  30.366  25.376  1.00  0.00     0.018 C 
BRANCH   6   8
ATOM      8  C   UNL A   1      32.064  28.015  24.392  1.00  0.00     0.031 C 
ATOM      9  C   UNL A   1      33.340  27.141  24.390  1.00  0.00     0.011 C 
BRANCH   8  10
ATOM     10  C   UNL A   1      31.622  28.334  22.940  1.00  0.00     0.148 C 
BRANCH  10  11
ATOM     11  C   UNL A   1      30.168  28.806  22.833  1.00  0.00    -0.016 A 
ATOM     12  C   UNL A   1      28.401  31.958  21.549  1.00  0.00     0.044 C 
ATOM     13  C   UNL A   1      28.638  30.586  22.104  1.00  0.00    -0.051 A 
ATOM     14  C   UNL A   1      27.548  29.792  22.452  1.00  0.00     0.004 A 
ATOM     15  C   UNL A   1      29.936  30.085  22.283  1.00  0.00     0.010 A 
ATOM     16  C   UNL A   1      27.753  28.537  23.011  1.00  0.00     0.004 A 
ATOM     17  C   UNL A   1      29.049  28.040  23.234  1.00  0.00    -0.045 A 
ATOM     18  C   UNL A   1      29.115  26.703  23.913  1.00  0.00     0.045 C 
ENDBRANCH  10  11
BRANCH  10  19
ATOM     19  O   UNL A   1      32.450  29.327  22.341  1.00  0.00    -0.388 OA
ATOM     20  H   UNL A   1      32.047  29.627  21.511  1.00  0.00     0.211 HD
ENDBRANCH  10  19
ENDBRANCH   8  10
ENDBRANCH   6   8
ENDBRANCH   3   6
ENDBRANCH   1   2
BRANCH   1  21
ATOM     21  C   UNL A   1      33.889  31.866  27.667  1.00  0.00     0.042 C 
BRANCH  21  22
ATOM     22  C   UNL A   1      34.857  32.873  28.252  1.00  0.00     0.118 C 
BRANCH  22  23
ATOM     23  N   UNL A   1      34.803  32.969  29.715  1.00  0.00    -0.352 N 
ATOM     24  C   UNL A   1      35.359  32.194  30.717  1.00  0.00     0.251 C 
ATOM     25  H   UNL A   1      34.271  33.728  30.045  1.00  0.00     0.163 HD
ATOM     26  O   UNL A   1      34.956  32.318  31.875  1.00  0.00    -0.269 OA
BRANCH  24  27
ATOM     27  C   UNL A   1      36.428  31.221  30.423  1.00  0.00     0.039 A 
ATOM     28  C   UNL A   1      36.278  29.832  30.425  1.00  0.00     0.014 A 
ATOM     29  C   UNL A   1      37.704  31.716  30.296  1.00  0.00     0.014 A 
ATOM     30  C   UNL A   1      37.435  29.039  30.361  1.00  0.00     0.010 A 
ATOM     31  C   UNL A   1      38.667  30.977  29.702  1.00  0.00     0.010 A 
ATOM     32  C   UNL A   1      38.654  29.656  30.072  1.00  0.00    -0.014 A 
BRANCH  32  33
ATOM     33  C   UNL A   1      39.962  29.039  30.037  1.00  0.00     0.031 A 
ATOM     34  C   UNL A   1      40.592  28.847  31.358  1.00  0.00     0.074 A 
ATOM     35  C   UNL A   1      40.370  28.277  28.998  1.00  0.00     0.049 A 
ATOM     36  N   UNL A   1      41.566  29.517  31.872  1.00  0.00    -0.248 NA
ATOM     37  C   UNL A   1      39.960  27.894  32.286  1.00  0.00     0.031 C 
ATOM     38  C   UNL A   1      39.631  27.882  27.791  1.00  0.00     0.029 A 
ATOM     39  N   UNL A   1      41.538  27.591  28.873  1.00  0.00    -0.354 N 
ATOM     40  C   UNL A   1      41.801  28.922  33.105  1.00  0.00     0.074 A 
ATOM     41  C   UNL A   1      40.630  28.146  33.410  1.00  0.00     0.031 C 
ATOM     42  C   UNL A   1      40.305  26.896  27.152  1.00  0.00     0.029 A 
ATOM     43  C   UNL A   1      41.576  26.683  27.824  1.00  0.00     0.049 A 
ATOM     44  H   UNL A   1      42.300  27.727  29.483  1.00  0.00     0.167 HD
ATOM     45  C   UNL A   1      43.048  28.867  33.647  1.00  0.00     0.037 A 
ATOM     46  C   UNL A   1      42.573  25.800  27.571  1.00  0.00     0.037 A 
ATOM     47  C   UNL A   1      43.971  29.706  32.922  1.00  0.00     0.049 A 
ATOM     48  C   UNL A   1      43.757  26.224  28.365  1.00  0.00     0.074 A 
ATOM     49  C   UNL A   1      44.000  31.041  32.566  1.00  0.00     0.029 A 
ATOM     50  N   UNL A   1      44.878  29.085  32.095  1.00  0.00    -0.354 N 
ATOM     51  N   UNL A   1      44.461  27.296  28.132  1.00  0.00    -0.248 NA
ATOM     52  C   UNL A   1      43.917  25.656  29.697  1.00  0.00     0.031 C 
ATOM     53  C   UNL A   1      44.540  31.062  31.245  1.00  0.00     0.029 A 
ATOM     54  C   UNL A   1      44.856  29.749  30.894  1.00  0.00     0.049 A 
ATOM     55  H   UNL A   1      45.440  28.310  32.322  1.00  0.00     0.167 HD
ATOM     56  C   UNL A   1      44.816  27.771  29.388  1.00  0.00     0.074 A 
ATOM     57  C   UNL A   1      44.552  26.664  30.300  1.00  0.00     0.031 C 
ATOM     58  C   UNL A   1      45.012  29.105  29.609  1.00  0.00     0.037 A 
BRANCH  45  59
ATOM     59  C   UNL A   1      43.516  27.793  34.597  1.00  0.00     0.057 A 
ATOM     60  C   UNL A   1      44.029  28.174  35.847  1.00  0.00     0.134 A 
ATOM     61  C   UNL A   1      43.710  26.437  34.258  1.00  0.00     0.134 A 
ATOM     62  F   UNL A   1      43.934  29.443  36.271  1.00  0.00    -0.206 F 
ATOM     63  C   UNL A   1      44.724  27.285  36.676  1.00  0.00     0.040 A 
ATOM     64  C   UNL A   1      44.343  25.526  35.107  1.00  0.00     0.040 A 
ATOM     65  F   UNL A   1      43.393  25.939  33.057  1.00  0.00    -0.206 F 
ATOM     66  C   UNL A   1      44.880  25.955  36.308  1.00  0.00     0.006 A 
ENDBRANCH  45  59
BRANCH  46  67
ATOM     67  C   UNL A   1      42.531  24.495  26.875  1.00  0.00     0.057 A 
ATOM     68  C   UNL A   1      43.158  24.317  25.632  1.00  0.00     0.134 A 
ATOM     69  C   UNL A   1      42.103  23.323  27.522  1.00  0.00     0.134 A 
ATOM     70  F   UNL A   1      43.637  25.370  24.955  1.00  0.00    -0.206 F 
ATOM     71  C   UNL A   1      43.369  23.048  25.077  1.00  0.00     0.040 A 
ATOM     72  C   UNL A   1      42.295  22.051  26.972  1.00  0.00     0.040 A 
ATOM     73  F   UNL A   1      41.568  23.367  28.750  1.00  0.00    -0.206 F 
ATOM     74  C   UNL A   1      42.944  21.908  25.752  1.00  0.00     0.006 A 
ENDBRANCH  46  67
BRANCH  58  75
ATOM     75  C   UNL A   1      45.131  30.004  28.408  1.00  0.00     0.057 A 
ATOM     76  C   UNL A   1      44.042  30.640  27.792  1.00  0.00     0.134 A 
ATOM     77  C   UNL A   1      46.406  30.349  27.947  1.00  0.00     0.134 A 
ATOM     78  F   UNL A   1      42.792  30.458  28.232  1.00  0.00    -0.206 F 
ATOM     79  C   UNL A   1      44.212  31.535  26.732  1.00  0.00     0.040 A 
ATOM     80  C   UNL A   1      46.592  31.269  26.912  1.00  0.00     0.040 A 
ATOM     81  F   UNL A   1      47.499  29.827  28.525  1.00  0.00    -0.206 F 
ATOM     82  C   UNL A   1      45.493  31.857  26.292  1.00  0.00     0.006 A 
ENDBRANCH  58  75
ENDBRANCH  32  33
ENDBRANCH  24  27
ENDBRANCH  22  23
ENDBRANCH  21  22
ENDBRANCH   1  21
TORSDOF 14
ENDMDL
MODEL 3
REMARK VINA RESULT:     -10.6      3.290      6.890
REMARK SMILES Cc1ccc(C)c([C@@H](O)[C@@H](C)[C@@H](C)C(=O)NCCCNC(=O)c2ccc(-c3c4nc(c(-c5c(F)cccc5F)c5ccc([nH]5)c(-c5c(F)cccc5F)c5nc(c(-c6c(F)cccc6F)c6ccc3[nH]6)C=C5)C=C4)cc2)c1
REMARK SMILES IDX 17 1 16 2 14 3 15 4 12 6 13 7 10 8 11 9 8 10 7 11 1 12 2 13
REMARK SMILES IDX 3 14 77 15 4 16 5 17 6 18 9 19 18 21 19 22 20 23 21 24 22 26
REMARK SMILES IDX 23 27 24 28 76 29 25 30 75 31 26 32 27 33 28 34 69 35 29 36
REMARK SMILES IDX 74 37 68 38 70 39 30 40 73 41 67 42 66 43 31 45 57 46 40 47
REMARK SMILES IDX 56 48 41 49 44 50 55 51 71 52 42 53 43 54 54 56 72 57 45 58
REMARK SMILES IDX 32 59 33 60 38 61 34 62 35 63 37 64 39 65 36 66 58 67 59 68
REMARK SMILES IDX 64 69 60 70 61 71 63 72 65 73 62 74 46 75 47 76 52 77 48 78
REMARK SMILES IDX 49 79 51 80 53 81 50 82
REMARK H PARENT 16 5 9 20 20 25 70 44 44 55
REMARK Flexibility Score: inf
ROOT
ATOM      1  C   UNL A   1      37.404  31.422  33.097  1.00  0.00     0.117 C 
ENDROOT
BRANCH   1   2
ATOM      2  N   UNL A   1      37.706  30.714  34.334  1.00  0.00    -0.356 N 
ATOM      3  C   UNL A   1      38.520  31.019  35.385  1.00  0.00     0.223 C 
ATOM      4  O   UNL A   1      38.418  30.311  36.393  1.00  0.00    -0.275 OA
ATOM      5  H   UNL A   1      37.235  29.855  34.429  1.00  0.00     0.163 HD
BRANCH   3   6
ATOM      6  C   UNL A   1      39.552  32.155  35.352  1.00  0.00     0.081 C 
ATOM      7  C   UNL A   1      40.903  31.668  35.873  1.00  0.00     0.018 C 
BRANCH   6   8
ATOM      8  C   UNL A   1      38.937  33.466  35.926  1.00  0.00     0.031 C 
ATOM      9  C   UNL A   1      37.487  33.168  36.372  1.00  0.00     0.011 C 
BRANCH   8  10
ATOM     10  C   UNL A   1      38.978  34.725  35.019  1.00  0.00     0.148 C 
BRANCH  10  11
ATOM     11  C   UNL A   1      40.133  34.716  34.012  1.00  0.00    -0.016 A 
ATOM     12  C   UNL A   1      40.557  33.685  30.343  1.00  0.00     0.044 C 
ATOM     13  C   UNL A   1      40.843  34.227  31.711  1.00  0.00    -0.051 A 
ATOM     14  C   UNL A   1      42.110  34.734  31.993  1.00  0.00     0.004 A 
ATOM     15  C   UNL A   1      39.863  34.234  32.714  1.00  0.00     0.010 A 
ATOM     16  C   UNL A   1      42.404  35.197  33.270  1.00  0.00     0.004 A 
ATOM     17  C   UNL A   1      41.442  35.171  34.295  1.00  0.00    -0.045 A 
ATOM     18  C   UNL A   1      41.924  35.633  35.640  1.00  0.00     0.045 C 
ENDBRANCH  10  11
BRANCH  10  19
ATOM     19  O   UNL A   1      37.764  34.893  34.293  1.00  0.00    -0.388 OA
ATOM     20  H   UNL A   1      37.807  35.713  33.776  1.00  0.00     0.211 HD
ENDBRANCH  10  19
ENDBRANCH   8  10
ENDBRANCH   6   8
ENDBRANCH   3   6
ENDBRANCH   1   2
BRANCH   1  21
ATOM     21  C   UNL A   1      36.030  32.095  33.034  1.00  0.00     0.042 C 
BRANCH  21  22
ATOM     22  C   UNL A   1      35.846  33.217  32.035  1.00  0.00     0.118 C 
BRANCH  22  23
ATOM     23  N   UNL A   1      34.964  32.877  30.914  1.00  0.00    -0.352 N 
ATOM     24  C   UNL A   1      35.145  32.078  29.798  1.00  0.00     0.251 C 
ATOM     25  H   UNL A   1      34.075  33.296  30.964  1.00  0.00     0.163 HD
ATOM     26  O   UNL A   1      34.350  32.157  28.860  1.00  0.00    -0.269 OA
BRANCH  24  27
ATOM     27  C   UNL A   1      36.275  31.133  29.714  1.00  0.00     0.039 A 
ATOM     28  C   UNL A   1      36.212  29.772  30.021  1.00  0.00     0.014 A 
ATOM     29  C   UNL A   1      37.517  31.667  29.471  1.00  0.00     0.014 A 
ATOM     30  C   UNL A   1      37.417  29.057  30.123  1.00  0.00     0.010 A 
ATOM     31  C   UNL A   1      38.528  30.878  29.045  1.00  0.00     0.010 A 
ATOM     32  C   UNL A   1      38.596  29.672  29.695  1.00  0.00    -0.014 A 
BRANCH  32  33
ATOM     33  C   UNL A   1      39.940  29.144  29.785  1.00  0.00     0.031 A 
ATOM     34  C   UNL A   1      40.483  29.062  31.156  1.00  0.00     0.074 A 
ATOM     35  C   UNL A   1      40.472  28.361  28.820  1.00  0.00     0.049 A 
ATOM     36  N   UNL A   1      41.371  29.822  31.699  1.00  0.00    -0.248 NA
ATOM     37  C   UNL A   1      39.848  28.115  32.088  1.00  0.00     0.031 C 
ATOM     38  C   UNL A   1      39.851  27.858  27.588  1.00  0.00     0.029 A 
ATOM     39  N   UNL A   1      41.688  27.752  28.814  1.00  0.00    -0.354 N 
ATOM     40  C   UNL A   1      41.553  29.305  32.976  1.00  0.00     0.074 A 
ATOM     41  C   UNL A   1      40.416  28.467  33.240  1.00  0.00     0.031 C 
ATOM     42  C   UNL A   1      40.632  26.890  27.052  1.00  0.00     0.029 A 
ATOM     43  C   UNL A   1      41.862  26.799  27.821  1.00  0.00     0.049 A 
ATOM     44  H   UNL A   1      42.392  27.970  29.467  1.00  0.00     0.167 HD
ATOM     45  C   UNL A   1      42.758  29.363  33.605  1.00  0.00     0.037 A 
ATOM     46  C   UNL A   1      42.929  25.974  27.686  1.00  0.00     0.037 A 
ATOM     47  C   UNL A   1      43.676  30.226  32.902  1.00  0.00     0.049 A 
ATOM     48  C   UNL A   1      44.022  26.517  28.537  1.00  0.00     0.074 A 
ATOM     49  C   UNL A   1      43.644  31.541  32.478  1.00  0.00     0.029 A 
ATOM     50  N   UNL A   1      44.679  29.630  32.175  1.00  0.00    -0.354 N 
ATOM     51  N   UNL A   1      44.670  27.622  28.296  1.00  0.00    -0.248 NA
ATOM     52  C   UNL A   1      44.120  26.028  29.905  1.00  0.00     0.031 C 
ATOM     53  C   UNL A   1      44.277  31.534  31.198  1.00  0.00     0.029 A 
ATOM     54  C   UNL A   1      44.702  30.230  30.942  1.00  0.00     0.049 A 
ATOM     55  H   UNL A   1      45.272  28.906  32.483  1.00  0.00     0.167 HD
ATOM     56  C   UNL A   1      44.900  28.182  29.546  1.00  0.00     0.074 A 
ATOM     57  C   UNL A   1      44.643  27.106  30.497  1.00  0.00     0.031 C 
ATOM     58  C   UNL A   1      44.993  29.536  29.707  1.00  0.00     0.037 A 
BRANCH  45  59
ATOM     59  C   UNL A   1      43.224  28.372  34.642  1.00  0.00     0.057 A 
ATOM     60  C   UNL A   1      43.729  28.856  35.861  1.00  0.00     0.134 A 
ATOM     61  C   UNL A   1      43.424  26.994  34.417  1.00  0.00     0.134 A 
ATOM     62  F   UNL A   1      43.628  30.155  36.178  1.00  0.00    -0.206 F 
ATOM     63  C   UNL A   1      44.422  28.040  36.762  1.00  0.00     0.040 A 
ATOM     64  C   UNL A   1      44.055  26.157  35.341  1.00  0.00     0.040 A 
ATOM     65  F   UNL A   1      43.115  26.398  33.259  1.00  0.00    -0.206 F 
ATOM     66  C   UNL A   1      44.584  26.685  36.505  1.00  0.00     0.006 A 
ENDBRANCH  45  59
BRANCH  46  67
ATOM     67  C   UNL A   1      43.024  24.637  27.061  1.00  0.00     0.057 A 
ATOM     68  C   UNL A   1      42.521  23.498  27.709  1.00  0.00     0.134 A 
ATOM     69  C   UNL A   1      43.372  24.472  25.710  1.00  0.00     0.134 A 
ATOM     70  F   UNL A   1      42.123  23.562  28.988  1.00  0.00    -0.206 F 
ATOM     71  C   UNL A   1      42.351  22.275  27.046  1.00  0.00     0.040 A 
ATOM     72  C   UNL A   1      43.220  23.253  25.040  1.00  0.00     0.040 A 
ATOM     73  F   UNL A   1      43.784  25.512  24.970  1.00  0.00    -0.206 F 
ATOM     74  C   UNL A   1      42.693  22.152  25.704  1.00  0.00     0.006 A 
ENDBRANCH  46  67
BRANCH  58  75
ATOM     75  C   UNL A   1      45.141  30.380  28.471  1.00  0.00     0.057 A 
ATOM     76  C   UNL A   1      44.061  30.906  27.745  1.00  0.00     0.134 A 
ATOM     77  C   UNL A   1      46.421  30.791  28.083  1.00  0.00     0.134 A 
ATOM     78  F   UNL A   1      42.797  30.658  28.104  1.00  0.00    -0.206 F 
ATOM     79  C   UNL A   1      44.250  31.757  26.652  1.00  0.00     0.040 A 
ATOM     80  C   UNL A   1      46.622  31.669  27.016  1.00  0.00     0.040 A 
ATOM     81  F   UNL A   1      47.500  30.377  28.766  1.00  0.00    -0.206 F 
ATOM     82  C   UNL A   1      45.535  32.146  26.288  1.00  0.00     0.006 A 
ENDBRANCH  58  75
ENDBRANCH  32  33
ENDBRANCH  24  27
ENDBRANCH  22  23
ENDBRANCH  21  22
ENDBRANCH   1  21
TORSDOF 14
ENDMDL
