MODEL 1
REMARK VINA RESULT:     -11.9      0.000      0.000
REMARK SMILES O=C(NCCCNC(=O)[C@@H]1CCCN(C(=O)/C=C/c2c(F)cccc2Cl)C1)c1ccc(-c2c3nc(c(-c4c(F)cccc4F)c4ccc([nH]4)c(-c4c(F)cccc4F)c4nc(c(-c5c(F)cccc5F)c5ccc2[nH]5)C=C4)C=C3)cc1
REMARK SMILES IDX 5 1 4 2 3 3 1 4 2 5 28 7 29 8 81 9 30 10 80 11 31 12 32 13
REMARK SMILES IDX 33 14 74 15 34 16 79 17 73 18 75 19 35 20 78 21 72 22 71 23
REMARK SMILES IDX 36 25 62 26 45 27 61 28 46 29 49 30 60 31 76 32 47 33 48 34
REMARK SMILES IDX 59 36 77 37 50 38 37 39 38 40 43 41 39 42 40 43 42 44 44 45
REMARK SMILES IDX 41 46 63 47 64 48 69 49 65 50 66 51 68 52 70 53 67 54 51 55
REMARK SMILES IDX 52 56 57 57 53 58 54 59 56 60 58 61 55 62 6 63 7 64 8 65
REMARK SMILES IDX 9 67 10 68 11 69 27 70 12 71 14 72 13 73 15 74 16 75 17 76
REMARK SMILES IDX 18 77 19 78 20 79 25 80 21 81 22 82 24 83 26 84 23 85
REMARK H PARENT 3 6 75 24 49 35 7 66
REMARK Flexibility Score: inf
ROOT
ATOM      1  C   UNL A   1      37.312  19.759  24.632  1.00  0.00     0.042 C 
ENDROOT
BRANCH   1   2
ATOM      2  C   UNL A   1      38.439  20.295  25.502  1.00  0.00     0.118 C 
BRANCH   2   3
ATOM      3  N   UNL A   1      39.537  19.347  25.645  1.00  0.00    -0.352 N 
ATOM      4  O   UNL A   1      41.670  18.673  25.926  1.00  0.00    -0.269 OA
ATOM      5  C   UNL A   1      40.836  19.563  26.037  1.00  0.00     0.251 C 
ATOM      6  H   UNL A   1      39.314  18.414  25.428  1.00  0.00     0.163 HD
BRANCH   5   7
ATOM      7  C   UNL A   1      41.229  20.881  26.580  1.00  0.00     0.039 A 
ATOM      8  C   UNL A   1      41.652  21.902  25.726  1.00  0.00     0.014 A 
ATOM      9  C   UNL A   1      41.149  21.105  27.957  1.00  0.00     0.014 A 
ATOM     10  C   UNL A   1      42.136  23.089  26.258  1.00  0.00     0.010 A 
ATOM     11  C   UNL A   1      41.538  22.340  28.482  1.00  0.00     0.010 A 
ATOM     12  C   UNL A   1      42.054  23.334  27.637  1.00  0.00    -0.014 A 
BRANCH  12  13
ATOM     13  C   UNL A   1      42.417  24.679  28.148  1.00  0.00     0.031 A 
ATOM     14  C   UNL A   1      41.381  25.746  28.356  1.00  0.00     0.074 A 
ATOM     15  C   UNL A   1      43.710  24.917  28.444  1.00  0.00     0.049 A 
ATOM     16  N   UNL A   1      41.540  26.966  28.803  1.00  0.00    -0.248 NA
ATOM     17  C   UNL A   1      39.990  25.410  28.014  1.00  0.00     0.031 C 
ATOM     18  C   UNL A   1      44.805  23.956  28.264  1.00  0.00     0.029 A 
ATOM     19  N   UNL A   1      44.325  26.023  28.968  1.00  0.00    -0.354 N 
ATOM     20  C   UNL A   1      40.279  27.549  28.781  1.00  0.00     0.074 A 
ATOM     21  C   UNL A   1      39.366  26.556  28.258  1.00  0.00     0.031 C 
ATOM     22  C   UNL A   1      45.945  24.499  28.711  1.00  0.00     0.029 A 
ATOM     23  C   UNL A   1      45.679  25.865  29.140  1.00  0.00     0.049 A 
ATOM     24  H   UNL A   1      43.844  26.850  29.200  1.00  0.00     0.167 HD
ATOM     25  C   UNL A   1      39.924  28.797  29.169  1.00  0.00     0.037 A 
ATOM     26  C   UNL A   1      46.612  26.733  29.570  1.00  0.00     0.037 A 
ATOM     27  C   UNL A   1      40.840  29.772  29.705  1.00  0.00     0.049 A 
ATOM     28  C   UNL A   1      46.186  28.116  29.963  1.00  0.00     0.074 A 
ATOM     29  C   UNL A   1      40.565  31.047  30.170  1.00  0.00     0.029 A 
ATOM     30  N   UNL A   1      42.208  29.586  29.839  1.00  0.00    -0.354 N 
ATOM     31  N   UNL A   1      44.982  28.635  29.984  1.00  0.00    -0.248 NA
ATOM     32  C   UNL A   1      47.248  29.038  30.388  1.00  0.00     0.031 C 
ATOM     33  C   UNL A   1      41.771  31.651  30.537  1.00  0.00     0.029 A 
ATOM     34  C   UNL A   1      42.793  30.734  30.351  1.00  0.00     0.049 A 
ATOM     35  H   UNL A   1      42.691  28.762  29.605  1.00  0.00     0.167 HD
ATOM     36  C   UNL A   1      45.139  29.936  30.441  1.00  0.00     0.074 A 
ATOM     37  C   UNL A   1      46.550  30.118  30.710  1.00  0.00     0.031 C 
ATOM     38  C   UNL A   1      44.199  30.896  30.615  1.00  0.00     0.037 A 
BRANCH  25  39
ATOM     39  C   UNL A   1      38.485  29.200  29.022  1.00  0.00     0.057 A 
ATOM     40  C   UNL A   1      37.594  29.178  30.101  1.00  0.00     0.134 A 
ATOM     41  C   UNL A   1      38.009  29.702  27.803  1.00  0.00     0.134 A 
ATOM     42  F   UNL A   1      37.982  28.702  31.294  1.00  0.00    -0.206 F 
ATOM     43  C   UNL A   1      36.280  29.634  29.973  1.00  0.00     0.040 A 
ATOM     44  C   UNL A   1      36.705  30.181  27.668  1.00  0.00     0.040 A 
ATOM     45  F   UNL A   1      38.812  29.759  26.730  1.00  0.00    -0.206 F 
ATOM     46  C   UNL A   1      35.835  30.147  28.756  1.00  0.00     0.006 A 
ENDBRANCH  25  39
BRANCH  26  47
ATOM     47  C   UNL A   1      48.039  26.329  29.621  1.00  0.00     0.057 A 
ATOM     48  C   UNL A   1      48.880  26.489  28.516  1.00  0.00     0.134 A 
ATOM     49  C   UNL A   1      48.591  25.757  30.774  1.00  0.00     0.134 A 
ATOM     50  F   UNL A   1      48.406  27.017  27.376  1.00  0.00    -0.206 F 
ATOM     51  C   UNL A   1      50.212  26.073  28.544  1.00  0.00     0.040 A 
ATOM     52  C   UNL A   1      49.929  25.365  30.828  1.00  0.00     0.040 A 
ATOM     53  F   UNL A   1      47.841  25.584  31.872  1.00  0.00    -0.206 F 
ATOM     54  C   UNL A   1      50.740  25.512  29.706  1.00  0.00     0.006 A 
ENDBRANCH  26  47
BRANCH  38  55
ATOM     55  C   UNL A   1      44.670  32.216  31.150  1.00  0.00     0.057 A 
ATOM     56  C   UNL A   1      45.049  33.264  30.302  1.00  0.00     0.134 A 
ATOM     57  C   UNL A   1      44.728  32.446  32.531  1.00  0.00     0.134 A 
ATOM     58  F   UNL A   1      45.032  33.102  28.970  1.00  0.00    -0.206 F 
ATOM     59  C   UNL A   1      45.495  34.486  30.808  1.00  0.00     0.040 A 
ATOM     60  C   UNL A   1      45.144  33.673  33.048  1.00  0.00     0.040 A 
ATOM     61  F   UNL A   1      44.373  31.486  33.398  1.00  0.00    -0.206 F 
ATOM     62  C   UNL A   1      45.538  34.695  32.185  1.00  0.00     0.006 A 
ENDBRANCH  38  55
ENDBRANCH  12  13
ENDBRANCH   5   7
ENDBRANCH   2   3
ENDBRANCH   1   2
BRANCH   1  63
ATOM     63  C   UNL A   1      35.933  20.192  25.100  1.00  0.00     0.117 C 
BRANCH  63  64
ATOM     64  N   UNL A   1      35.765  21.632  25.006  1.00  0.00    -0.356 N 
ATOM     65  C   UNL A   1      34.734  22.357  24.483  1.00  0.00     0.224 C 
ATOM     66  H   UNL A   1      36.506  22.165  25.375  1.00  0.00     0.163 HD
ATOM     67  O   UNL A   1      34.874  23.575  24.377  1.00  0.00    -0.275 OA
BRANCH  65  68
ATOM     68  C   UNL A   1      33.473  21.626  24.042  1.00  0.00     0.098 C 
ATOM     69  C   UNL A   1      32.848  22.244  22.775  1.00  0.00     0.017 C 
ATOM     70  C   UNL A   1      32.465  21.582  25.198  1.00  0.00     0.133 C 
ATOM     71  C   UNL A   1      32.014  23.504  23.044  1.00  0.00     0.022 C 
ATOM     72  N   UNL A   1      31.797  22.867  25.375  1.00  0.00    -0.338 N 
ATOM     73  C   UNL A   1      31.043  23.286  24.201  1.00  0.00     0.120 C 
BRANCH  72  74
ATOM     74  C   UNL A   1      32.035  23.582  26.536  1.00  0.00     0.246 C 
ATOM     75  O   UNL A   1      31.828  23.115  27.658  1.00  0.00    -0.270 OA
BRANCH  74  76
ATOM     76  C   UNL A   1      32.457  25.004  26.471  1.00  0.00     0.072 C 
ATOM     77  C   UNL A   1      31.642  26.054  26.298  1.00  0.00     0.018 C 
BRANCH  77  78
ATOM     78  C   UNL A   1      32.162  27.425  26.211  1.00  0.00     0.029 A 
ATOM     79  C   UNL A   1      31.768  28.367  27.168  1.00  0.00     0.131 A 
ATOM     80  C   UNL A   1      33.050  27.842  25.206  1.00  0.00     0.051 A 
ATOM     81  F   UNL A   1      30.917  28.020  28.146  1.00  0.00    -0.206 F 
ATOM     82  C   UNL A   1      32.242  29.678  27.144  1.00  0.00     0.040 A 
ATOM     83  C   UNL A   1      33.531  29.157  25.177  1.00  0.00     0.021 A 
ATOM     84  Cl  UNL A   1      33.599  26.766  23.966  1.00  0.00    -0.084 Cl
ATOM     85  C   UNL A   1      33.129  30.075  26.148  1.00  0.00     0.005 A 
ENDBRANCH  77  78
ENDBRANCH  74  76
ENDBRANCH  72  74
ENDBRANCH  65  68
ENDBRANCH  63  64
ENDBRANCH   1  63
TORSDOF 13
ENDMDL
MODEL 2
REMARK VINA RESULT:     -11.8      0.233      6.174
REMARK SMILES O=C(NCCCNC(=O)[C@@H]1CCCN(C(=O)/C=C/c2c(F)cccc2Cl)C1)c1ccc(-c2c3nc(c(-c4c(F)cccc4F)c4ccc([nH]4)c(-c4c(F)cccc4F)c4nc(c(-c5c(F)cccc5F)c5ccc2[nH]5)C=C4)C=C3)cc1
REMARK SMILES IDX 5 1 4 2 3 3 1 4 2 5 28 7 29 8 81 9 30 10 80 11 31 12 32 13
REMARK SMILES IDX 33 14 74 15 34 16 79 17 73 18 75 19 35 20 78 21 72 22 71 23
REMARK SMILES IDX 36 25 62 26 45 27 61 28 46 29 49 30 60 31 76 32 47 33 48 34
REMARK SMILES IDX 59 36 77 37 50 38 37 39 38 40 43 41 39 42 40 43 42 44 44 45
REMARK SMILES IDX 41 46 63 47 64 48 69 49 65 50 66 51 68 52 70 53 67 54 51 55
REMARK SMILES IDX 52 56 57 57 53 58 54 59 56 60 58 61 55 62 6 63 7 64 8 65
REMARK SMILES IDX 9 67 10 68 11 69 27 70 12 71 14 72 13 73 15 74 16 75 17 76
REMARK SMILES IDX 18 77 19 78 20 79 25 80 21 81 22 82 24 83 26 84 23 85
REMARK H PARENT 3 6 75 24 49 35 7 66
REMARK Flexibility Score: inf
ROOT
ATOM      1  C   UNL A   1      37.430  19.933  24.634  1.00  0.00     0.042 C 
ENDROOT
BRANCH   1   2
ATOM      2  C   UNL A   1      38.447  20.265  25.716  1.00  0.00     0.118 C 
BRANCH   2   3
ATOM      3  N   UNL A   1      39.586  19.355  25.715  1.00  0.00    -0.352 N 
ATOM      4  O   UNL A   1      41.757  18.753  25.768  1.00  0.00    -0.269 OA
ATOM      5  C   UNL A   1      40.908  19.604  25.995  1.00  0.00     0.251 C 
ATOM      6  H   UNL A   1      39.376  18.424  25.477  1.00  0.00     0.163 HD
BRANCH   5   7
ATOM      7  C   UNL A   1      41.304  20.913  26.558  1.00  0.00     0.039 A 
ATOM      8  C   UNL A   1      41.765  21.933  25.725  1.00  0.00     0.014 A 
ATOM      9  C   UNL A   1      41.188  21.128  27.934  1.00  0.00     0.014 A 
ATOM     10  C   UNL A   1      42.251  23.110  26.278  1.00  0.00     0.010 A 
ATOM     11  C   UNL A   1      41.579  22.354  28.479  1.00  0.00     0.010 A 
ATOM     12  C   UNL A   1      42.133  23.347  27.656  1.00  0.00    -0.014 A 
BRANCH  12  13
ATOM     13  C   UNL A   1      42.500  24.683  28.187  1.00  0.00     0.031 A 
ATOM     14  C   UNL A   1      43.917  25.021  28.549  1.00  0.00     0.074 A 
ATOM     15  C   UNL A   1      41.524  25.603  28.318  1.00  0.00     0.049 A 
ATOM     16  N   UNL A   1      44.397  26.147  29.016  1.00  0.00    -0.248 NA
ATOM     17  C   UNL A   1      44.927  23.966  28.374  1.00  0.00     0.031 C 
ATOM     18  C   UNL A   1      40.107  25.377  28.011  1.00  0.00     0.029 A 
ATOM     19  N   UNL A   1      41.568  26.911  28.725  1.00  0.00    -0.354 N 
ATOM     20  C   UNL A   1      45.757  25.933  29.207  1.00  0.00     0.074 A 
ATOM     21  C   UNL A   1      46.024  24.563  28.824  1.00  0.00     0.031 C 
ATOM     22  C   UNL A   1      39.428  26.516  28.199  1.00  0.00     0.029 A 
ATOM     23  C   UNL A   1      40.341  27.530  28.707  1.00  0.00     0.049 A 
ATOM     24  H   UNL A   1      42.397  27.362  29.003  1.00  0.00     0.167 HD
ATOM     25  C   UNL A   1      46.689  26.806  29.655  1.00  0.00     0.037 A 
ATOM     26  C   UNL A   1      39.984  28.770  29.083  1.00  0.00     0.037 A 
ATOM     27  C   UNL A   1      46.413  28.173  30.018  1.00  0.00     0.049 A 
ATOM     28  C   UNL A   1      41.039  29.701  29.603  1.00  0.00     0.074 A 
ATOM     29  C   UNL A   1      47.302  29.149  30.438  1.00  0.00     0.029 A 
ATOM     30  N   UNL A   1      45.155  28.757  30.012  1.00  0.00    -0.354 N 
ATOM     31  N   UNL A   1      42.328  29.499  29.730  1.00  0.00    -0.248 NA
ATOM     32  C   UNL A   1      40.590  31.030  30.037  1.00  0.00     0.031 C 
ATOM     33  C   UNL A   1      46.576  30.305  30.736  1.00  0.00     0.029 A 
ATOM     34  C   UNL A   1      45.242  30.069  30.451  1.00  0.00     0.049 A 
ATOM     35  H   UNL A   1      44.325  28.306  29.738  1.00  0.00     0.167 HD
ATOM     36  C   UNL A   1      42.847  30.680  30.241  1.00  0.00     0.074 A 
ATOM     37  C   UNL A   1      41.738  31.601  30.375  1.00  0.00     0.031 C 
ATOM     38  C   UNL A   1      44.127  30.973  30.575  1.00  0.00     0.037 A 
BRANCH  25  39
ATOM     39  C   UNL A   1      48.103  26.319  29.799  1.00  0.00     0.057 A 
ATOM     40  C   UNL A   1      49.037  26.436  28.763  1.00  0.00     0.134 A 
ATOM     41  C   UNL A   1      48.557  25.807  31.022  1.00  0.00     0.134 A 
ATOM     42  F   UNL A   1      48.666  26.910  27.564  1.00  0.00    -0.206 F 
ATOM     43  C   UNL A   1      50.369  26.057  28.934  1.00  0.00     0.040 A 
ATOM     44  C   UNL A   1      49.892  25.445  31.213  1.00  0.00     0.040 A 
ATOM     45  F   UNL A   1      47.716  25.675  32.059  1.00  0.00    -0.206 F 
ATOM     46  C   UNL A   1      50.803  25.569  30.166  1.00  0.00     0.006 A 
ENDBRANCH  25  39
BRANCH  26  47
ATOM     47  C   UNL A   1      38.563  29.190  29.009  1.00  0.00     0.057 A 
ATOM     48  C   UNL A   1      38.003  29.657  27.816  1.00  0.00     0.134 A 
ATOM     49  C   UNL A   1      37.734  29.150  30.138  1.00  0.00     0.134 A 
ATOM     50  F   UNL A   1      38.750  29.733  26.703  1.00  0.00    -0.206 F 
ATOM     51  C   UNL A   1      36.678  30.093  27.751  1.00  0.00     0.040 A 
ATOM     52  C   UNL A   1      36.399  29.552  30.080  1.00  0.00     0.040 A 
ATOM     53  F   UNL A   1      38.206  28.704  31.311  1.00  0.00    -0.206 F 
ATOM     54  C   UNL A   1      35.871  30.037  28.887  1.00  0.00     0.006 A 
ENDBRANCH  26  47
BRANCH  38  55
ATOM     55  C   UNL A   1      44.394  32.357  31.088  1.00  0.00     0.057 A 
ATOM     56  C   UNL A   1      44.670  33.424  30.225  1.00  0.00     0.134 A 
ATOM     57  C   UNL A   1      44.357  32.628  32.462  1.00  0.00     0.134 A 
ATOM     58  F   UNL A   1      44.736  33.227  28.899  1.00  0.00    -0.206 F 
ATOM     59  C   UNL A   1      44.927  34.707  30.711  1.00  0.00     0.040 A 
ATOM     60  C   UNL A   1      44.583  33.912  32.958  1.00  0.00     0.040 A 
ATOM     61  F   UNL A   1      44.092  31.652  33.343  1.00  0.00    -0.206 F 
ATOM     62  C   UNL A   1      44.877  34.955  32.081  1.00  0.00     0.006 A 
ENDBRANCH  38  55
ENDBRANCH  12  13
ENDBRANCH   5   7
ENDBRANCH   2   3
ENDBRANCH   1   2
BRANCH   1  63
ATOM     63  C   UNL A   1      36.004  20.290  25.019  1.00  0.00     0.117 C 
BRANCH  63  64
ATOM     64  N   UNL A   1      35.795  21.728  25.013  1.00  0.00    -0.356 N 
ATOM     65  C   UNL A   1      34.737  22.453  24.547  1.00  0.00     0.224 C 
ATOM     66  H   UNL A   1      36.525  22.259  25.405  1.00  0.00     0.163 HD
ATOM     67  O   UNL A   1      34.841  23.678  24.514  1.00  0.00    -0.275 OA
BRANCH  65  68
ATOM     68  C   UNL A   1      33.491  21.713  24.078  1.00  0.00     0.098 C 
ATOM     69  C   UNL A   1      32.884  22.334  22.803  1.00  0.00     0.017 C 
ATOM     70  C   UNL A   1      32.462  21.652  25.215  1.00  0.00     0.133 C 
ATOM     71  C   UNL A   1      32.034  23.585  23.066  1.00  0.00     0.022 C 
ATOM     72  N   UNL A   1      31.779  22.929  25.388  1.00  0.00    -0.338 N 
ATOM     73  C   UNL A   1      31.043  23.350  24.202  1.00  0.00     0.120 C 
BRANCH  72  74
ATOM     74  C   UNL A   1      31.989  23.638  26.558  1.00  0.00     0.246 C 
ATOM     75  O   UNL A   1      31.764  23.162  27.672  1.00  0.00    -0.270 OA
BRANCH  74  76
ATOM     76  C   UNL A   1      32.400  25.064  26.511  1.00  0.00     0.072 C 
ATOM     77  C   UNL A   1      31.619  26.091  26.146  1.00  0.00     0.018 C 
BRANCH  77  78
ATOM     78  C   UNL A   1      32.132  27.467  26.097  1.00  0.00     0.029 A 
ATOM     79  C   UNL A   1      31.842  28.341  27.151  1.00  0.00     0.131 A 
ATOM     80  C   UNL A   1      32.912  27.954  25.035  1.00  0.00     0.051 A 
ATOM     81  F   UNL A   1      31.096  27.926  28.187  1.00  0.00    -0.206 F 
ATOM     82  C   UNL A   1      32.315  29.652  27.166  1.00  0.00     0.040 A 
ATOM     83  C   UNL A   1      33.391  29.270  25.045  1.00  0.00     0.021 A 
ATOM     84  Cl  UNL A   1      33.325  26.965  23.676  1.00  0.00    -0.084 Cl
ATOM     85  C   UNL A   1      33.095  30.119  26.111  1.00  0.00     0.005 A 
ENDBRANCH  77  78
ENDBRANCH  74  76
ENDBRANCH  72  74
ENDBRANCH  65  68
ENDBRANCH  63  64
ENDBRANCH   1  63
TORSDOF 13
ENDMDL
MODEL 3
REMARK VINA RESULT:     -11.6      3.612      8.579
REMARK SMILES O=C(NCCCNC(=O)[C@@H]1CCCN(C(=O)/C=C/c2c(F)cccc2Cl)C1)c1ccc(-c2c3nc(c(-c4c(F)cccc4F)c4ccc([nH]4)c(-c4c(F)cccc4F)c4nc(c(-c5c(F)cccc5F)c5ccc2[nH]5)C=C4)C=C3)cc1
REMARK SMILES IDX 5 1 4 2 3 3 1 4 2 5 28 7 29 8 81 9 30 10 80 11 31 12 32 13
REMARK SMILES IDX 33 14 74 15 34 16 79 17 73 18 75 19 35 20 78 21 72 22 71 23
REMARK SMILES IDX 36 25 62 26 45 27 61 28 46 29 49 30 60 31 76 32 47 33 48 34
REMARK SMILES IDX 59 36 77 37 50 38 37 39 38 40 43 41 39 42 40 43 42 44 44 45
REMARK SMILES IDX 41 46 63 47 64 48 69 49 65 50 66 51 68 52 70 53 67 54 51 55
REMARK SMILES IDX 52 56 57 57 53 58 54 59 56 60 58 61 55 62 6 63 7 64 8 65
REMARK SMILES IDX 9 67 10 68 11 69 27 70 12 71 14 72 13 73 15 74 16 75 17 76
REMARK SMILES IDX 18 77 19 78 20 79 25 80 21 81 22 82 24 83 26 84 23 85
REMARK H PARENT 3 6 75 24 49 35 7 66
REMARK Flexibility Score: inf
ROOT
ATOM      1  C   UNL A   1      31.177  31.351  26.446  1.00  0.00     0.042 C 
ENDROOT
BRANCH   1   2
ATOM      2  C   UNL A   1      32.492  31.998  26.857  1.00  0.00     0.118 C 
BRANCH   2   3
ATOM      3  N   UNL A   1      32.321  33.366  27.326  1.00  0.00    -0.352 N 
ATOM      4  O   UNL A   1      32.677  35.169  28.633  1.00  0.00    -0.269 OA
ATOM      5  C   UNL A   1      33.076  34.087  28.221  1.00  0.00     0.251 C 
ATOM      6  H   UNL A   1      31.551  33.846  26.946  1.00  0.00     0.163 HD
BRANCH   5   7
ATOM      7  C   UNL A   1      34.365  33.543  28.698  1.00  0.00     0.039 A 
ATOM      8  C   UNL A   1      34.419  32.751  29.846  1.00  0.00     0.014 A 
ATOM      9  C   UNL A   1      35.530  33.809  27.972  1.00  0.00     0.014 A 
ATOM     10  C   UNL A   1      35.649  32.352  30.352  1.00  0.00     0.010 A 
ATOM     11  C   UNL A   1      36.756  33.317  28.426  1.00  0.00     0.010 A 
ATOM     12  C   UNL A   1      36.827  32.602  29.631  1.00  0.00    -0.014 A 
BRANCH  12  13
ATOM     13  C   UNL A   1      38.099  32.010  30.112  1.00  0.00     0.031 A 
ATOM     14  C   UNL A   1      38.924  32.677  31.174  1.00  0.00     0.074 A 
ATOM     15  C   UNL A   1      38.491  30.834  29.582  1.00  0.00     0.049 A 
ATOM     16  N   UNL A   1      40.053  32.280  31.705  1.00  0.00    -0.248 NA
ATOM     17  C   UNL A   1      38.428  33.956  31.707  1.00  0.00     0.031 C 
ATOM     18  C   UNL A   1      37.774  30.104  28.531  1.00  0.00     0.029 A 
ATOM     19  N   UNL A   1      39.572  30.038  29.858  1.00  0.00    -0.354 N 
ATOM     20  C   UNL A   1      40.413  33.264  32.619  1.00  0.00     0.074 A 
ATOM     21  C   UNL A   1      39.392  34.287  32.558  1.00  0.00     0.031 C 
ATOM     22  C   UNL A   1      38.410  28.950  28.283  1.00  0.00     0.029 A 
ATOM     23  C   UNL A   1      39.613  28.892  29.101  1.00  0.00     0.049 A 
ATOM     24  H   UNL A   1      40.252  30.264  30.532  1.00  0.00     0.167 HD
ATOM     25  C   UNL A   1      41.494  33.298  33.434  1.00  0.00     0.037 A 
ATOM     26  C   UNL A   1      40.532  27.912  29.050  1.00  0.00     0.037 A 
ATOM     27  C   UNL A   1      42.495  32.263  33.497  1.00  0.00     0.049 A 
ATOM     28  C   UNL A   1      41.732  27.998  29.946  1.00  0.00     0.074 A 
ATOM     29  C   UNL A   1      43.603  32.187  34.326  1.00  0.00     0.029 A 
ATOM     30  N   UNL A   1      42.518  31.131  32.697  1.00  0.00    -0.354 N 
ATOM     31  N   UNL A   1      42.031  28.909  30.840  1.00  0.00    -0.248 NA
ATOM     32  C   UNL A   1      42.726  26.923  29.823  1.00  0.00     0.031 C 
ATOM     33  C   UNL A   1      44.322  31.036  33.992  1.00  0.00     0.029 A 
ATOM     34  C   UNL A   1      43.637  30.366  32.992  1.00  0.00     0.049 A 
ATOM     35  H   UNL A   1      41.841  30.904  32.020  1.00  0.00     0.167 HD
ATOM     36  C   UNL A   1      43.237  28.508  31.399  1.00  0.00     0.074 A 
ATOM     37  C   UNL A   1      43.599  27.260  30.761  1.00  0.00     0.031 C 
ATOM     38  C   UNL A   1      43.980  29.124  32.350  1.00  0.00     0.037 A 
BRANCH  25  39
ATOM     39  C   UNL A   1      41.672  34.496  34.322  1.00  0.00     0.057 A 
ATOM     40  C   UNL A   1      42.306  35.661  33.876  1.00  0.00     0.134 A 
ATOM     41  C   UNL A   1      41.121  34.513  35.610  1.00  0.00     0.134 A 
ATOM     42  F   UNL A   1      42.863  35.709  32.656  1.00  0.00    -0.206 F 
ATOM     43  C   UNL A   1      42.393  36.799  34.681  1.00  0.00     0.040 A 
ATOM     44  C   UNL A   1      41.182  35.651  36.416  1.00  0.00     0.040 A 
ATOM     45  F   UNL A   1      40.492  33.432  36.097  1.00  0.00    -0.206 F 
ATOM     46  C   UNL A   1      41.820  36.799  35.952  1.00  0.00     0.006 A 
ENDBRANCH  25  39
BRANCH  26  47
ATOM     47  C   UNL A   1      40.368  26.785  28.098  1.00  0.00     0.057 A 
ATOM     48  C   UNL A   1      40.941  26.821  26.823  1.00  0.00     0.134 A 
ATOM     49  C   UNL A   1      39.620  25.651  28.437  1.00  0.00     0.134 A 
ATOM     50  F   UNL A   1      41.656  27.888  26.433  1.00  0.00    -0.206 F 
ATOM     51  C   UNL A   1      40.755  25.783  25.908  1.00  0.00     0.040 A 
ATOM     52  C   UNL A   1      39.453  24.591  27.545  1.00  0.00     0.040 A 
ATOM     53  F   UNL A   1      39.053  25.548  29.648  1.00  0.00    -0.206 F 
ATOM     54  C   UNL A   1      40.011  24.661  26.272  1.00  0.00     0.006 A 
ENDBRANCH  26  47
BRANCH  38  55
ATOM     55  C   UNL A   1      45.242  28.434  32.776  1.00  0.00     0.057 A 
ATOM     56  C   UNL A   1      46.475  28.713  32.174  1.00  0.00     0.134 A 
ATOM     57  C   UNL A   1      45.224  27.490  33.811  1.00  0.00     0.134 A 
ATOM     58  F   UNL A   1      46.557  29.595  31.166  1.00  0.00    -0.206 F 
ATOM     59  C   UNL A   1      47.644  28.059  32.569  1.00  0.00     0.040 A 
ATOM     60  C   UNL A   1      46.390  26.852  34.235  1.00  0.00     0.040 A 
ATOM     61  F   UNL A   1      44.077  27.182  34.433  1.00  0.00    -0.206 F 
ATOM     62  C   UNL A   1      47.603  27.130  33.607  1.00  0.00     0.006 A 
ENDBRANCH  38  55
ENDBRANCH  12  13
ENDBRANCH   5   7
ENDBRANCH   2   3
ENDBRANCH   1   2
BRANCH   1  63
ATOM     63  C   UNL A   1      31.324  30.366  25.298  1.00  0.00     0.117 C 
BRANCH  63  64
ATOM     64  N   UNL A   1      31.989  29.147  25.723  1.00  0.00    -0.356 N 
ATOM     65  C   UNL A   1      31.695  27.847  25.432  1.00  0.00     0.224 C 
ATOM     66  H   UNL A   1      32.770  29.278  26.308  1.00  0.00     0.163 HD
ATOM     67  O   UNL A   1      32.313  26.963  26.026  1.00  0.00    -0.275 OA
BRANCH  65  68
ATOM     68  C   UNL A   1      30.612  27.552  24.404  1.00  0.00     0.098 C 
ATOM     69  C   UNL A   1      29.736  26.346  24.801  1.00  0.00     0.017 C 
ATOM     70  C   UNL A   1      31.246  27.351  23.021  1.00  0.00     0.133 C 
ATOM     71  C   UNL A   1      30.380  24.986  24.502  1.00  0.00     0.022 C 
ATOM     72  N   UNL A   1      31.874  26.038  22.906  1.00  0.00    -0.338 N 
ATOM     73  C   UNL A   1      30.934  24.938  23.081  1.00  0.00     0.120 C 
BRANCH  72  74
ATOM     74  C   UNL A   1      33.249  25.972  22.773  1.00  0.00     0.246 C 
ATOM     75  O   UNL A   1      33.880  26.713  22.015  1.00  0.00    -0.270 OA
BRANCH  74  76
ATOM     76  C   UNL A   1      34.024  24.915  23.471  1.00  0.00     0.072 C 
ATOM     77  C   UNL A   1      34.325  23.709  22.971  1.00  0.00     0.018 C 
BRANCH  77  78
ATOM     78  C   UNL A   1      35.068  22.715  23.758  1.00  0.00     0.029 A 
ATOM     79  C   UNL A   1      36.459  22.634  23.618  1.00  0.00     0.131 A 
ATOM     80  C   UNL A   1      34.446  21.833  24.657  1.00  0.00     0.051 A 
ATOM     81  F   UNL A   1      37.100  23.450  22.768  1.00  0.00    -0.206 F 
ATOM     82  C   UNL A   1      37.216  21.721  24.351  1.00  0.00     0.040 A 
ATOM     83  C   UNL A   1      35.202  20.915  25.397  1.00  0.00     0.021 A 
ATOM     84  Cl  UNL A   1      32.733  21.838  24.905  1.00  0.00    -0.084 Cl
ATOM     85  C   UNL A   1      36.587  20.860  25.246  1.00  0.00     0.005 A 
ENDBRANCH  77  78
ENDBRANCH  74  76
ENDBRANCH  72  74
ENDBRANCH  65  68
ENDBRANCH  63  64
ENDBRANCH   1  63
TORSDOF 13
ENDMDL
