MODEL 1
REMARK VINA RESULT:     -12.1      0.000      0.000
REMARK SMILES COc1ccc(-c2ccc(CCC(=O)NCCCNC(=O)c3ccc(-c4c5nc(c(-c6c(F)cccc6F)c6ccc([nH]6)c(-c6c(F)cccc6F)c6nc(c(-c7c(F)cccc7F)c7ccc4[nH]7)C=C6)C=C5)cc3)n2-c2ccc(C(C)=O)cc2)cc1
REMARK SMILES IDX 16 1 15 2 13 3 14 4 12 6 11 7 10 8 7 9 8 10 76 11 9 12 6 13
REMARK SMILES IDX 3 14 4 15 87 16 5 17 86 18 2 19 1 20 77 21 78 22 85 23 79 24
REMARK SMILES IDX 84 25 80 26 81 27 82 28 83 29 17 30 18 31 19 32 20 33 21 35
REMARK SMILES IDX 22 36 23 37 75 38 24 39 74 40 25 41 26 42 27 43 68 44 28 45
REMARK SMILES IDX 73 46 67 47 69 48 29 49 72 50 66 51 65 52 30 54 56 55 39 56
REMARK SMILES IDX 55 57 40 58 43 59 54 60 70 61 41 62 42 63 53 65 71 66 44 67
REMARK SMILES IDX 31 68 32 69 37 70 33 71 34 72 36 73 38 74 35 75 57 76 58 77
REMARK SMILES IDX 63 78 59 79 60 80 62 81 64 82 61 83 45 84 46 85 51 86 47 87
REMARK SMILES IDX 48 88 50 89 52 90 49 91
REMARK H PARENT 15 5 19 34 69 53 43 64
REMARK Flexibility Score: inf
ROOT
ATOM      1  C   UNL A   1      31.635  27.079  26.124  1.00  0.00     0.117 C 
ENDROOT
BRANCH   1   2
ATOM      2  N   UNL A   1      31.463  27.950  24.972  1.00  0.00    -0.356 N 
ATOM      3  C   UNL A   1      32.281  28.144  23.899  1.00  0.00     0.220 C 
ATOM      4  O   UNL A   1      32.001  29.051  23.114  1.00  0.00    -0.275 OA
ATOM      5  H   UNL A   1      30.632  28.478  24.967  1.00  0.00     0.163 HD
BRANCH   3   6
ATOM      6  C   UNL A   1      33.466  27.228  23.656  1.00  0.00     0.106 C 
BRANCH   6   7
ATOM      7  C   UNL A   1      33.197  26.195  22.555  1.00  0.00     0.064 C 
BRANCH   7   8
ATOM      8  C   UNL A   1      32.424  25.005  23.061  1.00  0.00     0.024 A 
ATOM      9  C   UNL A   1      31.998  22.815  23.421  1.00  0.00     0.053 A 
ATOM     10  C   UNL A   1      30.793  23.504  23.449  1.00  0.00     0.029 A 
ATOM     11  N   UNL A   1      33.002  23.787  23.422  1.00  0.00    -0.314 N 
ATOM     12  C   UNL A   1      31.058  24.872  23.223  1.00  0.00     0.024 A 
BRANCH   9  13
ATOM     13  C   UNL A   1      32.192  21.373  23.589  1.00  0.00    -0.001 A 
ATOM     14  C   UNL A   1      32.608  18.616  23.907  1.00  0.00     0.118 A 
ATOM     15  C   UNL A   1      32.372  19.153  22.641  1.00  0.00     0.047 A 
ATOM     16  C   UNL A   1      32.677  19.460  25.013  1.00  0.00     0.047 A 
ATOM     17  C   UNL A   1      32.156  20.524  22.481  1.00  0.00     0.014 A 
ATOM     18  C   UNL A   1      32.467  20.833  24.852  1.00  0.00     0.014 A 
BRANCH  14  19
ATOM     19  O   UNL A   1      32.817  17.266  23.960  1.00  0.00    -0.497 OA
ATOM     20  C   UNL A   1      33.946  16.825  23.211  1.00  0.00     0.278 C 
ENDBRANCH  14  19
ENDBRANCH   9  13
BRANCH  11  21
ATOM     21  C   UNL A   1      34.314  23.623  23.942  1.00  0.00     0.046 A 
ATOM     22  C   UNL A   1      34.486  23.793  25.321  1.00  0.00     0.027 A 
ATOM     23  C   UNL A   1      35.374  23.175  23.157  1.00  0.00     0.027 A 
ATOM     24  C   UNL A   1      35.707  23.486  25.924  1.00  0.00     0.014 A 
ATOM     25  C   UNL A   1      36.602  22.882  23.763  1.00  0.00     0.014 A 
ATOM     26  C   UNL A   1      36.771  23.011  25.154  1.00  0.00     0.017 A 
BRANCH  26  27
ATOM     27  C   UNL A   1      38.086  22.611  25.743  1.00  0.00     0.159 C 
ATOM     28  C   UNL A   1      38.571  21.184  25.668  1.00  0.00     0.093 C 
ATOM     29  O   UNL A   1      38.790  23.471  26.272  1.00  0.00    -0.295 OA
ENDBRANCH  26  27
ENDBRANCH  11  21
ENDBRANCH   7   8
ENDBRANCH   6   7
ENDBRANCH   3   6
ENDBRANCH   1   2
BRANCH   1  30
ATOM     30  C   UNL A   1      31.940  27.881  27.384  1.00  0.00     0.042 C 
BRANCH  30  31
ATOM     31  C   UNL A   1      33.312  28.536  27.363  1.00  0.00     0.118 C 
BRANCH  31  32
ATOM     32  N   UNL A   1      33.244  29.972  27.559  1.00  0.00    -0.352 N 
ATOM     33  C   UNL A   1      34.197  30.841  28.020  1.00  0.00     0.251 C 
ATOM     34  H   UNL A   1      32.381  30.385  27.325  1.00  0.00     0.163 HD
ATOM     35  O   UNL A   1      33.856  32.010  28.242  1.00  0.00    -0.269 OA
BRANCH  33  36
ATOM     36  C   UNL A   1      35.600  30.431  28.278  1.00  0.00     0.039 A 
ATOM     37  C   UNL A   1      35.944  30.083  29.593  1.00  0.00     0.014 A 
ATOM     38  C   UNL A   1      36.596  30.443  27.296  1.00  0.00     0.014 A 
ATOM     39  C   UNL A   1      37.255  29.736  29.910  1.00  0.00     0.010 A 
ATOM     40  C   UNL A   1      37.892  30.045  27.592  1.00  0.00     0.010 A 
ATOM     41  C   UNL A   1      38.226  29.716  28.905  1.00  0.00    -0.014 A 
BRANCH  41  42
ATOM     42  C   UNL A   1      39.625  29.376  29.237  1.00  0.00     0.031 A 
ATOM     43  C   UNL A   1      40.404  30.528  29.840  1.00  0.00     0.074 A 
ATOM     44  C   UNL A   1      40.021  28.105  28.948  1.00  0.00     0.049 A 
ATOM     45  N   UNL A   1      41.659  30.829  29.707  1.00  0.00    -0.248 NA
ATOM     46  C   UNL A   1      39.669  31.549  30.627  1.00  0.00     0.031 C 
ATOM     47  C   UNL A   1      39.126  27.091  28.360  1.00  0.00     0.029 A 
ATOM     48  N   UNL A   1      41.203  27.402  29.069  1.00  0.00    -0.354 N 
ATOM     49  C   UNL A   1      41.902  31.962  30.502  1.00  0.00     0.074 A 
ATOM     50  C   UNL A   1      40.619  32.433  30.941  1.00  0.00     0.031 C 
ATOM     51  C   UNL A   1      39.788  25.945  28.132  1.00  0.00     0.029 A 
ATOM     52  C   UNL A   1      41.169  26.085  28.550  1.00  0.00     0.049 A 
ATOM     53  H   UNL A   1      42.010  27.787  29.484  1.00  0.00     0.167 HD
ATOM     54  C   UNL A   1      43.154  32.367  30.863  1.00  0.00     0.037 A 
ATOM     55  C   UNL A   1      42.176  25.174  28.396  1.00  0.00     0.037 A 
ATOM     56  C   UNL A   1      44.144  31.481  30.345  1.00  0.00     0.049 A 
ATOM     57  C   UNL A   1      43.404  25.814  28.903  1.00  0.00     0.074 A 
ATOM     58  C   UNL A   1      44.669  31.261  29.098  1.00  0.00     0.029 A 
ATOM     59  N   UNL A   1      44.531  30.451  31.167  1.00  0.00    -0.354 N 
ATOM     60  N   UNL A   1      43.698  25.998  30.155  1.00  0.00    -0.248 NA
ATOM     61  C   UNL A   1      44.336  26.404  27.932  1.00  0.00     0.031 C 
ATOM     62  C   UNL A   1      45.055  29.899  29.107  1.00  0.00     0.029 A 
ATOM     63  C   UNL A   1      44.809  29.364  30.375  1.00  0.00     0.049 A 
ATOM     64  H   UNL A   1      44.597  30.486  32.149  1.00  0.00     0.167 HD
ATOM     65  C   UNL A   1      44.658  26.986  30.102  1.00  0.00     0.074 A 
ATOM     66  C   UNL A   1      45.204  26.967  28.767  1.00  0.00     0.031 C 
ATOM     67  C   UNL A   1      44.581  28.050  30.939  1.00  0.00     0.037 A 
BRANCH  54  68
ATOM     68  C   UNL A   1      43.604  33.382  31.876  1.00  0.00     0.057 A 
ATOM     69  C   UNL A   1      44.321  34.513  31.423  1.00  0.00     0.134 A 
ATOM     70  C   UNL A   1      43.635  33.155  33.256  1.00  0.00     0.134 A 
ATOM     71  F   UNL A   1      44.343  34.841  30.121  1.00  0.00    -0.206 F 
ATOM     72  C   UNL A   1      45.095  35.306  32.274  1.00  0.00     0.040 A 
ATOM     73  C   UNL A   1      44.371  33.973  34.125  1.00  0.00     0.040 A 
ATOM     74  F   UNL A   1      43.037  32.089  33.803  1.00  0.00    -0.206 F 
ATOM     75  C   UNL A   1      45.131  35.029  33.632  1.00  0.00     0.006 A 
ENDBRANCH  54  68
BRANCH  55  76
ATOM     76  C   UNL A   1      42.304  23.826  27.724  1.00  0.00     0.057 A 
ATOM     77  C   UNL A   1      42.390  22.589  28.375  1.00  0.00     0.134 A 
ATOM     78  C   UNL A   1      42.332  23.722  26.310  1.00  0.00     0.134 A 
ATOM     79  F   UNL A   1      42.589  22.501  29.694  1.00  0.00    -0.206 F 
ATOM     80  C   UNL A   1      42.338  21.360  27.690  1.00  0.00     0.040 A 
ATOM     81  C   UNL A   1      42.280  22.509  25.612  1.00  0.00     0.040 A 
ATOM     82  F   UNL A   1      42.423  24.800  25.520  1.00  0.00    -0.206 F 
ATOM     83  C   UNL A   1      42.251  21.316  26.306  1.00  0.00     0.006 A 
ENDBRANCH  55  76
BRANCH  67  84
ATOM     84  C   UNL A   1      43.818  27.758  32.211  1.00  0.00     0.057 A 
ATOM     85  C   UNL A   1      44.392  26.972  33.216  1.00  0.00     0.134 A 
ATOM     86  C   UNL A   1      42.478  28.120  32.406  1.00  0.00     0.134 A 
ATOM     87  F   UNL A   1      45.668  26.574  33.115  1.00  0.00    -0.206 F 
ATOM     88  C   UNL A   1      43.666  26.564  34.344  1.00  0.00     0.040 A 
ATOM     89  C   UNL A   1      41.743  27.737  33.532  1.00  0.00     0.040 A 
ATOM     90  F   UNL A   1      41.831  28.842  31.493  1.00  0.00    -0.206 F 
ATOM     91  C   UNL A   1      42.336  26.945  34.504  1.00  0.00     0.006 A 
ENDBRANCH  67  84
ENDBRANCH  41  42
ENDBRANCH  33  36
ENDBRANCH  31  32
ENDBRANCH  30  31
ENDBRANCH   1  30
TORSDOF 16
ENDMDL
MODEL 2
REMARK VINA RESULT:     -11.8      3.156      7.438
REMARK SMILES COc1ccc(-c2ccc(CCC(=O)NCCCNC(=O)c3ccc(-c4c5nc(c(-c6c(F)cccc6F)c6ccc([nH]6)c(-c6c(F)cccc6F)c6nc(c(-c7c(F)cccc7F)c7ccc4[nH]7)C=C6)C=C5)cc3)n2-c2ccc(C(C)=O)cc2)cc1
REMARK SMILES IDX 16 1 15 2 13 3 14 4 12 6 11 7 10 8 7 9 8 10 76 11 9 12 6 13
REMARK SMILES IDX 3 14 4 15 87 16 5 17 86 18 2 19 1 20 77 21 78 22 85 23 79 24
REMARK SMILES IDX 84 25 80 26 81 27 82 28 83 29 17 30 18 31 19 32 20 33 21 35
REMARK SMILES IDX 22 36 23 37 75 38 24 39 74 40 25 41 26 42 27 43 68 44 28 45
REMARK SMILES IDX 73 46 67 47 69 48 29 49 72 50 66 51 65 52 30 54 56 55 39 56
REMARK SMILES IDX 55 57 40 58 43 59 54 60 70 61 41 62 42 63 53 65 71 66 44 67
REMARK SMILES IDX 31 68 32 69 37 70 33 71 34 72 36 73 38 74 35 75 57 76 58 77
REMARK SMILES IDX 63 78 59 79 60 80 62 81 64 82 61 83 45 84 46 85 51 86 47 87
REMARK SMILES IDX 48 88 50 89 52 90 49 91
REMARK H PARENT 15 5 19 34 69 53 43 64
REMARK Flexibility Score: inf
ROOT
ATOM      1  C   UNL A   1      36.528  21.014  24.875  1.00  0.00     0.117 C 
ENDROOT
BRANCH   1   2
ATOM      2  N   UNL A   1      35.448  20.715  25.802  1.00  0.00    -0.356 N 
ATOM      3  C   UNL A   1      34.532  21.550  26.368  1.00  0.00     0.220 C 
ATOM      4  O   UNL A   1      33.799  21.095  27.249  1.00  0.00    -0.275 OA
ATOM      5  H   UNL A   1      35.367  19.767  26.059  1.00  0.00     0.163 HD
BRANCH   3   6
ATOM      6  C   UNL A   1      34.385  22.979  25.881  1.00  0.00     0.106 C 
BRANCH   6   7
ATOM      7  C   UNL A   1      33.019  23.584  26.229  1.00  0.00     0.064 C 
BRANCH   7   8
ATOM      8  C   UNL A   1      32.312  24.138  25.018  1.00  0.00     0.024 A 
ATOM      9  C   UNL A   1      30.861  25.453  23.892  1.00  0.00     0.053 A 
ATOM     10  C   UNL A   1      31.113  24.323  23.124  1.00  0.00     0.029 A 
ATOM     11  N   UNL A   1      31.790  25.430  24.935  1.00  0.00    -0.314 N 
ATOM     12  C   UNL A   1      32.018  23.501  23.828  1.00  0.00     0.024 A 
BRANCH   9  13
ATOM     13  C   UNL A   1      29.966  26.562  23.557  1.00  0.00    -0.001 A 
ATOM     14  C   UNL A   1      28.262  28.710  22.956  1.00  0.00     0.118 A 
ATOM     15  C   UNL A   1      27.789  27.615  23.678  1.00  0.00     0.047 A 
ATOM     16  C   UNL A   1      29.599  28.755  22.566  1.00  0.00     0.047 A 
ATOM     17  C   UNL A   1      28.632  26.540  23.972  1.00  0.00     0.014 A 
ATOM     18  C   UNL A   1      30.445  27.683  22.866  1.00  0.00     0.014 A 
BRANCH  14  19
ATOM     19  O   UNL A   1      27.364  29.715  22.726  1.00  0.00    -0.497 OA
ATOM     20  C   UNL A   1      27.625  30.904  23.466  1.00  0.00     0.278 C 
ENDBRANCH  14  19
ENDBRANCH   9  13
BRANCH  11  21
ATOM     21  C   UNL A   1      32.300  26.567  25.616  1.00  0.00     0.046 A 
ATOM     22  C   UNL A   1      33.390  27.228  25.040  1.00  0.00     0.027 A 
ATOM     23  C   UNL A   1      31.672  27.103  26.739  1.00  0.00     0.027 A 
ATOM     24  C   UNL A   1      33.836  28.444  25.561  1.00  0.00     0.014 A 
ATOM     25  C   UNL A   1      32.132  28.315  27.269  1.00  0.00     0.014 A 
ATOM     26  C   UNL A   1      33.200  29.008  26.670  1.00  0.00     0.017 A 
BRANCH  26  27
ATOM     27  C   UNL A   1      33.591  30.331  27.245  1.00  0.00     0.159 C 
ATOM     28  C   UNL A   1      34.964  30.550  27.834  1.00  0.00     0.093 C 
ATOM     29  O   UNL A   1      32.783  31.260  27.212  1.00  0.00    -0.295 OA
ENDBRANCH  26  27
ENDBRANCH  11  21
ENDBRANCH   7   8
ENDBRANCH   6   7
ENDBRANCH   3   6
ENDBRANCH   1   2
BRANCH   1  30
ATOM     30  C   UNL A   1      37.643  19.979  24.973  1.00  0.00     0.042 C 
BRANCH  30  31
ATOM     31  C   UNL A   1      38.832  20.451  25.795  1.00  0.00     0.118 C 
BRANCH  31  32
ATOM     32  N   UNL A   1      39.878  19.449  25.882  1.00  0.00    -0.352 N 
ATOM     33  C   UNL A   1      41.224  19.600  26.085  1.00  0.00     0.251 C 
ATOM     34  H   UNL A   1      39.575  18.518  25.778  1.00  0.00     0.163 HD
ATOM     35  O   UNL A   1      41.944  18.599  25.973  1.00  0.00    -0.269 OA
BRANCH  33  36
ATOM     36  C   UNL A   1      41.844  20.909  26.412  1.00  0.00     0.039 A 
ATOM     37  C   UNL A   1      42.132  21.174  27.759  1.00  0.00     0.014 A 
ATOM     38  C   UNL A   1      42.085  21.903  25.458  1.00  0.00     0.014 A 
ATOM     39  C   UNL A   1      42.670  22.401  28.137  1.00  0.00     0.010 A 
ATOM     40  C   UNL A   1      42.672  23.108  25.818  1.00  0.00     0.010 A 
ATOM     41  C   UNL A   1      42.941  23.366  27.162  1.00  0.00    -0.014 A 
BRANCH  41  42
ATOM     42  C   UNL A   1      43.486  24.681  27.555  1.00  0.00     0.031 A 
ATOM     43  C   UNL A   1      42.422  25.686  27.952  1.00  0.00     0.074 A 
ATOM     44  C   UNL A   1      44.840  24.816  27.494  1.00  0.00     0.049 A 
ATOM     45  N   UNL A   1      42.400  26.971  27.776  1.00  0.00    -0.248 NA
ATOM     46  C   UNL A   1      41.158  25.184  28.546  1.00  0.00     0.031 C 
ATOM     47  C   UNL A   1      45.745  23.725  27.087  1.00  0.00     0.029 A 
ATOM     48  N   UNL A   1      45.729  25.843  27.742  1.00  0.00    -0.354 N 
ATOM     49  C   UNL A   1      41.216  27.450  28.363  1.00  0.00     0.074 A 
ATOM     50  C   UNL A   1      40.435  26.296  28.706  1.00  0.00     0.031 C 
ATOM     51  C   UNL A   1      47.020  24.146  27.066  1.00  0.00     0.029 A 
ATOM     52  C   UNL A   1      47.083  25.539  27.460  1.00  0.00     0.049 A 
ATOM     53  H   UNL A   1      45.444  26.719  28.088  1.00  0.00     0.167 HD
ATOM     54  C   UNL A   1      41.008  28.767  28.655  1.00  0.00     0.037 A 
ATOM     55  C   UNL A   1      48.186  26.346  27.473  1.00  0.00     0.037 A 
ATOM     56  C   UNL A   1      42.146  29.552  28.304  1.00  0.00     0.049 A 
ATOM     57  C   UNL A   1      47.721  27.689  27.868  1.00  0.00     0.074 A 
ATOM     58  C   UNL A   1      42.676  29.988  27.118  1.00  0.00     0.029 A 
ATOM     59  N   UNL A   1      43.074  29.756  29.296  1.00  0.00    -0.354 N 
ATOM     60  N   UNL A   1      47.385  28.048  29.071  1.00  0.00    -0.248 NA
ATOM     61  C   UNL A   1      47.501  28.689  26.814  1.00  0.00     0.031 C 
ATOM     62  C   UNL A   1      44.064  30.103  27.366  1.00  0.00     0.029 A 
ATOM     63  C   UNL A   1      44.315  29.796  28.706  1.00  0.00     0.049 A 
ATOM     64  H   UNL A   1      42.885  29.855  30.257  1.00  0.00     0.167 HD
ATOM     65  C   UNL A   1      46.629  29.180  28.851  1.00  0.00     0.074 A 
ATOM     66  C   UNL A   1      46.983  29.673  27.543  1.00  0.00     0.031 C 
ATOM     67  C   UNL A   1      45.442  29.334  29.489  1.00  0.00     0.037 A 
BRANCH  54  68
ATOM     68  C   UNL A   1      39.942  29.434  29.478  1.00  0.00     0.057 A 
ATOM     69  C   UNL A   1      38.929  30.160  28.809  1.00  0.00     0.134 A 
ATOM     70  C   UNL A   1      40.033  29.648  30.858  1.00  0.00     0.134 A 
ATOM     71  F   UNL A   1      38.736  30.016  27.487  1.00  0.00    -0.206 F 
ATOM     72  C   UNL A   1      38.128  31.106  29.452  1.00  0.00     0.040 A 
ATOM     73  C   UNL A   1      39.201  30.561  31.522  1.00  0.00     0.040 A 
ATOM     74  F   UNL A   1      40.982  29.059  31.596  1.00  0.00    -0.206 F 
ATOM     75  C   UNL A   1      38.271  31.318  30.815  1.00  0.00     0.006 A 
ENDBRANCH  54  68
BRANCH  55  76
ATOM     76  C   UNL A   1      49.628  26.192  27.047  1.00  0.00     0.057 A 
ATOM     77  C   UNL A   1      50.722  26.010  27.902  1.00  0.00     0.134 A 
ATOM     78  C   UNL A   1      49.983  26.208  25.674  1.00  0.00     0.134 A 
ATOM     79  F   UNL A   1      50.616  26.175  29.225  1.00  0.00    -0.206 F 
ATOM     80  C   UNL A   1      52.015  25.705  27.435  1.00  0.00     0.040 A 
ATOM     81  C   UNL A   1      51.262  25.906  25.191  1.00  0.00     0.040 A 
ATOM     82  F   UNL A   1      49.102  26.530  24.717  1.00  0.00    -0.206 F 
ATOM     83  C   UNL A   1      52.282  25.621  26.076  1.00  0.00     0.006 A 
ENDBRANCH  55  76
BRANCH  67  84
ATOM     84  C   UNL A   1      45.356  28.566  30.788  1.00  0.00     0.057 A 
ATOM     85  C   UNL A   1      46.028  29.023  31.928  1.00  0.00     0.134 A 
ATOM     86  C   UNL A   1      44.738  27.312  30.903  1.00  0.00     0.134 A 
ATOM     87  F   UNL A   1      46.652  30.210  31.912  1.00  0.00    -0.206 F 
ATOM     88  C   UNL A   1      46.088  28.268  33.107  1.00  0.00     0.040 A 
ATOM     89  C   UNL A   1      44.773  26.552  32.076  1.00  0.00     0.040 A 
ATOM     90  F   UNL A   1      44.099  26.774  29.867  1.00  0.00    -0.206 F 
ATOM     91  C   UNL A   1      45.460  27.027  33.184  1.00  0.00     0.006 A 
ENDBRANCH  67  84
ENDBRANCH  41  42
ENDBRANCH  33  36
ENDBRANCH  31  32
ENDBRANCH  30  31
ENDBRANCH   1  30
TORSDOF 16
ENDMDL
MODEL 3
REMARK VINA RESULT:     -11.8      0.800      3.288
REMARK SMILES COc1ccc(-c2ccc(CCC(=O)NCCCNC(=O)c3ccc(-c4c5nc(c(-c6c(F)cccc6F)c6ccc([nH]6)c(-c6c(F)cccc6F)c6nc(c(-c7c(F)cccc7F)c7ccc4[nH]7)C=C6)C=C5)cc3)n2-c2ccc(C(C)=O)cc2)cc1
REMARK SMILES IDX 16 1 15 2 13 3 14 4 12 6 11 7 10 8 7 9 8 10 76 11 9 12 6 13
REMARK SMILES IDX 3 14 4 15 87 16 5 17 86 18 2 19 1 20 77 21 78 22 85 23 79 24
REMARK SMILES IDX 84 25 80 26 81 27 82 28 83 29 17 30 18 31 19 32 20 33 21 35
REMARK SMILES IDX 22 36 23 37 75 38 24 39 74 40 25 41 26 42 27 43 68 44 28 45
REMARK SMILES IDX 73 46 67 47 69 48 29 49 72 50 66 51 65 52 30 54 56 55 39 56
REMARK SMILES IDX 55 57 40 58 43 59 54 60 70 61 41 62 42 63 53 65 71 66 44 67
REMARK SMILES IDX 31 68 32 69 37 70 33 71 34 72 36 73 38 74 35 75 57 76 58 77
REMARK SMILES IDX 63 78 59 79 60 80 62 81 64 82 61 83 45 84 46 85 51 86 47 87
REMARK SMILES IDX 48 88 50 89 52 90 49 91
REMARK H PARENT 15 5 19 34 69 53 43 64
REMARK Flexibility Score: inf
ROOT
ATOM      1  C   UNL A   1      32.021  26.898  25.913  1.00  0.00     0.117 C 
ENDROOT
BRANCH   1   2
ATOM      2  N   UNL A   1      30.928  27.452  25.128  1.00  0.00    -0.356 N 
ATOM      3  C   UNL A   1      29.987  26.813  24.377  1.00  0.00     0.220 C 
ATOM      4  O   UNL A   1      29.246  27.500  23.671  1.00  0.00    -0.275 OA
ATOM      5  H   UNL A   1      30.859  28.434  25.141  1.00  0.00     0.163 HD
BRANCH   3   6
ATOM      6  C   UNL A   1      29.824  25.308  24.459  1.00  0.00     0.106 C 
BRANCH   6   7
ATOM      7  C   UNL A   1      30.335  24.589  23.204  1.00  0.00     0.064 C 
BRANCH   7   8
ATOM      8  C   UNL A   1      31.827  24.725  23.032  1.00  0.00     0.024 A 
ATOM      9  C   UNL A   1      34.003  24.494  23.593  1.00  0.00     0.053 A 
ATOM     10  C   UNL A   1      33.889  25.567  22.720  1.00  0.00     0.029 A 
ATOM     11  N   UNL A   1      32.764  23.847  23.579  1.00  0.00    -0.314 N 
ATOM     12  C   UNL A   1      32.529  25.713  22.370  1.00  0.00     0.024 A 
BRANCH   9  13
ATOM     13  C   UNL A   1      35.228  23.998  24.223  1.00  0.00    -0.001 A 
ATOM     14  C   UNL A   1      37.553  23.012  25.447  1.00  0.00     0.118 A 
ATOM     15  C   UNL A   1      36.737  23.923  26.115  1.00  0.00     0.047 A 
ATOM     16  C   UNL A   1      37.191  22.559  24.180  1.00  0.00     0.047 A 
ATOM     17  C   UNL A   1      35.583  24.422  25.505  1.00  0.00     0.014 A 
ATOM     18  C   UNL A   1      36.033  23.053  23.572  1.00  0.00     0.014 A 
BRANCH  14  19
ATOM     19  O   UNL A   1      38.654  22.575  26.130  1.00  0.00    -0.497 OA
ATOM     20  C   UNL A   1      39.078  21.264  25.766  1.00  0.00     0.278 C 
ENDBRANCH  14  19
ENDBRANCH   9  13
BRANCH  11  21
ATOM     21  C   UNL A   1      32.547  22.467  23.833  1.00  0.00     0.046 A 
ATOM     22  C   UNL A   1      32.420  21.620  22.726  1.00  0.00     0.027 A 
ATOM     23  C   UNL A   1      32.592  21.932  25.119  1.00  0.00     0.027 A 
ATOM     24  C   UNL A   1      32.372  20.236  22.897  1.00  0.00     0.014 A 
ATOM     25  C   UNL A   1      32.528  20.543  25.287  1.00  0.00     0.014 A 
ATOM     26  C   UNL A   1      32.443  19.683  24.178  1.00  0.00     0.017 A 
BRANCH  26  27
ATOM     27  C   UNL A   1      32.452  18.209  24.428  1.00  0.00     0.159 C 
ATOM     28  C   UNL A   1      32.940  17.244  23.375  1.00  0.00     0.093 C 
ATOM     29  O   UNL A   1      32.078  17.785  25.522  1.00  0.00    -0.295 OA
ENDBRANCH  26  27
ENDBRANCH  11  21
ENDBRANCH   7   8
ENDBRANCH   6   7
ENDBRANCH   3   6
ENDBRANCH   1   2
BRANCH   1  30
ATOM     30  C   UNL A   1      32.275  27.726  27.167  1.00  0.00     0.042 C 
BRANCH  30  31
ATOM     31  C   UNL A   1      33.597  28.477  27.134  1.00  0.00     0.118 C 
BRANCH  31  32
ATOM     32  N   UNL A   1      33.433  29.899  27.376  1.00  0.00    -0.352 N 
ATOM     33  C   UNL A   1      34.273  30.786  27.993  1.00  0.00     0.251 C 
ATOM     34  H   UNL A   1      32.590  30.284  27.045  1.00  0.00     0.163 HD
ATOM     35  O   UNL A   1      33.849  31.929  28.214  1.00  0.00    -0.269 OA
BRANCH  33  36
ATOM     36  C   UNL A   1      35.648  30.427  28.421  1.00  0.00     0.039 A 
ATOM     37  C   UNL A   1      36.704  30.747  27.555  1.00  0.00     0.014 A 
ATOM     38  C   UNL A   1      35.926  29.729  29.601  1.00  0.00     0.014 A 
ATOM     39  C   UNL A   1      38.012  30.394  27.876  1.00  0.00     0.010 A 
ATOM     40  C   UNL A   1      37.232  29.422  29.955  1.00  0.00     0.010 A 
ATOM     41  C   UNL A   1      38.272  29.732  29.079  1.00  0.00    -0.014 A 
BRANCH  41  42
ATOM     42  C   UNL A   1      39.653  29.329  29.416  1.00  0.00     0.031 A 
ATOM     43  C   UNL A   1      40.436  30.398  30.152  1.00  0.00     0.074 A 
ATOM     44  C   UNL A   1      40.032  28.083  29.014  1.00  0.00     0.049 A 
ATOM     45  N   UNL A   1      41.701  30.681  30.086  1.00  0.00    -0.248 NA
ATOM     46  C   UNL A   1      39.698  31.352  31.015  1.00  0.00     0.031 C 
ATOM     47  C   UNL A   1      39.135  27.153  28.304  1.00  0.00     0.029 A 
ATOM     48  N   UNL A   1      41.195  27.345  29.099  1.00  0.00    -0.354 N 
ATOM     49  C   UNL A   1      41.941  31.724  30.996  1.00  0.00     0.074 A 
ATOM     50  C   UNL A   1      40.655  32.179  31.442  1.00  0.00     0.031 C 
ATOM     51  C   UNL A   1      39.781  26.020  27.982  1.00  0.00     0.029 A 
ATOM     52  C   UNL A   1      41.151  26.086  28.452  1.00  0.00     0.049 A 
ATOM     53  H   UNL A   1      41.996  27.668  29.573  1.00  0.00     0.167 HD
ATOM     54  C   UNL A   1      43.189  32.063  31.432  1.00  0.00     0.037 A 
ATOM     55  C   UNL A   1      42.143  25.171  28.238  1.00  0.00     0.037 A 
ATOM     56  C   UNL A   1      44.177  31.209  30.857  1.00  0.00     0.049 A 
ATOM     57  C   UNL A   1      43.368  25.730  28.841  1.00  0.00     0.074 A 
ATOM     58  C   UNL A   1      44.736  31.100  29.610  1.00  0.00     0.029 A 
ATOM     59  N   UNL A   1      44.517  30.095  31.585  1.00  0.00    -0.354 N 
ATOM     60  N   UNL A   1      43.626  25.783  30.113  1.00  0.00    -0.248 NA
ATOM     61  C   UNL A   1      44.341  26.390  27.960  1.00  0.00     0.031 C 
ATOM     62  C   UNL A   1      45.093  29.736  29.495  1.00  0.00     0.029 A 
ATOM     63  C   UNL A   1      44.798  29.084  30.697  1.00  0.00     0.049 A 
ATOM     64  H   UNL A   1      44.553  30.031  32.566  1.00  0.00     0.167 HD
ATOM     65  C   UNL A   1      44.607  26.749  30.185  1.00  0.00     0.074 A 
ATOM     66  C   UNL A   1      45.193  26.849  28.871  1.00  0.00     0.031 C 
ATOM     67  C   UNL A   1      44.525  27.727  31.121  1.00  0.00     0.037 A 
BRANCH  54  68
ATOM     68  C   UNL A   1      43.628  32.962  32.553  1.00  0.00     0.057 A 
ATOM     69  C   UNL A   1      43.327  32.580  33.880  1.00  0.00     0.134 A 
ATOM     70  C   UNL A   1      44.042  34.288  32.381  1.00  0.00     0.134 A 
ATOM     71  F   UNL A   1      42.940  31.326  34.167  1.00  0.00    -0.206 F 
ATOM     72  C   UNL A   1      43.344  33.481  34.948  1.00  0.00     0.040 A 
ATOM     73  C   UNL A   1      44.108  35.188  33.453  1.00  0.00     0.040 A 
ATOM     74  F   UNL A   1      44.307  34.785  31.166  1.00  0.00    -0.206 F 
ATOM     75  C   UNL A   1      43.726  34.797  34.733  1.00  0.00     0.006 A 
ENDBRANCH  54  68
BRANCH  55  76
ATOM     76  C   UNL A   1      42.265  23.894  27.439  1.00  0.00     0.057 A 
ATOM     77  C   UNL A   1      42.368  23.803  26.045  1.00  0.00     0.134 A 
ATOM     78  C   UNL A   1      42.300  22.634  28.090  1.00  0.00     0.134 A 
ATOM     79  F   UNL A   1      42.146  24.858  25.254  1.00  0.00    -0.206 F 
ATOM     80  C   UNL A   1      42.647  22.596  25.376  1.00  0.00     0.040 A 
ATOM     81  C   UNL A   1      42.577  21.424  27.441  1.00  0.00     0.040 A 
ATOM     82  F   UNL A   1      42.054  22.505  29.400  1.00  0.00    -0.206 F 
ATOM     83  C   UNL A   1      42.784  21.406  26.077  1.00  0.00     0.006 A 
ENDBRANCH  55  76
BRANCH  67  84
ATOM     84  C   UNL A   1      43.718  27.329  32.335  1.00  0.00     0.057 A 
ATOM     85  C   UNL A   1      42.434  27.849  32.534  1.00  0.00     0.134 A 
ATOM     86  C   UNL A   1      44.233  26.553  33.382  1.00  0.00     0.134 A 
ATOM     87  F   UNL A   1      41.859  28.608  31.588  1.00  0.00    -0.206 F 
ATOM     88  C   UNL A   1      41.713  27.616  33.713  1.00  0.00     0.040 A 
ATOM     89  C   UNL A   1      43.523  26.294  34.559  1.00  0.00     0.040 A 
ATOM     90  F   UNL A   1      45.458  26.037  33.305  1.00  0.00    -0.206 F 
ATOM     91  C   UNL A   1      42.258  26.838  34.732  1.00  0.00     0.006 A 
ENDBRANCH  67  84
ENDBRANCH  41  42
ENDBRANCH  33  36
ENDBRANCH  31  32
ENDBRANCH  30  31
ENDBRANCH   1  30
TORSDOF 16
ENDMDL
