MODEL 1
REMARK VINA RESULT:     -10.6      0.000      0.000
REMARK SMILES O=C(NCCCNC(=O)c1ccccc1NCCCO)c1ccc(-c2c3nc(c(-c4c(F)cccc4F)c4ccc([nH]4)c(-c4c(F)cccc4F)c4nc(c(-c5c(F)cccc5F)c5ccc2[nH]5)C=C4)C=C3)cc1
REMARK SMILES IDX 7 1 8 2 9 3 6 5 5 6 4 7 3 8 1 9 2 10 21 12 22 13 74 14 23 15
REMARK SMILES IDX 73 16 24 17 25 18 26 19 67 20 27 21 72 22 66 23 68 24 28 25
REMARK SMILES IDX 71 26 65 27 64 28 29 30 55 31 38 32 54 33 39 34 42 35 53 36
REMARK SMILES IDX 69 37 40 38 41 39 52 41 70 42 43 43 30 44 31 45 36 46 32 47
REMARK SMILES IDX 33 48 35 49 37 50 34 51 56 52 57 53 62 54 58 55 59 56 61 57
REMARK SMILES IDX 63 58 60 59 44 60 45 61 50 62 46 63 47 64 49 65 51 66 48 67
REMARK SMILES IDX 10 68 11 69 15 70 12 71 14 72 13 73 16 74 17 76 18 77 19 78
REMARK SMILES IDX 20 79
REMARK H PARENT 7 4 3 11 68 29 42 40 16 75 20 80
REMARK Flexibility Score: inf
ROOT
ATOM      1  N   UNL A   1      35.728  20.884  25.806  1.00  0.00    -0.352 N 
ATOM      2  C   UNL A   1      34.443  21.360  25.889  1.00  0.00     0.253 C 
ATOM      3  O   UNL A   1      33.831  21.279  26.950  1.00  0.00    -0.269 OA
ATOM      4  H   UNL A   1      36.100  20.499  26.633  1.00  0.00     0.163 HD
ENDROOT
BRANCH   1   5
ATOM      5  C   UNL A   1      36.602  20.877  24.649  1.00  0.00     0.118 C 
BRANCH   5   6
ATOM      6  C   UNL A   1      37.737  19.879  24.737  1.00  0.00     0.042 C 
BRANCH   6   7
ATOM      7  C   UNL A   1      38.845  20.294  25.689  1.00  0.00     0.118 C 
BRANCH   7   8
ATOM      8  N   UNL A   1      39.952  19.344  25.752  1.00  0.00    -0.352 N 
ATOM      9  O   UNL A   1      42.070  18.604  25.941  1.00  0.00    -0.269 OA
ATOM     10  C   UNL A   1      41.275  19.520  26.097  1.00  0.00     0.251 C 
ATOM     11  H   UNL A   1      39.712  18.421  25.505  1.00  0.00     0.163 HD
BRANCH  10  12
ATOM     12  C   UNL A   1      41.740  20.823  26.623  1.00  0.00     0.039 A 
ATOM     13  C   UNL A   1      41.879  21.024  27.993  1.00  0.00     0.014 A 
ATOM     14  C   UNL A   1      42.041  21.864  25.738  1.00  0.00     0.014 A 
ATOM     15  C   UNL A   1      42.080  22.303  28.486  1.00  0.00     0.010 A 
ATOM     16  C   UNL A   1      42.393  23.125  26.237  1.00  0.00     0.010 A 
ATOM     17  C   UNL A   1      42.370  23.368  27.618  1.00  0.00    -0.014 A 
BRANCH  17  18
ATOM     18  C   UNL A   1      42.714  24.685  28.215  1.00  0.00     0.031 A 
ATOM     19  C   UNL A   1      44.137  25.073  28.505  1.00  0.00     0.074 A 
ATOM     20  C   UNL A   1      41.717  25.570  28.414  1.00  0.00     0.049 A 
ATOM     21  N   UNL A   1      44.599  26.212  28.957  1.00  0.00    -0.248 NA
ATOM     22  C   UNL A   1      45.177  24.060  28.269  1.00  0.00     0.031 C 
ATOM     23  C   UNL A   1      40.293  25.298  28.182  1.00  0.00     0.029 A 
ATOM     24  N   UNL A   1      41.740  26.882  28.807  1.00  0.00    -0.354 N 
ATOM     25  C   UNL A   1      45.973  26.047  29.080  1.00  0.00     0.074 A 
ATOM     26  C   UNL A   1      46.271  24.691  28.674  1.00  0.00     0.031 C 
ATOM     27  C   UNL A   1      39.594  26.428  28.354  1.00  0.00     0.029 A 
ATOM     28  C   UNL A   1      40.503  27.480  28.788  1.00  0.00     0.049 A 
ATOM     29  H   UNL A   1      42.563  27.351  29.077  1.00  0.00     0.167 HD
ATOM     30  C   UNL A   1      46.898  26.949  29.490  1.00  0.00     0.037 A 
ATOM     31  C   UNL A   1      40.132  28.735  29.101  1.00  0.00     0.037 A 
ATOM     32  C   UNL A   1      46.597  28.307  29.871  1.00  0.00     0.049 A 
ATOM     33  C   UNL A   1      41.179  29.707  29.551  1.00  0.00     0.074 A 
ATOM     34  C   UNL A   1      47.469  29.300  30.285  1.00  0.00     0.029 A 
ATOM     35  N   UNL A   1      45.326  28.862  29.882  1.00  0.00    -0.354 N 
ATOM     36  N   UNL A   1      42.473  29.533  29.654  1.00  0.00    -0.248 NA
ATOM     37  C   UNL A   1      40.713  31.043  29.939  1.00  0.00     0.031 C 
ATOM     38  C   UNL A   1      46.721  30.446  30.578  1.00  0.00     0.029 A 
ATOM     39  C   UNL A   1      45.388  30.179  30.309  1.00  0.00     0.049 A 
ATOM     40  H   UNL A   1      44.502  28.390  29.623  1.00  0.00     0.167 HD
ATOM     41  C   UNL A   1      42.979  30.737  30.121  1.00  0.00     0.074 A 
ATOM     42  C   UNL A   1      41.855  31.643  30.244  1.00  0.00     0.031 C 
ATOM     43  C   UNL A   1      44.257  31.061  30.433  1.00  0.00     0.037 A 
BRANCH  30  44
ATOM     44  C   UNL A   1      48.329  26.502  29.560  1.00  0.00     0.057 A 
ATOM     45  C   UNL A   1      49.223  26.713  28.505  1.00  0.00     0.134 A 
ATOM     46  C   UNL A   1      48.836  25.914  30.728  1.00  0.00     0.134 A 
ATOM     47  F   UNL A   1      48.800  27.260  27.355  1.00  0.00    -0.206 F 
ATOM     48  C   UNL A   1      50.568  26.348  28.602  1.00  0.00     0.040 A 
ATOM     49  C   UNL A   1      50.181  25.563  30.845  1.00  0.00     0.040 A 
ATOM     50  F   UNL A   1      48.034  25.690  31.780  1.00  0.00    -0.206 F 
ATOM     51  C   UNL A   1      51.052  25.779  29.779  1.00  0.00     0.006 A 
ENDBRANCH  30  44
BRANCH  31  52
ATOM     52  C   UNL A   1      38.703  29.126  29.019  1.00  0.00     0.057 A 
ATOM     53  C   UNL A   1      38.143  29.589  27.824  1.00  0.00     0.134 A 
ATOM     54  C   UNL A   1      37.862  29.037  30.136  1.00  0.00     0.134 A 
ATOM     55  F   UNL A   1      38.900  29.711  26.725  1.00  0.00    -0.206 F 
ATOM     56  C   UNL A   1      36.800  29.965  27.746  1.00  0.00     0.040 A 
ATOM     57  C   UNL A   1      36.513  29.382  30.064  1.00  0.00     0.040 A 
ATOM     58  F   UNL A   1      38.337  28.592  31.308  1.00  0.00    -0.206 F 
ATOM     59  C   UNL A   1      35.980  29.854  28.867  1.00  0.00     0.006 A 
ENDBRANCH  31  52
BRANCH  43  60
ATOM     60  C   UNL A   1      44.493  32.455  30.928  1.00  0.00     0.057 A 
ATOM     61  C   UNL A   1      44.462  32.762  32.294  1.00  0.00     0.134 A 
ATOM     62  C   UNL A   1      44.753  33.498  30.032  1.00  0.00     0.134 A 
ATOM     63  F   UNL A   1      44.201  31.808  33.200  1.00  0.00    -0.206 F 
ATOM     64  C   UNL A   1      44.652  34.067  32.750  1.00  0.00     0.040 A 
ATOM     65  C   UNL A   1      44.969  34.802  30.477  1.00  0.00     0.040 A 
ATOM     66  F   UNL A   1      44.800  33.267  28.711  1.00  0.00    -0.206 F 
ATOM     67  C   UNL A   1      44.910  35.091  31.840  1.00  0.00     0.006 A 
ENDBRANCH  43  60
ENDBRANCH  17  18
ENDBRANCH  10  12
ENDBRANCH   7   8
ENDBRANCH   6   7
ENDBRANCH   5   6
ENDBRANCH   1   5
BRANCH   2  68
ATOM     68  C   UNL A   1      33.832  22.036  24.724  1.00  0.00     0.062 A 
ATOM     69  C   UNL A   1      34.356  23.310  24.445  1.00  0.00     0.016 A 
ATOM     70  C   UNL A   1      32.819  21.448  23.926  1.00  0.00     0.047 A 
ATOM     71  C   UNL A   1      33.921  24.013  23.331  1.00  0.00     0.001 A 
ATOM     72  C   UNL A   1      32.436  22.173  22.789  1.00  0.00     0.026 A 
ATOM     73  C   UNL A   1      32.970  23.437  22.497  1.00  0.00     0.002 A 
BRANCH  70  74
ATOM     74  N   UNL A   1      32.288  20.201  24.230  1.00  0.00    -0.384 N 
ATOM     75  H   UNL A   1      31.686  20.159  25.009  1.00  0.00     0.160 HD
BRANCH  74  76
ATOM     76  C   UNL A   1      32.521  18.947  23.526  1.00  0.00     0.115 C 
BRANCH  76  77
ATOM     77  C   UNL A   1      33.379  17.986  24.358  1.00  0.00     0.049 C 
BRANCH  77  78
ATOM     78  C   UNL A   1      32.694  17.486  25.627  1.00  0.00     0.158 C 
BRANCH  78  79
ATOM     79  O   UNL A   1      32.826  18.446  26.665  1.00  0.00    -0.396 OA
ATOM     80  H   UNL A   1      32.028  18.437  27.217  1.00  0.00     0.210 HD
ENDBRANCH  78  79
ENDBRANCH  77  78
ENDBRANCH  76  77
ENDBRANCH  74  76
ENDBRANCH  70  74
ENDBRANCH   2  68
TORSDOF 15
ENDMDL
MODEL 2
REMARK VINA RESULT:     -10.4      5.486     10.039
REMARK SMILES O=C(NCCCNC(=O)c1ccccc1NCCCO)c1ccc(-c2c3nc(c(-c4c(F)cccc4F)c4ccc([nH]4)c(-c4c(F)cccc4F)c4nc(c(-c5c(F)cccc5F)c5ccc2[nH]5)C=C4)C=C3)cc1
REMARK SMILES IDX 7 1 8 2 9 3 6 5 5 6 4 7 3 8 1 9 2 10 21 12 22 13 74 14 23 15
REMARK SMILES IDX 73 16 24 17 25 18 26 19 67 20 27 21 72 22 66 23 68 24 28 25
REMARK SMILES IDX 71 26 65 27 64 28 29 30 55 31 38 32 54 33 39 34 42 35 53 36
REMARK SMILES IDX 69 37 40 38 41 39 52 41 70 42 43 43 30 44 31 45 36 46 32 47
REMARK SMILES IDX 33 48 35 49 37 50 34 51 56 52 57 53 62 54 58 55 59 56 61 57
REMARK SMILES IDX 63 58 60 59 44 60 45 61 50 62 46 63 47 64 49 65 51 66 48 67
REMARK SMILES IDX 10 68 11 69 15 70 12 71 14 72 13 73 16 74 17 76 18 77 19 78
REMARK SMILES IDX 20 79
REMARK H PARENT 7 4 3 11 68 29 42 40 16 75 20 80
REMARK Flexibility Score: inf
ROOT
ATOM      1  N   UNL A   1      32.509  30.071  25.095  1.00  0.00    -0.352 N 
ATOM      2  C   UNL A   1      32.387  29.243  24.007  1.00  0.00     0.253 C 
ATOM      3  O   UNL A   1      33.302  29.170  23.193  1.00  0.00    -0.269 OA
ATOM      4  H   UNL A   1      33.355  30.569  25.167  1.00  0.00     0.163 HD
ENDROOT
BRANCH   1   5
ATOM      5  C   UNL A   1      31.541  30.303  26.150  1.00  0.00     0.118 C 
BRANCH   5   6
ATOM      6  C   UNL A   1      31.332  31.764  26.489  1.00  0.00     0.042 C 
BRANCH   6   7
ATOM      7  C   UNL A   1      32.580  32.456  27.010  1.00  0.00     0.118 C 
BRANCH   7   8
ATOM      8  N   UNL A   1      32.347  33.824  27.462  1.00  0.00    -0.352 N 
ATOM      9  O   UNL A   1      32.527  35.668  28.742  1.00  0.00    -0.269 OA
ATOM     10  C   UNL A   1      32.985  34.580  28.422  1.00  0.00     0.251 C 
ATOM     11  H   UNL A   1      31.607  34.285  27.003  1.00  0.00     0.163 HD
BRANCH  10  12
ATOM     12  C   UNL A   1      34.201  34.062  29.089  1.00  0.00     0.039 A 
ATOM     13  C   UNL A   1      35.463  34.491  28.689  1.00  0.00     0.014 A 
ATOM     14  C   UNL A   1      34.084  33.133  30.128  1.00  0.00     0.014 A 
ATOM     15  C   UNL A   1      36.593  33.832  29.147  1.00  0.00     0.010 A 
ATOM     16  C   UNL A   1      35.235  32.574  30.698  1.00  0.00     0.010 A 
ATOM     17  C   UNL A   1      36.500  32.885  30.179  1.00  0.00    -0.014 A 
BRANCH  17  18
ATOM     18  C   UNL A   1      37.760  32.315  30.723  1.00  0.00     0.031 A 
ATOM     19  C   UNL A   1      38.357  32.806  32.012  1.00  0.00     0.074 A 
ATOM     20  C   UNL A   1      38.319  31.276  30.071  1.00  0.00     0.049 A 
ATOM     21  N   UNL A   1      39.411  32.359  32.649  1.00  0.00    -0.248 NA
ATOM     22  C   UNL A   1      37.701  33.945  32.672  1.00  0.00     0.031 C 
ATOM     23  C   UNL A   1      37.836  30.723  28.800  1.00  0.00     0.029 A 
ATOM     24  N   UNL A   1      39.377  30.469  30.397  1.00  0.00    -0.354 N 
ATOM     25  C   UNL A   1      39.558  33.172  33.767  1.00  0.00     0.074 A 
ATOM     26  C   UNL A   1      38.496  34.153  33.714  1.00  0.00     0.031 C 
ATOM     27  C   UNL A   1      38.538  29.622  28.502  1.00  0.00     0.029 A 
ATOM     28  C   UNL A   1      39.572  29.438  29.510  1.00  0.00     0.049 A 
ATOM     29  H   UNL A   1      39.943  30.615  31.190  1.00  0.00     0.167 HD
ATOM     30  C   UNL A   1      40.490  33.098  34.747  1.00  0.00     0.037 A 
ATOM     31  C   UNL A   1      40.493  28.458  29.495  1.00  0.00     0.037 A 
ATOM     32  C   UNL A   1      41.532  32.103  34.806  1.00  0.00     0.049 A 
ATOM     33  C   UNL A   1      41.510  28.405  30.594  1.00  0.00     0.074 A 
ATOM     34  C   UNL A   1      42.513  31.938  35.769  1.00  0.00     0.029 A 
ATOM     35  N   UNL A   1      41.724  31.103  33.865  1.00  0.00    -0.354 N 
ATOM     36  N   UNL A   1      41.627  29.179  31.645  1.00  0.00    -0.248 NA
ATOM     37  C   UNL A   1      42.529  27.354  30.498  1.00  0.00     0.031 C 
ATOM     38  C   UNL A   1      43.319  30.858  35.392  1.00  0.00     0.029 A 
ATOM     39  C   UNL A   1      42.816  30.326  34.217  1.00  0.00     0.049 A 
ATOM     40  H   UNL A   1      41.166  30.964  33.066  1.00  0.00     0.167 HD
ATOM     41  C   UNL A   1      42.734  28.709  32.337  1.00  0.00     0.074 A 
ATOM     42  C   UNL A   1      43.228  27.562  31.605  1.00  0.00     0.031 C 
ATOM     43  C   UNL A   1      43.298  29.193  33.470  1.00  0.00     0.037 A 
BRANCH  30  44
ATOM     44  C   UNL A   1      40.441  34.127  35.839  1.00  0.00     0.057 A 
ATOM     45  C   UNL A   1      41.043  35.383  35.700  1.00  0.00     0.134 A 
ATOM     46  C   UNL A   1      39.722  33.883  37.017  1.00  0.00     0.134 A 
ATOM     47  F   UNL A   1      41.756  35.677  34.602  1.00  0.00    -0.206 F 
ATOM     48  C   UNL A   1      40.941  36.357  36.696  1.00  0.00     0.040 A 
ATOM     49  C   UNL A   1      39.595  34.854  38.011  1.00  0.00     0.040 A 
ATOM     50  F   UNL A   1      39.115  32.703  37.212  1.00  0.00    -0.206 F 
ATOM     51  C   UNL A   1      40.208  36.096  37.853  1.00  0.00     0.006 A 
ENDBRANCH  30  44
BRANCH  31  52
ATOM     52  C   UNL A   1      40.502  27.467  28.391  1.00  0.00     0.057 A 
ATOM     53  C   UNL A   1      39.774  26.276  28.476  1.00  0.00     0.134 A 
ATOM     54  C   UNL A   1      41.235  27.694  27.220  1.00  0.00     0.134 A 
ATOM     55  F   UNL A   1      39.065  25.995  29.578  1.00  0.00    -0.206 F 
ATOM     56  C   UNL A   1      39.786  25.339  27.441  1.00  0.00     0.040 A 
ATOM     57  C   UNL A   1      41.233  26.780  26.166  1.00  0.00     0.040 A 
ATOM     58  F   UNL A   1      41.947  28.822  27.073  1.00  0.00    -0.206 F 
ATOM     59  C   UNL A   1      40.512  25.594  26.279  1.00  0.00     0.006 A 
ENDBRANCH  31  52
BRANCH  43  60
ATOM     60  C   UNL A   1      44.507  28.469  33.977  1.00  0.00     0.057 A 
ATOM     61  C   UNL A   1      44.395  27.376  34.845  1.00  0.00     0.134 A 
ATOM     62  C   UNL A   1      45.793  28.867  33.594  1.00  0.00     0.134 A 
ATOM     63  F   UNL A   1      43.190  26.959  35.263  1.00  0.00    -0.206 F 
ATOM     64  C   UNL A   1      45.524  26.722  35.341  1.00  0.00     0.040 A 
ATOM     65  C   UNL A   1      46.929  28.206  34.062  1.00  0.00     0.040 A 
ATOM     66  F   UNL A   1      45.966  29.903  32.759  1.00  0.00    -0.206 F 
ATOM     67  C   UNL A   1      46.796  27.135  34.946  1.00  0.00     0.006 A 
ENDBRANCH  43  60
ENDBRANCH  17  18
ENDBRANCH  10  12
ENDBRANCH   7   8
ENDBRANCH   6   7
ENDBRANCH   5   6
ENDBRANCH   1   5
BRANCH   2  68
ATOM     68  C   UNL A   1      31.188  28.389  23.863  1.00  0.00     0.062 A 
ATOM     69  C   UNL A   1      31.304  27.114  24.445  1.00  0.00     0.016 A 
ATOM     70  C   UNL A   1      30.001  28.816  23.217  1.00  0.00     0.047 A 
ATOM     71  C   UNL A   1      30.220  26.249  24.446  1.00  0.00     0.001 A 
ATOM     72  C   UNL A   1      28.918  27.927  23.275  1.00  0.00     0.026 A 
ATOM     73  C   UNL A   1      29.024  26.662  23.871  1.00  0.00     0.002 A 
BRANCH  70  74
ATOM     74  N   UNL A   1      29.909  30.066  22.619  1.00  0.00    -0.384 N 
ATOM     75  H   UNL A   1      30.498  30.768  22.980  1.00  0.00     0.160 HD
BRANCH  74  76
ATOM     76  C   UNL A   1      29.039  30.456  21.518  1.00  0.00     0.115 C 
BRANCH  76  77
ATOM     77  C   UNL A   1      28.523  31.890  21.689  1.00  0.00     0.049 C 
BRANCH  77  78
ATOM     78  C   UNL A   1      28.148  32.245  23.124  1.00  0.00     0.158 C 
BRANCH  78  79
ATOM     79  O   UNL A   1      27.274  31.262  23.661  1.00  0.00    -0.396 OA
ATOM     80  H   UNL A   1      27.306  30.466  23.108  1.00  0.00     0.210 HD
ENDBRANCH  78  79
ENDBRANCH  77  78
ENDBRANCH  76  77
ENDBRANCH  74  76
ENDBRANCH  70  74
ENDBRANCH   2  68
TORSDOF 15
ENDMDL
MODEL 3
REMARK VINA RESULT:     -10.3      0.777      6.522
REMARK SMILES O=C(NCCCNC(=O)c1ccccc1NCCCO)c1ccc(-c2c3nc(c(-c4c(F)cccc4F)c4ccc([nH]4)c(-c4c(F)cccc4F)c4nc(c(-c5c(F)cccc5F)c5ccc2[nH]5)C=C4)C=C3)cc1
REMARK SMILES IDX 7 1 8 2 9 3 6 5 5 6 4 7 3 8 1 9 2 10 21 12 22 13 74 14 23 15
REMARK SMILES IDX 73 16 24 17 25 18 26 19 67 20 27 21 72 22 66 23 68 24 28 25
REMARK SMILES IDX 71 26 65 27 64 28 29 30 55 31 38 32 54 33 39 34 42 35 53 36
REMARK SMILES IDX 69 37 40 38 41 39 52 41 70 42 43 43 30 44 31 45 36 46 32 47
REMARK SMILES IDX 33 48 35 49 37 50 34 51 56 52 57 53 62 54 58 55 59 56 61 57
REMARK SMILES IDX 63 58 60 59 44 60 45 61 50 62 46 63 47 64 49 65 51 66 48 67
REMARK SMILES IDX 10 68 11 69 15 70 12 71 14 72 13 73 16 74 17 76 18 77 19 78
REMARK SMILES IDX 20 79
REMARK H PARENT 7 4 3 11 68 29 42 40 16 75 20 80
REMARK Flexibility Score: inf
ROOT
ATOM      1  N   UNL A   1      36.161  21.118  25.973  1.00  0.00    -0.352 N 
ATOM      2  C   UNL A   1      34.848  21.436  26.218  1.00  0.00     0.253 C 
ATOM      3  O   UNL A   1      34.515  21.826  27.333  1.00  0.00    -0.269 OA
ATOM      4  H   UNL A   1      36.782  21.233  26.729  1.00  0.00     0.163 HD
ENDROOT
BRANCH   1   5
ATOM      5  C   UNL A   1      36.743  20.631  24.738  1.00  0.00     0.118 C 
BRANCH   5   6
ATOM      6  C   UNL A   1      37.866  19.635  24.933  1.00  0.00     0.042 C 
BRANCH   6   7
ATOM      7  C   UNL A   1      39.019  20.166  25.767  1.00  0.00     0.118 C 
BRANCH   7   8
ATOM      8  N   UNL A   1      40.151  19.250  25.856  1.00  0.00    -0.352 N 
ATOM      9  O   UNL A   1      42.291  18.574  26.039  1.00  0.00    -0.269 OA
ATOM     10  C   UNL A   1      41.475  19.476  26.164  1.00  0.00     0.251 C 
ATOM     11  H   UNL A   1      39.931  18.309  25.663  1.00  0.00     0.163 HD
BRANCH  10  12
ATOM     12  C   UNL A   1      41.916  20.817  26.612  1.00  0.00     0.039 A 
ATOM     13  C   UNL A   1      41.919  21.146  27.964  1.00  0.00     0.014 A 
ATOM     14  C   UNL A   1      42.333  21.764  25.669  1.00  0.00     0.014 A 
ATOM     15  C   UNL A   1      42.099  22.463  28.353  1.00  0.00     0.010 A 
ATOM     16  C   UNL A   1      42.662  23.061  26.082  1.00  0.00     0.010 A 
ATOM     17  C   UNL A   1      42.503  23.435  27.424  1.00  0.00    -0.014 A 
BRANCH  17  18
ATOM     18  C   UNL A   1      42.817  24.798  27.927  1.00  0.00     0.031 A 
ATOM     19  C   UNL A   1      41.738  25.810  28.194  1.00  0.00     0.074 A 
ATOM     20  C   UNL A   1      44.101  25.083  28.225  1.00  0.00     0.049 A 
ATOM     21  N   UNL A   1      41.850  27.012  28.702  1.00  0.00    -0.248 NA
ATOM     22  C   UNL A   1      40.358  25.437  27.845  1.00  0.00     0.031 C 
ATOM     23  C   UNL A   1      45.237  24.184  27.993  1.00  0.00     0.029 A 
ATOM     24  N   UNL A   1      44.667  26.177  28.824  1.00  0.00    -0.354 N 
ATOM     25  C   UNL A   1      40.567  27.546  28.711  1.00  0.00     0.074 A 
ATOM     26  C   UNL A   1      39.692  26.545  28.141  1.00  0.00     0.031 C 
ATOM     27  C   UNL A   1      46.343  24.724  28.520  1.00  0.00     0.029 A 
ATOM     28  C   UNL A   1      46.015  26.041  29.050  1.00  0.00     0.049 A 
ATOM     29  H   UNL A   1      44.157  26.984  29.068  1.00  0.00     0.167 HD
ATOM     30  C   UNL A   1      40.161  28.759  29.160  1.00  0.00     0.037 A 
ATOM     31  C   UNL A   1      46.900  26.886  29.608  1.00  0.00     0.037 A 
ATOM     32  C   UNL A   1      41.035  29.742  29.749  1.00  0.00     0.049 A 
ATOM     33  C   UNL A   1      46.418  28.219  30.094  1.00  0.00     0.074 A 
ATOM     34  C   UNL A   1      40.713  30.993  30.248  1.00  0.00     0.029 A 
ATOM     35  N   UNL A   1      42.402  29.585  29.920  1.00  0.00    -0.354 N 
ATOM     36  N   UNL A   1      45.200  28.701  30.100  1.00  0.00    -0.248 NA
ATOM     37  C   UNL A   1      47.434  29.128  30.638  1.00  0.00     0.031 C 
ATOM     38  C   UNL A   1      41.892  31.605  30.690  1.00  0.00     0.029 A 
ATOM     39  C   UNL A   1      42.941  30.720  30.503  1.00  0.00     0.049 A 
ATOM     40  H   UNL A   1      42.915  28.783  29.665  1.00  0.00     0.167 HD
ATOM     41  C   UNL A   1      45.302  29.972  30.646  1.00  0.00     0.074 A 
ATOM     42  C   UNL A   1      46.694  30.168  30.993  1.00  0.00     0.031 C 
ATOM     43  C   UNL A   1      44.331  30.899  30.832  1.00  0.00     0.037 A 
BRANCH  30  44
ATOM     44  C   UNL A   1      38.706  29.103  29.027  1.00  0.00     0.057 A 
ATOM     45  C   UNL A   1      37.822  29.009  30.108  1.00  0.00     0.134 A 
ATOM     46  C   UNL A   1      38.199  29.601  27.820  1.00  0.00     0.134 A 
ATOM     47  F   UNL A   1      38.240  28.529  31.289  1.00  0.00    -0.206 F 
ATOM     48  C   UNL A   1      36.483  29.388  29.991  1.00  0.00     0.040 A 
ATOM     49  C   UNL A   1      36.868  30.003  27.695  1.00  0.00     0.040 A 
ATOM     50  F   UNL A   1      38.994  29.723  26.746  1.00  0.00    -0.206 F 
ATOM     51  C   UNL A   1      36.005  29.895  28.784  1.00  0.00     0.006 A 
ENDBRANCH  30  44
BRANCH  31  52
ATOM     52  C   UNL A   1      48.329  26.500  29.712  1.00  0.00     0.057 A 
ATOM     53  C   UNL A   1      49.247  26.831  28.710  1.00  0.00     0.134 A 
ATOM     54  C   UNL A   1      48.810  25.797  30.823  1.00  0.00     0.134 A 
ATOM     55  F   UNL A   1      48.844  27.490  27.615  1.00  0.00    -0.206 F 
ATOM     56  C   UNL A   1      50.591  26.463  28.802  1.00  0.00     0.040 A 
ATOM     57  C   UNL A   1      50.155  25.448  30.942  1.00  0.00     0.040 A 
ATOM     58  F   UNL A   1      47.982  25.458  31.822  1.00  0.00    -0.206 F 
ATOM     59  C   UNL A   1      51.049  25.776  29.925  1.00  0.00     0.006 A 
ENDBRANCH  31  52
BRANCH  43  60
ATOM     60  C   UNL A   1      44.755  32.199  31.445  1.00  0.00     0.057 A 
ATOM     61  C   UNL A   1      44.759  32.388  32.832  1.00  0.00     0.134 A 
ATOM     62  C   UNL A   1      45.164  33.269  30.640  1.00  0.00     0.134 A 
ATOM     63  F   UNL A   1      44.361  31.405  33.654  1.00  0.00    -0.206 F 
ATOM     64  C   UNL A   1      45.126  33.610  33.398  1.00  0.00     0.040 A 
ATOM     65  C   UNL A   1      45.556  34.487  31.195  1.00  0.00     0.040 A 
ATOM     66  F   UNL A   1      45.187  33.148  29.304  1.00  0.00    -0.206 F 
ATOM     67  C   UNL A   1      45.529  34.662  32.578  1.00  0.00     0.006 A 
ENDBRANCH  43  60
ENDBRANCH  17  18
ENDBRANCH  10  12
ENDBRANCH   7   8
ENDBRANCH   6   7
ENDBRANCH   5   6
ENDBRANCH   1   5
BRANCH   2  68
ATOM     68  C   UNL A   1      33.859  21.379  25.120  1.00  0.00     0.062 A 
ATOM     69  C   UNL A   1      33.904  22.471  24.235  1.00  0.00     0.016 A 
ATOM     70  C   UNL A   1      32.954  20.303  24.943  1.00  0.00     0.047 A 
ATOM     71  C   UNL A   1      33.080  22.496  23.119  1.00  0.00     0.001 A 
ATOM     72  C   UNL A   1      32.168  20.348  23.783  1.00  0.00     0.026 A 
ATOM     73  C   UNL A   1      32.222  21.427  22.888  1.00  0.00     0.002 A 
BRANCH  70  74
ATOM     74  N   UNL A   1      32.899  19.245  25.841  1.00  0.00    -0.384 N 
ATOM     75  H   UNL A   1      32.772  19.481  26.789  1.00  0.00     0.160 HD
BRANCH  74  76
ATOM     76  C   UNL A   1      33.007  17.824  25.539  1.00  0.00     0.115 C 
BRANCH  76  77
ATOM     77  C   UNL A   1      34.197  17.534  24.616  1.00  0.00     0.049 C 
BRANCH  77  78
ATOM     78  C   UNL A   1      33.878  16.567  23.480  1.00  0.00     0.158 C 
BRANCH  78  79
ATOM     79  O   UNL A   1      33.343  17.273  22.370  1.00  0.00    -0.396 OA
ATOM     80  H   UNL A   1      34.031  17.384  21.696  1.00  0.00     0.210 HD
ENDBRANCH  78  79
ENDBRANCH  77  78
ENDBRANCH  76  77
ENDBRANCH  74  76
ENDBRANCH  70  74
ENDBRANCH   2  68
TORSDOF 15
ENDMDL
