MODEL 1
REMARK VINA RESULT:     -12.4      0.000      0.000
REMARK SMILES O=C(COc1ccc(/C=C2\SC(=O)N(Cc3cc4c(cc3Cl)OCO4)C2=O)cc1)NCCCNC(=O)c1ccc(-c2c3nc(c(-c4c(F)cccc4F)c4ccc([nH]4)c(-c4c(F)cccc4F)c4nc(c(-c5c(F)cccc5F)c5ccc2[nH]5)C=C4)C=C3)cc1
REMARK SMILES IDX 1 1 2 2 30 3 3 5 4 6 5 7 6 8 29 9 7 10 28 11 8 12 9 13 10 14
REMARK SMILES IDX 11 15 26 16 12 17 14 18 27 19 13 20 15 21 16 22 17 23 21 24
REMARK SMILES IDX 18 25 20 26 22 27 19 28 25 29 23 30 24 31 31 32 32 33 33 34
REMARK SMILES IDX 34 35 35 36 36 38 37 39 38 40 90 41 39 42 89 43 40 44 41 45
REMARK SMILES IDX 42 46 83 47 43 48 88 49 82 50 84 51 44 52 87 53 81 54 80 55
REMARK SMILES IDX 45 57 71 58 54 59 70 60 55 61 58 62 69 63 85 64 56 65 57 66
REMARK SMILES IDX 68 68 86 69 59 70 46 71 47 72 52 73 48 74 49 75 51 76 53 77
REMARK SMILES IDX 50 78 72 79 73 80 78 81 74 82 75 83 77 84 79 85 76 86 60 87
REMARK SMILES IDX 61 88 66 89 62 90 63 91 65 92 67 93 64 94
REMARK H PARENT 30 4 34 37 84 56 58 67
REMARK Flexibility Score: inf
ROOT
ATOM      1  O   UNL A   1      31.087  25.750  24.884  1.00  0.00    -0.271 OA
ATOM      2  C   UNL A   1      32.013  26.276  24.274  1.00  0.00     0.257 C 
ATOM      3  N   UNL A   1      32.352  27.607  24.413  1.00  0.00    -0.353 N 
ATOM      4  H   UNL A   1      33.246  27.905  24.128  1.00  0.00     0.163 HD
ENDROOT
BRANCH   2   5
ATOM      5  C   UNL A   1      32.830  25.524  23.209  1.00  0.00     0.329 C 
BRANCH   5   6
ATOM      6  O   UNL A   1      33.217  24.179  23.488  1.00  0.00    -0.484 OA
BRANCH   6   7
ATOM      7  C   UNL A   1      34.456  23.992  24.043  1.00  0.00     0.120 A 
ATOM      8  C   UNL A   1      35.387  23.287  23.271  1.00  0.00     0.047 A 
ATOM      9  C   UNL A   1      34.807  24.382  25.332  1.00  0.00     0.047 A 
ATOM     10  C   UNL A   1      36.657  22.980  23.784  1.00  0.00     0.012 A 
ATOM     11  C   UNL A   1      36.040  24.039  25.861  1.00  0.00     0.012 A 
ATOM     12  C   UNL A   1      36.973  23.350  25.090  1.00  0.00    -0.024 A 
BRANCH  12  13
ATOM     13  C   UNL A   1      38.261  23.170  25.737  1.00  0.00     0.029 C 
ATOM     14  C   UNL A   1      38.867  22.000  25.949  1.00  0.00     0.083 C 
ATOM     15  S   UNL A   1      38.642  20.457  25.247  1.00  0.00    -0.022 SA
ATOM     16  C   UNL A   1      39.944  21.928  26.954  1.00  0.00     0.268 C 
ATOM     17  C   UNL A   1      40.182  19.880  25.907  1.00  0.00     0.293 C 
ATOM     18  N   UNL A   1      40.749  20.864  26.673  1.00  0.00    -0.264 N 
ATOM     19  O   UNL A   1      40.024  22.674  27.920  1.00  0.00    -0.268 OA
ATOM     20  O   UNL A   1      40.607  18.759  25.712  1.00  0.00    -0.261 OA
BRANCH  18  21
ATOM     21  C   UNL A   1      42.035  20.732  27.315  1.00  0.00     0.167 C 
BRANCH  21  22
ATOM     22  C   UNL A   1      43.059  21.757  26.845  1.00  0.00    -0.005 A 
ATOM     23  C   UNL A   1      43.614  21.572  25.561  1.00  0.00     0.057 A 
ATOM     24  C   UNL A   1      43.555  22.832  27.638  1.00  0.00     0.050 A 
ATOM     25  C   UNL A   1      44.620  22.419  25.141  1.00  0.00     0.166 A 
ATOM     26  C   UNL A   1      44.536  23.706  27.157  1.00  0.00     0.071 A 
ATOM     27  Cl  UNL A   1      43.080  23.143  29.265  1.00  0.00    -0.084 Cl
ATOM     28  C   UNL A   1      45.061  23.461  25.915  1.00  0.00     0.167 A 
ATOM     29  O   UNL A   1      45.310  22.324  23.973  1.00  0.00    -0.454 OA
ATOM     30  O   UNL A   1      46.071  24.158  25.335  1.00  0.00    -0.454 OA
ATOM     31  C   UNL A   1      46.318  23.338  24.176  1.00  0.00     0.468 C 
ENDBRANCH  21  22
ENDBRANCH  18  21
ENDBRANCH  12  13
ENDBRANCH   6   7
ENDBRANCH   5   6
ENDBRANCH   2   5
BRANCH   3  32
ATOM     32  C   UNL A   1      31.428  28.573  24.967  1.00  0.00     0.117 C 
BRANCH  32  33
ATOM     33  C   UNL A   1      32.046  29.937  25.204  1.00  0.00     0.042 C 
BRANCH  33  34
ATOM     34  C   UNL A   1      32.039  30.359  26.666  1.00  0.00     0.118 C 
BRANCH  34  35
ATOM     35  N   UNL A   1      31.879  31.796  26.857  1.00  0.00    -0.352 N 
ATOM     36  C   UNL A   1      32.734  32.697  27.448  1.00  0.00     0.251 C 
ATOM     37  H   UNL A   1      31.038  32.176  26.514  1.00  0.00     0.163 HD
ATOM     38  O   UNL A   1      32.386  33.861  27.619  1.00  0.00    -0.269 OA
BRANCH  36  39
ATOM     39  C   UNL A   1      34.062  32.248  27.912  1.00  0.00     0.039 A 
ATOM     40  C   UNL A   1      35.095  33.185  28.016  1.00  0.00     0.014 A 
ATOM     41  C   UNL A   1      34.276  30.919  28.285  1.00  0.00     0.014 A 
ATOM     42  C   UNL A   1      36.313  32.809  28.587  1.00  0.00     0.010 A 
ATOM     43  C   UNL A   1      35.460  30.566  28.923  1.00  0.00     0.010 A 
ATOM     44  C   UNL A   1      36.485  31.511  29.092  1.00  0.00    -0.014 A 
BRANCH  44  45
ATOM     45  C   UNL A   1      37.713  31.108  29.821  1.00  0.00     0.031 A 
ATOM     46  C   UNL A   1      38.698  30.179  29.170  1.00  0.00     0.074 A 
ATOM     47  C   UNL A   1      37.885  31.485  31.102  1.00  0.00     0.049 A 
ATOM     48  N   UNL A   1      39.734  29.574  29.691  1.00  0.00    -0.248 NA
ATOM     49  C   UNL A   1      38.468  29.867  27.750  1.00  0.00     0.031 C 
ATOM     50  C   UNL A   1      36.982  32.354  31.861  1.00  0.00     0.029 A 
ATOM     51  N   UNL A   1      38.868  31.162  32.003  1.00  0.00    -0.354 N 
ATOM     52  C   UNL A   1      40.260  28.787  28.675  1.00  0.00     0.074 A 
ATOM     53  C   UNL A   1      39.409  28.964  27.518  1.00  0.00     0.031 C 
ATOM     54  C   UNL A   1      37.458  32.501  33.108  1.00  0.00     0.029 A 
ATOM     55  C   UNL A   1      38.671  31.702  33.252  1.00  0.00     0.049 A 
ATOM     56  H   UNL A   1      39.642  30.597  31.778  1.00  0.00     0.167 HD
ATOM     57  C   UNL A   1      41.361  28.000  28.701  1.00  0.00     0.037 A 
ATOM     58  C   UNL A   1      39.376  31.554  34.389  1.00  0.00     0.037 A 
ATOM     59  C   UNL A   1      42.225  27.853  29.842  1.00  0.00     0.049 A 
ATOM     60  C   UNL A   1      40.595  30.676  34.392  1.00  0.00     0.074 A 
ATOM     61  C   UNL A   1      43.396  27.123  29.948  1.00  0.00     0.029 A 
ATOM     62  N   UNL A   1      42.012  28.451  31.075  1.00  0.00    -0.354 N 
ATOM     63  N   UNL A   1      41.108  29.972  33.412  1.00  0.00    -0.248 NA
ATOM     64  C   UNL A   1      41.335  30.569  35.659  1.00  0.00     0.031 C 
ATOM     65  C   UNL A   1      43.876  27.254  31.255  1.00  0.00     0.029 A 
ATOM     66  C   UNL A   1      43.024  28.097  31.952  1.00  0.00     0.049 A 
ATOM     67  H   UNL A   1      41.254  29.039  31.295  1.00  0.00     0.167 HD
ATOM     68  C   UNL A   1      42.246  29.369  33.932  1.00  0.00     0.074 A 
ATOM     69  C   UNL A   1      42.349  29.789  35.313  1.00  0.00     0.031 C 
ATOM     70  C   UNL A   1      43.125  28.543  33.317  1.00  0.00     0.037 A 
BRANCH  57  71
ATOM     71  C   UNL A   1      41.695  27.238  27.453  1.00  0.00     0.057 A 
ATOM     72  C   UNL A   1      42.664  27.692  26.550  1.00  0.00     0.134 A 
ATOM     73  C   UNL A   1      41.063  26.022  27.169  1.00  0.00     0.134 A 
ATOM     74  F   UNL A   1      43.296  28.857  26.758  1.00  0.00    -0.206 F 
ATOM     75  C   UNL A   1      42.977  26.973  25.394  1.00  0.00     0.040 A 
ATOM     76  C   UNL A   1      41.385  25.281  26.031  1.00  0.00     0.040 A 
ATOM     77  F   UNL A   1      40.129  25.527  27.996  1.00  0.00    -0.206 F 
ATOM     78  C   UNL A   1      42.341  25.760  25.136  1.00  0.00     0.006 A 
ENDBRANCH  57  71
BRANCH  58  79
ATOM     79  C   UNL A   1      38.954  32.266  35.621  1.00  0.00     0.057 A 
ATOM     80  C   UNL A   1      39.305  33.605  35.833  1.00  0.00     0.134 A 
ATOM     81  C   UNL A   1      38.197  31.632  36.612  1.00  0.00     0.134 A 
ATOM     82  F   UNL A   1      40.047  34.258  34.927  1.00  0.00    -0.206 F 
ATOM     83  C   UNL A   1      38.933  34.283  36.993  1.00  0.00     0.040 A 
ATOM     84  C   UNL A   1      37.797  32.306  37.769  1.00  0.00     0.040 A 
ATOM     85  F   UNL A   1      37.823  30.353  36.466  1.00  0.00    -0.206 F 
ATOM     86  C   UNL A   1      38.172  33.634  37.964  1.00  0.00     0.006 A 
ENDBRANCH  58  79
BRANCH  70  87
ATOM     87  C   UNL A   1      44.309  28.080  34.111  1.00  0.00     0.057 A 
ATOM     88  C   UNL A   1      45.471  28.852  34.224  1.00  0.00     0.134 A 
ATOM     89  C   UNL A   1      44.258  26.873  34.821  1.00  0.00     0.134 A 
ATOM     90  F   UNL A   1      45.585  30.010  33.558  1.00  0.00    -0.206 F 
ATOM     91  C   UNL A   1      46.548  28.434  35.008  1.00  0.00     0.040 A 
ATOM     92  C   UNL A   1      45.318  26.456  35.626  1.00  0.00     0.040 A 
ATOM     93  F   UNL A   1      43.168  26.093  34.760  1.00  0.00    -0.206 F 
ATOM     94  C   UNL A   1      46.469  27.237  35.718  1.00  0.00     0.006 A 
ENDBRANCH  70  87
ENDBRANCH  44  45
ENDBRANCH  36  39
ENDBRANCH  34  35
ENDBRANCH  33  34
ENDBRANCH  32  33
ENDBRANCH   3  32
TORSDOF 15
ENDMDL
MODEL 2
REMARK VINA RESULT:     -12.3      2.845      9.275
REMARK SMILES O=C(COc1ccc(/C=C2\SC(=O)N(Cc3cc4c(cc3Cl)OCO4)C2=O)cc1)NCCCNC(=O)c1ccc(-c2c3nc(c(-c4c(F)cccc4F)c4ccc([nH]4)c(-c4c(F)cccc4F)c4nc(c(-c5c(F)cccc5F)c5ccc2[nH]5)C=C4)C=C3)cc1
REMARK SMILES IDX 1 1 2 2 30 3 3 5 4 6 5 7 6 8 29 9 7 10 28 11 8 12 9 13 10 14
REMARK SMILES IDX 11 15 26 16 12 17 14 18 27 19 13 20 15 21 16 22 17 23 21 24
REMARK SMILES IDX 18 25 20 26 22 27 19 28 25 29 23 30 24 31 31 32 32 33 33 34
REMARK SMILES IDX 34 35 35 36 36 38 37 39 38 40 90 41 39 42 89 43 40 44 41 45
REMARK SMILES IDX 42 46 83 47 43 48 88 49 82 50 84 51 44 52 87 53 81 54 80 55
REMARK SMILES IDX 45 57 71 58 54 59 70 60 55 61 58 62 69 63 85 64 56 65 57 66
REMARK SMILES IDX 68 68 86 69 59 70 46 71 47 72 52 73 48 74 49 75 51 76 53 77
REMARK SMILES IDX 50 78 72 79 73 80 78 81 74 82 75 83 77 84 79 85 76 86 60 87
REMARK SMILES IDX 61 88 66 89 62 90 63 91 65 92 67 93 64 94
REMARK H PARENT 30 4 34 37 84 56 58 67
REMARK Flexibility Score: inf
ROOT
ATOM      1  O   UNL A   1      42.080  22.627  28.616  1.00  0.00    -0.271 OA
ATOM      2  C   UNL A   1      42.637  22.318  27.567  1.00  0.00     0.257 C 
ATOM      3  N   UNL A   1      43.994  22.461  27.360  1.00  0.00    -0.353 N 
ATOM      4  H   UNL A   1      44.423  21.956  26.632  1.00  0.00     0.163 HD
ENDROOT
BRANCH   2   5
ATOM      5  C   UNL A   1      41.857  21.833  26.332  1.00  0.00     0.329 C 
BRANCH   5   6
ATOM      6  O   UNL A   1      40.601  21.190  26.543  1.00  0.00    -0.484 OA
BRANCH   6   7
ATOM      7  C   UNL A   1      39.479  21.887  26.181  1.00  0.00     0.120 A 
ATOM      8  C   UNL A   1      39.347  23.178  26.707  1.00  0.00     0.047 A 
ATOM      9  C   UNL A   1      38.446  21.367  25.405  1.00  0.00     0.047 A 
ATOM     10  C   UNL A   1      38.196  23.940  26.454  1.00  0.00     0.012 A 
ATOM     11  C   UNL A   1      37.287  22.095  25.194  1.00  0.00     0.012 A 
ATOM     12  C   UNL A   1      37.161  23.385  25.704  1.00  0.00    -0.024 A 
BRANCH  12  13
ATOM     13  C   UNL A   1      35.944  24.067  25.298  1.00  0.00     0.029 C 
ATOM     14  C   UNL A   1      34.713  23.778  25.722  1.00  0.00     0.083 C 
ATOM     15  S   UNL A   1      34.152  22.905  27.081  1.00  0.00    -0.022 SA
ATOM     16  C   UNL A   1      33.559  24.261  24.940  1.00  0.00     0.268 C 
ATOM     17  C   UNL A   1      32.511  23.541  26.873  1.00  0.00     0.293 C 
ATOM     18  N   UNL A   1      32.464  24.327  25.751  1.00  0.00    -0.264 N 
ATOM     19  O   UNL A   1      33.596  24.481  23.738  1.00  0.00    -0.268 OA
ATOM     20  O   UNL A   1      31.593  23.261  27.617  1.00  0.00    -0.261 OA
BRANCH  18  21
ATOM     21  C   UNL A   1      31.282  25.038  25.326  1.00  0.00     0.167 C 
BRANCH  21  22
ATOM     22  C   UNL A   1      31.478  26.545  25.233  1.00  0.00    -0.005 A 
ATOM     23  C   UNL A   1      31.700  27.242  26.440  1.00  0.00     0.057 A 
ATOM     24  C   UNL A   1      31.368  27.307  24.034  1.00  0.00     0.050 A 
ATOM     25  C   UNL A   1      31.778  28.620  26.410  1.00  0.00     0.166 A 
ATOM     26  C   UNL A   1      31.509  28.699  24.033  1.00  0.00     0.071 A 
ATOM     27  Cl  UNL A   1      30.988  26.643  22.489  1.00  0.00    -0.084 Cl
ATOM     28  C   UNL A   1      31.693  29.326  25.237  1.00  0.00     0.167 A 
ATOM     29  O   UNL A   1      31.907  29.437  27.489  1.00  0.00    -0.454 OA
ATOM     30  O   UNL A   1      31.767  30.668  25.424  1.00  0.00    -0.454 OA
ATOM     31  C   UNL A   1      31.751  30.730  26.864  1.00  0.00     0.468 C 
ENDBRANCH  21  22
ENDBRANCH  18  21
ENDBRANCH  12  13
ENDBRANCH   6   7
ENDBRANCH   5   6
ENDBRANCH   2   5
BRANCH   3  32
ATOM     32  C   UNL A   1      44.801  23.334  28.185  1.00  0.00     0.117 C 
BRANCH  32  33
ATOM     33  C   UNL A   1      45.559  24.384  27.396  1.00  0.00     0.042 C 
BRANCH  33  34
ATOM     34  C   UNL A   1      44.739  25.632  27.104  1.00  0.00     0.118 C 
BRANCH  34  35
ATOM     35  N   UNL A   1      43.778  25.456  26.020  1.00  0.00    -0.352 N 
ATOM     36  C   UNL A   1      42.471  25.872  25.938  1.00  0.00     0.251 C 
ATOM     37  H   UNL A   1      44.115  24.968  25.234  1.00  0.00     0.163 HD
ATOM     38  O   UNL A   1      41.773  25.540  24.985  1.00  0.00    -0.269 OA
BRANCH  36  39
ATOM     39  C   UNL A   1      41.895  26.693  27.023  1.00  0.00     0.039 A 
ATOM     40  C   UNL A   1      41.106  26.071  27.995  1.00  0.00     0.014 A 
ATOM     41  C   UNL A   1      42.170  28.059  27.106  1.00  0.00     0.014 A 
ATOM     42  C   UNL A   1      40.673  26.802  29.104  1.00  0.00     0.010 A 
ATOM     43  C   UNL A   1      41.805  28.766  28.247  1.00  0.00     0.010 A 
ATOM     44  C   UNL A   1      41.064  28.141  29.263  1.00  0.00    -0.014 A 
BRANCH  44  45
ATOM     45  C   UNL A   1      40.736  28.915  30.486  1.00  0.00     0.031 A 
ATOM     46  C   UNL A   1      39.616  29.915  30.459  1.00  0.00     0.074 A 
ATOM     47  C   UNL A   1      41.514  28.800  31.579  1.00  0.00     0.049 A 
ATOM     48  N   UNL A   1      39.282  30.808  31.355  1.00  0.00    -0.248 NA
ATOM     49  C   UNL A   1      38.777  29.932  29.250  1.00  0.00     0.031 C 
ATOM     50  C   UNL A   1      42.656  27.893  31.719  1.00  0.00     0.029 A 
ATOM     51  N   UNL A   1      41.477  29.473  32.775  1.00  0.00    -0.354 N 
ATOM     52  C   UNL A   1      38.218  31.512  30.807  1.00  0.00     0.074 A 
ATOM     53  C   UNL A   1      37.985  30.966  29.487  1.00  0.00     0.031 C 
ATOM     54  C   UNL A   1      43.204  28.061  32.933  1.00  0.00     0.029 A 
ATOM     55  C   UNL A   1      42.485  29.115  33.639  1.00  0.00     0.049 A 
ATOM     56  H   UNL A   1      40.794  30.147  32.994  1.00  0.00     0.167 HD
ATOM     57  C   UNL A   1      37.493  32.512  31.360  1.00  0.00     0.037 A 
ATOM     58  C   UNL A   1      42.805  29.598  34.855  1.00  0.00     0.037 A 
ATOM     59  C   UNL A   1      37.705  33.029  32.685  1.00  0.00     0.049 A 
ATOM     60  C   UNL A   1      41.984  30.708  35.447  1.00  0.00     0.074 A 
ATOM     61  C   UNL A   1      36.985  34.003  33.356  1.00  0.00     0.029 A 
ATOM     62  N   UNL A   1      38.710  32.610  33.544  1.00  0.00    -0.354 N 
ATOM     63  N   UNL A   1      40.952  31.335  34.936  1.00  0.00    -0.248 NA
ATOM     64  C   UNL A   1      42.371  31.180  36.785  1.00  0.00     0.031 C 
ATOM     65  C   UNL A   1      37.574  34.196  34.609  1.00  0.00     0.029 A 
ATOM     66  C   UNL A   1      38.637  33.315  34.734  1.00  0.00     0.049 A 
ATOM     67  H   UNL A   1      39.377  31.916  33.338  1.00  0.00     0.167 HD
ATOM     68  C   UNL A   1      40.546  32.248  35.901  1.00  0.00     0.074 A 
ATOM     69  C   UNL A   1      41.442  32.094  37.028  1.00  0.00     0.031 C 
ATOM     70  C   UNL A   1      39.521  33.133  35.855  1.00  0.00     0.037 A 
BRANCH  57  71
ATOM     71  C   UNL A   1      36.398  33.112  30.528  1.00  0.00     0.057 A 
ATOM     72  C   UNL A   1      35.049  32.822  30.766  1.00  0.00     0.134 A 
ATOM     73  C   UNL A   1      36.695  34.015  29.501  1.00  0.00     0.134 A 
ATOM     74  F   UNL A   1      34.699  31.954  31.728  1.00  0.00    -0.206 F 
ATOM     75  C   UNL A   1      34.033  33.391  29.995  1.00  0.00     0.040 A 
ATOM     76  C   UNL A   1      35.688  34.610  28.739  1.00  0.00     0.040 A 
ATOM     77  F   UNL A   1      37.967  34.341  29.224  1.00  0.00    -0.206 F 
ATOM     78  C   UNL A   1      34.353  34.293  28.982  1.00  0.00     0.006 A 
ENDBRANCH  57  71
BRANCH  58  79
ATOM     79  C   UNL A   1      43.952  29.025  35.601  1.00  0.00     0.057 A 
ATOM     80  C   UNL A   1      45.249  29.519  35.415  1.00  0.00     0.134 A 
ATOM     81  C   UNL A   1      43.785  27.975  36.510  1.00  0.00     0.134 A 
ATOM     82  F   UNL A   1      45.473  30.511  34.541  1.00  0.00    -0.206 F 
ATOM     83  C   UNL A   1      46.342  28.979  36.094  1.00  0.00     0.040 A 
ATOM     84  C   UNL A   1      44.867  27.439  37.214  1.00  0.00     0.040 A 
ATOM     85  F   UNL A   1      42.567  27.462  36.738  1.00  0.00    -0.206 F 
ATOM     86  C   UNL A   1      46.150  27.938  37.001  1.00  0.00     0.006 A 
ENDBRANCH  58  79
BRANCH  70  87
ATOM     87  C   UNL A   1      39.274  33.965  37.076  1.00  0.00     0.057 A 
ATOM     88  C   UNL A   1      38.562  33.472  38.176  1.00  0.00     0.134 A 
ATOM     89  C   UNL A   1      39.807  35.256  37.173  1.00  0.00     0.134 A 
ATOM     90  F   UNL A   1      38.015  32.247  38.139  1.00  0.00    -0.206 F 
ATOM     91  C   UNL A   1      38.381  34.238  39.328  1.00  0.00     0.040 A 
ATOM     92  C   UNL A   1      39.652  36.024  38.328  1.00  0.00     0.040 A 
ATOM     93  F   UNL A   1      40.506  35.783  36.156  1.00  0.00    -0.206 F 
ATOM     94  C   UNL A   1      38.935  35.515  39.409  1.00  0.00     0.006 A 
ENDBRANCH  70  87
ENDBRANCH  44  45
ENDBRANCH  36  39
ENDBRANCH  34  35
ENDBRANCH  33  34
ENDBRANCH  32  33
ENDBRANCH   3  32
TORSDOF 15
ENDMDL
MODEL 3
REMARK VINA RESULT:     -12.3      4.194      9.197
REMARK SMILES O=C(COc1ccc(/C=C2\SC(=O)N(Cc3cc4c(cc3Cl)OCO4)C2=O)cc1)NCCCNC(=O)c1ccc(-c2c3nc(c(-c4c(F)cccc4F)c4ccc([nH]4)c(-c4c(F)cccc4F)c4nc(c(-c5c(F)cccc5F)c5ccc2[nH]5)C=C4)C=C3)cc1
REMARK SMILES IDX 1 1 2 2 30 3 3 5 4 6 5 7 6 8 29 9 7 10 28 11 8 12 9 13 10 14
REMARK SMILES IDX 11 15 26 16 12 17 14 18 27 19 13 20 15 21 16 22 17 23 21 24
REMARK SMILES IDX 18 25 20 26 22 27 19 28 25 29 23 30 24 31 31 32 32 33 33 34
REMARK SMILES IDX 34 35 35 36 36 38 37 39 38 40 90 41 39 42 89 43 40 44 41 45
REMARK SMILES IDX 42 46 83 47 43 48 88 49 82 50 84 51 44 52 87 53 81 54 80 55
REMARK SMILES IDX 45 57 71 58 54 59 70 60 55 61 58 62 69 63 85 64 56 65 57 66
REMARK SMILES IDX 68 68 86 69 59 70 46 71 47 72 52 73 48 74 49 75 51 76 53 77
REMARK SMILES IDX 50 78 72 79 73 80 78 81 74 82 75 83 77 84 79 85 76 86 60 87
REMARK SMILES IDX 61 88 66 89 62 90 63 91 65 92 67 93 64 94
REMARK H PARENT 30 4 34 37 84 56 58 67
REMARK Flexibility Score: inf
ROOT
ATOM      1  O   UNL A   1      36.399  34.882  33.618  1.00  0.00    -0.271 OA
ATOM      2  C   UNL A   1      36.406  33.713  33.244  1.00  0.00     0.257 C 
ATOM      3  N   UNL A   1      35.693  33.264  32.150  1.00  0.00    -0.353 N 
ATOM      4  H   UNL A   1      35.942  32.407  31.735  1.00  0.00     0.163 HD
ENDROOT
BRANCH   2   5
ATOM      5  C   UNL A   1      37.134  32.603  34.022  1.00  0.00     0.329 C 
BRANCH   5   6
ATOM      6  O   UNL A   1      37.055  31.270  33.519  1.00  0.00    -0.484 OA
BRANCH   6   7
ATOM      7  C   UNL A   1      38.221  30.551  33.480  1.00  0.00     0.120 A 
ATOM      8  C   UNL A   1      38.139  29.253  32.960  1.00  0.00     0.047 A 
ATOM      9  C   UNL A   1      39.437  30.997  33.991  1.00  0.00     0.047 A 
ATOM     10  C   UNL A   1      39.264  28.414  32.949  1.00  0.00     0.012 A 
ATOM     11  C   UNL A   1      40.536  30.156  34.028  1.00  0.00     0.012 A 
ATOM     12  C   UNL A   1      40.461  28.870  33.499  1.00  0.00    -0.024 A 
BRANCH  12  13
ATOM     13  C   UNL A   1      41.724  28.153  33.498  1.00  0.00     0.029 C 
ATOM     14  C   UNL A   1      42.379  27.733  34.581  1.00  0.00     0.083 C 
ATOM     15  S   UNL A   1      41.870  27.484  36.195  1.00  0.00    -0.022 SA
ATOM     16  C   UNL A   1      43.810  27.392  34.461  1.00  0.00     0.268 C 
ATOM     17  C   UNL A   1      43.332  26.552  36.563  1.00  0.00     0.293 C 
ATOM     18  N   UNL A   1      44.152  26.536  35.465  1.00  0.00    -0.264 N 
ATOM     19  O   UNL A   1      44.557  27.884  33.628  1.00  0.00    -0.268 OA
ATOM     20  O   UNL A   1      43.546  26.058  37.652  1.00  0.00    -0.261 OA
BRANCH  18  21
ATOM     21  C   UNL A   1      45.405  25.818  35.417  1.00  0.00     0.167 C 
BRANCH  21  22
ATOM     22  C   UNL A   1      45.239  24.315  35.238  1.00  0.00    -0.005 A 
ATOM     23  C   UNL A   1      45.579  23.494  36.335  1.00  0.00     0.057 A 
ATOM     24  C   UNL A   1      44.851  23.679  34.024  1.00  0.00     0.050 A 
ATOM     25  C   UNL A   1      45.542  22.123  36.178  1.00  0.00     0.166 A 
ATOM     26  C   UNL A   1      44.770  22.286  33.918  1.00  0.00     0.071 A 
ATOM     27  Cl  UNL A   1      44.510  24.511  32.554  1.00  0.00    -0.084 Cl
ATOM     28  C   UNL A   1      45.141  21.538  35.005  1.00  0.00     0.167 A 
ATOM     29  O   UNL A   1      45.916  21.202  37.106  1.00  0.00    -0.454 OA
ATOM     30  O   UNL A   1      45.200  20.182  35.045  1.00  0.00    -0.454 OA
ATOM     31  C   UNL A   1      45.833  19.989  36.326  1.00  0.00     0.468 C 
ENDBRANCH  21  22
ENDBRANCH  18  21
ENDBRANCH  12  13
ENDBRANCH   6   7
ENDBRANCH   5   6
ENDBRANCH   2   5
BRANCH   3  32
ATOM     32  C   UNL A   1      34.588  34.020  31.600  1.00  0.00     0.117 C 
BRANCH  32  33
ATOM     33  C   UNL A   1      34.626  34.137  30.089  1.00  0.00     0.042 C 
BRANCH  33  34
ATOM     34  C   UNL A   1      35.321  32.967  29.408  1.00  0.00     0.118 C 
BRANCH  34  35
ATOM     35  N   UNL A   1      34.415  32.112  28.649  1.00  0.00    -0.352 N 
ATOM     36  C   UNL A   1      34.642  30.874  28.096  1.00  0.00     0.251 C 
ATOM     37  H   UNL A   1      33.509  32.474  28.513  1.00  0.00     0.163 HD
ATOM     38  O   UNL A   1      33.789  30.344  27.392  1.00  0.00    -0.269 OA
BRANCH  36  39
ATOM     39  C   UNL A   1      35.938  30.201  28.320  1.00  0.00     0.039 A 
ATOM     40  C   UNL A   1      36.923  30.282  27.332  1.00  0.00     0.014 A 
ATOM     41  C   UNL A   1      36.194  29.530  29.518  1.00  0.00     0.014 A 
ATOM     42  C   UNL A   1      38.199  29.774  27.586  1.00  0.00     0.010 A 
ATOM     43  C   UNL A   1      37.485  29.094  29.799  1.00  0.00     0.010 A 
ATOM     44  C   UNL A   1      38.502  29.224  28.841  1.00  0.00    -0.014 A 
BRANCH  44  45
ATOM     45  C   UNL A   1      39.877  28.792  29.197  1.00  0.00     0.031 A 
ATOM     46  C   UNL A   1      40.803  29.747  29.894  1.00  0.00     0.074 A 
ATOM     47  C   UNL A   1      40.326  27.588  28.795  1.00  0.00     0.049 A 
ATOM     48  N   UNL A   1      42.084  29.631  30.136  1.00  0.00    -0.248 NA
ATOM     49  C   UNL A   1      40.216  31.016  30.355  1.00  0.00     0.031 C 
ATOM     50  C   UNL A   1      39.537  26.584  28.076  1.00  0.00     0.029 A 
ATOM     51  N   UNL A   1      41.567  27.014  28.910  1.00  0.00    -0.354 N 
ATOM     52  C   UNL A   1      42.461  30.820  30.747  1.00  0.00     0.074 A 
ATOM     53  C   UNL A   1      41.282  31.658  30.807  1.00  0.00     0.031 C 
ATOM     54  C   UNL A   1      40.312  25.517  27.823  1.00  0.00     0.029 A 
ATOM     55  C   UNL A   1      41.659  25.777  28.318  1.00  0.00     0.049 A 
ATOM     56  H   UNL A   1      42.321  27.447  29.372  1.00  0.00     0.167 HD
ATOM     57  C   UNL A   1      43.676  31.174  31.226  1.00  0.00     0.037 A 
ATOM     58  C   UNL A   1      42.716  24.955  28.173  1.00  0.00     0.037 A 
ATOM     59  C   UNL A   1      44.837  30.325  31.197  1.00  0.00     0.049 A 
ATOM     60  C   UNL A   1      44.054  25.371  28.715  1.00  0.00     0.074 A 
ATOM     61  C   UNL A   1      46.099  30.573  31.709  1.00  0.00     0.029 A 
ATOM     62  N   UNL A   1      44.877  29.063  30.626  1.00  0.00    -0.354 N 
ATOM     63  N   UNL A   1      44.387  26.479  29.330  1.00  0.00    -0.248 NA
ATOM     64  C   UNL A   1      45.165  24.422  28.542  1.00  0.00     0.031 C 
ATOM     65  C   UNL A   1      46.911  29.472  31.421  1.00  0.00     0.029 A 
ATOM     66  C   UNL A   1      46.145  28.523  30.762  1.00  0.00     0.049 A 
ATOM     67  H   UNL A   1      44.117  28.616  30.187  1.00  0.00     0.167 HD
ATOM     68  C   UNL A   1      45.733  26.348  29.649  1.00  0.00     0.074 A 
ATOM     69  C   UNL A   1      46.155  25.052  29.160  1.00  0.00     0.031 C 
ATOM     70  C   UNL A   1      46.543  27.222  30.290  1.00  0.00     0.037 A 
BRANCH  57  71
ATOM     71  C   UNL A   1      43.808  32.541  31.829  1.00  0.00     0.057 A 
ATOM     72  C   UNL A   1      44.098  33.666  31.047  1.00  0.00     0.134 A 
ATOM     73  C   UNL A   1      43.611  32.739  33.200  1.00  0.00     0.134 A 
ATOM     74  F   UNL A   1      44.311  33.542  29.728  1.00  0.00    -0.206 F 
ATOM     75  C   UNL A   1      44.211  34.938  31.612  1.00  0.00     0.040 A 
ATOM     76  C   UNL A   1      43.696  34.008  33.774  1.00  0.00     0.040 A 
ATOM     77  F   UNL A   1      43.324  31.705  34.006  1.00  0.00    -0.206 F 
ATOM     78  C   UNL A   1      44.003  35.112  32.979  1.00  0.00     0.006 A 
ENDBRANCH  57  71
BRANCH  58  79
ATOM     79  C   UNL A   1      42.548  23.647  27.493  1.00  0.00     0.057 A 
ATOM     80  C   UNL A   1      42.269  22.487  28.227  1.00  0.00     0.134 A 
ATOM     81  C   UNL A   1      42.665  23.520  26.105  1.00  0.00     0.134 A 
ATOM     82  F   UNL A   1      42.166  22.543  29.563  1.00  0.00    -0.206 F 
ATOM     83  C   UNL A   1      42.127  21.246  27.606  1.00  0.00     0.040 A 
ATOM     84  C   UNL A   1      42.503  22.287  25.468  1.00  0.00     0.040 A 
ATOM     85  F   UNL A   1      42.925  24.594  25.345  1.00  0.00    -0.206 F 
ATOM     86  C   UNL A   1      42.240  21.145  26.221  1.00  0.00     0.006 A 
ENDBRANCH  58  79
BRANCH  70  87
ATOM     87  C   UNL A   1      47.954  26.791  30.554  1.00  0.00     0.057 A 
ATOM     88  C   UNL A   1      48.307  26.083  31.709  1.00  0.00     0.134 A 
ATOM     89  C   UNL A   1      48.958  27.036  29.608  1.00  0.00     0.134 A 
ATOM     90  F   UNL A   1      47.393  25.829  32.657  1.00  0.00    -0.206 F 
ATOM     91  C   UNL A   1      49.615  25.642  31.919  1.00  0.00     0.040 A 
ATOM     92  C   UNL A   1      50.263  26.581  29.797  1.00  0.00     0.040 A 
ATOM     93  F   UNL A   1      48.680  27.703  28.478  1.00  0.00    -0.206 F 
ATOM     94  C   UNL A   1      50.595  25.884  30.957  1.00  0.00     0.006 A 
ENDBRANCH  70  87
ENDBRANCH  44  45
ENDBRANCH  36  39
ENDBRANCH  34  35
ENDBRANCH  33  34
ENDBRANCH  32  33
ENDBRANCH   3  32
TORSDOF 15
ENDMDL
