MODEL 1
REMARK VINA RESULT:     -12.6      0.000      0.000
REMARK SMILES Cc1cc2c(c(C)c1Br)C=C(C(=O)NCCCNC(=O)c1ccc(-c3c4nc(c(-c5c(F)cccc5F)c5ccc([nH]5)c(-c5c(F)cccc5F)c5nc(c(-c6c(F)cccc6F)c6ccc3[nH]6)C=C5)C=C4)cc1)[C@@H](C(F)(F)F)O2
REMARK SMILES IDX 16 1 15 2 14 3 12 4 13 5 11 7 1 8 2 9 3 10 8 11 4 12 6 13
REMARK SMILES IDX 9 14 5 15 80 16 7 17 10 18 75 19 76 20 77 21 78 22 79 23
REMARK SMILES IDX 17 24 18 25 19 26 20 28 21 29 22 30 74 31 23 32 73 33 24 34
REMARK SMILES IDX 25 35 26 36 67 37 27 38 72 39 66 40 68 41 28 42 71 43 65 44
REMARK SMILES IDX 64 45 29 47 55 48 38 49 54 50 39 51 42 52 53 53 69 54 40 55
REMARK SMILES IDX 41 56 52 58 70 59 43 60 30 61 31 62 36 63 32 64 33 65 35 66
REMARK SMILES IDX 37 67 34 68 56 69 57 70 62 71 58 72 59 73 61 74 63 75 60 76
REMARK SMILES IDX 44 77 45 78 50 79 46 80 47 81 49 82 51 83 48 84
REMARK H PARENT 14 6 18 27 68 46 42 57
REMARK Flexibility Score: inf
ROOT
ATOM      1  C   UNL A   1      37.733  19.610  24.849  1.00  0.00     0.042 C 
ENDROOT
BRANCH   1   2
ATOM      2  C   UNL A   1      36.429  20.376  25.004  1.00  0.00     0.118 C 
BRANCH   2   3
ATOM      3  N   UNL A   1      35.275  19.490  24.967  1.00  0.00    -0.352 N 
ATOM      4  C   UNL A   1      33.927  19.610  24.991  1.00  0.00     0.251 C 
ATOM      5  O   UNL A   1      33.305  18.544  24.944  1.00  0.00    -0.270 OA
ATOM      6  H   UNL A   1      35.549  18.547  24.907  1.00  0.00     0.163 HD
BRANCH   4   7
ATOM      7  C   UNL A   1      33.184  20.899  25.070  1.00  0.00     0.067 C 
ATOM      8  C   UNL A   1      30.068  26.539  24.211  1.00  0.00     0.046 C 
ATOM      9  C   UNL A   1      30.873  25.278  24.043  1.00  0.00    -0.033 A 
ATOM     10  C   UNL A   1      30.874  24.375  25.109  1.00  0.00     0.051 A 
ATOM     11  C   UNL A   1      31.661  24.990  22.907  1.00  0.00     0.024 A 
ATOM     12  C   UNL A   1      31.620  23.206  25.047  1.00  0.00     0.128 A 
ATOM     13  C   UNL A   1      32.408  23.785  22.820  1.00  0.00    -0.026 A 
ATOM     14  Br  UNL A   1      31.710  26.272  21.487  1.00  0.00    -0.050 Br
ATOM     15  C   UNL A   1      32.375  22.885  23.916  1.00  0.00     0.021 A 
ATOM     16  O   UNL A   1      31.519  22.396  26.141  1.00  0.00    -0.475 OA
ATOM     17  C   UNL A   1      33.234  23.425  21.606  1.00  0.00     0.046 C 
ATOM     18  C   UNL A   1      33.075  21.595  23.922  1.00  0.00     0.026 C 
ATOM     19  C   UNL A   1      32.594  21.446  26.334  1.00  0.00     0.314 C 
BRANCH  19  20
ATOM     20  C   UNL A   1      33.655  22.045  27.277  1.00  0.00     0.429 C 
ATOM     21  F   UNL A   1      33.059  22.611  28.357  1.00  0.00    -0.167 F 
ATOM     22  F   UNL A   1      34.509  21.112  27.760  1.00  0.00    -0.167 F 
ATOM     23  F   UNL A   1      34.409  22.995  26.684  1.00  0.00    -0.167 F 
ENDBRANCH  19  20
ENDBRANCH   4   7
ENDBRANCH   2   3
ENDBRANCH   1   2
BRANCH   1  24
ATOM     24  C   UNL A   1      38.842  20.199  25.710  1.00  0.00     0.118 C 
BRANCH  24  25
ATOM     25  N   UNL A   1      39.985  19.295  25.812  1.00  0.00    -0.352 N 
ATOM     26  C   UNL A   1      41.309  19.566  26.042  1.00  0.00     0.251 C 
ATOM     27  H   UNL A   1      39.771  18.340  25.697  1.00  0.00     0.163 HD
ATOM     28  O   UNL A   1      42.162  18.713  25.810  1.00  0.00    -0.269 OA
BRANCH  26  29
ATOM     29  C   UNL A   1      41.707  20.885  26.564  1.00  0.00     0.039 A 
ATOM     30  C   UNL A   1      42.126  21.880  25.678  1.00  0.00     0.014 A 
ATOM     31  C   UNL A   1      41.681  21.131  27.939  1.00  0.00     0.014 A 
ATOM     32  C   UNL A   1      42.452  23.144  26.171  1.00  0.00     0.010 A 
ATOM     33  C   UNL A   1      41.901  22.414  28.415  1.00  0.00     0.010 A 
ATOM     34  C   UNL A   1      42.306  23.429  27.538  1.00  0.00    -0.014 A 
BRANCH  34  35
ATOM     35  C   UNL A   1      42.605  24.772  28.084  1.00  0.00     0.031 A 
ATOM     36  C   UNL A   1      44.019  25.128  28.450  1.00  0.00     0.074 A 
ATOM     37  C   UNL A   1      41.602  25.647  28.293  1.00  0.00     0.049 A 
ATOM     38  N   UNL A   1      44.480  26.224  28.996  1.00  0.00    -0.248 NA
ATOM     39  C   UNL A   1      45.051  24.108  28.194  1.00  0.00     0.031 C 
ATOM     40  C   UNL A   1      40.187  25.398  28.007  1.00  0.00     0.029 A 
ATOM     41  N   UNL A   1      41.620  26.926  28.789  1.00  0.00    -0.354 N 
ATOM     42  C   UNL A   1      45.846  26.023  29.144  1.00  0.00     0.074 A 
ATOM     43  C   UNL A   1      46.131  24.675  28.709  1.00  0.00     0.031 C 
ATOM     44  C   UNL A   1      39.481  26.504  28.287  1.00  0.00     0.029 A 
ATOM     45  C   UNL A   1      40.383  27.524  28.811  1.00  0.00     0.049 A 
ATOM     46  H   UNL A   1      42.441  27.372  29.099  1.00  0.00     0.167 HD
ATOM     47  C   UNL A   1      46.786  26.899  29.567  1.00  0.00     0.037 A 
ATOM     48  C   UNL A   1      40.024  28.760  29.206  1.00  0.00     0.037 A 
ATOM     49  C   UNL A   1      46.500  28.247  29.977  1.00  0.00     0.049 A 
ATOM     50  C   UNL A   1      41.083  29.698  29.718  1.00  0.00     0.074 A 
ATOM     51  C   UNL A   1      47.382  29.222  30.402  1.00  0.00     0.029 A 
ATOM     52  N   UNL A   1      45.232  28.808  30.006  1.00  0.00    -0.354 N 
ATOM     53  N   UNL A   1      42.377  29.509  29.814  1.00  0.00    -0.248 NA
ATOM     54  C   UNL A   1      40.632  31.020  30.176  1.00  0.00     0.031 C 
ATOM     55  C   UNL A   1      46.645  30.364  30.723  1.00  0.00     0.029 A 
ATOM     56  C   UNL A   1      45.308  30.114  30.455  1.00  0.00     0.049 A 
ATOM     57  H   UNL A   1      44.403  28.346  29.745  1.00  0.00     0.167 HD
ATOM     58  C   UNL A   1      42.898  30.695  30.313  1.00  0.00     0.074 A 
ATOM     59  C   UNL A   1      41.782  31.601  30.489  1.00  0.00     0.031 C 
ATOM     60  C   UNL A   1      44.185  31.005  30.605  1.00  0.00     0.037 A 
BRANCH  47  61
ATOM     61  C   UNL A   1      48.214  26.438  29.573  1.00  0.00     0.057 A 
ATOM     62  C   UNL A   1      49.058  26.666  28.479  1.00  0.00     0.134 A 
ATOM     63  C   UNL A   1      48.767  25.816  30.699  1.00  0.00     0.134 A 
ATOM     64  F   UNL A   1      48.586  27.244  27.365  1.00  0.00    -0.206 F 
ATOM     65  C   UNL A   1      50.399  26.278  28.497  1.00  0.00     0.040 A 
ATOM     66  C   UNL A   1      50.114  25.449  30.740  1.00  0.00     0.040 A 
ATOM     67  F   UNL A   1      48.014  25.571  31.782  1.00  0.00    -0.206 F 
ATOM     68  C   UNL A   1      50.932  25.677  29.635  1.00  0.00     0.006 A 
ENDBRANCH  47  61
BRANCH  48  69
ATOM     69  C   UNL A   1      38.610  29.199  29.089  1.00  0.00     0.057 A 
ATOM     70  C   UNL A   1      38.099  29.647  27.864  1.00  0.00     0.134 A 
ATOM     71  C   UNL A   1      37.736  29.182  30.183  1.00  0.00     0.134 A 
ATOM     72  F   UNL A   1      38.890  29.700  26.783  1.00  0.00    -0.206 F 
ATOM     73  C   UNL A   1      36.778  30.076  27.734  1.00  0.00     0.040 A 
ATOM     74  C   UNL A   1      36.405  29.585  30.062  1.00  0.00     0.040 A 
ATOM     75  F   UNL A   1      38.160  28.758  31.382  1.00  0.00    -0.206 F 
ATOM     76  C   UNL A   1      35.924  30.041  28.835  1.00  0.00     0.006 A 
ENDBRANCH  48  69
BRANCH  60  77
ATOM     77  C   UNL A   1      44.469  32.386  31.117  1.00  0.00     0.057 A 
ATOM     78  C   UNL A   1      44.698  33.459  30.247  1.00  0.00     0.134 A 
ATOM     79  C   UNL A   1      44.421  32.660  32.489  1.00  0.00     0.134 A 
ATOM     80  F   UNL A   1      44.765  33.259  28.923  1.00  0.00    -0.206 F 
ATOM     81  C   UNL A   1      44.880  34.756  30.727  1.00  0.00     0.040 A 
ATOM     82  C   UNL A   1      44.574  33.958  32.979  1.00  0.00     0.040 A 
ATOM     83  F   UNL A   1      44.192  31.677  33.373  1.00  0.00    -0.206 F 
ATOM     84  C   UNL A   1      44.807  35.009  32.096  1.00  0.00     0.006 A 
ENDBRANCH  60  77
ENDBRANCH  34  35
ENDBRANCH  26  29
ENDBRANCH  24  25
ENDBRANCH   1  24
TORSDOF 11
ENDMDL
MODEL 2
REMARK VINA RESULT:     -12.5      0.622      1.524
REMARK SMILES Cc1cc2c(c(C)c1Br)C=C(C(=O)NCCCNC(=O)c1ccc(-c3c4nc(c(-c5c(F)cccc5F)c5ccc([nH]5)c(-c5c(F)cccc5F)c5nc(c(-c6c(F)cccc6F)c6ccc3[nH]6)C=C5)C=C4)cc1)[C@@H](C(F)(F)F)O2
REMARK SMILES IDX 16 1 15 2 14 3 12 4 13 5 11 7 1 8 2 9 3 10 8 11 4 12 6 13
REMARK SMILES IDX 9 14 5 15 80 16 7 17 10 18 75 19 76 20 77 21 78 22 79 23
REMARK SMILES IDX 17 24 18 25 19 26 20 28 21 29 22 30 74 31 23 32 73 33 24 34
REMARK SMILES IDX 25 35 26 36 67 37 27 38 72 39 66 40 68 41 28 42 71 43 65 44
REMARK SMILES IDX 64 45 29 47 55 48 38 49 54 50 39 51 42 52 53 53 69 54 40 55
REMARK SMILES IDX 41 56 52 58 70 59 43 60 30 61 31 62 36 63 32 64 33 65 35 66
REMARK SMILES IDX 37 67 34 68 56 69 57 70 62 71 58 72 59 73 61 74 63 75 60 76
REMARK SMILES IDX 44 77 45 78 50 79 46 80 47 81 49 82 51 83 48 84
REMARK H PARENT 14 6 18 27 68 46 42 57
REMARK Flexibility Score: inf
ROOT
ATOM      1  C   UNL A   1      37.748  19.563  24.860  1.00  0.00     0.042 C 
ENDROOT
BRANCH   1   2
ATOM      2  C   UNL A   1      36.451  20.342  25.001  1.00  0.00     0.118 C 
BRANCH   2   3
ATOM      3  N   UNL A   1      35.289  19.466  24.973  1.00  0.00    -0.352 N 
ATOM      4  C   UNL A   1      33.943  19.597  25.001  1.00  0.00     0.251 C 
ATOM      5  O   UNL A   1      33.312  18.537  24.963  1.00  0.00    -0.270 OA
ATOM      6  H   UNL A   1      35.555  18.520  24.919  1.00  0.00     0.163 HD
BRANCH   4   7
ATOM      7  C   UNL A   1      33.211  20.894  25.074  1.00  0.00     0.067 C 
ATOM      8  C   UNL A   1      30.144  26.556  24.189  1.00  0.00     0.046 C 
ATOM      9  C   UNL A   1      30.937  25.287  24.026  1.00  0.00    -0.033 A 
ATOM     10  C   UNL A   1      30.932  24.390  25.097  1.00  0.00     0.051 A 
ATOM     11  C   UNL A   1      31.721  24.986  22.891  1.00  0.00     0.024 A 
ATOM     12  C   UNL A   1      31.668  23.214  25.040  1.00  0.00     0.128 A 
ATOM     13  C   UNL A   1      32.457  23.774  22.810  1.00  0.00    -0.026 A 
ATOM     14  Br  UNL A   1      31.778  26.260  21.464  1.00  0.00    -0.050 Br
ATOM     15  C   UNL A   1      32.418  22.880  23.910  1.00  0.00     0.021 A 
ATOM     16  O   UNL A   1      31.562  22.411  26.140  1.00  0.00    -0.475 OA
ATOM     17  C   UNL A   1      33.278  23.400  21.596  1.00  0.00     0.046 C 
ATOM     18  C   UNL A   1      33.107  21.584  23.923  1.00  0.00     0.026 C 
ATOM     19  C   UNL A   1      32.628  21.453  26.336  1.00  0.00     0.314 C 
BRANCH  19  20
ATOM     20  C   UNL A   1      33.696  22.048  27.274  1.00  0.00     0.429 C 
ATOM     21  F   UNL A   1      34.551  21.078  27.687  1.00  0.00    -0.167 F 
ATOM     22  F   UNL A   1      34.456  22.991  26.667  1.00  0.00    -0.167 F 
ATOM     23  F   UNL A   1      33.168  22.621  28.376  1.00  0.00    -0.167 F 
ENDBRANCH  19  20
ENDBRANCH   4   7
ENDBRANCH   2   3
ENDBRANCH   1   2
BRANCH   1  24
ATOM     24  C   UNL A   1      38.848  20.124  25.751  1.00  0.00     0.118 C 
BRANCH  24  25
ATOM     25  N   UNL A   1      39.980  19.207  25.857  1.00  0.00    -0.352 N 
ATOM     26  C   UNL A   1      41.316  19.467  26.026  1.00  0.00     0.251 C 
ATOM     27  H   UNL A   1      39.747  18.252  25.798  1.00  0.00     0.163 HD
ATOM     28  O   UNL A   1      42.146  18.588  25.806  1.00  0.00    -0.269 OA
BRANCH  26  29
ATOM     29  C   UNL A   1      41.753  20.803  26.466  1.00  0.00     0.039 A 
ATOM     30  C   UNL A   1      42.159  21.744  25.517  1.00  0.00     0.014 A 
ATOM     31  C   UNL A   1      41.776  21.119  27.827  1.00  0.00     0.014 A 
ATOM     32  C   UNL A   1      42.522  23.025  25.933  1.00  0.00     0.010 A 
ATOM     33  C   UNL A   1      42.032  22.420  28.228  1.00  0.00     0.010 A 
ATOM     34  C   UNL A   1      42.425  23.382  27.288  1.00  0.00    -0.014 A 
BRANCH  34  35
ATOM     35  C   UNL A   1      42.764  24.745  27.755  1.00  0.00     0.031 A 
ATOM     36  C   UNL A   1      44.207  25.137  27.922  1.00  0.00     0.074 A 
ATOM     37  C   UNL A   1      41.780  25.608  28.070  1.00  0.00     0.049 A 
ATOM     38  N   UNL A   1      44.712  26.256  28.373  1.00  0.00    -0.248 NA
ATOM     39  C   UNL A   1      45.218  24.128  27.559  1.00  0.00     0.031 C 
ATOM     40  C   UNL A   1      40.345  25.325  27.980  1.00  0.00     0.029 A 
ATOM     41  N   UNL A   1      41.835  26.900  28.526  1.00  0.00    -0.354 N 
ATOM     42  C   UNL A   1      46.090  26.083  28.346  1.00  0.00     0.074 A 
ATOM     43  C   UNL A   1      46.343  24.729  27.912  1.00  0.00     0.031 C 
ATOM     44  C   UNL A   1      39.658  26.426  28.322  1.00  0.00     0.029 A 
ATOM     45  C   UNL A   1      40.599  27.477  28.695  1.00  0.00     0.049 A 
ATOM     46  H   UNL A   1      42.680  27.370  28.714  1.00  0.00     0.167 HD
ATOM     47  C   UNL A   1      47.058  26.988  28.618  1.00  0.00     0.037 A 
ATOM     48  C   UNL A   1      40.268  28.717  29.101  1.00  0.00     0.037 A 
ATOM     49  C   UNL A   1      46.799  28.342  29.027  1.00  0.00     0.049 A 
ATOM     50  C   UNL A   1      41.365  29.689  29.444  1.00  0.00     0.074 A 
ATOM     51  C   UNL A   1      47.708  29.345  29.306  1.00  0.00     0.029 A 
ATOM     52  N   UNL A   1      45.534  28.881  29.207  1.00  0.00    -0.354 N 
ATOM     53  N   UNL A   1      42.665  29.525  29.374  1.00  0.00    -0.248 NA
ATOM     54  C   UNL A   1      40.950  31.015  29.923  1.00  0.00     0.031 C 
ATOM     55  C   UNL A   1      46.995  30.482  29.691  1.00  0.00     0.029 A 
ATOM     56  C   UNL A   1      45.640  30.201  29.607  1.00  0.00     0.049 A 
ATOM     57  H   UNL A   1      44.688  28.397  29.070  1.00  0.00     0.167 HD
ATOM     58  C   UNL A   1      43.221  30.734  29.770  1.00  0.00     0.074 A 
ATOM     59  C   UNL A   1      42.118  31.625  30.066  1.00  0.00     0.031 C 
ATOM     60  C   UNL A   1      44.528  31.075  29.881  1.00  0.00     0.037 A 
BRANCH  47  61
ATOM     61  C   UNL A   1      48.483  26.553  28.448  1.00  0.00     0.057 A 
ATOM     62  C   UNL A   1      49.194  25.958  29.499  1.00  0.00     0.134 A 
ATOM     63  C   UNL A   1      49.134  26.674  27.214  1.00  0.00     0.134 A 
ATOM     64  F   UNL A   1      48.635  25.826  30.710  1.00  0.00    -0.206 F 
ATOM     65  C   UNL A   1      50.507  25.513  29.333  1.00  0.00     0.040 A 
ATOM     66  C   UNL A   1      50.436  26.207  27.028  1.00  0.00     0.040 A 
ATOM     67  F   UNL A   1      48.509  27.232  26.166  1.00  0.00    -0.206 F 
ATOM     68  C   UNL A   1      51.127  25.628  28.091  1.00  0.00     0.006 A 
ENDBRANCH  47  61
BRANCH  48  69
ATOM     69  C   UNL A   1      38.842  29.128  29.160  1.00  0.00     0.057 A 
ATOM     70  C   UNL A   1      38.186  29.600  28.016  1.00  0.00     0.134 A 
ATOM     71  C   UNL A   1      38.100  29.059  30.345  1.00  0.00     0.134 A 
ATOM     72  F   UNL A   1      38.848  29.703  26.854  1.00  0.00    -0.206 F 
ATOM     73  C   UNL A   1      36.851  30.003  28.051  1.00  0.00     0.040 A 
ATOM     74  C   UNL A   1      36.756  29.435  30.389  1.00  0.00     0.040 A 
ATOM     75  F   UNL A   1      38.666  28.609  31.474  1.00  0.00    -0.206 F 
ATOM     76  C   UNL A   1      36.130  29.915  29.240  1.00  0.00     0.006 A 
ENDBRANCH  48  69
BRANCH  60  77
ATOM     77  C   UNL A   1      44.846  32.475  30.314  1.00  0.00     0.057 A 
ATOM     78  C   UNL A   1      45.086  32.792  31.656  1.00  0.00     0.134 A 
ATOM     79  C   UNL A   1      45.003  33.495  29.368  1.00  0.00     0.134 A 
ATOM     80  F   UNL A   1      44.944  31.861  32.611  1.00  0.00    -0.206 F 
ATOM     81  C   UNL A   1      45.462  34.079  32.044  1.00  0.00     0.040 A 
ATOM     82  C   UNL A   1      45.404  34.779  29.739  1.00  0.00     0.040 A 
ATOM     83  F   UNL A   1      44.799  33.253  28.064  1.00  0.00    -0.206 F 
ATOM     84  C   UNL A   1      45.632  35.073  31.081  1.00  0.00     0.006 A 
ENDBRANCH  60  77
ENDBRANCH  34  35
ENDBRANCH  26  29
ENDBRANCH  24  25
ENDBRANCH   1  24
TORSDOF 11
ENDMDL
MODEL 3
REMARK VINA RESULT:     -12.5      0.268      6.287
REMARK SMILES Cc1cc2c(c(C)c1Br)C=C(C(=O)NCCCNC(=O)c1ccc(-c3c4nc(c(-c5c(F)cccc5F)c5ccc([nH]5)c(-c5c(F)cccc5F)c5nc(c(-c6c(F)cccc6F)c6ccc3[nH]6)C=C5)C=C4)cc1)[C@@H](C(F)(F)F)O2
REMARK SMILES IDX 16 1 15 2 14 3 12 4 13 5 11 7 1 8 2 9 3 10 8 11 4 12 6 13
REMARK SMILES IDX 9 14 5 15 80 16 7 17 10 18 75 19 76 20 77 21 78 22 79 23
REMARK SMILES IDX 17 24 18 25 19 26 20 28 21 29 22 30 74 31 23 32 73 33 24 34
REMARK SMILES IDX 25 35 26 36 67 37 27 38 72 39 66 40 68 41 28 42 71 43 65 44
REMARK SMILES IDX 64 45 29 47 55 48 38 49 54 50 39 51 42 52 53 53 69 54 40 55
REMARK SMILES IDX 41 56 52 58 70 59 43 60 30 61 31 62 36 63 32 64 33 65 35 66
REMARK SMILES IDX 37 67 34 68 56 69 57 70 62 71 58 72 59 73 61 74 63 75 60 76
REMARK SMILES IDX 44 77 45 78 50 79 46 80 47 81 49 82 51 83 48 84
REMARK H PARENT 14 6 18 27 68 46 42 57
REMARK Flexibility Score: inf
ROOT
ATOM      1  C   UNL A   1      37.788  19.876  24.817  1.00  0.00     0.042 C 
ENDROOT
BRANCH   1   2
ATOM      2  C   UNL A   1      36.461  20.567  25.086  1.00  0.00     0.118 C 
BRANCH   2   3
ATOM      3  N   UNL A   1      35.342  19.641  24.997  1.00  0.00    -0.352 N 
ATOM      4  C   UNL A   1      33.991  19.711  24.988  1.00  0.00     0.251 C 
ATOM      5  O   UNL A   1      33.410  18.625  24.899  1.00  0.00    -0.270 OA
ATOM      6  H   UNL A   1      35.653  18.710  24.922  1.00  0.00     0.163 HD
BRANCH   4   7
ATOM      7  C   UNL A   1      33.198  20.970  25.078  1.00  0.00     0.067 C 
ATOM      8  C   UNL A   1      29.891  26.506  24.267  1.00  0.00     0.046 C 
ATOM      9  C   UNL A   1      30.745  25.280  24.090  1.00  0.00    -0.033 A 
ATOM     10  C   UNL A   1      30.760  24.356  25.138  1.00  0.00     0.051 A 
ATOM     11  C   UNL A   1      31.564  25.044  22.965  1.00  0.00     0.024 A 
ATOM     12  C   UNL A   1      31.550  23.217  25.068  1.00  0.00     0.128 A 
ATOM     13  C   UNL A   1      32.358  23.869  22.869  1.00  0.00    -0.026 A 
ATOM     14  Br  UNL A   1      31.592  26.356  21.571  1.00  0.00    -0.050 Br
ATOM     15  C   UNL A   1      32.338  22.947  23.947  1.00  0.00     0.021 A 
ATOM     16  O   UNL A   1      31.459  22.382  26.145  1.00  0.00    -0.475 OA
ATOM     17  C   UNL A   1      33.220  23.565  21.664  1.00  0.00     0.046 C 
ATOM     18  C   UNL A   1      33.086  21.684  23.941  1.00  0.00     0.026 C 
ATOM     19  C   UNL A   1      32.565  21.469  26.340  1.00  0.00     0.314 C 
BRANCH  19  20
ATOM     20  C   UNL A   1      33.585  22.088  27.315  1.00  0.00     0.429 C 
ATOM     21  F   UNL A   1      32.946  22.624  28.386  1.00  0.00    -0.167 F 
ATOM     22  F   UNL A   1      34.454  21.174  27.809  1.00  0.00    -0.167 F 
ATOM     23  F   UNL A   1      34.325  23.066  26.751  1.00  0.00    -0.167 F 
ENDBRANCH  19  20
ENDBRANCH   4   7
ENDBRANCH   2   3
ENDBRANCH   1   2
BRANCH   1  24
ATOM     24  C   UNL A   1      38.889  20.381  25.739  1.00  0.00     0.118 C 
BRANCH  24  25
ATOM     25  N   UNL A   1      39.973  19.412  25.870  1.00  0.00    -0.352 N 
ATOM     26  C   UNL A   1      41.309  19.606  26.113  1.00  0.00     0.251 C 
ATOM     27  H   UNL A   1      39.703  18.471  25.766  1.00  0.00     0.163 HD
ATOM     28  O   UNL A   1      42.111  18.699  25.905  1.00  0.00    -0.269 OA
BRANCH  26  29
ATOM     29  C   UNL A   1      41.779  20.907  26.621  1.00  0.00     0.039 A 
ATOM     30  C   UNL A   1      42.289  21.852  25.728  1.00  0.00     0.014 A 
ATOM     31  C   UNL A   1      41.731  21.183  27.989  1.00  0.00     0.014 A 
ATOM     32  C   UNL A   1      42.685  23.102  26.205  1.00  0.00     0.010 A 
ATOM     33  C   UNL A   1      42.023  22.459  28.446  1.00  0.00     0.010 A 
ATOM     34  C   UNL A   1      42.519  23.426  27.561  1.00  0.00    -0.014 A 
BRANCH  34  35
ATOM     35  C   UNL A   1      42.892  24.758  28.090  1.00  0.00     0.031 A 
ATOM     36  C   UNL A   1      41.830  25.804  28.285  1.00  0.00     0.074 A 
ATOM     37  C   UNL A   1      44.185  25.036  28.348  1.00  0.00     0.049 A 
ATOM     38  N   UNL A   1      41.957  27.045  28.679  1.00  0.00    -0.248 NA
ATOM     39  C   UNL A   1      40.445  25.414  27.972  1.00  0.00     0.031 C 
ATOM     40  C   UNL A   1      45.304  24.109  28.164  1.00  0.00     0.029 A 
ATOM     41  N   UNL A   1      44.775  26.178  28.826  1.00  0.00    -0.354 N 
ATOM     42  C   UNL A   1      40.674  27.577  28.660  1.00  0.00     0.074 A 
ATOM     43  C   UNL A   1      39.794  26.555  28.142  1.00  0.00     0.031 C 
ATOM     44  C   UNL A   1      46.437  24.703  28.569  1.00  0.00     0.029 A 
ATOM     45  C   UNL A   1      46.133  26.064  29.000  1.00  0.00     0.049 A 
ATOM     46  H   UNL A   1      44.273  27.002  29.024  1.00  0.00     0.167 HD
ATOM     47  C   UNL A   1      40.260  28.795  29.078  1.00  0.00     0.037 A 
ATOM     48  C   UNL A   1      47.027  26.957  29.463  1.00  0.00     0.037 A 
ATOM     49  C   UNL A   1      41.137  29.799  29.615  1.00  0.00     0.049 A 
ATOM     50  C   UNL A   1      46.547  28.322  29.876  1.00  0.00     0.074 A 
ATOM     51  C   UNL A   1      40.816  31.058  30.087  1.00  0.00     0.029 A 
ATOM     52  N   UNL A   1      42.509  29.652  29.756  1.00  0.00    -0.354 N 
ATOM     53  N   UNL A   1      45.324  28.797  29.891  1.00  0.00    -0.248 NA
ATOM     54  C   UNL A   1      47.568  29.274  30.333  1.00  0.00     0.031 C 
ATOM     55  C   UNL A   1      41.998  31.689  30.480  1.00  0.00     0.029 A 
ATOM     56  C   UNL A   1      43.050  30.805  30.296  1.00  0.00     0.049 A 
ATOM     57  H   UNL A   1      43.020  28.848  29.509  1.00  0.00     0.167 HD
ATOM     58  C   UNL A   1      45.426  30.090  30.388  1.00  0.00     0.074 A 
ATOM     59  C   UNL A   1      46.827  30.320  30.672  1.00  0.00     0.031 C 
ATOM     60  C   UNL A   1      44.447  31.006  30.587  1.00  0.00     0.037 A 
BRANCH  47  61
ATOM     61  C   UNL A   1      38.792  29.094  29.004  1.00  0.00     0.057 A 
ATOM     62  C   UNL A   1      37.967  28.981  30.130  1.00  0.00     0.134 A 
ATOM     63  C   UNL A   1      38.207  29.554  27.817  1.00  0.00     0.134 A 
ATOM     64  F   UNL A   1      38.461  28.531  31.293  1.00  0.00    -0.206 F 
ATOM     65  C   UNL A   1      36.608  29.299  30.077  1.00  0.00     0.040 A 
ATOM     66  C   UNL A   1      36.857  29.903  27.758  1.00  0.00     0.040 A 
ATOM     67  F   UNL A   1      38.941  29.688  26.703  1.00  0.00    -0.206 F 
ATOM     68  C   UNL A   1      36.053  29.772  28.890  1.00  0.00     0.006 A 
ENDBRANCH  47  61
BRANCH  48  69
ATOM     69  C   UNL A   1      48.456  26.577  29.607  1.00  0.00     0.057 A 
ATOM     70  C   UNL A   1      48.908  25.920  30.758  1.00  0.00     0.134 A 
ATOM     71  C   UNL A   1      49.400  26.854  28.610  1.00  0.00     0.134 A 
ATOM     72  F   UNL A   1      48.056  25.642  31.754  1.00  0.00    -0.206 F 
ATOM     73  C   UNL A   1      50.248  25.566  30.920  1.00  0.00     0.040 A 
ATOM     74  C   UNL A   1      50.738  26.483  28.748  1.00  0.00     0.040 A 
ATOM     75  F   UNL A   1      49.030  27.474  27.480  1.00  0.00    -0.206 F 
ATOM     76  C   UNL A   1      51.167  25.842  29.909  1.00  0.00     0.006 A 
ENDBRANCH  48  69
BRANCH  60  77
ATOM     77  C   UNL A   1      44.844  32.333  31.164  1.00  0.00     0.057 A 
ATOM     78  C   UNL A   1      45.165  33.422  30.346  1.00  0.00     0.134 A 
ATOM     79  C   UNL A   1      44.815  32.544  32.548  1.00  0.00     0.134 A 
ATOM     80  F   UNL A   1      45.219  33.281  29.014  1.00  0.00    -0.206 F 
ATOM     81  C   UNL A   1      45.454  34.676  30.887  1.00  0.00     0.040 A 
ATOM     82  C   UNL A   1      45.076  33.799  33.099  1.00  0.00     0.040 A 
ATOM     83  F   UNL A   1      44.503  31.543  33.384  1.00  0.00    -0.206 F 
ATOM     84  C   UNL A   1      45.399  34.869  32.267  1.00  0.00     0.006 A 
ENDBRANCH  60  77
ENDBRANCH  34  35
ENDBRANCH  26  29
ENDBRANCH  24  25
ENDBRANCH   1  24
TORSDOF 11
ENDMDL
