MODEL 1
REMARK VINA RESULT:     -13.0      0.000      0.000
REMARK SMILES Cc1ccnc(-n2c(C)nc3c(C(=O)NCCCNC(=O)c4ccc(-c5c6nc(c(-c7c(F)cccc7F)c7ccc([nH]7)c(-c7c(F)cccc7F)c7nc(c(-c8c(F)cccc8F)c8ccc5[nH]8)C=C7)C=C6)cc4)cccc32)c1
REMARK SMILES IDX 17 1 16 2 15 3 13 4 14 5 12 7 7 8 8 9 79 10 9 11 10 12 11 13
REMARK SMILES IDX 78 14 77 15 76 16 6 17 1 18 2 19 3 20 80 21 4 22 5 23 18 24
REMARK SMILES IDX 19 25 20 26 21 28 22 29 23 30 75 31 24 32 74 33 25 34 26 35
REMARK SMILES IDX 27 36 68 37 28 38 73 39 67 40 69 41 29 42 72 43 66 44 65 45
REMARK SMILES IDX 30 47 56 48 39 49 55 50 40 51 43 52 54 53 70 54 41 55 42 56
REMARK SMILES IDX 53 58 71 59 44 60 31 61 32 62 37 63 33 64 34 65 36 66 38 67
REMARK SMILES IDX 35 68 57 69 58 70 63 71 59 72 60 73 62 74 64 75 61 76 45 77
REMARK SMILES IDX 46 78 51 79 47 80 48 81 50 82 52 83 49 84
REMARK H PARENT 15 6 19 27 69 46 43 57
REMARK Flexibility Score: inf
ROOT
ATOM      1  C   UNL A   1      31.973  30.186  26.120  1.00  0.00     0.042 C 
ENDROOT
BRANCH   1   2
ATOM      2  C   UNL A   1      32.176  29.206  24.957  1.00  0.00     0.118 C 
BRANCH   2   3
ATOM      3  N   UNL A   1      30.909  28.764  24.399  1.00  0.00    -0.352 N 
ATOM      4  C   UNL A   1      30.475  27.682  23.669  1.00  0.00     0.253 C 
ATOM      5  O   UNL A   1      29.268  27.690  23.424  1.00  0.00    -0.269 OA
ATOM      6  H   UNL A   1      30.180  29.398  24.590  1.00  0.00     0.163 HD
BRANCH   4   7
ATOM      7  C   UNL A   1      31.342  26.559  23.201  1.00  0.00     0.067 A 
ATOM      8  N   UNL A   1      32.144  23.350  24.558  1.00  0.00    -0.281 N 
ATOM      9  C   UNL A   1      31.206  23.803  25.467  1.00  0.00     0.112 A 
ATOM     10  C   UNL A   1      32.298  24.346  23.597  1.00  0.00     0.075 A 
ATOM     11  C   UNL A   1      30.738  23.049  26.661  1.00  0.00     0.088 C 
ATOM     12  N   UNL A   1      30.854  25.044  25.193  1.00  0.00    -0.232 NA
ATOM     13  C   UNL A   1      31.465  25.391  24.007  1.00  0.00     0.102 A 
ATOM     14  C   UNL A   1      33.008  24.378  22.388  1.00  0.00     0.029 A 
ATOM     15  C   UNL A   1      32.832  25.488  21.570  1.00  0.00     0.003 A 
ATOM     16  C   UNL A   1      31.999  26.541  21.957  1.00  0.00     0.016 A 
BRANCH   8  17
ATOM     17  C   UNL A   1      32.776  22.080  24.538  1.00  0.00     0.138 A 
ATOM     18  C   UNL A   1      32.154  18.629  23.105  1.00  0.00     0.044 C 
ATOM     19  C   UNL A   1      32.747  19.771  23.872  1.00  0.00    -0.046 A 
ATOM     20  C   UNL A   1      33.907  19.590  24.626  1.00  0.00     0.023 A 
ATOM     21  C   UNL A   1      32.158  21.037  23.850  1.00  0.00     0.051 A 
ATOM     22  C   UNL A   1      34.458  20.687  25.273  1.00  0.00     0.114 A 
ATOM     23  N   UNL A   1      33.938  21.931  25.221  1.00  0.00    -0.239 NA
ENDBRANCH   8  17
ENDBRANCH   4   7
ENDBRANCH   2   3
ENDBRANCH   1   2
BRANCH   1  24
ATOM     24  C   UNL A   1      33.053  30.074  27.202  1.00  0.00     0.118 C 
BRANCH  24  25
ATOM     25  N   UNL A   1      33.576  31.359  27.632  1.00  0.00    -0.352 N 
ATOM     26  C   UNL A   1      34.787  31.846  28.031  1.00  0.00     0.251 C 
ATOM     27  H   UNL A   1      32.881  32.057  27.634  1.00  0.00     0.163 HD
ATOM     28  O   UNL A   1      34.811  33.053  28.303  1.00  0.00    -0.269 OA
BRANCH  26  29
ATOM     29  C   UNL A   1      36.039  31.060  28.206  1.00  0.00     0.039 A 
ATOM     30  C   UNL A   1      36.211  29.711  27.901  1.00  0.00     0.014 A 
ATOM     31  C   UNL A   1      37.133  31.763  28.754  1.00  0.00     0.014 A 
ATOM     32  C   UNL A   1      37.414  29.068  28.201  1.00  0.00     0.010 A 
ATOM     33  C   UNL A   1      38.338  31.131  29.042  1.00  0.00     0.010 A 
ATOM     34  C   UNL A   1      38.469  29.769  28.802  1.00  0.00    -0.014 A 
BRANCH  34  35
ATOM     35  C   UNL A   1      39.708  29.047  29.091  1.00  0.00     0.031 A 
ATOM     36  C   UNL A   1      40.047  28.891  30.535  1.00  0.00     0.074 A 
ATOM     37  C   UNL A   1      40.491  28.467  28.158  1.00  0.00     0.049 A 
ATOM     38  N   UNL A   1      41.057  29.393  31.169  1.00  0.00    -0.248 NA
ATOM     39  C   UNL A   1      39.109  28.154  31.392  1.00  0.00     0.031 C 
ATOM     40  C   UNL A   1      40.224  28.274  26.731  1.00  0.00     0.029 A 
ATOM     41  N   UNL A   1      41.698  27.851  28.330  1.00  0.00    -0.354 N 
ATOM     42  C   UNL A   1      40.978  28.914  32.475  1.00  0.00     0.074 A 
ATOM     43  C   UNL A   1      39.707  28.244  32.582  1.00  0.00     0.031 C 
ATOM     44  C   UNL A   1      41.139  27.421  26.215  1.00  0.00     0.029 A 
ATOM     45  C   UNL A   1      42.131  27.120  27.233  1.00  0.00     0.049 A 
ATOM     46  H   UNL A   1      42.218  27.920  29.164  1.00  0.00     0.167 HD
ATOM     47  C   UNL A   1      42.043  28.962  33.323  1.00  0.00     0.037 A 
ATOM     48  C   UNL A   1      43.210  26.300  27.172  1.00  0.00     0.037 A 
ATOM     49  C   UNL A   1      43.053  29.876  32.860  1.00  0.00     0.049 A 
ATOM     50  C   UNL A   1      44.138  26.686  28.261  1.00  0.00     0.074 A 
ATOM     51  C   UNL A   1      43.106  31.233  32.611  1.00  0.00     0.029 A 
ATOM     52  N   UNL A   1      44.176  29.351  32.272  1.00  0.00    -0.354 N 
ATOM     53  N   UNL A   1      44.833  27.786  28.265  1.00  0.00    -0.248 NA
ATOM     54  C   UNL A   1      43.986  26.038  29.554  1.00  0.00     0.031 C 
ATOM     55  C   UNL A   1      43.967  31.368  31.482  1.00  0.00     0.029 A 
ATOM     56  C   UNL A   1      44.413  30.091  31.143  1.00  0.00     0.049 A 
ATOM     57  H   UNL A   1      44.709  28.590  32.597  1.00  0.00     0.167 HD
ATOM     58  C   UNL A   1      44.821  28.202  29.588  1.00  0.00     0.074 A 
ATOM     59  C   UNL A   1      44.384  27.035  30.349  1.00  0.00     0.031 C 
ATOM     60  C   UNL A   1      44.898  29.526  29.908  1.00  0.00     0.037 A 
BRANCH  47  61
ATOM     61  C   UNL A   1      42.338  27.946  34.399  1.00  0.00     0.057 A 
ATOM     62  C   UNL A   1      41.902  28.072  35.732  1.00  0.00     0.134 A 
ATOM     63  C   UNL A   1      42.782  26.659  34.032  1.00  0.00     0.134 A 
ATOM     64  F   UNL A   1      41.393  29.214  36.211  1.00  0.00    -0.206 F 
ATOM     65  C   UNL A   1      41.868  26.993  36.620  1.00  0.00     0.040 A 
ATOM     66  C   UNL A   1      42.706  25.563  34.899  1.00  0.00     0.040 A 
ATOM     67  F   UNL A   1      43.222  26.410  32.789  1.00  0.00    -0.206 F 
ATOM     68  C   UNL A   1      42.234  25.726  36.196  1.00  0.00     0.006 A 
ENDBRANCH  47  61
BRANCH  48  69
ATOM     69  C   UNL A   1      43.409  25.076  26.367  1.00  0.00     0.057 A 
ATOM     70  C   UNL A   1      42.800  23.863  26.732  1.00  0.00     0.134 A 
ATOM     71  C   UNL A   1      44.406  24.993  25.384  1.00  0.00     0.134 A 
ATOM     72  F   UNL A   1      41.889  23.815  27.714  1.00  0.00    -0.206 F 
ATOM     73  C   UNL A   1      43.168  22.638  26.167  1.00  0.00     0.040 A 
ATOM     74  C   UNL A   1      44.791  23.771  24.815  1.00  0.00     0.040 A 
ATOM     75  F   UNL A   1      45.077  26.087  24.998  1.00  0.00    -0.206 F 
ATOM     76  C   UNL A   1      44.177  22.587  25.213  1.00  0.00     0.006 A 
ENDBRANCH  48  69
BRANCH  60  77
ATOM     77  C   UNL A   1      45.257  30.484  28.809  1.00  0.00     0.057 A 
ATOM     78  C   UNL A   1      46.565  30.971  28.732  1.00  0.00     0.134 A 
ATOM     79  C   UNL A   1      44.325  31.019  27.906  1.00  0.00     0.134 A 
ATOM     80  F   UNL A   1      47.495  30.554  29.605  1.00  0.00    -0.206 F 
ATOM     81  C   UNL A   1      46.941  31.925  27.782  1.00  0.00     0.040 A 
ATOM     82  C   UNL A   1      44.695  31.947  26.928  1.00  0.00     0.040 A 
ATOM     83  F   UNL A   1      43.027  30.698  27.975  1.00  0.00    -0.206 F 
ATOM     84  C   UNL A   1      46.007  32.404  26.866  1.00  0.00     0.006 A 
ENDBRANCH  60  77
ENDBRANCH  34  35
ENDBRANCH  26  29
ENDBRANCH  24  25
ENDBRANCH   1  24
TORSDOF 11
ENDMDL
MODEL 2
REMARK VINA RESULT:     -13.0      2.791      7.899
REMARK SMILES Cc1ccnc(-n2c(C)nc3c(C(=O)NCCCNC(=O)c4ccc(-c5c6nc(c(-c7c(F)cccc7F)c7ccc([nH]7)c(-c7c(F)cccc7F)c7nc(c(-c8c(F)cccc8F)c8ccc5[nH]8)C=C7)C=C6)cc4)cccc32)c1
REMARK SMILES IDX 17 1 16 2 15 3 13 4 14 5 12 7 7 8 8 9 79 10 9 11 10 12 11 13
REMARK SMILES IDX 78 14 77 15 76 16 6 17 1 18 2 19 3 20 80 21 4 22 5 23 18 24
REMARK SMILES IDX 19 25 20 26 21 28 22 29 23 30 75 31 24 32 74 33 25 34 26 35
REMARK SMILES IDX 27 36 68 37 28 38 73 39 67 40 69 41 29 42 72 43 66 44 65 45
REMARK SMILES IDX 30 47 56 48 39 49 55 50 40 51 43 52 54 53 70 54 41 55 42 56
REMARK SMILES IDX 53 58 71 59 44 60 31 61 32 62 37 63 33 64 34 65 36 66 38 67
REMARK SMILES IDX 35 68 57 69 58 70 63 71 59 72 60 73 62 74 64 75 61 76 45 77
REMARK SMILES IDX 46 78 51 79 47 80 48 81 50 82 52 83 49 84
REMARK H PARENT 15 6 19 27 69 46 43 57
REMARK Flexibility Score: inf
ROOT
ATOM      1  C   UNL A   1      36.532  21.029  25.120  1.00  0.00     0.042 C 
ENDROOT
BRANCH   1   2
ATOM      2  C   UNL A   1      35.116  21.388  25.588  1.00  0.00     0.118 C 
BRANCH   2   3
ATOM      3  N   UNL A   1      34.102  20.850  24.697  1.00  0.00    -0.352 N 
ATOM      4  C   UNL A   1      32.822  21.198  24.334  1.00  0.00     0.253 C 
ATOM      5  O   UNL A   1      32.317  20.453  23.492  1.00  0.00    -0.269 OA
ATOM      6  H   UNL A   1      34.407  20.033  24.241  1.00  0.00     0.163 HD
BRANCH   4   7
ATOM      7  C   UNL A   1      32.067  22.371  24.866  1.00  0.00     0.067 A 
ATOM      8  N   UNL A   1      31.693  25.752  23.765  1.00  0.00    -0.281 N 
ATOM      9  C   UNL A   1      32.439  25.211  22.734  1.00  0.00     0.112 A 
ATOM     10  C   UNL A   1      31.468  24.733  24.687  1.00  0.00     0.075 A 
ATOM     11  C   UNL A   1      32.902  25.954  21.531  1.00  0.00     0.088 C 
ATOM     12  N   UNL A   1      32.778  23.967  23.008  1.00  0.00    -0.232 NA
ATOM     13  C   UNL A   1      32.143  23.618  24.181  1.00  0.00     0.102 A 
ATOM     14  C   UNL A   1      30.675  24.675  25.842  1.00  0.00     0.029 A 
ATOM     15  C   UNL A   1      30.546  23.441  26.469  1.00  0.00     0.003 A 
ATOM     16  C   UNL A   1      31.206  22.312  25.977  1.00  0.00     0.016 A 
BRANCH   8  17
ATOM     17  C   UNL A   1      31.168  27.068  23.845  1.00  0.00     0.138 A 
ATOM     18  C   UNL A   1      28.072  28.955  22.747  1.00  0.00     0.044 C 
ATOM     19  C   UNL A   1      29.427  28.631  23.300  1.00  0.00    -0.046 A 
ATOM     20  C   UNL A   1      30.220  29.634  23.858  1.00  0.00     0.023 A 
ATOM     21  C   UNL A   1      29.924  27.327  23.272  1.00  0.00     0.051 A 
ATOM     22  C   UNL A   1      31.443  29.284  24.413  1.00  0.00     0.114 A 
ATOM     23  N   UNL A   1      31.920  28.022  24.447  1.00  0.00    -0.239 NA
ENDBRANCH   8  17
ENDBRANCH   4   7
ENDBRANCH   2   3
ENDBRANCH   1   2
BRANCH   1  24
ATOM     24  C   UNL A   1      37.543  22.164  25.321  1.00  0.00     0.118 C 
BRANCH  24  25
ATOM     25  N   UNL A   1      38.851  21.704  25.752  1.00  0.00    -0.352 N 
ATOM     26  C   UNL A   1      39.883  22.213  26.486  1.00  0.00     0.251 C 
ATOM     27  H   UNL A   1      39.042  20.791  25.434  1.00  0.00     0.163 HD
ATOM     28  O   UNL A   1      40.849  21.457  26.642  1.00  0.00    -0.269 OA
BRANCH  26  29
ATOM     29  C   UNL A   1      39.960  23.583  27.065  1.00  0.00     0.039 A 
ATOM     30  C   UNL A   1      39.045  24.614  26.861  1.00  0.00     0.014 A 
ATOM     31  C   UNL A   1      41.088  23.844  27.872  1.00  0.00     0.014 A 
ATOM     32  C   UNL A   1      39.285  25.885  27.388  1.00  0.00     0.010 A 
ATOM     33  C   UNL A   1      41.325  25.105  28.412  1.00  0.00     0.010 A 
ATOM     34  C   UNL A   1      40.442  26.141  28.137  1.00  0.00    -0.014 A 
BRANCH  34  35
ATOM     35  C   UNL A   1      40.641  27.489  28.670  1.00  0.00     0.031 A 
ATOM     36  C   UNL A   1      41.789  28.250  28.097  1.00  0.00     0.074 A 
ATOM     37  C   UNL A   1      39.824  28.089  29.560  1.00  0.00     0.049 A 
ATOM     38  N   UNL A   1      42.859  28.646  28.708  1.00  0.00    -0.248 NA
ATOM     39  C   UNL A   1      41.782  28.536  26.656  1.00  0.00     0.031 C 
ATOM     40  C   UNL A   1      38.521  27.639  30.053  1.00  0.00     0.029 A 
ATOM     41  N   UNL A   1      39.980  29.302  30.168  1.00  0.00    -0.354 N 
ATOM     42  C   UNL A   1      43.599  29.369  27.774  1.00  0.00     0.074 A 
ATOM     43  C   UNL A   1      42.942  29.179  26.506  1.00  0.00     0.031 C 
ATOM     44  C   UNL A   1      37.922  28.650  30.723  1.00  0.00     0.029 A 
ATOM     45  C   UNL A   1      38.849  29.765  30.826  1.00  0.00     0.049 A 
ATOM     46  H   UNL A   1      40.826  29.807  30.142  1.00  0.00     0.167 HD
ATOM     47  C   UNL A   1      44.605  30.207  28.148  1.00  0.00     0.037 A 
ATOM     48  C   UNL A   1      38.673  30.986  31.388  1.00  0.00     0.037 A 
ATOM     49  C   UNL A   1      45.038  29.952  29.497  1.00  0.00     0.049 A 
ATOM     50  C   UNL A   1      40.012  31.565  31.650  1.00  0.00     0.074 A 
ATOM     51  C   UNL A   1      45.599  28.876  30.158  1.00  0.00     0.029 A 
ATOM     52  N   UNL A   1      44.622  30.811  30.481  1.00  0.00    -0.354 N 
ATOM     53  N   UNL A   1      40.821  31.131  32.573  1.00  0.00    -0.248 NA
ATOM     54  C   UNL A   1      40.629  32.369  30.607  1.00  0.00     0.031 C 
ATOM     55  C   UNL A   1      45.041  28.919  31.470  1.00  0.00     0.029 A 
ATOM     56  C   UNL A   1      44.210  30.037  31.534  1.00  0.00     0.049 A 
ATOM     57  H   UNL A   1      44.620  31.795  30.440  1.00  0.00     0.167 HD
ATOM     58  C   UNL A   1      42.082  31.220  32.003  1.00  0.00     0.074 A 
ATOM     59  C   UNL A   1      41.913  32.089  30.842  1.00  0.00     0.031 C 
ATOM     60  C   UNL A   1      43.077  30.360  32.365  1.00  0.00     0.037 A 
BRANCH  47  61
ATOM     61  C   UNL A   1      44.982  31.481  27.432  1.00  0.00     0.057 A 
ATOM     62  C   UNL A   1      44.282  32.693  27.576  1.00  0.00     0.134 A 
ATOM     63  C   UNL A   1      46.258  31.591  26.843  1.00  0.00     0.134 A 
ATOM     64  F   UNL A   1      43.085  32.759  28.174  1.00  0.00    -0.206 F 
ATOM     65  C   UNL A   1      44.823  33.927  27.203  1.00  0.00     0.040 A 
ATOM     66  C   UNL A   1      46.828  32.826  26.513  1.00  0.00     0.040 A 
ATOM     67  F   UNL A   1      47.025  30.507  26.653  1.00  0.00    -0.206 F 
ATOM     68  C   UNL A   1      46.115  34.002  26.707  1.00  0.00     0.006 A 
ENDBRANCH  47  61
BRANCH  48  69
ATOM     69  C   UNL A   1      37.433  31.778  31.533  1.00  0.00     0.057 A 
ATOM     70  C   UNL A   1      36.754  31.842  32.762  1.00  0.00     0.134 A 
ATOM     71  C   UNL A   1      36.736  32.268  30.419  1.00  0.00     0.134 A 
ATOM     72  F   UNL A   1      37.294  31.332  33.878  1.00  0.00    -0.206 F 
ATOM     73  C   UNL A   1      35.455  32.347  32.877  1.00  0.00     0.040 A 
ATOM     74  C   UNL A   1      35.432  32.771  30.518  1.00  0.00     0.040 A 
ATOM     75  F   UNL A   1      37.281  32.213  29.195  1.00  0.00    -0.206 F 
ATOM     76  C   UNL A   1      34.784  32.803  31.749  1.00  0.00     0.006 A 
ENDBRANCH  48  69
BRANCH  60  77
ATOM     77  C   UNL A   1      42.843  29.499  33.573  1.00  0.00     0.057 A 
ATOM     78  C   UNL A   1      43.454  29.844  34.782  1.00  0.00     0.134 A 
ATOM     79  C   UNL A   1      42.131  28.290  33.543  1.00  0.00     0.134 A 
ATOM     80  F   UNL A   1      44.205  30.953  34.868  1.00  0.00    -0.206 F 
ATOM     81  C   UNL A   1      43.340  29.041  35.920  1.00  0.00     0.040 A 
ATOM     82  C   UNL A   1      41.980  27.495  34.682  1.00  0.00     0.040 A 
ATOM     83  F   UNL A   1      41.606  27.821  32.404  1.00  0.00    -0.206 F 
ATOM     84  C   UNL A   1      42.588  27.870  35.876  1.00  0.00     0.006 A 
ENDBRANCH  60  77
ENDBRANCH  34  35
ENDBRANCH  26  29
ENDBRANCH  24  25
ENDBRANCH   1  24
TORSDOF 11
ENDMDL
MODEL 3
REMARK VINA RESULT:     -12.9      2.015      6.072
REMARK SMILES Cc1ccnc(-n2c(C)nc3c(C(=O)NCCCNC(=O)c4ccc(-c5c6nc(c(-c7c(F)cccc7F)c7ccc([nH]7)c(-c7c(F)cccc7F)c7nc(c(-c8c(F)cccc8F)c8ccc5[nH]8)C=C7)C=C6)cc4)cccc32)c1
REMARK SMILES IDX 17 1 16 2 15 3 13 4 14 5 12 7 7 8 8 9 79 10 9 11 10 12 11 13
REMARK SMILES IDX 78 14 77 15 76 16 6 17 1 18 2 19 3 20 80 21 4 22 5 23 18 24
REMARK SMILES IDX 19 25 20 26 21 28 22 29 23 30 75 31 24 32 74 33 25 34 26 35
REMARK SMILES IDX 27 36 68 37 28 38 73 39 67 40 69 41 29 42 72 43 66 44 65 45
REMARK SMILES IDX 30 47 56 48 39 49 55 50 40 51 43 52 54 53 70 54 41 55 42 56
REMARK SMILES IDX 53 58 71 59 44 60 31 61 32 62 37 63 33 64 34 65 36 66 38 67
REMARK SMILES IDX 35 68 57 69 58 70 63 71 59 72 60 73 62 74 64 75 61 76 45 77
REMARK SMILES IDX 46 78 51 79 47 80 48 81 50 82 52 83 49 84
REMARK H PARENT 15 6 19 27 69 46 43 57
REMARK Flexibility Score: inf
ROOT
ATOM      1  C   UNL A   1      33.670  29.334  26.247  1.00  0.00     0.042 C 
ENDROOT
BRANCH   1   2
ATOM      2  C   UNL A   1      32.355  28.661  26.664  1.00  0.00     0.118 C 
BRANCH   2   3
ATOM      3  N   UNL A   1      31.363  28.715  25.605  1.00  0.00    -0.352 N 
ATOM      4  C   UNL A   1      31.131  28.031  24.434  1.00  0.00     0.253 C 
ATOM      5  O   UNL A   1      30.121  28.394  23.829  1.00  0.00    -0.269 OA
ATOM      6  H   UNL A   1      30.691  29.416  25.763  1.00  0.00     0.163 HD
BRANCH   4   7
ATOM      7  C   UNL A   1      31.983  26.926  23.901  1.00  0.00     0.067 A 
ATOM      8  N   UNL A   1      32.539  23.546  24.923  1.00  0.00    -0.281 N 
ATOM      9  C   UNL A   1      31.552  23.939  25.808  1.00  0.00     0.112 A 
ATOM     10  C   UNL A   1      32.811  24.637  24.101  1.00  0.00     0.075 A 
ATOM     11  C   UNL A   1      30.959  23.077  26.866  1.00  0.00     0.088 C 
ATOM     12  N   UNL A   1      31.276  25.219  25.658  1.00  0.00    -0.232 NA
ATOM     13  C   UNL A   1      31.993  25.669  24.570  1.00  0.00     0.102 A 
ATOM     14  C   UNL A   1      33.615  24.771  22.961  1.00  0.00     0.029 A 
ATOM     15  C   UNL A   1      33.552  25.975  22.270  1.00  0.00     0.003 A 
ATOM     16  C   UNL A   1      32.736  27.018  22.716  1.00  0.00     0.016 A 
BRANCH   8  17
ATOM     17  C   UNL A   1      33.116  22.255  24.800  1.00  0.00     0.138 A 
ATOM     18  C   UNL A   1      32.275  18.916  23.222  1.00  0.00     0.044 C 
ATOM     19  C   UNL A   1      32.956  19.990  24.013  1.00  0.00    -0.046 A 
ATOM     20  C   UNL A   1      34.147  19.724  24.689  1.00  0.00     0.023 A 
ATOM     21  C   UNL A   1      32.419  21.277  24.093  1.00  0.00     0.051 A 
ATOM     22  C   UNL A   1      34.778  20.761  25.362  1.00  0.00     0.114 A 
ATOM     23  N   UNL A   1      34.307  22.025  25.406  1.00  0.00    -0.239 NA
ENDBRANCH   8  17
ENDBRANCH   4   7
ENDBRANCH   2   3
ENDBRANCH   1   2
BRANCH   1  24
ATOM     24  C   UNL A   1      34.886  28.829  27.032  1.00  0.00     0.118 C 
BRANCH  24  25
ATOM     25  N   UNL A   1      35.103  29.537  28.281  1.00  0.00    -0.352 N 
ATOM     26  C   UNL A   1      36.162  29.779  29.106  1.00  0.00     0.251 C 
ATOM     27  H   UNL A   1      34.273  29.949  28.618  1.00  0.00     0.163 HD
ATOM     28  O   UNL A   1      35.915  30.472  30.100  1.00  0.00    -0.269 OA
BRANCH  26  29
ATOM     29  C   UNL A   1      37.547  29.257  28.938  1.00  0.00     0.039 A 
ATOM     30  C   UNL A   1      38.218  28.413  29.821  1.00  0.00     0.014 A 
ATOM     31  C   UNL A   1      38.229  29.690  27.782  1.00  0.00     0.014 A 
ATOM     32  C   UNL A   1      39.554  28.072  29.592  1.00  0.00     0.010 A 
ATOM     33  C   UNL A   1      39.555  29.342  27.541  1.00  0.00     0.010 A 
ATOM     34  C   UNL A   1      40.234  28.562  28.469  1.00  0.00    -0.014 A 
BRANCH  34  35
ATOM     35  C   UNL A   1      41.630  28.168  28.275  1.00  0.00     0.031 A 
ATOM     36  C   UNL A   1      41.846  26.878  27.560  1.00  0.00     0.074 A 
ATOM     37  C   UNL A   1      42.693  28.921  28.625  1.00  0.00     0.049 A 
ATOM     38  N   UNL A   1      42.374  25.793  28.027  1.00  0.00    -0.248 NA
ATOM     39  C   UNL A   1      41.346  26.755  26.184  1.00  0.00     0.031 C 
ATOM     40  C   UNL A   1      42.717  30.307  29.096  1.00  0.00     0.029 A 
ATOM     41  N   UNL A   1      44.018  28.597  28.557  1.00  0.00    -0.354 N 
ATOM     42  C   UNL A   1      42.419  24.889  26.967  1.00  0.00     0.074 A 
ATOM     43  C   UNL A   1      41.680  25.496  25.889  1.00  0.00     0.031 C 
ATOM     44  C   UNL A   1      43.991  30.764  29.080  1.00  0.00     0.029 A 
ATOM     45  C   UNL A   1      44.882  29.669  28.735  1.00  0.00     0.049 A 
ATOM     46  H   UNL A   1      44.335  27.678  28.397  1.00  0.00     0.167 HD
ATOM     47  C   UNL A   1      43.207  23.779  27.002  1.00  0.00     0.037 A 
ATOM     48  C   UNL A   1      46.229  29.667  28.579  1.00  0.00     0.037 A 
ATOM     49  C   UNL A   1      43.636  23.472  28.341  1.00  0.00     0.049 A 
ATOM     50  C   UNL A   1      46.700  28.267  28.693  1.00  0.00     0.074 A 
ATOM     51  C   UNL A   1      43.000  23.139  29.521  1.00  0.00     0.029 A 
ATOM     52  N   UNL A   1      44.922  23.791  28.696  1.00  0.00    -0.354 N 
ATOM     53  N   UNL A   1      46.715  27.596  29.809  1.00  0.00    -0.248 NA
ATOM     54  C   UNL A   1      46.772  27.465  27.482  1.00  0.00     0.031 C 
ATOM     55  C   UNL A   1      43.778  23.755  30.546  1.00  0.00     0.029 A 
ATOM     56  C   UNL A   1      44.856  24.387  29.927  1.00  0.00     0.049 A 
ATOM     57  H   UNL A   1      45.735  23.625  28.167  1.00  0.00     0.167 HD
ATOM     58  C   UNL A   1      46.349  26.308  29.448  1.00  0.00     0.074 A 
ATOM     59  C   UNL A   1      46.506  26.262  27.997  1.00  0.00     0.031 C 
ATOM     60  C   UNL A   1      45.690  25.494  30.323  1.00  0.00     0.037 A 
BRANCH  47  61
ATOM     61  C   UNL A   1      43.874  23.152  25.802  1.00  0.00     0.057 A 
ATOM     62  C   UNL A   1      44.859  23.798  25.032  1.00  0.00     0.134 A 
ATOM     63  C   UNL A   1      43.774  21.761  25.604  1.00  0.00     0.134 A 
ATOM     64  F   UNL A   1      45.118  25.106  25.155  1.00  0.00    -0.206 F 
ATOM     65  C   UNL A   1      45.710  23.109  24.163  1.00  0.00     0.040 A 
ATOM     66  C   UNL A   1      44.653  21.055  24.774  1.00  0.00     0.040 A 
ATOM     67  F   UNL A   1      42.873  21.031  26.280  1.00  0.00    -0.206 F 
ATOM     68  C   UNL A   1      45.636  21.729  24.060  1.00  0.00     0.006 A 
ENDBRANCH  47  61
BRANCH  48  69
ATOM     69  C   UNL A   1      47.120  30.762  28.138  1.00  0.00     0.057 A 
ATOM     70  C   UNL A   1      48.016  31.371  29.033  1.00  0.00     0.134 A 
ATOM     71  C   UNL A   1      46.930  31.420  26.914  1.00  0.00     0.134 A 
ATOM     72  F   UNL A   1      48.214  30.871  30.261  1.00  0.00    -0.206 F 
ATOM     73  C   UNL A   1      48.674  32.570  28.738  1.00  0.00     0.040 A 
ATOM     74  C   UNL A   1      47.577  32.625  26.608  1.00  0.00     0.040 A 
ATOM     75  F   UNL A   1      46.063  30.942  26.009  1.00  0.00    -0.206 F 
ATOM     76  C   UNL A   1      48.445  33.208  27.526  1.00  0.00     0.006 A 
ENDBRANCH  48  69
BRANCH  60  77
ATOM     77  C   UNL A   1      45.611  25.938  31.755  1.00  0.00     0.057 A 
ATOM     78  C   UNL A   1      44.524  26.714  32.167  1.00  0.00     0.134 A 
ATOM     79  C   UNL A   1      46.628  25.717  32.697  1.00  0.00     0.134 A 
ATOM     80  F   UNL A   1      43.545  27.021  31.301  1.00  0.00    -0.206 F 
ATOM     81  C   UNL A   1      44.433  27.225  33.464  1.00  0.00     0.040 A 
ATOM     82  C   UNL A   1      46.533  26.192  34.008  1.00  0.00     0.040 A 
ATOM     83  F   UNL A   1      47.758  25.081  32.363  1.00  0.00    -0.206 F 
ATOM     84  C   UNL A   1      45.434  26.950  34.394  1.00  0.00     0.006 A 
ENDBRANCH  60  77
ENDBRANCH  34  35
ENDBRANCH  26  29
ENDBRANCH  24  25
ENDBRANCH   1  24
TORSDOF 11
ENDMDL
