MODEL 1
REMARK VINA RESULT:     -12.1      0.000      0.000
REMARK SMILES COC(=O)[C@H]1CCN(S(=O)(=O)N2CCC[C@H](C(=O)NCCCNC(=O)c3ccc(-c4c5nc(c(-c6c(F)cccc6F)c6ccc([nH]6)c(-c6c(F)cccc6F)c6nc(c(-c7c(F)cccc7F)c7ccc4[nH]7)C=C6)C=C5)cc3)C2)C1
REMARK SMILES IDX 20 1 19 2 17 3 18 4 16 6 12 7 13 8 80 9 14 10 15 11 9 12
REMARK SMILES IDX 10 13 11 14 8 15 5 16 6 17 81 18 7 19 3 20 4 21 2 22 1 23
REMARK SMILES IDX 21 24 22 25 23 26 24 27 25 29 26 30 27 31 79 32 28 33 78 34
REMARK SMILES IDX 29 35 30 36 31 37 72 38 32 39 77 40 71 41 73 42 33 43 76 44
REMARK SMILES IDX 70 45 69 46 34 48 60 49 43 50 59 51 44 52 47 53 58 54 74 55
REMARK SMILES IDX 45 56 46 57 57 59 75 60 48 61 35 62 36 63 41 64 37 65 38 66
REMARK SMILES IDX 40 67 42 68 39 69 61 70 62 71 67 72 63 73 64 74 66 75 68 76
REMARK SMILES IDX 65 77 49 78 50 79 55 80 51 81 52 82 54 83 56 84 53 85
REMARK H PARENT 19 5 23 28 73 47 47 58
REMARK Flexibility Score: inf
ROOT
ATOM      1  C   UNL A   1      31.795  30.484  26.437  1.00  0.00     0.117 C 
ENDROOT
BRANCH   1   2
ATOM      2  N   UNL A   1      31.390  30.045  25.120  1.00  0.00    -0.356 N 
ATOM      3  C   UNL A   1      32.013  29.298  24.181  1.00  0.00     0.224 C 
ATOM      4  O   UNL A   1      31.373  29.096  23.141  1.00  0.00    -0.275 OA
ATOM      5  H   UNL A   1      30.491  30.347  24.857  1.00  0.00     0.163 HD
BRANCH   3   6
ATOM      6  C   UNL A   1      33.422  28.713  24.307  1.00  0.00     0.094 C 
ATOM      7  N   UNL A   1      33.607  26.351  23.538  1.00  0.00    -0.188 NA
ATOM      8  C   UNL A   1      34.140  25.866  24.816  1.00  0.00     0.103 C 
ATOM      9  C   UNL A   1      33.847  27.763  23.201  1.00  0.00     0.117 C 
ATOM     10  C   UNL A   1      33.695  26.764  25.968  1.00  0.00     0.018 C 
ATOM     11  C   UNL A   1      33.850  28.256  25.701  1.00  0.00     0.016 C 
BRANCH   7  12
ATOM     12  S   UNL A   1      33.278  25.250  22.321  1.00  0.00     0.282 S 
ATOM     13  O   UNL A   1      34.096  24.079  22.514  1.00  0.00    -0.195 OA
ATOM     14  O   UNL A   1      33.293  25.971  21.066  1.00  0.00    -0.195 OA
BRANCH  12  15
ATOM     15  N   UNL A   1      31.671  24.825  22.633  1.00  0.00    -0.188 NA
ATOM     16  C   UNL A   1      30.757  24.167  24.790  1.00  0.00     0.116 C 
ATOM     17  C   UNL A   1      30.754  25.678  24.647  1.00  0.00     0.033 C 
ATOM     18  C   UNL A   1      31.566  23.665  23.594  1.00  0.00     0.118 C 
ATOM     19  C   UNL A   1      30.765  25.870  23.151  1.00  0.00     0.104 C 
BRANCH  16  20
ATOM     20  C   UNL A   1      31.352  23.767  26.117  1.00  0.00     0.310 C 
ATOM     21  O   UNL A   1      31.006  24.185  27.210  1.00  0.00    -0.252 OA
BRANCH  20  22
ATOM     22  O   UNL A   1      32.348  22.858  25.906  1.00  0.00    -0.469 OA
ATOM     23  C   UNL A   1      33.369  22.869  26.904  1.00  0.00     0.282 C 
ENDBRANCH  20  22
ENDBRANCH  16  20
ENDBRANCH  12  15
ENDBRANCH   7  12
ENDBRANCH   3   6
ENDBRANCH   1   2
BRANCH   1  24
ATOM     24  C   UNL A   1      31.539  31.964  26.648  1.00  0.00     0.042 C 
BRANCH  24  25
ATOM     25  C   UNL A   1      32.718  32.662  27.287  1.00  0.00     0.118 C 
BRANCH  25  26
ATOM     26  N   UNL A   1      32.424  34.054  27.616  1.00  0.00    -0.352 N 
ATOM     27  C   UNL A   1      32.996  34.873  28.559  1.00  0.00     0.251 C 
ATOM     28  H   UNL A   1      31.709  34.467  27.080  1.00  0.00     0.163 HD
ATOM     29  O   UNL A   1      32.498  35.960  28.827  1.00  0.00    -0.269 OA
BRANCH  27  30
ATOM     30  C   UNL A   1      34.211  34.423  29.265  1.00  0.00     0.039 A 
ATOM     31  C   UNL A   1      34.096  33.796  30.508  1.00  0.00     0.014 A 
ATOM     32  C   UNL A   1      35.463  34.598  28.675  1.00  0.00     0.014 A 
ATOM     33  C   UNL A   1      35.238  33.281  31.126  1.00  0.00     0.010 A 
ATOM     34  C   UNL A   1      36.568  33.970  29.221  1.00  0.00     0.010 A 
ATOM     35  C   UNL A   1      36.474  33.332  30.467  1.00  0.00    -0.014 A 
BRANCH  35  36
ATOM     36  C   UNL A   1      37.720  32.797  31.065  1.00  0.00     0.031 A 
ATOM     37  C   UNL A   1      38.364  31.591  30.437  1.00  0.00     0.074 A 
ATOM     38  C   UNL A   1      38.199  33.305  32.214  1.00  0.00     0.049 A 
ATOM     39  N   UNL A   1      39.327  30.832  30.891  1.00  0.00    -0.248 NA
ATOM     40  C   UNL A   1      37.806  31.148  29.148  1.00  0.00     0.031 C 
ATOM     41  C   UNL A   1      37.638  34.446  32.937  1.00  0.00     0.029 A 
ATOM     42  N   UNL A   1      39.255  32.903  32.992  1.00  0.00    -0.354 N 
ATOM     43  C   UNL A   1      39.459  29.806  29.963  1.00  0.00     0.074 A 
ATOM     44  C   UNL A   1      38.431  29.997  28.967  1.00  0.00     0.031 C 
ATOM     45  C   UNL A   1      38.361  34.659  34.048  1.00  0.00     0.029 A 
ATOM     46  C   UNL A   1      39.400  33.639  34.143  1.00  0.00     0.049 A 
ATOM     47  H   UNL A   1      39.852  32.159  32.749  1.00  0.00     0.167 HD
ATOM     48  C   UNL A   1      40.374  28.809  29.931  1.00  0.00     0.037 A 
ATOM     49  C   UNL A   1      40.260  33.490  35.168  1.00  0.00     0.037 A 
ATOM     50  C   UNL A   1      41.410  28.649  30.914  1.00  0.00     0.049 A 
ATOM     51  C   UNL A   1      41.268  32.375  35.122  1.00  0.00     0.074 A 
ATOM     52  C   UNL A   1      42.428  27.715  30.949  1.00  0.00     0.029 A 
ATOM     53  N   UNL A   1      41.553  29.446  32.042  1.00  0.00    -0.354 N 
ATOM     54  N   UNL A   1      41.424  31.442  34.213  1.00  0.00    -0.248 NA
ATOM     55  C   UNL A   1      42.221  32.292  36.237  1.00  0.00     0.031 C 
ATOM     56  C   UNL A   1      43.153  27.910  32.129  1.00  0.00     0.029 A 
ATOM     57  C   UNL A   1      42.630  29.009  32.793  1.00  0.00     0.049 A 
ATOM     58  H   UNL A   1      40.973  30.208  32.272  1.00  0.00     0.167 HD
ATOM     59  C   UNL A   1      42.514  30.686  34.625  1.00  0.00     0.074 A 
ATOM     60  C   UNL A   1      42.978  31.267  35.868  1.00  0.00     0.031 C 
ATOM     61  C   UNL A   1      43.085  29.614  34.021  1.00  0.00     0.037 A 
BRANCH  48  62
ATOM     62  C   UNL A   1      40.273  27.820  28.803  1.00  0.00     0.057 A 
ATOM     63  C   UNL A   1      39.519  26.642  28.908  1.00  0.00     0.134 A 
ATOM     64  C   UNL A   1      40.958  28.038  27.602  1.00  0.00     0.134 A 
ATOM     65  F   UNL A   1      38.846  26.362  30.035  1.00  0.00    -0.206 F 
ATOM     66  C   UNL A   1      39.497  25.693  27.885  1.00  0.00     0.040 A 
ATOM     67  C   UNL A   1      40.911  27.115  26.555  1.00  0.00     0.040 A 
ATOM     68  F   UNL A   1      41.693  29.147  27.426  1.00  0.00    -0.206 F 
ATOM     69  C   UNL A   1      40.191  25.931  26.701  1.00  0.00     0.006 A 
ENDBRANCH  48  62
BRANCH  49  70
ATOM     70  C   UNL A   1      40.207  34.438  36.309  1.00  0.00     0.057 A 
ATOM     71  C   UNL A   1      39.493  34.129  37.473  1.00  0.00     0.134 A 
ATOM     72  C   UNL A   1      40.901  35.655  36.283  1.00  0.00     0.134 A 
ATOM     73  F   UNL A   1      38.798  32.985  37.553  1.00  0.00    -0.206 F 
ATOM     74  C   UNL A   1      39.464  34.997  38.566  1.00  0.00     0.040 A 
ATOM     75  C   UNL A   1      40.902  36.520  37.378  1.00  0.00     0.040 A 
ATOM     76  F   UNL A   1      41.615  36.004  35.202  1.00  0.00    -0.206 F 
ATOM     77  C   UNL A   1      40.178  36.193  38.522  1.00  0.00     0.006 A 
ENDBRANCH  49  70
BRANCH  61  78
ATOM     78  C   UNL A   1      44.312  29.026  34.653  1.00  0.00     0.057 A 
ATOM     79  C   UNL A   1      44.246  27.977  35.577  1.00  0.00     0.134 A 
ATOM     80  C   UNL A   1      45.585  29.458  34.253  1.00  0.00     0.134 A 
ATOM     81  F   UNL A   1      43.059  27.524  36.009  1.00  0.00    -0.206 F 
ATOM     82  C   UNL A   1      45.402  27.379  36.083  1.00  0.00     0.040 A 
ATOM     83  C   UNL A   1      46.745  28.850  34.729  1.00  0.00     0.040 A 
ATOM     84  F   UNL A   1      45.717  30.454  33.363  1.00  0.00    -0.206 F 
ATOM     85  C   UNL A   1      46.655  27.808  35.648  1.00  0.00     0.006 A 
ENDBRANCH  61  78
ENDBRANCH  35  36
ENDBRANCH  27  30
ENDBRANCH  25  26
ENDBRANCH  24  25
ENDBRANCH   1  24
TORSDOF 14
ENDMDL
MODEL 2
REMARK VINA RESULT:     -12.0      5.062     10.033
REMARK SMILES COC(=O)[C@H]1CCN(S(=O)(=O)N2CCC[C@H](C(=O)NCCCNC(=O)c3ccc(-c4c5nc(c(-c6c(F)cccc6F)c6ccc([nH]6)c(-c6c(F)cccc6F)c6nc(c(-c7c(F)cccc7F)c7ccc4[nH]7)C=C6)C=C5)cc3)C2)C1
REMARK SMILES IDX 20 1 19 2 17 3 18 4 16 6 12 7 13 8 80 9 14 10 15 11 9 12
REMARK SMILES IDX 10 13 11 14 8 15 5 16 6 17 81 18 7 19 3 20 4 21 2 22 1 23
REMARK SMILES IDX 21 24 22 25 23 26 24 27 25 29 26 30 27 31 79 32 28 33 78 34
REMARK SMILES IDX 29 35 30 36 31 37 72 38 32 39 77 40 71 41 73 42 33 43 76 44
REMARK SMILES IDX 70 45 69 46 34 48 60 49 43 50 59 51 44 52 47 53 58 54 74 55
REMARK SMILES IDX 45 56 46 57 57 59 75 60 48 61 35 62 36 63 41 64 37 65 38 66
REMARK SMILES IDX 40 67 42 68 39 69 61 70 62 71 67 72 63 73 64 74 66 75 68 76
REMARK SMILES IDX 65 77 49 78 50 79 55 80 51 81 52 82 54 83 56 84 53 85
REMARK H PARENT 19 5 23 28 73 47 47 58
REMARK Flexibility Score: inf
ROOT
ATOM      1  C   UNL A   1      36.976  21.091  24.763  1.00  0.00     0.117 C 
ENDROOT
BRANCH   1   2
ATOM      2  N   UNL A   1      35.605  20.712  25.024  1.00  0.00    -0.356 N 
ATOM      3  C   UNL A   1      34.631  21.283  25.769  1.00  0.00     0.224 C 
ATOM      4  O   UNL A   1      33.543  20.694  25.775  1.00  0.00    -0.275 OA
ATOM      5  H   UNL A   1      35.328  19.883  24.573  1.00  0.00     0.163 HD
BRANCH   3   6
ATOM      6  C   UNL A   1      34.784  22.563  26.593  1.00  0.00     0.094 C 
ATOM      7  N   UNL A   1      32.887  24.158  26.340  1.00  0.00    -0.188 NA
ATOM      8  C   UNL A   1      33.742  25.270  25.908  1.00  0.00     0.103 C 
ATOM      9  C   UNL A   1      33.504  23.125  27.188  1.00  0.00     0.117 C 
ATOM     10  C   UNL A   1      35.021  24.751  25.255  1.00  0.00     0.018 C 
ATOM     11  C   UNL A   1      35.714  23.634  26.026  1.00  0.00     0.016 C 
BRANCH   7  12
ATOM     12  S   UNL A   1      31.226  24.366  26.358  1.00  0.00     0.282 S 
ATOM     13  O   UNL A   1      30.931  25.769  26.501  1.00  0.00    -0.195 OA
ATOM     14  O   UNL A   1      30.676  23.391  27.276  1.00  0.00    -0.195 OA
BRANCH  12  15
ATOM     15  N   UNL A   1      30.778  23.890  24.798  1.00  0.00    -0.188 NA
ATOM     16  C   UNL A   1      31.804  24.640  22.723  1.00  0.00     0.116 C 
ATOM     17  C   UNL A   1      32.567  23.463  23.300  1.00  0.00     0.033 C 
ATOM     18  C   UNL A   1      30.817  25.039  23.820  1.00  0.00     0.118 C 
ATOM     19  C   UNL A   1      31.532  22.789  24.166  1.00  0.00     0.104 C 
BRANCH  16  20
ATOM     20  C   UNL A   1      32.756  25.750  22.351  1.00  0.00     0.310 C 
ATOM     21  O   UNL A   1      33.647  25.678  21.520  1.00  0.00    -0.252 OA
BRANCH  20  22
ATOM     22  O   UNL A   1      32.465  26.858  23.093  1.00  0.00    -0.469 OA
ATOM     23  C   UNL A   1      33.181  28.029  22.697  1.00  0.00     0.282 C 
ENDBRANCH  20  22
ENDBRANCH  16  20
ENDBRANCH  12  15
ENDBRANCH   7  12
ENDBRANCH   3   6
ENDBRANCH   1   2
BRANCH   1  24
ATOM     24  C   UNL A   1      37.936  19.937  24.973  1.00  0.00     0.042 C 
BRANCH  24  25
ATOM     25  C   UNL A   1      39.170  20.353  25.741  1.00  0.00     0.118 C 
BRANCH  25  26
ATOM     26  N   UNL A   1      40.142  19.268  25.855  1.00  0.00    -0.352 N 
ATOM     27  C   UNL A   1      41.495  19.322  26.085  1.00  0.00     0.251 C 
ATOM     28  H   UNL A   1      39.770  18.362  25.752  1.00  0.00     0.163 HD
ATOM     29  O   UNL A   1      42.190  18.320  25.964  1.00  0.00    -0.269 OA
BRANCH  27  30
ATOM     30  C   UNL A   1      42.112  20.608  26.462  1.00  0.00     0.039 A 
ATOM     31  C   UNL A   1      42.547  21.485  25.466  1.00  0.00     0.014 A 
ATOM     32  C   UNL A   1      42.231  20.954  27.809  1.00  0.00     0.014 A 
ATOM     33  C   UNL A   1      43.037  22.743  25.824  1.00  0.00     0.010 A 
ATOM     34  C   UNL A   1      42.587  22.246  28.153  1.00  0.00     0.010 A 
ATOM     35  C   UNL A   1      43.024  23.144  27.168  1.00  0.00    -0.014 A 
BRANCH  35  36
ATOM     36  C   UNL A   1      43.523  24.467  27.612  1.00  0.00     0.031 A 
ATOM     37  C   UNL A   1      42.525  25.518  28.015  1.00  0.00     0.074 A 
ATOM     38  C   UNL A   1      44.833  24.762  27.540  1.00  0.00     0.049 A 
ATOM     39  N   UNL A   1      42.706  26.793  28.240  1.00  0.00    -0.248 NA
ATOM     40  C   UNL A   1      41.122  25.081  28.123  1.00  0.00     0.031 C 
ATOM     41  C   UNL A   1      45.890  23.838  27.127  1.00  0.00     0.029 A 
ATOM     42  N   UNL A   1      45.495  25.937  27.789  1.00  0.00    -0.354 N 
ATOM     43  C   UNL A   1      41.439  27.312  28.476  1.00  0.00     0.074 A 
ATOM     44  C   UNL A   1      40.495  26.234  28.291  1.00  0.00     0.031 C 
ATOM     45  C   UNL A   1      47.069  24.480  27.159  1.00  0.00     0.029 A 
ATOM     46  C   UNL A   1      46.844  25.870  27.543  1.00  0.00     0.049 A 
ATOM     47  H   UNL A   1      45.045  26.751  28.113  1.00  0.00     0.167 HD
ATOM     48  C   UNL A   1      41.095  28.569  28.840  1.00  0.00     0.037 A 
ATOM     49  C   UNL A   1      47.787  26.830  27.598  1.00  0.00     0.037 A 
ATOM     50  C   UNL A   1      42.048  29.624  29.049  1.00  0.00     0.049 A 
ATOM     51  C   UNL A   1      47.391  28.224  28.000  1.00  0.00     0.074 A 
ATOM     52  C   UNL A   1      41.822  30.918  29.479  1.00  0.00     0.029 A 
ATOM     53  N   UNL A   1      43.414  29.503  28.835  1.00  0.00    -0.354 N 
ATOM     54  N   UNL A   1      46.198  28.694  28.277  1.00  0.00    -0.248 NA
ATOM     55  C   UNL A   1      48.467  29.218  28.102  1.00  0.00     0.031 C 
ATOM     56  C   UNL A   1      43.043  31.597  29.469  1.00  0.00     0.029 A 
ATOM     57  C   UNL A   1      44.041  30.708  29.102  1.00  0.00     0.049 A 
ATOM     58  H   UNL A   1      43.869  28.682  28.537  1.00  0.00     0.167 HD
ATOM     59  C   UNL A   1      46.383  30.026  28.623  1.00  0.00     0.074 A 
ATOM     60  C   UNL A   1      47.804  30.290  28.516  1.00  0.00     0.031 C 
ATOM     61  C   UNL A   1      45.461  30.944  29.005  1.00  0.00     0.037 A 
BRANCH  48  62
ATOM     62  C   UNL A   1      39.630  28.857  29.018  1.00  0.00     0.057 A 
ATOM     63  C   UNL A   1      38.976  28.670  30.245  1.00  0.00     0.134 A 
ATOM     64  C   UNL A   1      38.856  29.305  27.940  1.00  0.00     0.134 A 
ATOM     65  F   UNL A   1      39.653  28.232  31.318  1.00  0.00    -0.206 F 
ATOM     66  C   UNL A   1      37.601  28.864  30.379  1.00  0.00     0.040 A 
ATOM     67  C   UNL A   1      37.486  29.541  28.072  1.00  0.00     0.040 A 
ATOM     68  F   UNL A   1      39.415  29.513  26.738  1.00  0.00    -0.206 F 
ATOM     69  C   UNL A   1      36.852  29.305  29.290  1.00  0.00     0.006 A 
ENDBRANCH  48  62
BRANCH  49  70
ATOM     70  C   UNL A   1      49.197  26.487  27.280  1.00  0.00     0.057 A 
ATOM     71  C   UNL A   1      50.064  26.008  28.268  1.00  0.00     0.134 A 
ATOM     72  C   UNL A   1      49.698  26.590  25.976  1.00  0.00     0.134 A 
ATOM     73  F   UNL A   1      49.646  25.900  29.538  1.00  0.00    -0.206 F 
ATOM     74  C   UNL A   1      51.381  25.650  27.974  1.00  0.00     0.040 A 
ATOM     75  C   UNL A   1      51.005  26.211  25.664  1.00  0.00     0.040 A 
ATOM     76  F   UNL A   1      48.914  27.029  24.981  1.00  0.00    -0.206 F 
ATOM     77  C   UNL A   1      51.851  25.743  26.666  1.00  0.00     0.006 A 
ENDBRANCH  49  70
BRANCH  61  78
ATOM     78  C   UNL A   1      45.951  32.307  29.396  1.00  0.00     0.057 A 
ATOM     79  C   UNL A   1      46.021  33.366  28.484  1.00  0.00     0.134 A 
ATOM     80  C   UNL A   1      46.264  32.583  30.735  1.00  0.00     0.134 A 
ATOM     81  F   UNL A   1      45.744  33.165  27.186  1.00  0.00    -0.206 F 
ATOM     82  C   UNL A   1      46.389  34.651  28.888  1.00  0.00     0.040 A 
ATOM     83  C   UNL A   1      46.605  33.868  31.155  1.00  0.00     0.040 A 
ATOM     84  F   UNL A   1      46.207  31.614  31.661  1.00  0.00    -0.206 F 
ATOM     85  C   UNL A   1      46.669  34.906  30.229  1.00  0.00     0.006 A 
ENDBRANCH  61  78
ENDBRANCH  35  36
ENDBRANCH  27  30
ENDBRANCH  25  26
ENDBRANCH  24  25
ENDBRANCH   1  24
TORSDOF 14
ENDMDL
MODEL 3
REMARK VINA RESULT:     -12.0      1.870      3.377
REMARK SMILES COC(=O)[C@H]1CCN(S(=O)(=O)N2CCC[C@H](C(=O)NCCCNC(=O)c3ccc(-c4c5nc(c(-c6c(F)cccc6F)c6ccc([nH]6)c(-c6c(F)cccc6F)c6nc(c(-c7c(F)cccc7F)c7ccc4[nH]7)C=C6)C=C5)cc3)C2)C1
REMARK SMILES IDX 20 1 19 2 17 3 18 4 16 6 12 7 13 8 80 9 14 10 15 11 9 12
REMARK SMILES IDX 10 13 11 14 8 15 5 16 6 17 81 18 7 19 3 20 4 21 2 22 1 23
REMARK SMILES IDX 21 24 22 25 23 26 24 27 25 29 26 30 27 31 79 32 28 33 78 34
REMARK SMILES IDX 29 35 30 36 31 37 72 38 32 39 77 40 71 41 73 42 33 43 76 44
REMARK SMILES IDX 70 45 69 46 34 48 60 49 43 50 59 51 44 52 47 53 58 54 74 55
REMARK SMILES IDX 45 56 46 57 57 59 75 60 48 61 35 62 36 63 41 64 37 65 38 66
REMARK SMILES IDX 40 67 42 68 39 69 61 70 62 71 67 72 63 73 64 74 66 75 68 76
REMARK SMILES IDX 65 77 49 78 50 79 55 80 51 81 52 82 54 83 56 84 53 85
REMARK H PARENT 19 5 23 28 73 47 47 58
REMARK Flexibility Score: inf
ROOT
ATOM      1  C   UNL A   1      31.941  30.360  26.052  1.00  0.00     0.117 C 
ENDROOT
BRANCH   1   2
ATOM      2  N   UNL A   1      33.332  30.047  26.290  1.00  0.00    -0.356 N 
ATOM      3  C   UNL A   1      34.052  28.917  26.112  1.00  0.00     0.224 C 
ATOM      4  O   UNL A   1      35.250  28.987  26.415  1.00  0.00    -0.275 OA
ATOM      5  H   UNL A   1      33.855  30.800  26.648  1.00  0.00     0.163 HD
BRANCH   3   6
ATOM      6  C   UNL A   1      33.498  27.589  25.590  1.00  0.00     0.094 C 
ATOM      7  N   UNL A   1      31.452  27.830  24.191  1.00  0.00    -0.188 NA
ATOM      8  C   UNL A   1      30.646  26.935  25.029  1.00  0.00     0.103 C 
ATOM      9  C   UNL A   1      32.908  27.621  24.191  1.00  0.00     0.117 C 
ATOM     10  C   UNL A   1      31.172  26.910  26.462  1.00  0.00     0.018 C 
ATOM     11  C   UNL A   1      32.683  26.753  26.575  1.00  0.00     0.016 C 
BRANCH   7  12
ATOM     12  S   UNL A   1      30.724  28.618  22.906  1.00  0.00     0.282 S 
ATOM     13  O   UNL A   1      30.410  27.654  21.881  1.00  0.00    -0.195 OA
ATOM     14  O   UNL A   1      31.519  29.790  22.608  1.00  0.00    -0.195 OA
BRANCH  12  15
ATOM     15  N   UNL A   1      29.271  29.160  23.581  1.00  0.00    -0.188 NA
ATOM     16  C   UNL A   1      28.039  31.151  22.917  1.00  0.00     0.116 C 
ATOM     17  C   UNL A   1      27.661  29.973  22.039  1.00  0.00     0.033 C 
ATOM     18  C   UNL A   1      29.238  30.662  23.729  1.00  0.00     0.118 C 
ATOM     19  C   UNL A   1      28.011  28.788  22.905  1.00  0.00     0.104 C 
BRANCH  16  20
ATOM     20  C   UNL A   1      28.352  32.358  22.069  1.00  0.00     0.310 C 
ATOM     21  O   UNL A   1      28.429  33.510  22.466  1.00  0.00    -0.252 OA
BRANCH  20  22
ATOM     22  O   UNL A   1      28.537  31.963  20.776  1.00  0.00    -0.469 OA
ATOM     23  C   UNL A   1      27.766  32.697  19.825  1.00  0.00     0.282 C 
ENDBRANCH  20  22
ENDBRANCH  16  20
ENDBRANCH  12  15
ENDBRANCH   7  12
ENDBRANCH   3   6
ENDBRANCH   1   2
BRANCH   1  24
ATOM     24  C   UNL A   1      31.570  31.736  26.568  1.00  0.00     0.042 C 
BRANCH  24  25
ATOM     25  C   UNL A   1      32.729  32.420  27.258  1.00  0.00     0.118 C 
BRANCH  25  26
ATOM     26  N   UNL A   1      32.437  33.813  27.581  1.00  0.00    -0.352 N 
ATOM     27  C   UNL A   1      33.027  34.643  28.503  1.00  0.00     0.251 C 
ATOM     28  H   UNL A   1      31.706  34.218  27.060  1.00  0.00     0.163 HD
ATOM     29  O   UNL A   1      32.530  35.731  28.774  1.00  0.00    -0.269 OA
BRANCH  27  30
ATOM     30  C   UNL A   1      34.261  34.205  29.183  1.00  0.00     0.039 A 
ATOM     31  C   UNL A   1      34.174  33.481  30.373  1.00  0.00     0.014 A 
ATOM     32  C   UNL A   1      35.504  34.490  28.618  1.00  0.00     0.014 A 
ATOM     33  C   UNL A   1      35.339  32.981  30.960  1.00  0.00     0.010 A 
ATOM     34  C   UNL A   1      36.640  33.882  29.124  1.00  0.00     0.010 A 
ATOM     35  C   UNL A   1      36.574  33.147  30.318  1.00  0.00    -0.014 A 
BRANCH  35  36
ATOM     36  C   UNL A   1      37.844  32.634  30.883  1.00  0.00     0.031 A 
ATOM     37  C   UNL A   1      38.479  31.423  30.256  1.00  0.00     0.074 A 
ATOM     38  C   UNL A   1      38.356  33.168  32.007  1.00  0.00     0.049 A 
ATOM     39  N   UNL A   1      39.464  30.682  30.692  1.00  0.00    -0.248 NA
ATOM     40  C   UNL A   1      37.884  30.952  28.994  1.00  0.00     0.031 C 
ATOM     41  C   UNL A   1      37.807  34.317  32.728  1.00  0.00     0.029 A 
ATOM     42  N   UNL A   1      39.440  32.790  32.757  1.00  0.00    -0.354 N 
ATOM     43  C   UNL A   1      39.576  29.640  29.778  1.00  0.00     0.074 A 
ATOM     44  C   UNL A   1      38.514  29.803  28.813  1.00  0.00     0.031 C 
ATOM     45  C   UNL A   1      38.564  34.556  33.811  1.00  0.00     0.029 A 
ATOM     46  C   UNL A   1      39.616  33.547  33.889  1.00  0.00     0.049 A 
ATOM     47  H   UNL A   1      40.036  32.047  32.507  1.00  0.00     0.167 HD
ATOM     48  C   UNL A   1      40.499  28.651  29.734  1.00  0.00     0.037 A 
ATOM     49  C   UNL A   1      40.510  33.425  34.888  1.00  0.00     0.037 A 
ATOM     50  C   UNL A   1      41.567  28.519  30.685  1.00  0.00     0.049 A 
ATOM     51  C   UNL A   1      41.527  32.319  34.828  1.00  0.00     0.074 A 
ATOM     52  C   UNL A   1      42.595  27.596  30.704  1.00  0.00     0.029 A 
ATOM     53  N   UNL A   1      41.740  29.337  31.793  1.00  0.00    -0.354 N 
ATOM     54  N   UNL A   1      41.663  31.371  33.932  1.00  0.00    -0.248 NA
ATOM     55  C   UNL A   1      42.517  32.265  35.913  1.00  0.00     0.031 C 
ATOM     56  C   UNL A   1      43.357  27.818  31.855  1.00  0.00     0.029 A 
ATOM     57  C   UNL A   1      42.845  28.924  32.516  1.00  0.00     0.049 A 
ATOM     58  H   UNL A   1      41.161  30.098  32.029  1.00  0.00     0.167 HD
ATOM     59  C   UNL A   1      42.773  30.633  34.320  1.00  0.00     0.074 A 
ATOM     60  C   UNL A   1      43.271  31.240  35.538  1.00  0.00     0.031 C 
ATOM     61  C   UNL A   1      43.334  29.556  33.717  1.00  0.00     0.037 A 
BRANCH  48  62
ATOM     62  C   UNL A   1      40.370  27.641  28.628  1.00  0.00     0.057 A 
ATOM     63  C   UNL A   1      39.611  26.471  28.769  1.00  0.00     0.134 A 
ATOM     64  C   UNL A   1      41.036  27.830  27.410  1.00  0.00     0.134 A 
ATOM     65  F   UNL A   1      38.955  26.218  29.913  1.00  0.00    -0.206 F 
ATOM     66  C   UNL A   1      39.563  25.502  27.765  1.00  0.00     0.040 A 
ATOM     67  C   UNL A   1      40.964  26.887  26.383  1.00  0.00     0.040 A 
ATOM     68  F   UNL A   1      41.775  28.930  27.200  1.00  0.00    -0.206 F 
ATOM     69  C   UNL A   1      40.238  25.712  26.566  1.00  0.00     0.006 A 
ENDBRANCH  48  62
BRANCH  49  70
ATOM     70  C   UNL A   1      40.485  34.393  36.013  1.00  0.00     0.057 A 
ATOM     71  C   UNL A   1      41.147  35.623  35.923  1.00  0.00     0.134 A 
ATOM     72  C   UNL A   1      39.766  34.133  37.186  1.00  0.00     0.134 A 
ATOM     73  F   UNL A   1      41.864  35.924  34.830  1.00  0.00    -0.206 F 
ATOM     74  C   UNL A   1      41.102  36.556  36.961  1.00  0.00     0.040 A 
ATOM     75  C   UNL A   1      39.691  35.067  38.221  1.00  0.00     0.040 A 
ATOM     76  F   UNL A   1      39.098  32.979  37.330  1.00  0.00    -0.206 F 
ATOM     77  C   UNL A   1      40.364  36.282  38.110  1.00  0.00     0.006 A 
ENDBRANCH  49  70
BRANCH  61  78
ATOM     78  C   UNL A   1      44.587  28.991  34.320  1.00  0.00     0.057 A 
ATOM     79  C   UNL A   1      44.563  27.944  35.248  1.00  0.00     0.134 A 
ATOM     80  C   UNL A   1      45.841  29.442  33.884  1.00  0.00     0.134 A 
ATOM     81  F   UNL A   1      43.395  27.473  35.713  1.00  0.00    -0.206 F 
ATOM     82  C   UNL A   1      45.741  27.367  35.726  1.00  0.00     0.040 A 
ATOM     83  C   UNL A   1      47.024  28.855  34.332  1.00  0.00     0.040 A 
ATOM     84  F   UNL A   1      45.933  30.436  32.988  1.00  0.00    -0.206 F 
ATOM     85  C   UNL A   1      46.976  27.815  35.257  1.00  0.00     0.006 A 
ENDBRANCH  61  78
ENDBRANCH  35  36
ENDBRANCH  27  30
ENDBRANCH  25  26
ENDBRANCH  24  25
ENDBRANCH   1  24
TORSDOF 14
ENDMDL
