MODEL 1
REMARK VINA RESULT:      -9.4      0.000      0.000
REMARK SMILES COCC[N@H+](C)[C@H](C)[C@@H](C)C(=O)NCCCNC(=O)c1ccc(-c2c3nc(c(-c4c(F)cccc4F)c4ccc([nH]4)c(-c4c(F)cccc4F)c4nc(c(-c5c(F)cccc5F)c5ccc2[nH]5)C=C4)C=C3)cc1
REMARK SMILES IDX 11 1 12 2 13 3 9 5 10 6 7 7 8 8 5 9 6 10 4 12 3 13 2 14 1 15
REMARK SMILES IDX 14 16 15 17 16 18 17 19 18 20 19 22 20 23 21 24 73 25 22 26
REMARK SMILES IDX 72 27 23 28 24 29 25 30 66 31 26 32 71 33 65 34 67 35 27 36
REMARK SMILES IDX 70 37 64 38 63 39 28 41 54 42 37 43 53 44 38 45 41 46 52 47
REMARK SMILES IDX 68 48 39 49 40 50 51 52 69 53 42 54 29 55 30 56 35 57 31 58
REMARK SMILES IDX 32 59 34 60 36 61 33 62 55 63 56 64 61 65 57 66 58 67 60 68
REMARK SMILES IDX 62 69 59 70 43 71 44 72 49 73 45 74 46 75 48 76 50 77 47 78
REMARK H PARENT 13 4 5 11 17 21 67 40 41 51
REMARK Flexibility Score: inf
ROOT
ATOM      1  C   UNL A   1      35.629  22.052  25.396  1.00  0.00     0.228 C 
ATOM      2  O   UNL A   1      35.585  22.872  26.321  1.00  0.00    -0.275 OA
ATOM      3  N   UNL A   1      36.121  20.824  25.708  1.00  0.00    -0.356 N 
ATOM      4  H   UNL A   1      36.383  20.738  26.653  1.00  0.00     0.163 HD
ENDROOT
BRANCH   1   5
ATOM      5  C   UNL A   1      35.131  22.447  24.005  1.00  0.00     0.133 C 
ATOM      6  C   UNL A   1      36.320  23.012  23.216  1.00  0.00     0.024 C 
BRANCH   5   7
ATOM      7  C   UNL A   1      33.826  23.304  24.026  1.00  0.00     0.193 C 
ATOM      8  C   UNL A   1      33.693  24.204  22.781  1.00  0.00     0.076 C 
BRANCH   7   9
ATOM      9  N   UNL A   1      32.537  22.588  24.286  1.00  0.00    -0.333 N 
ATOM     10  C   UNL A   1      32.479  21.234  23.726  1.00  0.00     0.333 C 
ATOM     11  H   UNL A   1      31.886  23.190  23.783  1.00  0.00     0.348 HD
BRANCH   9  12
ATOM     12  C   UNL A   1      32.078  22.549  25.696  1.00  0.00     0.291 C 
BRANCH  12  13
ATOM     13  C   UNL A   1      30.753  23.267  26.023  1.00  0.00     0.221 C 
BRANCH  13  14
ATOM     14  O   UNL A   1      30.329  23.167  27.384  1.00  0.00    -0.379 OA
ATOM     15  C   UNL A   1      29.027  22.623  27.538  1.00  0.00     0.195 C 
ENDBRANCH  13  14
ENDBRANCH  12  13
ENDBRANCH   9  12
ENDBRANCH   7   9
ENDBRANCH   5   7
ENDBRANCH   1   5
BRANCH   3  16
ATOM     16  C   UNL A   1      36.341  19.607  24.940  1.00  0.00     0.117 C 
BRANCH  16  17
ATOM     17  C   UNL A   1      37.817  19.289  24.682  1.00  0.00     0.042 C 
BRANCH  17  18
ATOM     18  C   UNL A   1      38.808  19.875  25.686  1.00  0.00     0.118 C 
BRANCH  18  19
ATOM     19  N   UNL A   1      40.042  19.112  25.761  1.00  0.00    -0.352 N 
ATOM     20  C   UNL A   1      41.317  19.505  26.083  1.00  0.00     0.251 C 
ATOM     21  H   UNL A   1      39.948  18.155  25.547  1.00  0.00     0.163 HD
ATOM     22  O   UNL A   1      42.245  18.720  25.896  1.00  0.00    -0.269 OA
BRANCH  20  23
ATOM     23  C   UNL A   1      41.610  20.852  26.632  1.00  0.00     0.039 A 
ATOM     24  C   UNL A   1      42.061  21.842  25.751  1.00  0.00     0.014 A 
ATOM     25  C   UNL A   1      41.535  21.135  28.000  1.00  0.00     0.014 A 
ATOM     26  C   UNL A   1      42.388  23.117  26.226  1.00  0.00     0.010 A 
ATOM     27  C   UNL A   1      41.804  22.426  28.466  1.00  0.00     0.010 A 
ATOM     28  C   UNL A   1      42.242  23.428  27.586  1.00  0.00    -0.014 A 
BRANCH  28  29
ATOM     29  C   UNL A   1      42.560  24.788  28.099  1.00  0.00     0.031 A 
ATOM     30  C   UNL A   1      43.967  25.144  28.500  1.00  0.00     0.074 A 
ATOM     31  C   UNL A   1      41.577  25.698  28.246  1.00  0.00     0.049 A 
ATOM     32  N   UNL A   1      44.422  26.255  29.025  1.00  0.00    -0.248 NA
ATOM     33  C   UNL A   1      44.994  24.110  28.300  1.00  0.00     0.031 C 
ATOM     34  C   UNL A   1      40.167  25.479  27.924  1.00  0.00     0.029 A 
ATOM     35  N   UNL A   1      41.617  26.988  28.714  1.00  0.00    -0.354 N 
ATOM     36  C   UNL A   1      45.780  26.047  29.236  1.00  0.00     0.074 A 
ATOM     37  C   UNL A   1      46.068  24.692  28.813  1.00  0.00     0.031 C 
ATOM     38  C   UNL A   1      39.477  26.601  28.193  1.00  0.00     0.029 A 
ATOM     39  C   UNL A   1      40.388  27.605  28.733  1.00  0.00     0.049 A 
ATOM     40  H   UNL A   1      42.446  27.430  29.009  1.00  0.00     0.167 HD
ATOM     41  C   UNL A   1      46.706  26.908  29.721  1.00  0.00     0.037 A 
ATOM     42  C   UNL A   1      40.035  28.837  29.147  1.00  0.00     0.037 A 
ATOM     43  C   UNL A   1      46.434  28.266  30.113  1.00  0.00     0.049 A 
ATOM     44  C   UNL A   1      41.080  29.773  29.681  1.00  0.00     0.074 A 
ATOM     45  C   UNL A   1      47.323  29.228  30.563  1.00  0.00     0.029 A 
ATOM     46  N   UNL A   1      45.180  28.855  30.102  1.00  0.00    -0.354 N 
ATOM     47  N   UNL A   1      42.368  29.577  29.826  1.00  0.00    -0.248 NA
ATOM     48  C   UNL A   1      40.623  31.106  30.105  1.00  0.00     0.031 C 
ATOM     49  C   UNL A   1      46.602  30.392  30.852  1.00  0.00     0.029 A 
ATOM     50  C   UNL A   1      45.270  30.164  30.550  1.00  0.00     0.049 A 
ATOM     51  H   UNL A   1      44.349  28.411  29.817  1.00  0.00     0.167 HD
ATOM     52  C   UNL A   1      42.878  30.765  30.335  1.00  0.00     0.074 A 
ATOM     53  C   UNL A   1      41.763  31.681  30.463  1.00  0.00     0.031 C 
ATOM     54  C   UNL A   1      44.156  31.069  30.665  1.00  0.00     0.037 A 
BRANCH  41  55
ATOM     55  C   UNL A   1      48.113  26.406  29.852  1.00  0.00     0.057 A 
ATOM     56  C   UNL A   1      48.563  25.775  31.018  1.00  0.00     0.134 A 
ATOM     57  C   UNL A   1      49.015  26.517  28.786  1.00  0.00     0.134 A 
ATOM     58  F   UNL A   1      47.752  25.647  32.079  1.00  0.00    -0.206 F 
ATOM     59  C   UNL A   1      49.868  25.290  31.127  1.00  0.00     0.040 A 
ATOM     60  C   UNL A   1      50.315  26.016  28.875  1.00  0.00     0.040 A 
ATOM     61  F   UNL A   1      48.643  27.104  27.639  1.00  0.00    -0.206 F 
ATOM     62  C   UNL A   1      50.746  25.405  30.051  1.00  0.00     0.006 A 
ENDBRANCH  41  55
BRANCH  42  63
ATOM     63  C   UNL A   1      38.618  29.267  29.057  1.00  0.00     0.057 A 
ATOM     64  C   UNL A   1      37.782  29.229  30.180  1.00  0.00     0.134 A 
ATOM     65  C   UNL A   1      38.063  29.711  27.851  1.00  0.00     0.134 A 
ATOM     66  F   UNL A   1      38.253  28.792  31.357  1.00  0.00    -0.206 F 
ATOM     67  C   UNL A   1      36.441  29.605  30.103  1.00  0.00     0.040 A 
ATOM     68  C   UNL A   1      36.729  30.109  27.765  1.00  0.00     0.040 A 
ATOM     69  F   UNL A   1      38.815  29.772  26.743  1.00  0.00    -0.206 F 
ATOM     70  C   UNL A   1      35.911  30.051  28.893  1.00  0.00     0.006 A 
ENDBRANCH  42  63
BRANCH  54  71
ATOM     71  C   UNL A   1      44.425  32.455  31.166  1.00  0.00     0.057 A 
ATOM     72  C   UNL A   1      44.714  33.511  30.293  1.00  0.00     0.134 A 
ATOM     73  C   UNL A   1      44.360  32.744  32.535  1.00  0.00     0.134 A 
ATOM     74  F   UNL A   1      44.806  33.296  28.973  1.00  0.00    -0.206 F 
ATOM     75  C   UNL A   1      44.946  34.804  30.767  1.00  0.00     0.040 A 
ATOM     76  C   UNL A   1      44.569  34.037  33.018  1.00  0.00     0.040 A 
ATOM     77  F   UNL A   1      44.082  31.777  33.423  1.00  0.00    -0.206 F 
ATOM     78  C   UNL A   1      44.868  35.070  32.132  1.00  0.00     0.006 A 
ENDBRANCH  54  71
ENDBRANCH  28  29
ENDBRANCH  20  23
ENDBRANCH  18  19
ENDBRANCH  17  18
ENDBRANCH  16  17
ENDBRANCH   3  16
TORSDOF 15
ENDMDL
MODEL 2
REMARK VINA RESULT:      -9.3      1.060      2.177
REMARK SMILES COCC[N@H+](C)[C@H](C)[C@@H](C)C(=O)NCCCNC(=O)c1ccc(-c2c3nc(c(-c4c(F)cccc4F)c4ccc([nH]4)c(-c4c(F)cccc4F)c4nc(c(-c5c(F)cccc5F)c5ccc2[nH]5)C=C4)C=C3)cc1
REMARK SMILES IDX 11 1 12 2 13 3 9 5 10 6 7 7 8 8 5 9 6 10 4 12 3 13 2 14 1 15
REMARK SMILES IDX 14 16 15 17 16 18 17 19 18 20 19 22 20 23 21 24 73 25 22 26
REMARK SMILES IDX 72 27 23 28 24 29 25 30 66 31 26 32 71 33 65 34 67 35 27 36
REMARK SMILES IDX 70 37 64 38 63 39 28 41 54 42 37 43 53 44 38 45 41 46 52 47
REMARK SMILES IDX 68 48 39 49 40 50 51 52 69 53 42 54 29 55 30 56 35 57 31 58
REMARK SMILES IDX 32 59 34 60 36 61 33 62 55 63 56 64 61 65 57 66 58 67 60 68
REMARK SMILES IDX 62 69 59 70 43 71 44 72 49 73 45 74 46 75 48 76 50 77 47 78
REMARK H PARENT 13 4 5 11 17 21 67 40 41 51
REMARK Flexibility Score: inf
ROOT
ATOM      1  C   UNL A   1      36.354  22.606  25.452  1.00  0.00     0.228 C 
ATOM      2  O   UNL A   1      36.815  23.564  26.084  1.00  0.00    -0.275 OA
ATOM      3  N   UNL A   1      37.141  21.500  25.383  1.00  0.00    -0.356 N 
ATOM      4  H   UNL A   1      37.997  21.602  25.859  1.00  0.00     0.163 HD
ENDROOT
BRANCH   1   5
ATOM      5  C   UNL A   1      34.966  22.710  24.819  1.00  0.00     0.133 C 
ATOM      6  C   UNL A   1      35.035  23.744  23.686  1.00  0.00     0.024 C 
BRANCH   5   7
ATOM      7  C   UNL A   1      33.813  22.877  25.858  1.00  0.00     0.193 C 
ATOM      8  C   UNL A   1      33.222  24.302  25.857  1.00  0.00     0.076 C 
BRANCH   7   9
ATOM      9  N   UNL A   1      32.712  21.862  25.834  1.00  0.00    -0.333 N 
ATOM     10  C   UNL A   1      31.365  22.440  25.832  1.00  0.00     0.333 C 
ATOM     11  H   UNL A   1      32.876  21.389  26.722  1.00  0.00     0.348 HD
BRANCH   9  12
ATOM     12  C   UNL A   1      32.796  20.825  24.777  1.00  0.00     0.291 C 
BRANCH  12  13
ATOM     13  C   UNL A   1      33.270  19.422  25.208  1.00  0.00     0.221 C 
BRANCH  13  14
ATOM     14  O   UNL A   1      32.233  18.535  25.631  1.00  0.00    -0.379 OA
ATOM     15  C   UNL A   1      32.428  17.191  25.218  1.00  0.00     0.195 C 
ENDBRANCH  13  14
ENDBRANCH  12  13
ENDBRANCH   9  12
ENDBRANCH   7   9
ENDBRANCH   5   7
ENDBRANCH   1   5
BRANCH   3  16
ATOM     16  C   UNL A   1      36.987  20.197  24.755  1.00  0.00     0.117 C 
BRANCH  16  17
ATOM     17  C   UNL A   1      38.222  19.297  24.871  1.00  0.00     0.042 C 
BRANCH  17  18
ATOM     18  C   UNL A   1      39.217  19.674  25.965  1.00  0.00     0.118 C 
BRANCH  18  19
ATOM     19  N   UNL A   1      40.511  19.038  25.784  1.00  0.00    -0.352 N 
ATOM     20  C   UNL A   1      41.781  19.548  25.897  1.00  0.00     0.251 C 
ATOM     21  H   UNL A   1      40.471  18.085  25.541  1.00  0.00     0.163 HD
ATOM     22  O   UNL A   1      42.730  18.868  25.511  1.00  0.00    -0.269 OA
BRANCH  20  23
ATOM     23  C   UNL A   1      42.040  20.899  26.453  1.00  0.00     0.039 A 
ATOM     24  C   UNL A   1      42.372  21.929  25.564  1.00  0.00     0.014 A 
ATOM     25  C   UNL A   1      42.047  21.153  27.828  1.00  0.00     0.014 A 
ATOM     26  C   UNL A   1      42.663  23.210  26.042  1.00  0.00     0.010 A 
ATOM     27  C   UNL A   1      42.279  22.449  28.302  1.00  0.00     0.010 A 
ATOM     28  C   UNL A   1      42.598  23.489  27.416  1.00  0.00    -0.014 A 
BRANCH  28  29
ATOM     29  C   UNL A   1      42.879  24.855  27.935  1.00  0.00     0.031 A 
ATOM     30  C   UNL A   1      44.283  25.263  28.292  1.00  0.00     0.074 A 
ATOM     31  C   UNL A   1      41.866  25.723  28.126  1.00  0.00     0.049 A 
ATOM     32  N   UNL A   1      44.711  26.386  28.815  1.00  0.00    -0.248 NA
ATOM     33  C   UNL A   1      45.343  24.275  28.045  1.00  0.00     0.031 C 
ATOM     34  C   UNL A   1      40.455  25.450  27.850  1.00  0.00     0.029 A 
ATOM     35  N   UNL A   1      41.869  27.008  28.609  1.00  0.00    -0.354 N 
ATOM     36  C   UNL A   1      46.082  26.231  28.977  1.00  0.00     0.074 A 
ATOM     37  C   UNL A   1      46.411  24.895  28.527  1.00  0.00     0.031 C 
ATOM     38  C   UNL A   1      39.730  26.539  28.155  1.00  0.00     0.029 A 
ATOM     39  C   UNL A   1      40.618  27.573  28.677  1.00  0.00     0.049 A 
ATOM     40  H   UNL A   1      42.689  27.480  28.881  1.00  0.00     0.167 HD
ATOM     41  C   UNL A   1      46.989  27.125  29.441  1.00  0.00     0.037 A 
ATOM     42  C   UNL A   1      40.230  28.785  29.117  1.00  0.00     0.037 A 
ATOM     43  C   UNL A   1      46.676  28.466  29.859  1.00  0.00     0.049 A 
ATOM     44  C   UNL A   1      41.254  29.758  29.628  1.00  0.00     0.074 A 
ATOM     45  C   UNL A   1      47.540  29.459  30.290  1.00  0.00     0.029 A 
ATOM     46  N   UNL A   1      45.399  29.003  29.898  1.00  0.00    -0.354 N 
ATOM     47  N   UNL A   1      42.553  29.613  29.726  1.00  0.00    -0.248 NA
ATOM     48  C   UNL A   1      40.758  31.066  30.083  1.00  0.00     0.031 C 
ATOM     49  C   UNL A   1      46.783  30.588  30.619  1.00  0.00     0.029 A 
ATOM     50  C   UNL A   1      45.452  30.309  30.359  1.00  0.00     0.049 A 
ATOM     51  H   UNL A   1      44.578  28.529  29.636  1.00  0.00     0.167 HD
ATOM     52  C   UNL A   1      43.031  30.815  30.232  1.00  0.00     0.074 A 
ATOM     53  C   UNL A   1      41.885  31.683  30.409  1.00  0.00     0.031 C 
ATOM     54  C   UNL A   1      44.307  31.167  30.523  1.00  0.00     0.037 A 
BRANCH  41  55
ATOM     55  C   UNL A   1      48.419  26.679  29.519  1.00  0.00     0.057 A 
ATOM     56  C   UNL A   1      49.311  26.883  28.459  1.00  0.00     0.134 A 
ATOM     57  C   UNL A   1      48.920  26.078  30.681  1.00  0.00     0.134 A 
ATOM     58  F   UNL A   1      48.892  27.443  27.314  1.00  0.00    -0.206 F 
ATOM     59  C   UNL A   1      50.647  26.486  28.545  1.00  0.00     0.040 A 
ATOM     60  C   UNL A   1      50.258  25.697  30.787  1.00  0.00     0.040 A 
ATOM     61  F   UNL A   1      48.118  25.863  31.735  1.00  0.00    -0.206 F 
ATOM     62  C   UNL A   1      51.125  25.896  29.714  1.00  0.00     0.006 A 
ENDBRANCH  41  55
BRANCH  42  63
ATOM     63  C   UNL A   1      38.794  29.158  29.081  1.00  0.00     0.057 A 
ATOM     64  C   UNL A   1      38.206  29.642  27.906  1.00  0.00     0.134 A 
ATOM     65  C   UNL A   1      37.982  29.053  30.216  1.00  0.00     0.134 A 
ATOM     66  F   UNL A   1      38.940  29.785  26.794  1.00  0.00    -0.206 F 
ATOM     67  C   UNL A   1      36.864  30.022  27.866  1.00  0.00     0.040 A 
ATOM     68  C   UNL A   1      36.634  29.410  30.184  1.00  0.00     0.040 A 
ATOM     69  F   UNL A   1      38.489  28.593  31.369  1.00  0.00    -0.206 F 
ATOM     70  C   UNL A   1      36.072  29.902  29.007  1.00  0.00     0.006 A 
ENDBRANCH  42  63
BRANCH  54  71
ATOM     71  C   UNL A   1      44.537  32.558  31.032  1.00  0.00     0.057 A 
ATOM     72  C   UNL A   1      44.554  32.848  32.401  1.00  0.00     0.134 A 
ATOM     73  C   UNL A   1      44.777  33.612  30.141  1.00  0.00     0.134 A 
ATOM     74  F   UNL A   1      44.316  31.885  33.304  1.00  0.00    -0.206 F 
ATOM     75  C   UNL A   1      44.787  34.144  32.867  1.00  0.00     0.040 A 
ATOM     76  C   UNL A   1      45.031  34.907  30.597  1.00  0.00     0.040 A 
ATOM     77  F   UNL A   1      44.779  33.398  28.817  1.00  0.00    -0.206 F 
ATOM     78  C   UNL A   1      45.031  35.176  31.964  1.00  0.00     0.006 A 
ENDBRANCH  54  71
ENDBRANCH  28  29
ENDBRANCH  20  23
ENDBRANCH  18  19
ENDBRANCH  17  18
ENDBRANCH  16  17
ENDBRANCH   3  16
TORSDOF 15
ENDMDL
MODEL 3
REMARK VINA RESULT:      -9.2      1.602      6.773
REMARK SMILES COCC[N@H+](C)[C@H](C)[C@@H](C)C(=O)NCCCNC(=O)c1ccc(-c2c3nc(c(-c4c(F)cccc4F)c4ccc([nH]4)c(-c4c(F)cccc4F)c4nc(c(-c5c(F)cccc5F)c5ccc2[nH]5)C=C4)C=C3)cc1
REMARK SMILES IDX 11 1 12 2 13 3 9 5 10 6 7 7 8 8 5 9 6 10 4 12 3 13 2 14 1 15
REMARK SMILES IDX 14 16 15 17 16 18 17 19 18 20 19 22 20 23 21 24 73 25 22 26
REMARK SMILES IDX 72 27 23 28 24 29 25 30 66 31 26 32 71 33 65 34 67 35 27 36
REMARK SMILES IDX 70 37 64 38 63 39 28 41 54 42 37 43 53 44 38 45 41 46 52 47
REMARK SMILES IDX 68 48 39 49 40 50 51 52 69 53 42 54 29 55 30 56 35 57 31 58
REMARK SMILES IDX 32 59 34 60 36 61 33 62 55 63 56 64 61 65 57 66 58 67 60 68
REMARK SMILES IDX 62 69 59 70 43 71 44 72 49 73 45 74 46 75 48 76 50 77 47 78
REMARK H PARENT 13 4 5 11 17 21 67 40 41 51
REMARK Flexibility Score: inf
ROOT
ATOM      1  C   UNL A   1      35.677  22.221  25.473  1.00  0.00     0.228 C 
ATOM      2  O   UNL A   1      35.712  23.066  26.375  1.00  0.00    -0.275 OA
ATOM      3  N   UNL A   1      36.242  21.018  25.757  1.00  0.00    -0.356 N 
ATOM      4  H   UNL A   1      36.614  20.968  26.668  1.00  0.00     0.163 HD
ENDROOT
BRANCH   1   5
ATOM      5  C   UNL A   1      35.009  22.560  24.139  1.00  0.00     0.133 C 
ATOM      6  C   UNL A   1      36.108  22.954  23.143  1.00  0.00     0.024 C 
BRANCH   5   7
ATOM      7  C   UNL A   1      33.796  23.533  24.275  1.00  0.00     0.193 C 
ATOM      8  C   UNL A   1      33.991  24.832  23.466  1.00  0.00     0.076 C 
BRANCH   7   9
ATOM      9  N   UNL A   1      32.431  22.970  24.026  1.00  0.00    -0.333 N 
ATOM     10  C   UNL A   1      32.412  21.828  23.107  1.00  0.00     0.333 C 
ATOM     11  H   UNL A   1      31.979  23.769  23.582  1.00  0.00     0.348 HD
BRANCH   9  12
ATOM     12  C   UNL A   1      31.626  22.638  25.227  1.00  0.00     0.291 C 
BRANCH  12  13
ATOM     13  C   UNL A   1      31.275  23.800  26.178  1.00  0.00     0.221 C 
BRANCH  13  14
ATOM     14  O   UNL A   1      30.743  24.964  25.542  1.00  0.00    -0.379 OA
ATOM     15  C   UNL A   1      31.177  26.183  26.127  1.00  0.00     0.195 C 
ENDBRANCH  13  14
ENDBRANCH  12  13
ENDBRANCH   9  12
ENDBRANCH   7   9
ENDBRANCH   5   7
ENDBRANCH   1   5
BRANCH   3  16
ATOM     16  C   UNL A   1      36.414  19.787  25.001  1.00  0.00     0.117 C 
BRANCH  16  17
ATOM     17  C   UNL A   1      37.875  19.435  24.702  1.00  0.00     0.042 C 
BRANCH  17  18
ATOM     18  C   UNL A   1      38.892  19.881  25.749  1.00  0.00     0.118 C 
BRANCH  18  19
ATOM     19  N   UNL A   1      40.015  18.967  25.860  1.00  0.00    -0.352 N 
ATOM     20  C   UNL A   1      41.354  19.212  26.040  1.00  0.00     0.251 C 
ATOM     21  H   UNL A   1      39.777  18.013  25.797  1.00  0.00     0.163 HD
ATOM     22  O   UNL A   1      42.150  18.283  25.915  1.00  0.00    -0.269 OA
BRANCH  20  23
ATOM     23  C   UNL A   1      41.869  20.566  26.363  1.00  0.00     0.039 A 
ATOM     24  C   UNL A   1      41.981  20.928  27.711  1.00  0.00     0.014 A 
ATOM     25  C   UNL A   1      42.160  21.511  25.374  1.00  0.00     0.014 A 
ATOM     26  C   UNL A   1      42.424  22.206  28.066  1.00  0.00     0.010 A 
ATOM     27  C   UNL A   1      42.660  22.769  25.729  1.00  0.00     0.010 A 
ATOM     28  C   UNL A   1      42.789  23.132  27.078  1.00  0.00    -0.014 A 
BRANCH  28  29
ATOM     29  C   UNL A   1      43.288  24.486  27.443  1.00  0.00     0.031 A 
ATOM     30  C   UNL A   1      42.330  25.560  27.885  1.00  0.00     0.074 A 
ATOM     31  C   UNL A   1      44.601  24.769  27.340  1.00  0.00     0.049 A 
ATOM     32  N   UNL A   1      42.571  26.813  28.183  1.00  0.00    -0.248 NA
ATOM     33  C   UNL A   1      40.913  25.181  27.991  1.00  0.00     0.031 C 
ATOM     34  C   UNL A   1      45.636  23.833  26.899  1.00  0.00     0.029 A 
ATOM     35  N   UNL A   1      45.288  25.931  27.591  1.00  0.00    -0.354 N 
ATOM     36  C   UNL A   1      41.338  27.375  28.491  1.00  0.00     0.074 A 
ATOM     37  C   UNL A   1      40.346  26.335  28.312  1.00  0.00     0.031 C 
ATOM     38  C   UNL A   1      46.827  24.454  26.922  1.00  0.00     0.029 A 
ATOM     39  C   UNL A   1      46.637  25.837  27.349  1.00  0.00     0.049 A 
ATOM     40  H   UNL A   1      44.854  26.755  27.914  1.00  0.00     0.167 HD
ATOM     41  C   UNL A   1      41.057  28.635  28.901  1.00  0.00     0.037 A 
ATOM     42  C   UNL A   1      47.610  26.762  27.451  1.00  0.00     0.037 A 
ATOM     43  C   UNL A   1      42.040  29.665  29.112  1.00  0.00     0.049 A 
ATOM     44  C   UNL A   1      47.273  28.153  27.908  1.00  0.00     0.074 A 
ATOM     45  C   UNL A   1      41.852  30.954  29.581  1.00  0.00     0.029 A 
ATOM     46  N   UNL A   1      43.397  29.523  28.870  1.00  0.00    -0.354 N 
ATOM     47  N   UNL A   1      46.109  28.652  28.243  1.00  0.00    -0.248 NA
ATOM     48  C   UNL A   1      48.388  29.108  28.005  1.00  0.00     0.031 C 
ATOM     49  C   UNL A   1      43.091  31.603  29.594  1.00  0.00     0.029 A 
ATOM     50  C   UNL A   1      44.055  30.706  29.166  1.00  0.00     0.049 A 
ATOM     51  H   UNL A   1      43.830  28.704  28.537  1.00  0.00     0.167 HD
ATOM     52  C   UNL A   1      46.353  29.969  28.612  1.00  0.00     0.074 A 
ATOM     53  C   UNL A   1      47.778  30.189  28.471  1.00  0.00     0.031 C 
ATOM     54  C   UNL A   1      45.474  30.912  29.031  1.00  0.00     0.037 A 
BRANCH  41  55
ATOM     55  C   UNL A   1      39.618  28.974  29.154  1.00  0.00     0.057 A 
ATOM     56  C   UNL A   1      38.775  29.419  28.128  1.00  0.00     0.134 A 
ATOM     57  C   UNL A   1      39.059  28.811  30.428  1.00  0.00     0.134 A 
ATOM     58  F   UNL A   1      39.253  29.605  26.888  1.00  0.00    -0.206 F 
ATOM     59  C   UNL A   1      37.431  29.711  28.365  1.00  0.00     0.040 A 
ATOM     60  C   UNL A   1      37.711  29.079  30.672  1.00  0.00     0.040 A 
ATOM     61  F   UNL A   1      39.811  28.380  31.452  1.00  0.00    -0.206 F 
ATOM     62  C   UNL A   1      36.894  29.536  29.640  1.00  0.00     0.006 A 
ENDBRANCH  41  55
BRANCH  42  63
ATOM     63  C   UNL A   1      49.012  26.398  27.127  1.00  0.00     0.057 A 
ATOM     64  C   UNL A   1      49.498  26.502  25.819  1.00  0.00     0.134 A 
ATOM     65  C   UNL A   1      49.890  25.928  28.110  1.00  0.00     0.134 A 
ATOM     66  F   UNL A   1      48.695  26.927  24.832  1.00  0.00    -0.206 F 
ATOM     67  C   UNL A   1      50.806  26.138  25.496  1.00  0.00     0.040 A 
ATOM     68  C   UNL A   1      51.207  25.578  27.804  1.00  0.00     0.040 A 
ATOM     69  F   UNL A   1      49.482  25.809  29.381  1.00  0.00    -0.206 F 
ATOM     70  C   UNL A   1      51.666  25.678  26.491  1.00  0.00     0.006 A 
ENDBRANCH  42  63
BRANCH  54  71
ATOM     71  C   UNL A   1      46.029  32.254  29.397  1.00  0.00     0.057 A 
ATOM     72  C   UNL A   1      46.486  32.534  30.690  1.00  0.00     0.134 A 
ATOM     73  C   UNL A   1      46.139  33.267  28.436  1.00  0.00     0.134 A 
ATOM     74  F   UNL A   1      46.395  31.611  31.659  1.00  0.00    -0.206 F 
ATOM     75  C   UNL A   1      47.019  33.783  31.019  1.00  0.00     0.040 A 
ATOM     76  C   UNL A   1      46.689  34.511  28.748  1.00  0.00     0.040 A 
ATOM     77  F   UNL A   1      45.723  33.059  27.177  1.00  0.00    -0.206 F 
ATOM     78  C   UNL A   1      47.126  34.773  30.045  1.00  0.00     0.006 A 
ENDBRANCH  54  71
ENDBRANCH  28  29
ENDBRANCH  20  23
ENDBRANCH  18  19
ENDBRANCH  17  18
ENDBRANCH  16  17
ENDBRANCH   3  16
TORSDOF 15
ENDMDL
