MODEL 1
REMARK VINA RESULT:     -11.4      0.000      0.000
REMARK SMILES CC(C)NC(=O)CCn1ccc(C(=O)NCCCNC(=O)c2ccc(-c3c4nc(c(-c5c(F)cccc5F)c5ccc([nH]5)c(-c5c(F)cccc5F)c5nc(c(-c6c(F)cccc6F)c6ccc3[nH]6)C=C5)C=C4)cc2)n1
REMARK SMILES IDX 16 1 15 2 13 3 14 4 12 6 9 7 10 8 76 9 11 10 8 11 7 12 5 13
REMARK SMILES IDX 4 14 6 16 2 17 1 18 3 19 17 20 18 21 19 22 20 23 21 25 22 26
REMARK SMILES IDX 23 27 75 28 24 29 74 30 25 31 26 32 27 33 68 34 28 35 73 36
REMARK SMILES IDX 67 37 69 38 29 39 72 40 66 41 65 42 30 44 56 45 39 46 55 47
REMARK SMILES IDX 40 48 43 49 54 50 70 51 41 52 42 53 53 55 71 56 44 57 31 58
REMARK SMILES IDX 32 59 37 60 33 61 34 62 36 63 38 64 35 65 57 66 58 67 63 68
REMARK SMILES IDX 59 69 60 70 62 71 64 72 61 73 45 74 46 75 51 76 47 77 48 78
REMARK SMILES IDX 50 79 52 80 49 81
REMARK H PARENT 15 5 4 15 19 24 69 43 43 54
REMARK Flexibility Score: inf
ROOT
ATOM      1  C   UNL A   1      32.816  29.523  25.300  1.00  0.00     0.118 C 
ENDROOT
BRANCH   1   2
ATOM      2  N   UNL A   1      33.645  28.346  25.038  1.00  0.00    -0.351 N 
ATOM      3  C   UNL A   1      33.291  27.047  24.712  1.00  0.00     0.271 C 
ATOM      4  O   UNL A   1      34.194  26.273  24.386  1.00  0.00    -0.267 OA
ATOM      5  H   UNL A   1      34.615  28.503  25.103  1.00  0.00     0.163 HD
BRANCH   3   6
ATOM      6  C   UNL A   1      31.896  26.589  24.836  1.00  0.00     0.150 A 
ATOM      7  N   UNL A   1      29.811  26.495  24.419  1.00  0.00    -0.271 N 
ATOM      8  C   UNL A   1      29.924  25.929  25.654  1.00  0.00     0.109 A 
ATOM      9  N   UNL A   1      30.985  26.787  23.876  1.00  0.00    -0.168 NA
ATOM     10  C   UNL A   1      31.265  26.010  25.974  1.00  0.00     0.056 A 
BRANCH   7  11
ATOM     11  C   UNL A   1      28.624  26.939  23.712  1.00  0.00     0.154 C 
BRANCH  11  12
ATOM     12  C   UNL A   1      28.759  28.317  23.079  1.00  0.00     0.123 C 
BRANCH  12  13
ATOM     13  C   UNL A   1      27.498  29.161  23.120  1.00  0.00     0.222 C 
ATOM     14  N   UNL A   1      27.559  30.519  23.012  1.00  0.00    -0.354 N 
ATOM     15  H   UNL A   1      26.794  31.013  23.389  1.00  0.00     0.163 HD
ATOM     16  O   UNL A   1      26.401  28.637  23.325  1.00  0.00    -0.275 OA
BRANCH  14  17
ATOM     17  C   UNL A   1      28.601  31.334  22.412  1.00  0.00     0.075 C 
ATOM     18  C   UNL A   1      28.327  31.484  20.920  1.00  0.00     0.030 C 
ATOM     19  C   UNL A   1      28.765  32.690  23.078  1.00  0.00     0.030 C 
ENDBRANCH  14  17
ENDBRANCH  12  13
ENDBRANCH  11  12
ENDBRANCH   7  11
ENDBRANCH   3   6
ENDBRANCH   1   2
BRANCH   1  20
ATOM     20  C   UNL A   1      32.369  29.667  26.756  1.00  0.00     0.042 C 
BRANCH  20  21
ATOM     21  C   UNL A   1      33.507  30.106  27.651  1.00  0.00     0.118 C 
BRANCH  21  22
ATOM     22  N   UNL A   1      33.977  31.471  27.370  1.00  0.00    -0.352 N 
ATOM     23  C   UNL A   1      35.180  32.050  27.719  1.00  0.00     0.251 C 
ATOM     24  H   UNL A   1      33.353  32.044  26.868  1.00  0.00     0.163 HD
ATOM     25  O   UNL A   1      35.342  33.270  27.665  1.00  0.00    -0.269 OA
BRANCH  23  26
ATOM     26  C   UNL A   1      36.273  31.172  28.157  1.00  0.00     0.039 A 
ATOM     27  C   UNL A   1      36.411  29.857  27.708  1.00  0.00     0.014 A 
ATOM     28  C   UNL A   1      37.224  31.742  28.993  1.00  0.00     0.014 A 
ATOM     29  C   UNL A   1      37.564  29.155  28.055  1.00  0.00     0.010 A 
ATOM     30  C   UNL A   1      38.448  31.159  29.105  1.00  0.00     0.010 A 
ATOM     31  C   UNL A   1      38.585  29.829  28.741  1.00  0.00    -0.014 A 
BRANCH  31  32
ATOM     32  C   UNL A   1      39.870  29.221  29.038  1.00  0.00     0.031 A 
ATOM     33  C   UNL A   1      40.093  28.946  30.479  1.00  0.00     0.074 A 
ATOM     34  C   UNL A   1      40.656  28.722  28.057  1.00  0.00     0.049 A 
ATOM     35  N   UNL A   1      40.966  29.504  31.247  1.00  0.00    -0.248 NA
ATOM     36  C   UNL A   1      39.147  28.072  31.191  1.00  0.00     0.031 C 
ATOM     37  C   UNL A   1      40.399  28.677  26.611  1.00  0.00     0.029 A 
ATOM     38  N   UNL A   1      41.823  28.034  28.165  1.00  0.00    -0.354 N 
ATOM     39  C   UNL A   1      40.830  28.894  32.487  1.00  0.00     0.074 A 
ATOM     40  C   UNL A   1      39.581  28.178  32.450  1.00  0.00     0.031 C 
ATOM     41  C   UNL A   1      41.246  27.806  26.020  1.00  0.00     0.029 A 
ATOM     42  C   UNL A   1      42.209  27.361  27.008  1.00  0.00     0.049 A 
ATOM     43  H   UNL A   1      42.354  28.012  28.994  1.00  0.00     0.167 HD
ATOM     44  C   UNL A   1      41.883  28.827  33.348  1.00  0.00     0.037 A 
ATOM     45  C   UNL A   1      43.237  26.483  26.891  1.00  0.00     0.037 A 
ATOM     46  C   UNL A   1      42.942  29.715  32.933  1.00  0.00     0.049 A 
ATOM     47  C   UNL A   1      44.150  26.736  28.035  1.00  0.00     0.074 A 
ATOM     48  C   UNL A   1      43.039  31.080  32.741  1.00  0.00     0.029 A 
ATOM     49  N   UNL A   1      43.997  29.161  32.245  1.00  0.00    -0.354 N 
ATOM     50  N   UNL A   1      44.849  27.830  28.162  1.00  0.00    -0.248 NA
ATOM     51  C   UNL A   1      43.899  26.010  29.271  1.00  0.00     0.031 C 
ATOM     52  C   UNL A   1      43.837  31.231  31.569  1.00  0.00     0.029 A 
ATOM     53  C   UNL A   1      44.256  29.963  31.163  1.00  0.00     0.049 A 
ATOM     54  H   UNL A   1      44.478  28.338  32.488  1.00  0.00     0.167 HD
ATOM     55  C   UNL A   1      44.734  28.167  29.504  1.00  0.00     0.074 A 
ATOM     56  C   UNL A   1      44.207  26.967  30.153  1.00  0.00     0.031 C 
ATOM     57  C   UNL A   1      44.778  29.472  29.908  1.00  0.00     0.037 A 
BRANCH  44  58
ATOM     58  C   UNL A   1      42.126  27.707  34.324  1.00  0.00     0.057 A 
ATOM     59  C   UNL A   1      41.831  27.913  35.684  1.00  0.00     0.134 A 
ATOM     60  C   UNL A   1      42.898  26.562  34.044  1.00  0.00     0.134 A 
ATOM     61  F   UNL A   1      41.112  28.974  36.079  1.00  0.00    -0.206 F 
ATOM     62  C   UNL A   1      42.334  27.084  36.693  1.00  0.00     0.040 A 
ATOM     63  C   UNL A   1      43.361  25.700  35.040  1.00  0.00     0.040 A 
ATOM     64  F   UNL A   1      43.334  26.273  32.812  1.00  0.00    -0.206 F 
ATOM     65  C   UNL A   1      43.109  25.977  36.374  1.00  0.00     0.006 A 
ENDBRANCH  44  58
BRANCH  45  66
ATOM     66  C   UNL A   1      43.337  25.271  26.041  1.00  0.00     0.057 A 
ATOM     67  C   UNL A   1      44.451  25.050  25.217  1.00  0.00     0.134 A 
ATOM     68  C   UNL A   1      42.484  24.168  26.224  1.00  0.00     0.134 A 
ATOM     69  F   UNL A   1      45.346  26.027  25.005  1.00  0.00    -0.206 F 
ATOM     70  C   UNL A   1      44.717  23.801  24.637  1.00  0.00     0.040 A 
ATOM     71  C   UNL A   1      42.735  22.917  25.648  1.00  0.00     0.040 A 
ATOM     72  F   UNL A   1      41.425  24.238  27.044  1.00  0.00    -0.206 F 
ATOM     73  C   UNL A   1      43.865  22.725  24.865  1.00  0.00     0.006 A 
ENDBRANCH  45  66
BRANCH  57  74
ATOM     74  C   UNL A   1      45.183  30.508  28.890  1.00  0.00     0.057 A 
ATOM     75  C   UNL A   1      46.512  30.800  28.542  1.00  0.00     0.134 A 
ATOM     76  C   UNL A   1      44.188  31.125  28.126  1.00  0.00     0.134 A 
ATOM     77  F   UNL A   1      47.537  30.184  29.140  1.00  0.00    -0.206 F 
ATOM     78  C   UNL A   1      46.833  31.699  27.520  1.00  0.00     0.040 A 
ATOM     79  C   UNL A   1      44.494  31.997  27.079  1.00  0.00     0.040 A 
ATOM     80  F   UNL A   1      42.894  30.849  28.356  1.00  0.00    -0.206 F 
ATOM     81  C   UNL A   1      45.821  32.297  26.780  1.00  0.00     0.006 A 
ENDBRANCH  57  74
ENDBRANCH  31  32
ENDBRANCH  23  26
ENDBRANCH  21  22
ENDBRANCH  20  21
ENDBRANCH   1  20
TORSDOF 14
ENDMDL
MODEL 2
REMARK VINA RESULT:     -11.3      4.355      8.932
REMARK SMILES CC(C)NC(=O)CCn1ccc(C(=O)NCCCNC(=O)c2ccc(-c3c4nc(c(-c5c(F)cccc5F)c5ccc([nH]5)c(-c5c(F)cccc5F)c5nc(c(-c6c(F)cccc6F)c6ccc3[nH]6)C=C5)C=C4)cc2)n1
REMARK SMILES IDX 16 1 15 2 13 3 14 4 12 6 9 7 10 8 76 9 11 10 8 11 7 12 5 13
REMARK SMILES IDX 4 14 6 16 2 17 1 18 3 19 17 20 18 21 19 22 20 23 21 25 22 26
REMARK SMILES IDX 23 27 75 28 24 29 74 30 25 31 26 32 27 33 68 34 28 35 73 36
REMARK SMILES IDX 67 37 69 38 29 39 72 40 66 41 65 42 30 44 56 45 39 46 55 47
REMARK SMILES IDX 40 48 43 49 54 50 70 51 41 52 42 53 53 55 71 56 44 57 31 58
REMARK SMILES IDX 32 59 37 60 33 61 34 62 36 63 38 64 35 65 57 66 58 67 63 68
REMARK SMILES IDX 59 69 60 70 62 71 64 72 61 73 45 74 46 75 51 76 47 77 48 78
REMARK SMILES IDX 50 79 52 80 49 81
REMARK H PARENT 15 5 4 15 19 24 69 43 43 54
REMARK Flexibility Score: inf
ROOT
ATOM      1  C   UNL A   1      37.500  23.271  25.405  1.00  0.00     0.118 C 
ENDROOT
BRANCH   1   2
ATOM      2  N   UNL A   1      36.829  23.519  24.129  1.00  0.00    -0.351 N 
ATOM      3  C   UNL A   1      35.526  23.270  23.730  1.00  0.00     0.271 C 
ATOM      4  O   UNL A   1      35.165  23.720  22.640  1.00  0.00    -0.267 OA
ATOM      5  H   UNL A   1      37.398  23.931  23.438  1.00  0.00     0.163 HD
BRANCH   3   6
ATOM      6  C   UNL A   1      34.634  22.426  24.545  1.00  0.00     0.150 A 
ATOM      7  N   UNL A   1      33.689  20.644  25.225  1.00  0.00    -0.271 N 
ATOM      8  C   UNL A   1      32.874  21.639  25.676  1.00  0.00     0.109 A 
ATOM      9  N   UNL A   1      34.795  21.102  24.652  1.00  0.00    -0.168 NA
ATOM     10  C   UNL A   1      33.438  22.813  25.215  1.00  0.00     0.056 A 
BRANCH   7  11
ATOM     11  C   UNL A   1      33.451  19.214  25.158  1.00  0.00     0.154 C 
BRANCH  11  12
ATOM     12  C   UNL A   1      32.394  18.809  24.139  1.00  0.00     0.123 C 
BRANCH  12  13
ATOM     13  C   UNL A   1      32.809  17.688  23.205  1.00  0.00     0.222 C 
ATOM     14  N   UNL A   1      33.595  16.663  23.644  1.00  0.00    -0.354 N 
ATOM     15  H   UNL A   1      34.104  16.187  22.948  1.00  0.00     0.163 HD
ATOM     16  O   UNL A   1      32.502  17.722  22.011  1.00  0.00    -0.275 OA
BRANCH  14  17
ATOM     17  C   UNL A   1      33.778  16.180  25.002  1.00  0.00     0.075 C 
ATOM     18  C   UNL A   1      32.781  15.060  25.276  1.00  0.00     0.030 C 
ATOM     19  C   UNL A   1      35.201  15.733  25.296  1.00  0.00     0.030 C 
ENDBRANCH  14  17
ENDBRANCH  12  13
ENDBRANCH  11  12
ENDBRANCH   7  11
ENDBRANCH   3   6
ENDBRANCH   1   2
BRANCH   1  20
ATOM     20  C   UNL A   1      38.250  21.940  25.475  1.00  0.00     0.042 C 
BRANCH  20  21
ATOM     21  C   UNL A   1      39.377  21.984  26.483  1.00  0.00     0.118 C 
BRANCH  21  22
ATOM     22  N   UNL A   1      40.711  21.908  25.871  1.00  0.00    -0.352 N 
ATOM     23  C   UNL A   1      41.705  22.866  25.866  1.00  0.00     0.251 C 
ATOM     24  H   UNL A   1      40.922  21.067  25.405  1.00  0.00     0.163 HD
ATOM     25  O   UNL A   1      42.663  22.789  25.094  1.00  0.00    -0.269 OA
BRANCH  23  26
ATOM     26  C   UNL A   1      41.597  23.985  26.810  1.00  0.00     0.039 A 
ATOM     27  C   UNL A   1      42.384  24.082  27.960  1.00  0.00     0.014 A 
ATOM     28  C   UNL A   1      40.717  25.002  26.463  1.00  0.00     0.014 A 
ATOM     29  C   UNL A   1      42.323  25.255  28.709  1.00  0.00     0.010 A 
ATOM     30  C   UNL A   1      40.855  26.228  27.036  1.00  0.00     0.010 A 
ATOM     31  C   UNL A   1      41.564  26.330  28.222  1.00  0.00    -0.014 A 
BRANCH  31  32
ATOM     32  C   UNL A   1      41.536  27.631  28.866  1.00  0.00     0.031 A 
ATOM     33  C   UNL A   1      42.623  28.545  28.437  1.00  0.00     0.074 A 
ATOM     34  C   UNL A   1      40.463  28.039  29.581  1.00  0.00     0.049 A 
ATOM     35  N   UNL A   1      43.595  28.984  29.161  1.00  0.00    -0.248 NA
ATOM     36  C   UNL A   1      42.740  28.890  27.010  1.00  0.00     0.031 C 
ATOM     37  C   UNL A   1      39.202  27.325  29.829  1.00  0.00     0.029 A 
ATOM     38  N   UNL A   1      40.227  29.249  30.153  1.00  0.00    -0.354 N 
ATOM     39  C   UNL A   1      44.325  29.839  28.344  1.00  0.00     0.074 A 
ATOM     40  C   UNL A   1      43.879  29.588  26.999  1.00  0.00     0.031 C 
ATOM     41  C   UNL A   1      38.267  28.188  30.283  1.00  0.00     0.029 A 
ATOM     42  C   UNL A   1      38.901  29.470  30.519  1.00  0.00     0.049 A 
ATOM     43  H   UNL A   1      40.937  29.916  30.298  1.00  0.00     0.167 HD
ATOM     44  C   UNL A   1      45.052  30.858  28.879  1.00  0.00     0.037 A 
ATOM     45  C   UNL A   1      38.371  30.639  30.960  1.00  0.00     0.037 A 
ATOM     46  C   UNL A   1      45.198  30.692  30.305  1.00  0.00     0.049 A 
ATOM     47  C   UNL A   1      39.504  31.468  31.444  1.00  0.00     0.074 A 
ATOM     48  C   UNL A   1      45.756  29.718  31.112  1.00  0.00     0.029 A 
ATOM     49  N   UNL A   1      44.354  31.416  31.114  1.00  0.00    -0.354 N 
ATOM     50  N   UNL A   1      40.208  31.169  32.501  1.00  0.00    -0.248 NA
ATOM     51  C   UNL A   1      40.166  32.334  30.480  1.00  0.00     0.031 C 
ATOM     52  C   UNL A   1      44.862  29.601  32.217  1.00  0.00     0.029 A 
ATOM     53  C   UNL A   1      43.863  30.565  32.072  1.00  0.00     0.049 A 
ATOM     54  H   UNL A   1      44.141  32.372  31.022  1.00  0.00     0.167 HD
ATOM     55  C   UNL A   1      41.523  31.417  32.130  1.00  0.00     0.074 A 
ATOM     56  C   UNL A   1      41.428  32.210  30.904  1.00  0.00     0.031 C 
ATOM     57  C   UNL A   1      42.553  30.699  32.668  1.00  0.00     0.037 A 
BRANCH  44  58
ATOM     58  C   UNL A   1      45.301  32.182  28.207  1.00  0.00     0.057 A 
ATOM     59  C   UNL A   1      44.208  33.030  27.948  1.00  0.00     0.134 A 
ATOM     60  C   UNL A   1      46.498  32.527  27.549  1.00  0.00     0.134 A 
ATOM     61  F   UNL A   1      43.011  32.800  28.507  1.00  0.00    -0.206 F 
ATOM     62  C   UNL A   1      44.284  34.093  27.041  1.00  0.00     0.040 A 
ATOM     63  C   UNL A   1      46.597  33.618  26.682  1.00  0.00     0.040 A 
ATOM     64  F   UNL A   1      47.601  31.775  27.624  1.00  0.00    -0.206 F 
ATOM     65  C   UNL A   1      45.479  34.386  26.398  1.00  0.00     0.006 A 
ENDBRANCH  44  58
BRANCH  45  66
ATOM     66  C   UNL A   1      37.015  31.193  30.731  1.00  0.00     0.057 A 
ATOM     67  C   UNL A   1      36.171  31.522  31.802  1.00  0.00     0.134 A 
ATOM     68  C   UNL A   1      36.618  31.678  29.471  1.00  0.00     0.134 A 
ATOM     69  F   UNL A   1      36.477  31.138  33.051  1.00  0.00    -0.206 F 
ATOM     70  C   UNL A   1      35.023  32.310  31.637  1.00  0.00     0.040 A 
ATOM     71  C   UNL A   1      35.473  32.461  29.291  1.00  0.00     0.040 A 
ATOM     72  F   UNL A   1      37.378  31.485  28.382  1.00  0.00    -0.206 F 
ATOM     73  C   UNL A   1      34.679  32.795  30.380  1.00  0.00     0.006 A 
ENDBRANCH  45  66
BRANCH  57  74
ATOM     74  C   UNL A   1      42.244  29.797  33.836  1.00  0.00     0.057 A 
ATOM     75  C   UNL A   1      41.913  28.437  33.722  1.00  0.00     0.134 A 
ATOM     76  C   UNL A   1      42.437  30.286  35.131  1.00  0.00     0.134 A 
ATOM     77  F   UNL A   1      41.809  27.846  32.527  1.00  0.00    -0.206 F 
ATOM     78  C   UNL A   1      41.734  27.618  34.841  1.00  0.00     0.040 A 
ATOM     79  C   UNL A   1      42.296  29.471  36.258  1.00  0.00     0.040 A 
ATOM     80  F   UNL A   1      42.817  31.559  35.322  1.00  0.00    -0.206 F 
ATOM     81  C   UNL A   1      41.931  28.135  36.116  1.00  0.00     0.006 A 
ENDBRANCH  57  74
ENDBRANCH  31  32
ENDBRANCH  23  26
ENDBRANCH  21  22
ENDBRANCH  20  21
ENDBRANCH   1  20
TORSDOF 14
ENDMDL
MODEL 3
REMARK VINA RESULT:     -11.3      3.083      7.298
REMARK SMILES CC(C)NC(=O)CCn1ccc(C(=O)NCCCNC(=O)c2ccc(-c3c4nc(c(-c5c(F)cccc5F)c5ccc([nH]5)c(-c5c(F)cccc5F)c5nc(c(-c6c(F)cccc6F)c6ccc3[nH]6)C=C5)C=C4)cc2)n1
REMARK SMILES IDX 16 1 15 2 13 3 14 4 12 6 9 7 10 8 76 9 11 10 8 11 7 12 5 13
REMARK SMILES IDX 4 14 6 16 2 17 1 18 3 19 17 20 18 21 19 22 20 23 21 25 22 26
REMARK SMILES IDX 23 27 75 28 24 29 74 30 25 31 26 32 27 33 68 34 28 35 73 36
REMARK SMILES IDX 67 37 69 38 29 39 72 40 66 41 65 42 30 44 56 45 39 46 55 47
REMARK SMILES IDX 40 48 43 49 54 50 70 51 41 52 42 53 53 55 71 56 44 57 31 58
REMARK SMILES IDX 32 59 37 60 33 61 34 62 36 63 38 64 35 65 57 66 58 67 63 68
REMARK SMILES IDX 59 69 60 70 62 71 64 72 61 73 45 74 46 75 51 76 47 77 48 78
REMARK SMILES IDX 50 79 52 80 49 81
REMARK H PARENT 15 5 4 15 19 24 69 43 43 54
REMARK Flexibility Score: inf
ROOT
ATOM      1  C   UNL A   1      31.858  30.304  25.759  1.00  0.00     0.118 C 
ENDROOT
BRANCH   1   2
ATOM      2  N   UNL A   1      31.112  30.088  24.519  1.00  0.00    -0.351 N 
ATOM      3  C   UNL A   1      30.972  28.954  23.736  1.00  0.00     0.271 C 
ATOM      4  O   UNL A   1      30.154  28.993  22.814  1.00  0.00    -0.267 OA
ATOM      5  H   UNL A   1      30.629  30.879  24.185  1.00  0.00     0.163 HD
BRANCH   3   6
ATOM      6  C   UNL A   1      31.834  27.777  23.948  1.00  0.00     0.150 A 
ATOM      7  N   UNL A   1      32.581  26.032  24.911  1.00  0.00    -0.271 N 
ATOM      8  C   UNL A   1      33.599  26.412  24.087  1.00  0.00     0.109 A 
ATOM      9  N   UNL A   1      31.487  26.767  24.754  1.00  0.00    -0.168 NA
ATOM     10  C   UNL A   1      33.161  27.570  23.473  1.00  0.00     0.056 A 
BRANCH   7  11
ATOM     11  C   UNL A   1      32.583  25.068  25.996  1.00  0.00     0.154 C 
BRANCH  11  12
ATOM     12  C   UNL A   1      32.048  23.696  25.606  1.00  0.00     0.123 C 
BRANCH  12  13
ATOM     13  C   UNL A   1      32.290  22.606  26.634  1.00  0.00     0.222 C 
ATOM     14  N   UNL A   1      32.557  21.325  26.248  1.00  0.00    -0.354 N 
ATOM     15  H   UNL A   1      32.356  20.627  26.914  1.00  0.00     0.163 HD
ATOM     16  O   UNL A   1      32.178  22.845  27.838  1.00  0.00    -0.275 OA
BRANCH  14  17
ATOM     17  C   UNL A   1      33.101  20.854  24.986  1.00  0.00     0.075 C 
ATOM     18  C   UNL A   1      34.622  20.801  25.082  1.00  0.00     0.030 C 
ATOM     19  C   UNL A   1      32.532  19.515  24.546  1.00  0.00     0.030 C 
ENDBRANCH  14  17
ENDBRANCH  12  13
ENDBRANCH  11  12
ENDBRANCH   7  11
ENDBRANCH   3   6
ENDBRANCH   1   2
BRANCH   1  20
ATOM     20  C   UNL A   1      31.409  31.529  26.559  1.00  0.00     0.042 C 
BRANCH  20  21
ATOM     21  C   UNL A   1      32.579  32.235  27.207  1.00  0.00     0.118 C 
BRANCH  21  22
ATOM     22  N   UNL A   1      32.305  33.643  27.531  1.00  0.00    -0.352 N 
ATOM     23  C   UNL A   1      32.960  34.456  28.433  1.00  0.00     0.251 C 
ATOM     24  H   UNL A   1      31.559  34.057  27.040  1.00  0.00     0.163 HD
ATOM     25  O   UNL A   1      32.468  35.521  28.808  1.00  0.00    -0.269 OA
BRANCH  23  26
ATOM     26  C   UNL A   1      34.268  34.021  28.939  1.00  0.00     0.039 A 
ATOM     27  C   UNL A   1      34.421  33.335  30.146  1.00  0.00     0.014 A 
ATOM     28  C   UNL A   1      35.358  34.258  28.112  1.00  0.00     0.014 A 
ATOM     29  C   UNL A   1      35.678  32.826  30.465  1.00  0.00     0.010 A 
ATOM     30  C   UNL A   1      36.501  33.544  28.296  1.00  0.00     0.010 A 
ATOM     31  C   UNL A   1      36.708  32.923  29.517  1.00  0.00    -0.014 A 
BRANCH  31  32
ATOM     32  C   UNL A   1      38.014  32.318  29.707  1.00  0.00     0.031 A 
ATOM     33  C   UNL A   1      38.113  30.921  29.217  1.00  0.00     0.074 A 
ATOM     34  C   UNL A   1      39.090  33.060  30.054  1.00  0.00     0.049 A 
ATOM     35  N   UNL A   1      38.292  29.862  29.929  1.00  0.00    -0.248 NA
ATOM     36  C   UNL A   1      37.828  30.643  27.799  1.00  0.00     0.031 C 
ATOM     37  C   UNL A   1      39.167  34.510  30.282  1.00  0.00     0.029 A 
ATOM     38  N   UNL A   1      40.390  32.679  30.168  1.00  0.00    -0.354 N 
ATOM     39  C   UNL A   1      38.365  28.804  29.031  1.00  0.00     0.074 A 
ATOM     40  C   UNL A   1      37.877  29.309  27.775  1.00  0.00     0.031 C 
ATOM     41  C   UNL A   1      40.458  34.909  30.269  1.00  0.00     0.029 A 
ATOM     42  C   UNL A   1      41.302  33.732  30.202  1.00  0.00     0.049 A 
ATOM     43  H   UNL A   1      40.665  31.736  30.223  1.00  0.00     0.167 HD
ATOM     44  C   UNL A   1      39.059  27.675  29.343  1.00  0.00     0.037 A 
ATOM     45  C   UNL A   1      42.654  33.628  30.154  1.00  0.00     0.037 A 
ATOM     46  C   UNL A   1      39.371  27.636  30.752  1.00  0.00     0.049 A 
ATOM     47  C   UNL A   1      42.992  32.237  30.550  1.00  0.00     0.074 A 
ATOM     48  C   UNL A   1      38.615  27.627  31.908  1.00  0.00     0.029 A 
ATOM     49  N   UNL A   1      40.635  28.025  31.129  1.00  0.00    -0.354 N 
ATOM     50  N   UNL A   1      42.810  31.773  31.756  1.00  0.00    -0.248 NA
ATOM     51  C   UNL A   1      43.051  31.233  29.499  1.00  0.00     0.031 C 
ATOM     52  C   UNL A   1      39.322  28.470  32.815  1.00  0.00     0.029 A 
ATOM     53  C   UNL A   1      40.508  28.873  32.200  1.00  0.00     0.049 A 
ATOM     54  H   UNL A   1      41.478  27.745  30.706  1.00  0.00     0.167 HD
ATOM     55  C   UNL A   1      42.283  30.502  31.568  1.00  0.00     0.074 A 
ATOM     56  C   UNL A   1      42.532  30.193  30.159  1.00  0.00     0.031 C 
ATOM     57  C   UNL A   1      41.425  29.955  32.479  1.00  0.00     0.037 A 
BRANCH  44  58
ATOM     58  C   UNL A   1      39.785  26.810  28.348  1.00  0.00     0.057 A 
ATOM     59  C   UNL A   1      40.689  27.412  27.454  1.00  0.00     0.134 A 
ATOM     60  C   UNL A   1      39.424  25.485  28.034  1.00  0.00     0.134 A 
ATOM     61  F   UNL A   1      41.101  28.676  27.638  1.00  0.00    -0.206 F 
ATOM     62  C   UNL A   1      41.137  26.769  26.294  1.00  0.00     0.040 A 
ATOM     63  C   UNL A   1      39.906  24.816  26.906  1.00  0.00     0.040 A 
ATOM     64  F   UNL A   1      38.510  24.804  28.735  1.00  0.00    -0.206 F 
ATOM     65  C   UNL A   1      40.739  25.469  26.013  1.00  0.00     0.006 A 
ENDBRANCH  44  58
BRANCH  45  66
ATOM     66  C   UNL A   1      43.638  34.542  29.523  1.00  0.00     0.057 A 
ATOM     67  C   UNL A   1      43.906  34.485  28.148  1.00  0.00     0.134 A 
ATOM     68  C   UNL A   1      44.130  35.675  30.196  1.00  0.00     0.134 A 
ATOM     69  F   UNL A   1      43.451  33.463  27.406  1.00  0.00    -0.206 F 
ATOM     70  C   UNL A   1      44.593  35.507  27.476  1.00  0.00     0.040 A 
ATOM     71  C   UNL A   1      44.820  36.700  29.539  1.00  0.00     0.040 A 
ATOM     72  F   UNL A   1      43.878  35.873  31.498  1.00  0.00    -0.206 F 
ATOM     73  C   UNL A   1      45.039  36.627  28.170  1.00  0.00     0.006 A 
ENDBRANCH  45  66
BRANCH  57  74
ATOM     74  C   UNL A   1      41.250  30.669  33.795  1.00  0.00     0.057 A 
ATOM     75  C   UNL A   1      40.267  31.642  34.044  1.00  0.00     0.134 A 
ATOM     76  C   UNL A   1      42.005  30.249  34.893  1.00  0.00     0.134 A 
ATOM     77  F   UNL A   1      39.422  32.036  33.086  1.00  0.00    -0.206 F 
ATOM     78  C   UNL A   1      40.081  32.203  35.311  1.00  0.00     0.040 A 
ATOM     79  C   UNL A   1      41.805  30.775  36.172  1.00  0.00     0.040 A 
ATOM     80  F   UNL A   1      42.921  29.278  34.750  1.00  0.00    -0.206 F 
ATOM     81  C   UNL A   1      40.849  31.765  36.383  1.00  0.00     0.006 A 
ENDBRANCH  57  74
ENDBRANCH  31  32
ENDBRANCH  23  26
ENDBRANCH  21  22
ENDBRANCH  20  21
ENDBRANCH   1  20
TORSDOF 14
ENDMDL
