MODEL 1
REMARK VINA RESULT:     -13.2      0.000      0.000
REMARK SMILES O=C(NCCCNC(=O)c1ccc(-c2c3nc(c(-c4c(F)cccc4F)c4ccc([nH]4)c(-c4c(F)cccc4F)c4nc(c(-c5c(F)cccc5F)c5ccc2[nH]5)C=C4)C=C3)cc1)C1=Cc2cc(S(F)(F)(F)(F)F)cc(Br)c2O[C@H]1C(F)(F)F
REMARK SMILES IDX 5 1 4 2 3 3 1 4 2 5 64 7 65 8 80 9 66 10 79 11 67 12 78 13
REMARK SMILES IDX 68 14 76 15 75 16 77 17 81 18 82 19 83 20 84 21 69 22 70 23
REMARK SMILES IDX 71 24 72 25 73 26 74 27 6 28 7 29 8 30 9 32 10 33 11 34
REMARK SMILES IDX 63 35 12 36 62 37 13 38 14 39 15 40 56 41 16 42 61 43 55 44
REMARK SMILES IDX 57 45 17 46 60 47 54 48 53 49 18 51 44 52 27 53 43 54 28 55
REMARK SMILES IDX 31 56 42 57 58 58 29 59 30 60 41 62 59 63 32 64 19 65 20 66
REMARK SMILES IDX 25 67 21 68 22 69 24 70 26 71 23 72 45 73 46 74 51 75 47 76
REMARK SMILES IDX 48 77 50 78 52 79 49 80 33 81 34 82 39 83 35 84 36 85 38 86
REMARK SMILES IDX 40 87 37 88
REMARK H PARENT 3 6 7 31 57 50 31 61
REMARK Flexibility Score: inf
ROOT
ATOM      1  C   UNL A   1      33.553  28.087  26.908  1.00  0.00     0.042 C 
ENDROOT
BRANCH   1   2
ATOM      2  C   UNL A   1      32.719  28.569  25.733  1.00  0.00     0.118 C 
BRANCH   2   3
ATOM      3  N   UNL A   1      31.399  27.922  25.770  1.00  0.00    -0.352 N 
ATOM      4  O   UNL A   1      29.708  26.744  24.588  1.00  0.00    -0.270 OA
ATOM      5  C   UNL A   1      30.849  27.303  24.555  1.00  0.00     0.251 C 
ATOM      6  H   UNL A   1      30.885  27.903  26.609  1.00  0.00     0.163 HD
BRANCH   5   7
ATOM      7  C   UNL A   1      31.644  27.333  23.261  1.00  0.00     0.067 C 
ATOM      8  C   UNL A   1      32.675  26.465  23.076  1.00  0.00     0.025 C 
ATOM      9  C   UNL A   1      31.286  28.332  22.172  1.00  0.00     0.314 C 
ATOM     10  C   UNL A   1      33.032  25.466  24.163  1.00  0.00     0.020 A 
ATOM     11  O   UNL A   1      30.738  25.142  24.688  1.00  0.00    -0.474 OA
ATOM     12  C   UNL A   1      34.380  25.223  24.369  1.00  0.00     0.036 A 
ATOM     13  C   UNL A   1      32.102  24.763  24.798  1.00  0.00     0.142 A 
ATOM     14  C   UNL A   1      34.647  24.012  25.052  1.00  0.00     0.109 A 
ATOM     15  C   UNL A   1      32.446  23.672  25.559  1.00  0.00     0.062 A 
ATOM     16  C   UNL A   1      33.757  23.338  25.757  1.00  0.00     0.044 A 
ATOM     17  Br  UNL A   1      31.037  22.578  26.372  1.00  0.00    -0.047 Br
BRANCH   9  18
ATOM     18  C   UNL A   1      30.107  29.176  22.627  1.00  0.00     0.429 C 
ATOM     19  F   UNL A   1      30.385  29.752  23.793  1.00  0.00    -0.167 F 
ATOM     20  F   UNL A   1      29.924  30.114  21.702  1.00  0.00    -0.167 F 
ATOM     21  F   UNL A   1      29.000  28.448  22.745  1.00  0.00    -0.167 F 
ENDBRANCH   9  18
BRANCH  14  22
ATOM     22  S   UNL A   1      36.326  23.343  24.954  1.00  0.00     0.310 S 
ATOM     23  F   UNL A   1      36.017  22.246  26.056  1.00  0.00    -0.094 F 
ATOM     24  F   UNL A   1      36.743  24.307  26.127  1.00  0.00    -0.094 F 
ATOM     25  F   UNL A   1      37.769  22.769  24.874  1.00  0.00    -0.094 F 
ATOM     26  F   UNL A   1      35.856  22.288  23.877  1.00  0.00    -0.094 F 
ATOM     27  F   UNL A   1      34.832  23.837  25.101  1.00  0.00    -0.094 F 
ENDBRANCH  14  22
ENDBRANCH   5   7
ENDBRANCH   2   3
ENDBRANCH   1   2
BRANCH   1  28
ATOM     28  C   UNL A   1      34.794  28.955  27.038  1.00  0.00     0.118 C 
BRANCH  28  29
ATOM     29  N   UNL A   1      34.580  29.962  28.087  1.00  0.00    -0.352 N 
ATOM     30  C   UNL A   1      35.688  30.346  28.974  1.00  0.00     0.251 C 
ATOM     31  H   UNL A   1      33.695  30.380  28.195  1.00  0.00     0.163 HD
ATOM     32  O   UNL A   1      35.503  31.217  29.881  1.00  0.00    -0.269 OA
BRANCH  30  33
ATOM     33  C   UNL A   1      37.054  29.702  28.806  1.00  0.00     0.039 A 
ATOM     34  C   UNL A   1      37.676  29.120  29.898  1.00  0.00     0.014 A 
ATOM     35  C   UNL A   1      37.682  29.829  27.644  1.00  0.00     0.014 A 
ATOM     36  C   UNL A   1      39.074  28.962  29.746  1.00  0.00     0.010 A 
ATOM     37  C   UNL A   1      39.017  29.527  27.533  1.00  0.00     0.010 A 
ATOM     38  C   UNL A   1      39.710  29.003  28.589  1.00  0.00    -0.014 A 
BRANCH  38  39
ATOM     39  C   UNL A   1      41.136  28.497  28.441  1.00  0.00     0.031 A 
ATOM     40  C   UNL A   1      41.305  27.140  28.166  1.00  0.00     0.074 A 
ATOM     41  C   UNL A   1      42.172  29.415  28.474  1.00  0.00     0.049 A 
ATOM     42  N   UNL A   1      42.438  26.506  27.863  1.00  0.00    -0.248 NA
ATOM     43  C   UNL A   1      40.210  26.157  28.164  1.00  0.00     0.031 C 
ATOM     44  C   UNL A   1      42.009  30.788  28.742  1.00  0.00     0.029 A 
ATOM     45  N   UNL A   1      43.513  29.183  28.262  1.00  0.00    -0.354 N 
ATOM     46  C   UNL A   1      42.198  25.210  27.646  1.00  0.00     0.074 A 
ATOM     47  C   UNL A   1      40.762  24.967  27.842  1.00  0.00     0.031 C 
ATOM     48  C   UNL A   1      43.234  31.374  28.704  1.00  0.00     0.029 A 
ATOM     49  C   UNL A   1      44.185  30.377  28.410  1.00  0.00     0.049 A 
ATOM     50  H   UNL A   1      43.921  28.315  28.042  1.00  0.00     0.167 HD
ATOM     51  C   UNL A   1      43.118  24.224  27.289  1.00  0.00     0.037 A 
ATOM     52  C   UNL A   1      45.547  30.603  28.302  1.00  0.00     0.037 A 
ATOM     53  C   UNL A   1      44.476  24.459  27.138  1.00  0.00     0.049 A 
ATOM     54  C   UNL A   1      46.477  29.605  28.002  1.00  0.00     0.074 A 
ATOM     55  C   UNL A   1      45.417  23.477  26.773  1.00  0.00     0.029 A 
ATOM     56  N   UNL A   1      45.151  25.647  27.311  1.00  0.00    -0.354 N 
ATOM     57  N   UNL A   1      46.232  28.318  27.747  1.00  0.00    -0.248 NA
ATOM     58  C   UNL A   1      47.927  29.826  27.916  1.00  0.00     0.031 C 
ATOM     59  C   UNL A   1      46.644  24.063  26.734  1.00  0.00     0.029 A 
ATOM     60  C   UNL A   1      46.489  25.421  27.076  1.00  0.00     0.049 A 
ATOM     61  H   UNL A   1      44.747  26.510  27.560  1.00  0.00     0.167 HD
ATOM     62  C   UNL A   1      47.372  27.676  27.484  1.00  0.00     0.074 A 
ATOM     63  C   UNL A   1      48.480  28.635  27.597  1.00  0.00     0.031 C 
ATOM     64  C   UNL A   1      47.533  26.330  27.152  1.00  0.00     0.037 A 
BRANCH  51  65
ATOM     65  C   UNL A   1      42.605  22.813  27.055  1.00  0.00     0.057 A 
ATOM     66  C   UNL A   1      42.284  22.381  25.779  1.00  0.00     0.134 A 
ATOM     67  C   UNL A   1      42.447  22.022  28.110  1.00  0.00     0.134 A 
ATOM     68  F   UNL A   1      42.656  23.029  24.678  1.00  0.00    -0.206 F 
ATOM     69  C   UNL A   1      41.527  21.186  25.751  1.00  0.00     0.040 A 
ATOM     70  C   UNL A   1      41.818  20.807  27.985  1.00  0.00     0.040 A 
ATOM     71  F   UNL A   1      42.903  22.411  29.297  1.00  0.00    -0.206 F 
ATOM     72  C   UNL A   1      41.422  20.342  26.762  1.00  0.00     0.006 A 
ENDBRANCH  51  65
BRANCH  52  73
ATOM     73  C   UNL A   1      46.059  32.018  28.520  1.00  0.00     0.057 A 
ATOM     74  C   UNL A   1      46.464  32.439  29.776  1.00  0.00     0.134 A 
ATOM     75  C   UNL A   1      46.125  32.824  27.467  1.00  0.00     0.134 A 
ATOM     76  F   UNL A   1      46.654  31.605  30.794  1.00  0.00    -0.206 F 
ATOM     77  C   UNL A   1      46.659  33.837  29.876  1.00  0.00     0.040 A 
ATOM     78  C   UNL A   1      46.455  34.149  27.623  1.00  0.00     0.040 A 
ATOM     79  F   UNL A   1      45.872  32.345  26.253  1.00  0.00    -0.206 F 
ATOM     80  C   UNL A   1      46.809  34.648  28.845  1.00  0.00     0.006 A 
ENDBRANCH  52  73
BRANCH  64  81
ATOM     81  C   UNL A   1      48.938  25.831  26.854  1.00  0.00     0.057 A 
ATOM     82  C   UNL A   1      49.711  25.309  27.878  1.00  0.00     0.134 A 
ATOM     83  C   UNL A   1      49.425  25.978  25.628  1.00  0.00     0.134 A 
ATOM     84  F   UNL A   1      49.202  24.911  29.041  1.00  0.00    -0.206 F 
ATOM     85  C   UNL A   1      51.091  25.238  27.575  1.00  0.00     0.040 A 
ATOM     86  C   UNL A   1      50.758  25.759  25.376  1.00  0.00     0.040 A 
ATOM     87  F   UNL A   1      48.617  26.338  24.636  1.00  0.00    -0.206 F 
ATOM     88  C   UNL A   1      51.593  25.300  26.356  1.00  0.00     0.006 A 
ENDBRANCH  64  81
ENDBRANCH  38  39
ENDBRANCH  30  33
ENDBRANCH  28  29
ENDBRANCH   1  28
TORSDOF 12
ENDMDL
MODEL 2
REMARK VINA RESULT:     -12.9      3.525      8.138
REMARK SMILES O=C(NCCCNC(=O)c1ccc(-c2c3nc(c(-c4c(F)cccc4F)c4ccc([nH]4)c(-c4c(F)cccc4F)c4nc(c(-c5c(F)cccc5F)c5ccc2[nH]5)C=C4)C=C3)cc1)C1=Cc2cc(S(F)(F)(F)(F)F)cc(Br)c2O[C@H]1C(F)(F)F
REMARK SMILES IDX 5 1 4 2 3 3 1 4 2 5 64 7 65 8 80 9 66 10 79 11 67 12 78 13
REMARK SMILES IDX 68 14 76 15 75 16 77 17 81 18 82 19 83 20 84 21 69 22 70 23
REMARK SMILES IDX 71 24 72 25 73 26 74 27 6 28 7 29 8 30 9 32 10 33 11 34
REMARK SMILES IDX 63 35 12 36 62 37 13 38 14 39 15 40 56 41 16 42 61 43 55 44
REMARK SMILES IDX 57 45 17 46 60 47 54 48 53 49 18 51 44 52 27 53 43 54 28 55
REMARK SMILES IDX 31 56 42 57 58 58 29 59 30 60 41 62 59 63 32 64 19 65 20 66
REMARK SMILES IDX 25 67 21 68 22 69 24 70 26 71 23 72 45 73 46 74 51 75 47 76
REMARK SMILES IDX 48 77 50 78 52 79 49 80 33 81 34 82 39 83 35 84 36 85 38 86
REMARK SMILES IDX 40 87 37 88
REMARK H PARENT 3 6 7 31 57 50 31 61
REMARK Flexibility Score: inf
ROOT
ATOM      1  C   UNL A   1      36.232  23.192  24.485  1.00  0.00     0.042 C 
ENDROOT
BRANCH   1   2
ATOM      2  C   UNL A   1      35.279  24.365  24.322  1.00  0.00     0.118 C 
BRANCH   2   3
ATOM      3  N   UNL A   1      34.155  23.968  23.463  1.00  0.00    -0.352 N 
ATOM      4  O   UNL A   1      31.928  23.151  23.323  1.00  0.00    -0.270 OA
ATOM      5  C   UNL A   1      32.900  23.494  24.066  1.00  0.00     0.251 C 
ATOM      6  H   UNL A   1      34.242  24.020  22.484  1.00  0.00     0.163 HD
BRANCH   5   7
ATOM      7  C   UNL A   1      32.767  23.414  25.578  1.00  0.00     0.067 C 
ATOM      8  C   UNL A   1      32.652  24.553  26.312  1.00  0.00     0.025 C 
ATOM      9  C   UNL A   1      32.760  22.060  26.270  1.00  0.00     0.314 C 
ATOM     10  C   UNL A   1      32.658  25.907  25.620  1.00  0.00     0.020 A 
ATOM     11  O   UNL A   1      31.400  25.038  23.801  1.00  0.00    -0.474 OA
ATOM     12  C   UNL A   1      33.331  26.933  26.262  1.00  0.00     0.036 A 
ATOM     13  C   UNL A   1      31.945  26.133  24.523  1.00  0.00     0.142 A 
ATOM     14  C   UNL A   1      32.953  28.226  25.829  1.00  0.00     0.109 A 
ATOM     15  C   UNL A   1      31.729  27.415  24.079  1.00  0.00     0.062 A 
ATOM     16  C   UNL A   1      32.316  28.482  24.701  1.00  0.00     0.044 A 
ATOM     17  Br  UNL A   1      30.563  27.719  22.534  1.00  0.00    -0.047 Br
BRANCH   9  18
ATOM     18  C   UNL A   1      32.901  20.960  25.231  1.00  0.00     0.429 C 
ATOM     19  F   UNL A   1      33.965  21.191  24.467  1.00  0.00    -0.167 F 
ATOM     20  F   UNL A   1      33.071  19.821  25.895  1.00  0.00    -0.167 F 
ATOM     21  F   UNL A   1      31.817  20.869  24.464  1.00  0.00    -0.167 F 
ENDBRANCH   9  18
BRANCH  14  22
ATOM     22  S   UNL A   1      33.375  29.628  26.894  1.00  0.00     0.310 S 
ATOM     23  F   UNL A   1      33.739  28.673  28.107  1.00  0.00    -0.094 F 
ATOM     24  F   UNL A   1      31.893  29.626  27.427  1.00  0.00    -0.094 F 
ATOM     25  F   UNL A   1      33.735  30.830  27.813  1.00  0.00    -0.094 F 
ATOM     26  F   UNL A   1      34.888  29.523  26.453  1.00  0.00    -0.094 F 
ATOM     27  F   UNL A   1      33.053  28.336  26.042  1.00  0.00    -0.094 F 
ENDBRANCH  14  22
ENDBRANCH   5   7
ENDBRANCH   2   3
ENDBRANCH   1   2
BRANCH   1  28
ATOM     28  C   UNL A   1      36.765  23.166  25.908  1.00  0.00     0.118 C 
BRANCH  28  29
ATOM     29  N   UNL A   1      37.837  22.166  26.012  1.00  0.00    -0.352 N 
ATOM     30  C   UNL A   1      39.174  22.567  26.473  1.00  0.00     0.251 C 
ATOM     31  H   UNL A   1      37.660  21.227  25.773  1.00  0.00     0.163 HD
ATOM     32  O   UNL A   1      40.102  21.703  26.562  1.00  0.00    -0.269 OA
BRANCH  30  33
ATOM     33  C   UNL A   1      39.448  24.016  26.841  1.00  0.00     0.039 A 
ATOM     34  C   UNL A   1      39.878  24.902  25.867  1.00  0.00     0.014 A 
ATOM     35  C   UNL A   1      39.397  24.371  28.120  1.00  0.00     0.014 A 
ATOM     36  C   UNL A   1      40.513  26.057  26.382  1.00  0.00     0.010 A 
ATOM     37  C   UNL A   1      39.914  25.574  28.534  1.00  0.00     0.010 A 
ATOM     38  C   UNL A   1      40.410  26.474  27.631  1.00  0.00    -0.014 A 
BRANCH  38  39
ATOM     39  C   UNL A   1      40.822  27.878  28.044  1.00  0.00     0.031 A 
ATOM     40  C   UNL A   1      39.810  28.741  28.465  1.00  0.00     0.074 A 
ATOM     41  C   UNL A   1      42.171  28.187  28.085  1.00  0.00     0.049 A 
ATOM     42  N   UNL A   1      39.946  29.956  28.996  1.00  0.00    -0.248 NA
ATOM     43  C   UNL A   1      38.374  28.427  28.389  1.00  0.00     0.031 C 
ATOM     44  C   UNL A   1      43.200  27.319  27.670  1.00  0.00     0.029 A 
ATOM     45  N   UNL A   1      42.756  29.355  28.522  1.00  0.00    -0.354 N 
ATOM     46  C   UNL A   1      38.748  30.467  29.292  1.00  0.00     0.074 A 
ATOM     47  C   UNL A   1      37.720  29.493  28.900  1.00  0.00     0.031 C 
ATOM     48  C   UNL A   1      44.386  27.957  27.843  1.00  0.00     0.029 A 
ATOM     49  C   UNL A   1      44.120  29.236  28.370  1.00  0.00     0.049 A 
ATOM     50  H   UNL A   1      42.282  30.139  28.882  1.00  0.00     0.167 HD
ATOM     51  C   UNL A   1      38.473  31.704  29.875  1.00  0.00     0.037 A 
ATOM     52  C   UNL A   1      45.093  30.178  28.666  1.00  0.00     0.037 A 
ATOM     53  C   UNL A   1      39.449  32.630  30.211  1.00  0.00     0.049 A 
ATOM     54  C   UNL A   1      44.814  31.440  29.196  1.00  0.00     0.074 A 
ATOM     55  C   UNL A   1      39.189  33.879  30.806  1.00  0.00     0.029 A 
ATOM     56  N   UNL A   1      40.810  32.520  30.036  1.00  0.00    -0.354 N 
ATOM     57  N   UNL A   1      43.620  31.934  29.528  1.00  0.00    -0.248 NA
ATOM     58  C   UNL A   1      45.833  32.458  29.483  1.00  0.00     0.031 C 
ATOM     59  C   UNL A   1      40.377  34.518  30.979  1.00  0.00     0.029 A 
ATOM     60  C   UNL A   1      41.398  33.679  30.493  1.00  0.00     0.049 A 
ATOM     61  H   UNL A   1      41.283  31.747  29.649  1.00  0.00     0.167 HD
ATOM     62  C   UNL A   1      43.753  33.167  30.021  1.00  0.00     0.074 A 
ATOM     63  C   UNL A   1      45.178  33.525  29.992  1.00  0.00     0.031 C 
ATOM     64  C   UNL A   1      42.745  34.007  30.496  1.00  0.00     0.037 A 
BRANCH  51  65
ATOM     65  C   UNL A   1      37.022  32.059  30.156  1.00  0.00     0.057 A 
ATOM     66  C   UNL A   1      36.250  32.693  29.195  1.00  0.00     0.134 A 
ATOM     67  C   UNL A   1      36.529  31.770  31.355  1.00  0.00     0.134 A 
ATOM     68  F   UNL A   1      36.607  32.774  27.917  1.00  0.00    -0.206 F 
ATOM     69  C   UNL A   1      35.048  33.244  29.698  1.00  0.00     0.040 A 
ATOM     70  C   UNL A   1      35.289  32.228  31.729  1.00  0.00     0.040 A 
ATOM     71  F   UNL A   1      37.243  31.031  32.199  1.00  0.00    -0.206 F 
ATOM     72  C   UNL A   1      34.496  32.912  30.851  1.00  0.00     0.006 A 
ENDBRANCH  51  65
BRANCH  52  73
ATOM     73  C   UNL A   1      46.545  29.817  28.400  1.00  0.00     0.057 A 
ATOM     74  C   UNL A   1      47.135  30.106  27.181  1.00  0.00     0.134 A 
ATOM     75  C   UNL A   1      47.231  29.238  29.378  1.00  0.00     0.134 A 
ATOM     76  F   UNL A   1      46.574  30.901  26.274  1.00  0.00    -0.206 F 
ATOM     77  C   UNL A   1      48.390  29.480  26.989  1.00  0.00     0.040 A 
ATOM     78  C   UNL A   1      48.504  28.772  29.157  1.00  0.00     0.040 A 
ATOM     79  F   UNL A   1      46.682  29.111  30.582  1.00  0.00    -0.206 F 
ATOM     80  C   UNL A   1      49.129  28.970  27.957  1.00  0.00     0.006 A 
ENDBRANCH  52  73
BRANCH  64  81
ATOM     81  C   UNL A   1      43.148  35.364  31.051  1.00  0.00     0.057 A 
ATOM     82  C   UNL A   1      43.375  36.419  30.184  1.00  0.00     0.134 A 
ATOM     83  C   UNL A   1      43.351  35.489  32.358  1.00  0.00     0.134 A 
ATOM     84  F   UNL A   1      42.952  36.426  28.923  1.00  0.00    -0.206 F 
ATOM     85  C   UNL A   1      44.097  37.490  30.761  1.00  0.00     0.040 A 
ATOM     86  C   UNL A   1      43.938  36.622  32.868  1.00  0.00     0.040 A 
ATOM     87  F   UNL A   1      42.982  34.510  33.179  1.00  0.00    -0.206 F 
ATOM     88  C   UNL A   1      44.244  37.680  32.059  1.00  0.00     0.006 A 
ENDBRANCH  64  81
ENDBRANCH  38  39
ENDBRANCH  30  33
ENDBRANCH  28  29
ENDBRANCH   1  28
TORSDOF 12
ENDMDL
MODEL 3
REMARK VINA RESULT:     -12.9      5.561      9.980
REMARK SMILES O=C(NCCCNC(=O)c1ccc(-c2c3nc(c(-c4c(F)cccc4F)c4ccc([nH]4)c(-c4c(F)cccc4F)c4nc(c(-c5c(F)cccc5F)c5ccc2[nH]5)C=C4)C=C3)cc1)C1=Cc2cc(S(F)(F)(F)(F)F)cc(Br)c2O[C@H]1C(F)(F)F
REMARK SMILES IDX 5 1 4 2 3 3 1 4 2 5 64 7 65 8 80 9 66 10 79 11 67 12 78 13
REMARK SMILES IDX 68 14 76 15 75 16 77 17 81 18 82 19 83 20 84 21 69 22 70 23
REMARK SMILES IDX 71 24 72 25 73 26 74 27 6 28 7 29 8 30 9 32 10 33 11 34
REMARK SMILES IDX 63 35 12 36 62 37 13 38 14 39 15 40 56 41 16 42 61 43 55 44
REMARK SMILES IDX 57 45 17 46 60 47 54 48 53 49 18 51 44 52 27 53 43 54 28 55
REMARK SMILES IDX 31 56 42 57 58 58 29 59 30 60 41 62 59 63 32 64 19 65 20 66
REMARK SMILES IDX 25 67 21 68 22 69 24 70 26 71 23 72 45 73 46 74 51 75 47 76
REMARK SMILES IDX 48 77 50 78 52 79 49 80 33 81 34 82 39 83 35 84 36 85 38 86
REMARK SMILES IDX 40 87 37 88
REMARK H PARENT 3 6 7 31 57 50 31 61
REMARK Flexibility Score: inf
ROOT
ATOM      1  C   UNL A   1      36.693  24.029  25.346  1.00  0.00     0.042 C 
ENDROOT
BRANCH   1   2
ATOM      2  C   UNL A   1      35.931  22.715  25.331  1.00  0.00     0.118 C 
BRANCH   2   3
ATOM      3  N   UNL A   1      35.306  22.525  24.014  1.00  0.00    -0.352 N 
ATOM      4  O   UNL A   1      33.314  22.149  22.774  1.00  0.00    -0.270 OA
ATOM      5  C   UNL A   1      33.854  22.314  23.913  1.00  0.00     0.251 C 
ATOM      6  H   UNL A   1      35.860  22.540  23.200  1.00  0.00     0.163 HD
BRANCH   5   7
ATOM      7  C   UNL A   1      33.000  22.291  25.169  1.00  0.00     0.067 C 
ATOM      8  C   UNL A   1      32.673  23.456  25.791  1.00  0.00     0.025 C 
ATOM      9  C   UNL A   1      32.511  20.966  25.732  1.00  0.00     0.314 C 
ATOM     10  C   UNL A   1      33.161  24.780  25.228  1.00  0.00     0.020 A 
ATOM     11  O   UNL A   1      32.850  24.007  23.003  1.00  0.00    -0.474 OA
ATOM     12  C   UNL A   1      33.551  25.742  26.145  1.00  0.00     0.036 A 
ATOM     13  C   UNL A   1      33.097  25.054  23.930  1.00  0.00     0.142 A 
ATOM     14  C   UNL A   1      33.575  27.057  25.623  1.00  0.00     0.109 A 
ATOM     15  C   UNL A   1      33.265  26.339  23.476  1.00  0.00     0.062 A 
ATOM     16  C   UNL A   1      33.593  27.351  24.335  1.00  0.00     0.044 A 
ATOM     17  Br  UNL A   1      33.032  26.729  21.569  1.00  0.00    -0.047 Br
BRANCH   9  18
ATOM     18  C   UNL A   1      33.012  19.829  24.858  1.00  0.00     0.429 C 
ATOM     19  F   UNL A   1      34.336  19.890  24.749  1.00  0.00    -0.167 F 
ATOM     20  F   UNL A   1      32.669  18.696  25.464  1.00  0.00    -0.167 F 
ATOM     21  F   UNL A   1      32.466  19.866  23.645  1.00  0.00    -0.167 F 
ENDBRANCH   9  18
BRANCH  14  22
ATOM     22  S   UNL A   1      33.583  28.432  26.800  1.00  0.00     0.310 S 
ATOM     23  F   UNL A   1      33.633  29.507  25.636  1.00  0.00    -0.094 F 
ATOM     24  F   UNL A   1      35.158  28.414  26.759  1.00  0.00    -0.094 F 
ATOM     25  F   UNL A   1      33.594  29.614  27.810  1.00  0.00    -0.094 F 
ATOM     26  F   UNL A   1      32.009  28.526  26.721  1.00  0.00    -0.094 F 
ATOM     27  F   UNL A   1      33.558  27.307  25.690  1.00  0.00    -0.094 F 
ENDBRANCH  14  22
ENDBRANCH   5   7
ENDBRANCH   2   3
ENDBRANCH   1   2
BRANCH   1  28
ATOM     28  C   UNL A   1      37.670  24.035  26.510  1.00  0.00     0.118 C 
BRANCH  28  29
ATOM     29  N   UNL A   1      38.997  23.613  26.039  1.00  0.00    -0.352 N 
ATOM     30  C   UNL A   1      40.195  24.355  26.457  1.00  0.00     0.251 C 
ATOM     31  H   UNL A   1      39.083  22.833  25.445  1.00  0.00     0.163 HD
ATOM     32  O   UNL A   1      41.343  23.989  26.050  1.00  0.00    -0.269 OA
BRANCH  30  33
ATOM     33  C   UNL A   1      40.062  25.558  27.376  1.00  0.00     0.039 A 
ATOM     34  C   UNL A   1      40.765  26.717  27.092  1.00  0.00     0.014 A 
ATOM     35  C   UNL A   1      39.378  25.428  28.505  1.00  0.00     0.014 A 
ATOM     36  C   UNL A   1      40.923  27.579  28.204  1.00  0.00     0.010 A 
ATOM     37  C   UNL A   1      39.472  26.376  29.495  1.00  0.00     0.010 A 
ATOM     38  C   UNL A   1      40.198  27.520  29.306  1.00  0.00    -0.014 A 
BRANCH  38  39
ATOM     39  C   UNL A   1      40.172  28.660  30.311  1.00  0.00     0.031 A 
ATOM     40  C   UNL A   1      39.205  29.649  30.128  1.00  0.00     0.074 A 
ATOM     41  C   UNL A   1      41.023  28.601  31.401  1.00  0.00     0.049 A 
ATOM     42  N   UNL A   1      38.907  30.657  30.948  1.00  0.00    -0.248 NA
ATOM     43  C   UNL A   1      38.323  29.732  28.953  1.00  0.00     0.031 C 
ATOM     44  C   UNL A   1      41.996  27.602  31.598  1.00  0.00     0.029 A 
ATOM     45  N   UNL A   1      41.089  29.469  32.469  1.00  0.00    -0.354 N 
ATOM     46  C   UNL A   1      37.909  31.385  30.441  1.00  0.00     0.074 A 
ATOM     47  C   UNL A   1      37.524  30.804  29.147  1.00  0.00     0.031 C 
ATOM     48  C   UNL A   1      42.647  27.869  32.760  1.00  0.00     0.029 A 
ATOM     49  C   UNL A   1      42.091  29.040  33.312  1.00  0.00     0.049 A 
ATOM     50  H   UNL A   1      40.518  30.259  32.607  1.00  0.00     0.167 HD
ATOM     51  C   UNL A   1      37.304  32.508  31.007  1.00  0.00     0.037 A 
ATOM     52  C   UNL A   1      42.513  29.624  34.495  1.00  0.00     0.037 A 
ATOM     53  C   UNL A   1      37.697  33.067  32.212  1.00  0.00     0.049 A 
ATOM     54  C   UNL A   1      41.946  30.782  35.033  1.00  0.00     0.074 A 
ATOM     55  C   UNL A   1      37.094  34.195  32.801  1.00  0.00     0.029 A 
ATOM     56  N   UNL A   1      38.716  32.653  33.042  1.00  0.00    -0.354 N 
ATOM     57  N   UNL A   1      40.924  31.486  34.546  1.00  0.00    -0.248 NA
ATOM     58  C   UNL A   1      42.406  31.428  36.269  1.00  0.00     0.031 C 
ATOM     59  C   UNL A   1      37.745  34.463  33.964  1.00  0.00     0.029 A 
ATOM     60  C   UNL A   1      38.768  33.506  34.121  1.00  0.00     0.049 A 
ATOM     61  H   UNL A   1      39.306  31.879  32.890  1.00  0.00     0.167 HD
ATOM     62  C   UNL A   1      40.653  32.519  35.346  1.00  0.00     0.074 A 
ATOM     63  C   UNL A   1      41.608  32.500  36.463  1.00  0.00     0.031 C 
ATOM     64  C   UNL A   1      39.647  33.474  35.192  1.00  0.00     0.037 A 
BRANCH  51  65
ATOM     65  C   UNL A   1      36.150  33.156  30.259  1.00  0.00     0.057 A 
ATOM     66  C   UNL A   1      34.840  32.810  30.545  1.00  0.00     0.134 A 
ATOM     67  C   UNL A   1      36.439  34.037  29.308  1.00  0.00     0.134 A 
ATOM     68  F   UNL A   1      34.489  32.138  31.638  1.00  0.00    -0.206 F 
ATOM     69  C   UNL A   1      33.908  33.238  29.570  1.00  0.00     0.040 A 
ATOM     70  C   UNL A   1      35.454  34.517  28.478  1.00  0.00     0.040 A 
ATOM     71  F   UNL A   1      37.691  34.458  29.159  1.00  0.00    -0.206 F 
ATOM     72  C   UNL A   1      34.145  34.172  28.666  1.00  0.00     0.006 A 
ENDBRANCH  51  65
BRANCH  52  73
ATOM     73  C   UNL A   1      43.656  28.966  35.251  1.00  0.00     0.057 A 
ATOM     74  C   UNL A   1      44.970  29.321  34.997  1.00  0.00     0.134 A 
ATOM     75  C   UNL A   1      43.352  28.062  36.175  1.00  0.00     0.134 A 
ATOM     76  F   UNL A   1      45.308  30.385  34.275  1.00  0.00    -0.206 F 
ATOM     77  C   UNL A   1      45.921  28.448  35.576  1.00  0.00     0.040 A 
ATOM     78  C   UNL A   1      44.341  27.341  36.799  1.00  0.00     0.040 A 
ATOM     79  F   UNL A   1      42.079  27.854  36.499  1.00  0.00    -0.206 F 
ATOM     80  C   UNL A   1      45.661  27.597  36.552  1.00  0.00     0.006 A 
ENDBRANCH  52  73
BRANCH  64  81
ATOM     81  C   UNL A   1      39.507  34.543  36.264  1.00  0.00     0.057 A 
ATOM     82  C   UNL A   1      40.156  35.757  36.111  1.00  0.00     0.134 A 
ATOM     83  C   UNL A   1      38.824  34.261  37.367  1.00  0.00     0.134 A 
ATOM     84  F   UNL A   1      40.632  36.183  34.944  1.00  0.00    -0.206 F 
ATOM     85  C   UNL A   1      40.269  36.502  37.308  1.00  0.00     0.040 A 
ATOM     86  C   UNL A   1      38.870  35.103  38.452  1.00  0.00     0.040 A 
ATOM     87  F   UNL A   1      38.089  33.154  37.423  1.00  0.00    -0.206 F 
ATOM     88  C   UNL A   1      39.543  36.292  38.391  1.00  0.00     0.006 A 
ENDBRANCH  64  81
ENDBRANCH  38  39
ENDBRANCH  30  33
ENDBRANCH  28  29
ENDBRANCH   1  28
TORSDOF 12
ENDMDL
