MODEL 1
REMARK VINA RESULT:     -13.6      0.000      0.000
REMARK SMILES COc1cc2ccccc2cc1C(=O)Nc1cc(C(=O)NCCCNC(=O)c2ccc(-c3c4nc(c(-c5c(F)cccc5F)c5ccc([nH]5)c(-c5c(F)cccc5F)c5nc(c(-c6c(F)cccc6F)c6ccc3[nH]6)C=C5)C=C4)cc2)ccc1C
REMARK SMILES IDX 22 1 21 2 19 3 20 4 18 6 16 7 17 8 84 9 83 10 85 11 82 12
REMARK SMILES IDX 15 13 13 14 14 15 12 17 3 18 4 19 5 20 11 21 6 22 10 23 7 24
REMARK SMILES IDX 9 25 8 26 2 27 1 28 23 29 24 30 25 31 26 32 27 34 28 35
REMARK SMILES IDX 29 36 81 37 30 38 80 39 31 40 32 41 33 42 74 43 34 44 79 45
REMARK SMILES IDX 73 46 75 47 35 48 78 49 72 50 71 51 36 53 62 54 45 55 61 56
REMARK SMILES IDX 46 57 49 58 60 59 76 60 47 61 48 62 59 64 77 65 50 66 37 67
REMARK SMILES IDX 38 68 43 69 39 70 40 71 42 72 44 73 41 74 63 75 64 76 69 77
REMARK SMILES IDX 65 78 66 79 68 80 70 81 67 82 51 83 52 84 57 85 53 86 54 87
REMARK SMILES IDX 56 88 58 89 55 90
REMARK H PARENT 21 5 15 16 25 33 75 52 49 63
REMARK Flexibility Score: inf
ROOT
ATOM      1  C   UNL A   1      32.384  29.903  25.850  1.00  0.00     0.118 C 
ENDROOT
BRANCH   1   2
ATOM      2  N   UNL A   1      33.305  29.734  24.735  1.00  0.00    -0.352 N 
ATOM      3  C   UNL A   1      33.511  28.722  23.824  1.00  0.00     0.251 C 
ATOM      4  O   UNL A   1      34.328  28.953  22.929  1.00  0.00    -0.269 OA
ATOM      5  H   UNL A   1      33.905  30.504  24.606  1.00  0.00     0.163 HD
BRANCH   3   6
ATOM      6  C   UNL A   1      32.824  27.392  23.837  1.00  0.00     0.041 A 
ATOM      7  C   UNL A   1      31.910  25.403  24.930  1.00  0.00     0.045 A 
ATOM      8  C   UNL A   1      32.656  26.587  24.960  1.00  0.00     0.040 A 
ATOM      9  C   UNL A   1      31.461  24.893  23.705  1.00  0.00    -0.027 A 
ATOM     10  C   UNL A   1      31.637  25.684  22.559  1.00  0.00     0.006 A 
ATOM     11  C   UNL A   1      30.654  23.631  23.583  1.00  0.00     0.046 C 
ATOM     12  C   UNL A   1      32.289  26.923  22.630  1.00  0.00     0.014 A 
BRANCH   7  13
ATOM     13  N   UNL A   1      31.582  24.753  26.132  1.00  0.00    -0.322 N 
ATOM     14  C   UNL A   1      32.031  23.561  26.668  1.00  0.00     0.259 C 
ATOM     15  O   UNL A   1      31.399  23.089  27.617  1.00  0.00    -0.269 OA
ATOM     16  H   UNL A   1      30.921  25.227  26.685  1.00  0.00     0.170 HD
BRANCH  14  17
ATOM     17  C   UNL A   1      33.271  22.842  26.231  1.00  0.00     0.082 A 
ATOM     18  C   UNL A   1      33.330  21.575  25.633  1.00  0.00     0.132 A 
ATOM     19  C   UNL A   1      34.565  20.975  25.348  1.00  0.00     0.056 A 
ATOM     20  C   UNL A   1      35.767  21.664  25.544  1.00  0.00    -0.015 A 
ATOM     21  C   UNL A   1      34.482  23.549  26.387  1.00  0.00     0.026 A 
ATOM     22  C   UNL A   1      37.003  21.071  25.246  1.00  0.00     0.009 A 
ATOM     23  C   UNL A   1      35.726  22.986  26.035  1.00  0.00    -0.017 A 
ATOM     24  C   UNL A   1      38.188  21.794  25.375  1.00  0.00     0.001 A 
ATOM     25  C   UNL A   1      36.929  23.702  26.157  1.00  0.00     0.009 A 
ATOM     26  C   UNL A   1      38.149  23.113  25.818  1.00  0.00     0.001 A 
BRANCH  18  27
ATOM     27  O   UNL A   1      32.246  20.785  25.374  1.00  0.00    -0.496 OA
ATOM     28  C   UNL A   1      32.529  19.803  24.383  1.00  0.00     0.278 C 
ENDBRANCH  18  27
ENDBRANCH  14  17
ENDBRANCH   7  13
ENDBRANCH   3   6
ENDBRANCH   1   2
BRANCH   1  29
ATOM     29  C   UNL A   1      32.949  30.805  26.949  1.00  0.00     0.042 C 
BRANCH  29  30
ATOM     30  C   UNL A   1      34.179  30.231  27.627  1.00  0.00     0.118 C 
BRANCH  30  31
ATOM     31  N   UNL A   1      34.896  31.185  28.470  1.00  0.00    -0.352 N 
ATOM     32  C   UNL A   1      36.123  31.021  29.101  1.00  0.00     0.251 C 
ATOM     33  H   UNL A   1      34.452  32.053  28.609  1.00  0.00     0.163 HD
ATOM     34  O   UNL A   1      36.611  31.917  29.772  1.00  0.00    -0.269 OA
BRANCH  32  35
ATOM     35  C   UNL A   1      36.893  29.790  28.809  1.00  0.00     0.039 A 
ATOM     36  C   UNL A   1      37.164  28.943  29.886  1.00  0.00     0.014 A 
ATOM     37  C   UNL A   1      37.612  29.687  27.623  1.00  0.00     0.014 A 
ATOM     38  C   UNL A   1      38.346  28.210  29.881  1.00  0.00     0.010 A 
ATOM     39  C   UNL A   1      38.845  29.065  27.669  1.00  0.00     0.010 A 
ATOM     40  C   UNL A   1      39.245  28.394  28.831  1.00  0.00    -0.014 A 
BRANCH  40  41
ATOM     41  C   UNL A   1      40.661  28.041  28.933  1.00  0.00     0.031 A 
ATOM     42  C   UNL A   1      41.157  26.774  28.358  1.00  0.00     0.074 A 
ATOM     43  C   UNL A   1      41.535  28.902  29.503  1.00  0.00     0.049 A 
ATOM     44  N   UNL A   1      42.267  26.207  28.691  1.00  0.00    -0.248 NA
ATOM     45  C   UNL A   1      40.398  26.012  27.377  1.00  0.00     0.031 C 
ATOM     46  C   UNL A   1      42.993  28.831  29.480  1.00  0.00     0.029 A 
ATOM     47  N   UNL A   1      41.254  29.910  30.437  1.00  0.00    -0.354 N 
ATOM     48  C   UNL A   1      42.497  25.171  27.817  1.00  0.00     0.074 A 
ATOM     49  C   UNL A   1      41.280  25.066  27.047  1.00  0.00     0.031 C 
ATOM     50  C   UNL A   1      43.475  29.490  30.544  1.00  0.00     0.029 A 
ATOM     51  C   UNL A   1      42.339  29.903  31.348  1.00  0.00     0.049 A 
ATOM     52  H   UNL A   1      40.467  30.501  30.456  1.00  0.00     0.167 HD
ATOM     53  C   UNL A   1      43.734  24.593  27.783  1.00  0.00     0.037 A 
ATOM     54  C   UNL A   1      42.145  29.595  32.662  1.00  0.00     0.037 A 
ATOM     55  C   UNL A   1      44.587  25.094  28.862  1.00  0.00     0.049 A 
ATOM     56  C   UNL A   1      42.861  28.344  33.130  1.00  0.00     0.074 A 
ATOM     57  C   UNL A   1      45.608  26.026  28.953  1.00  0.00     0.029 A 
ATOM     58  N   UNL A   1      44.230  24.799  30.165  1.00  0.00    -0.354 N 
ATOM     59  N   UNL A   1      43.602  27.587  32.367  1.00  0.00    -0.248 NA
ATOM     60  C   UNL A   1      42.717  27.794  34.481  1.00  0.00     0.031 C 
ATOM     61  C   UNL A   1      45.836  26.305  30.333  1.00  0.00     0.029 A 
ATOM     62  C   UNL A   1      44.955  25.540  31.075  1.00  0.00     0.049 A 
ATOM     63  H   UNL A   1      43.542  24.140  30.413  1.00  0.00     0.167 HD
ATOM     64  C   UNL A   1      43.954  26.458  33.056  1.00  0.00     0.074 A 
ATOM     65  C   UNL A   1      43.395  26.637  34.381  1.00  0.00     0.031 C 
ATOM     66  C   UNL A   1      44.630  25.421  32.485  1.00  0.00     0.037 A 
BRANCH  53  67
ATOM     67  C   UNL A   1      44.242  23.728  26.649  1.00  0.00     0.057 A 
ATOM     68  C   UNL A   1      43.760  22.415  26.477  1.00  0.00     0.134 A 
ATOM     69  C   UNL A   1      45.239  24.094  25.727  1.00  0.00     0.134 A 
ATOM     70  F   UNL A   1      42.733  21.941  27.193  1.00  0.00    -0.206 F 
ATOM     71  C   UNL A   1      44.310  21.512  25.556  1.00  0.00     0.040 A 
ATOM     72  C   UNL A   1      45.840  23.186  24.843  1.00  0.00     0.040 A 
ATOM     73  F   UNL A   1      45.632  25.363  25.580  1.00  0.00    -0.206 F 
ATOM     74  C   UNL A   1      45.385  21.882  24.764  1.00  0.00     0.006 A 
ENDBRANCH  53  67
BRANCH  54  75
ATOM     75  C   UNL A   1      40.839  30.085  33.177  1.00  0.00     0.057 A 
ATOM     76  C   UNL A   1      40.687  31.464  33.408  1.00  0.00     0.134 A 
ATOM     77  C   UNL A   1      39.673  29.322  33.090  1.00  0.00     0.134 A 
ATOM     78  F   UNL A   1      41.767  32.256  33.507  1.00  0.00    -0.206 F 
ATOM     79  C   UNL A   1      39.433  32.076  33.422  1.00  0.00     0.040 A 
ATOM     80  C   UNL A   1      38.409  29.922  33.124  1.00  0.00     0.040 A 
ATOM     81  F   UNL A   1      39.735  28.004  32.848  1.00  0.00    -0.206 F 
ATOM     82  C   UNL A   1      38.288  31.306  33.246  1.00  0.00     0.006 A 
ENDBRANCH  54  75
BRANCH  66  83
ATOM     83  C   UNL A   1      45.029  24.193  33.241  1.00  0.00     0.057 A 
ATOM     84  C   UNL A   1      44.188  23.077  33.338  1.00  0.00     0.134 A 
ATOM     85  C   UNL A   1      46.207  24.151  34.009  1.00  0.00     0.134 A 
ATOM     86  F   UNL A   1      43.028  23.030  32.666  1.00  0.00    -0.206 F 
ATOM     87  C   UNL A   1      44.504  21.980  34.148  1.00  0.00     0.040 A 
ATOM     88  C   UNL A   1      46.512  23.082  34.854  1.00  0.00     0.040 A 
ATOM     89  F   UNL A   1      47.112  25.140  33.953  1.00  0.00    -0.206 F 
ATOM     90  C   UNL A   1      45.660  21.988  34.923  1.00  0.00     0.006 A 
ENDBRANCH  66  83
ENDBRANCH  40  41
ENDBRANCH  32  35
ENDBRANCH  30  31
ENDBRANCH  29  30
ENDBRANCH   1  29
TORSDOF 13
ENDMDL
MODEL 2
REMARK VINA RESULT:     -13.5      3.545      9.125
REMARK SMILES COc1cc2ccccc2cc1C(=O)Nc1cc(C(=O)NCCCNC(=O)c2ccc(-c3c4nc(c(-c5c(F)cccc5F)c5ccc([nH]5)c(-c5c(F)cccc5F)c5nc(c(-c6c(F)cccc6F)c6ccc3[nH]6)C=C5)C=C4)cc2)ccc1C
REMARK SMILES IDX 22 1 21 2 19 3 20 4 18 6 16 7 17 8 84 9 83 10 85 11 82 12
REMARK SMILES IDX 15 13 13 14 14 15 12 17 3 18 4 19 5 20 11 21 6 22 10 23 7 24
REMARK SMILES IDX 9 25 8 26 2 27 1 28 23 29 24 30 25 31 26 32 27 34 28 35
REMARK SMILES IDX 29 36 81 37 30 38 80 39 31 40 32 41 33 42 74 43 34 44 79 45
REMARK SMILES IDX 73 46 75 47 35 48 78 49 72 50 71 51 36 53 62 54 45 55 61 56
REMARK SMILES IDX 46 57 49 58 60 59 76 60 47 61 48 62 59 64 77 65 50 66 37 67
REMARK SMILES IDX 38 68 43 69 39 70 40 71 42 72 44 73 41 74 63 75 64 76 69 77
REMARK SMILES IDX 65 78 66 79 68 80 70 81 67 82 51 83 52 84 57 85 53 86 54 87
REMARK SMILES IDX 56 88 58 89 55 90
REMARK H PARENT 21 5 15 16 25 33 75 52 49 63
REMARK Flexibility Score: inf
ROOT
ATOM      1  C   UNL A   1      36.517  21.383  25.213  1.00  0.00     0.118 C 
ENDROOT
BRANCH   1   2
ATOM      2  N   UNL A   1      35.802  21.537  26.471  1.00  0.00    -0.352 N 
ATOM      3  C   UNL A   1      34.562  22.040  26.798  1.00  0.00     0.251 C 
ATOM      4  O   UNL A   1      34.222  21.928  27.979  1.00  0.00    -0.269 OA
ATOM      5  H   UNL A   1      36.311  21.216  27.251  1.00  0.00     0.163 HD
BRANCH   3   6
ATOM      6  C   UNL A   1      33.612  22.692  25.842  1.00  0.00     0.041 A 
ATOM      7  C   UNL A   1      33.051  24.085  23.911  1.00  0.00     0.045 A 
ATOM      8  C   UNL A   1      33.972  23.591  24.843  1.00  0.00     0.040 A 
ATOM      9  C   UNL A   1      31.685  23.826  24.076  1.00  0.00    -0.027 A 
ATOM     10  C   UNL A   1      31.302  22.934  25.090  1.00  0.00     0.006 A 
ATOM     11  C   UNL A   1      30.632  24.316  23.122  1.00  0.00     0.046 C 
ATOM     12  C   UNL A   1      32.254  22.361  25.945  1.00  0.00     0.014 A 
BRANCH   7  13
ATOM     13  N   UNL A   1      33.507  24.804  22.792  1.00  0.00    -0.322 N 
ATOM     14  C   UNL A   1      33.346  26.131  22.442  1.00  0.00     0.259 C 
ATOM     15  O   UNL A   1      33.629  26.454  21.285  1.00  0.00    -0.269 OA
ATOM     16  H   UNL A   1      34.030  24.272  22.151  1.00  0.00     0.170 HD
BRANCH  14  17
ATOM     17  C   UNL A   1      32.926  27.218  23.385  1.00  0.00     0.082 A 
ATOM     18  C   UNL A   1      31.726  27.942  23.336  1.00  0.00     0.132 A 
ATOM     19  C   UNL A   1      31.490  28.996  24.230  1.00  0.00     0.056 A 
ATOM     20  C   UNL A   1      32.387  29.281  25.266  1.00  0.00    -0.015 A 
ATOM     21  C   UNL A   1      33.806  27.480  24.455  1.00  0.00     0.026 A 
ATOM     22  C   UNL A   1      32.145  30.326  26.171  1.00  0.00     0.009 A 
ATOM     23  C   UNL A   1      33.544  28.488  25.407  1.00  0.00    -0.017 A 
ATOM     24  C   UNL A   1      33.009  30.552  27.242  1.00  0.00     0.001 A 
ATOM     25  C   UNL A   1      34.403  28.727  26.494  1.00  0.00     0.009 A 
ATOM     26  C   UNL A   1      34.129  29.745  27.410  1.00  0.00     0.001 A 
BRANCH  18  27
ATOM     27  O   UNL A   1      30.753  27.776  22.391  1.00  0.00    -0.496 OA
ATOM     28  C   UNL A   1      29.488  28.245  22.843  1.00  0.00     0.278 C 
ENDBRANCH  18  27
ENDBRANCH  14  17
ENDBRANCH   7  13
ENDBRANCH   3   6
ENDBRANCH   1   2
BRANCH   1  29
ATOM     29  C   UNL A   1      38.035  21.449  25.387  1.00  0.00     0.042 C 
BRANCH  29  30
ATOM     30  C   UNL A   1      38.527  22.793  25.892  1.00  0.00     0.118 C 
BRANCH  30  31
ATOM     31  N   UNL A   1      39.965  22.850  26.135  1.00  0.00    -0.352 N 
ATOM     32  C   UNL A   1      40.727  23.942  26.534  1.00  0.00     0.251 C 
ATOM     33  H   UNL A   1      40.458  22.008  25.999  1.00  0.00     0.163 HD
ATOM     34  O   UNL A   1      41.931  23.839  26.712  1.00  0.00    -0.269 OA
BRANCH  32  35
ATOM     35  C   UNL A   1      40.014  25.192  26.887  1.00  0.00     0.039 A 
ATOM     36  C   UNL A   1      40.442  26.363  26.259  1.00  0.00     0.014 A 
ATOM     37  C   UNL A   1      39.236  25.244  28.039  1.00  0.00     0.014 A 
ATOM     38  C   UNL A   1      40.349  27.567  26.950  1.00  0.00     0.010 A 
ATOM     39  C   UNL A   1      39.259  26.410  28.780  1.00  0.00     0.010 A 
ATOM     40  C   UNL A   1      39.890  27.550  28.267  1.00  0.00    -0.014 A 
BRANCH  40  41
ATOM     41  C   UNL A   1      40.160  28.634  29.210  1.00  0.00     0.031 A 
ATOM     42  C   UNL A   1      39.132  29.660  29.483  1.00  0.00     0.074 A 
ATOM     43  C   UNL A   1      41.332  28.668  29.885  1.00  0.00     0.049 A 
ATOM     44  N   UNL A   1      39.376  30.818  29.996  1.00  0.00    -0.248 NA
ATOM     45  C   UNL A   1      37.730  29.468  29.146  1.00  0.00     0.031 C 
ATOM     46  C   UNL A   1      41.677  29.519  31.022  1.00  0.00     0.029 A 
ATOM     47  N   UNL A   1      42.551  28.085  29.510  1.00  0.00    -0.354 N 
ATOM     48  C   UNL A   1      38.174  31.417  30.290  1.00  0.00     0.074 A 
ATOM     49  C   UNL A   1      37.181  30.551  29.700  1.00  0.00     0.031 C 
ATOM     50  C   UNL A   1      43.010  29.665  31.063  1.00  0.00     0.029 A 
ATOM     51  C   UNL A   1      43.553  29.012  29.886  1.00  0.00     0.049 A 
ATOM     52  H   UNL A   1      42.683  27.211  29.075  1.00  0.00     0.167 HD
ATOM     53  C   UNL A   1      38.162  32.523  31.091  1.00  0.00     0.037 A 
ATOM     54  C   UNL A   1      44.345  29.604  28.946  1.00  0.00     0.037 A 
ATOM     55  C   UNL A   1      39.519  32.999  31.365  1.00  0.00     0.049 A 
ATOM     56  C   UNL A   1      44.197  31.110  28.852  1.00  0.00     0.074 A 
ATOM     57  C   UNL A   1      40.401  32.892  32.428  1.00  0.00     0.029 A 
ATOM     58  N   UNL A   1      40.264  33.488  30.306  1.00  0.00    -0.354 N 
ATOM     59  N   UNL A   1      43.380  31.818  29.584  1.00  0.00    -0.248 NA
ATOM     60  C   UNL A   1      44.892  31.925  27.853  1.00  0.00     0.031 C 
ATOM     61  C   UNL A   1      41.692  33.297  31.979  1.00  0.00     0.029 A 
ATOM     62  C   UNL A   1      41.591  33.651  30.647  1.00  0.00     0.049 A 
ATOM     63  H   UNL A   1      39.892  33.693  29.418  1.00  0.00     0.167 HD
ATOM     64  C   UNL A   1      43.371  33.109  29.128  1.00  0.00     0.074 A 
ATOM     65  C   UNL A   1      44.346  33.136  28.057  1.00  0.00     0.031 C 
ATOM     66  C   UNL A   1      42.528  34.062  29.616  1.00  0.00     0.037 A 
BRANCH  53  67
ATOM     67  C   UNL A   1      36.932  33.055  31.797  1.00  0.00     0.057 A 
ATOM     68  C   UNL A   1      35.988  33.836  31.102  1.00  0.00     0.134 A 
ATOM     69  C   UNL A   1      36.640  32.888  33.162  1.00  0.00     0.134 A 
ATOM     70  F   UNL A   1      36.049  34.003  29.774  1.00  0.00    -0.206 F 
ATOM     71  C   UNL A   1      34.923  34.493  31.735  1.00  0.00     0.040 A 
ATOM     72  C   UNL A   1      35.616  33.586  33.820  1.00  0.00     0.040 A 
ATOM     73  F   UNL A   1      37.278  31.987  33.916  1.00  0.00    -0.206 F 
ATOM     74  C   UNL A   1      34.759  34.405  33.108  1.00  0.00     0.006 A 
ENDBRANCH  53  67
BRANCH  54  75
ATOM     75  C   UNL A   1      44.661  28.697  27.811  1.00  0.00     0.057 A 
ATOM     76  C   UNL A   1      45.575  27.650  28.029  1.00  0.00     0.134 A 
ATOM     77  C   UNL A   1      43.842  28.603  26.684  1.00  0.00     0.134 A 
ATOM     78  F   UNL A   1      46.396  27.678  29.091  1.00  0.00    -0.206 F 
ATOM     79  C   UNL A   1      45.584  26.501  27.234  1.00  0.00     0.040 A 
ATOM     80  C   UNL A   1      43.857  27.466  25.869  1.00  0.00     0.040 A 
ATOM     81  F   UNL A   1      42.929  29.550  26.422  1.00  0.00    -0.206 F 
ATOM     82  C   UNL A   1      44.697  26.394  26.168  1.00  0.00     0.006 A 
ENDBRANCH  54  75
BRANCH  66  83
ATOM     83  C   UNL A   1      42.527  35.478  29.130  1.00  0.00     0.057 A 
ATOM     84  C   UNL A   1      41.797  35.874  28.003  1.00  0.00     0.134 A 
ATOM     85  C   UNL A   1      43.372  36.451  29.696  1.00  0.00     0.134 A 
ATOM     86  F   UNL A   1      40.983  35.014  27.374  1.00  0.00    -0.206 F 
ATOM     87  C   UNL A   1      41.896  37.166  27.473  1.00  0.00     0.040 A 
ATOM     88  C   UNL A   1      43.512  37.728  29.151  1.00  0.00     0.040 A 
ATOM     89  F   UNL A   1      44.078  36.199  30.808  1.00  0.00    -0.206 F 
ATOM     90  C   UNL A   1      42.769  38.092  28.037  1.00  0.00     0.006 A 
ENDBRANCH  66  83
ENDBRANCH  40  41
ENDBRANCH  32  35
ENDBRANCH  30  31
ENDBRANCH  29  30
ENDBRANCH   1  29
TORSDOF 13
ENDMDL
MODEL 3
REMARK VINA RESULT:     -13.3      1.296      2.151
REMARK SMILES COc1cc2ccccc2cc1C(=O)Nc1cc(C(=O)NCCCNC(=O)c2ccc(-c3c4nc(c(-c5c(F)cccc5F)c5ccc([nH]5)c(-c5c(F)cccc5F)c5nc(c(-c6c(F)cccc6F)c6ccc3[nH]6)C=C5)C=C4)cc2)ccc1C
REMARK SMILES IDX 22 1 21 2 19 3 20 4 18 6 16 7 17 8 84 9 83 10 85 11 82 12
REMARK SMILES IDX 15 13 13 14 14 15 12 17 3 18 4 19 5 20 11 21 6 22 10 23 7 24
REMARK SMILES IDX 9 25 8 26 2 27 1 28 23 29 24 30 25 31 26 32 27 34 28 35
REMARK SMILES IDX 29 36 81 37 30 38 80 39 31 40 32 41 33 42 74 43 34 44 79 45
REMARK SMILES IDX 73 46 75 47 35 48 78 49 72 50 71 51 36 53 62 54 45 55 61 56
REMARK SMILES IDX 46 57 49 58 60 59 76 60 47 61 48 62 59 64 77 65 50 66 37 67
REMARK SMILES IDX 38 68 43 69 39 70 40 71 42 72 44 73 41 74 63 75 64 76 69 77
REMARK SMILES IDX 65 78 66 79 68 80 70 81 67 82 51 83 52 84 57 85 53 86 54 87
REMARK SMILES IDX 56 88 58 89 55 90
REMARK H PARENT 21 5 15 16 25 33 75 52 49 63
REMARK Flexibility Score: inf
ROOT
ATOM      1  C   UNL A   1      31.854  30.681  26.555  1.00  0.00     0.118 C 
ENDROOT
BRANCH   1   2
ATOM      2  N   UNL A   1      31.714  30.348  25.145  1.00  0.00    -0.352 N 
ATOM      3  C   UNL A   1      31.889  29.186  24.427  1.00  0.00     0.251 C 
ATOM      4  O   UNL A   1      31.583  29.232  23.232  1.00  0.00    -0.269 OA
ATOM      5  H   UNL A   1      31.437  31.112  24.590  1.00  0.00     0.163 HD
BRANCH   3   6
ATOM      6  C   UNL A   1      32.406  27.894  24.981  1.00  0.00     0.041 A 
ATOM      7  C   UNL A   1      32.216  25.832  26.283  1.00  0.00     0.045 A 
ATOM      8  C   UNL A   1      31.726  27.081  25.883  1.00  0.00     0.040 A 
ATOM      9  C   UNL A   1      33.513  25.443  25.923  1.00  0.00    -0.027 A 
ATOM     10  C   UNL A   1      34.219  26.261  25.027  1.00  0.00     0.006 A 
ATOM     11  C   UNL A   1      34.114  24.120  26.308  1.00  0.00     0.046 C 
ATOM     12  C   UNL A   1      33.664  27.456  24.549  1.00  0.00     0.014 A 
BRANCH   7  13
ATOM     13  N   UNL A   1      31.390  24.958  27.010  1.00  0.00    -0.322 N 
ATOM     14  C   UNL A   1      30.771  23.779  26.639  1.00  0.00     0.259 C 
ATOM     15  O   UNL A   1      29.895  23.336  27.387  1.00  0.00    -0.269 OA
ATOM     16  H   UNL A   1      31.223  25.232  27.940  1.00  0.00     0.170 HD
BRANCH  14  17
ATOM     17  C   UNL A   1      31.141  22.962  25.438  1.00  0.00     0.082 A 
ATOM     18  C   UNL A   1      31.091  23.382  24.101  1.00  0.00     0.132 A 
ATOM     19  C   UNL A   1      31.383  22.490  23.060  1.00  0.00     0.056 A 
ATOM     20  C   UNL A   1      31.843  21.195  23.325  1.00  0.00    -0.015 A 
ATOM     21  C   UNL A   1      31.645  21.672  25.701  1.00  0.00     0.026 A 
ATOM     22  C   UNL A   1      32.151  20.305  22.284  1.00  0.00     0.009 A 
ATOM     23  C   UNL A   1      32.015  20.790  24.664  1.00  0.00    -0.017 A 
ATOM     24  C   UNL A   1      32.678  19.044  22.560  1.00  0.00     0.001 A 
ATOM     25  C   UNL A   1      32.550  19.517  24.925  1.00  0.00     0.009 A 
ATOM     26  C   UNL A   1      32.889  18.656  23.879  1.00  0.00     0.001 A 
BRANCH  18  27
ATOM     27  O   UNL A   1      30.669  24.614  23.686  1.00  0.00    -0.496 OA
ATOM     28  C   UNL A   1      31.497  25.139  22.655  1.00  0.00     0.278 C 
ENDBRANCH  18  27
ENDBRANCH  14  17
ENDBRANCH   7  13
ENDBRANCH   3   6
ENDBRANCH   1   2
BRANCH   1  29
ATOM     29  C   UNL A   1      33.203  31.326  26.876  1.00  0.00     0.042 C 
BRANCH  29  30
ATOM     30  C   UNL A   1      34.002  30.567  27.918  1.00  0.00     0.118 C 
BRANCH  30  31
ATOM     31  N   UNL A   1      34.751  31.421  28.836  1.00  0.00    -0.352 N 
ATOM     32  C   UNL A   1      35.962  31.154  29.464  1.00  0.00     0.251 C 
ATOM     33  H   UNL A   1      34.347  32.296  29.035  1.00  0.00     0.163 HD
ATOM     34  O   UNL A   1      36.482  31.974  30.205  1.00  0.00    -0.269 OA
BRANCH  32  35
ATOM     35  C   UNL A   1      36.678  29.912  29.090  1.00  0.00     0.039 A 
ATOM     36  C   UNL A   1      36.993  29.027  30.123  1.00  0.00     0.014 A 
ATOM     37  C   UNL A   1      37.317  29.826  27.858  1.00  0.00     0.014 A 
ATOM     38  C   UNL A   1      38.151  28.264  30.022  1.00  0.00     0.010 A 
ATOM     39  C   UNL A   1      38.533  29.171  27.807  1.00  0.00     0.010 A 
ATOM     40  C   UNL A   1      38.987  28.456  28.922  1.00  0.00    -0.014 A 
BRANCH  40  41
ATOM     41  C   UNL A   1      40.396  28.063  28.924  1.00  0.00     0.031 A 
ATOM     42  C   UNL A   1      40.806  26.754  28.379  1.00  0.00     0.074 A 
ATOM     43  C   UNL A   1      41.339  28.925  29.370  1.00  0.00     0.049 A 
ATOM     44  N   UNL A   1      41.924  26.170  28.648  1.00  0.00    -0.248 NA
ATOM     45  C   UNL A   1      39.945  25.966  27.509  1.00  0.00     0.031 C 
ATOM     46  C   UNL A   1      42.788  28.806  29.227  1.00  0.00     0.029 A 
ATOM     47  N   UNL A   1      41.168  29.989  30.268  1.00  0.00    -0.354 N 
ATOM     48  C   UNL A   1      42.050  25.082  27.815  1.00  0.00     0.074 A 
ATOM     49  C   UNL A   1      40.769  24.977  27.157  1.00  0.00     0.031 C 
ATOM     50  C   UNL A   1      43.377  29.505  30.209  1.00  0.00     0.029 A 
ATOM     51  C   UNL A   1      42.326  29.995  31.083  1.00  0.00     0.049 A 
ATOM     52  H   UNL A   1      40.401  30.605  30.321  1.00  0.00     0.167 HD
ATOM     53  C   UNL A   1      43.263  24.464  27.708  1.00  0.00     0.037 A 
ATOM     54  C   UNL A   1      42.237  29.762  32.424  1.00  0.00     0.037 A 
ATOM     55  C   UNL A   1      44.219  24.993  28.682  1.00  0.00     0.049 A 
ATOM     56  C   UNL A   1      42.957  28.514  32.898  1.00  0.00     0.074 A 
ATOM     57  C   UNL A   1      45.270  25.896  28.636  1.00  0.00     0.029 A 
ATOM     58  N   UNL A   1      43.967  24.778  30.025  1.00  0.00    -0.354 N 
ATOM     59  N   UNL A   1      43.608  27.696  32.117  1.00  0.00    -0.248 NA
ATOM     60  C   UNL A   1      42.914  28.040  34.283  1.00  0.00     0.031 C 
ATOM     61  C   UNL A   1      45.623  26.238  29.975  1.00  0.00     0.029 A 
ATOM     62  C   UNL A   1      44.788  25.542  30.829  1.00  0.00     0.049 A 
ATOM     63  H   UNL A   1      43.285  24.155  30.366  1.00  0.00     0.167 HD
ATOM     64  C   UNL A   1      43.986  26.593  32.834  1.00  0.00     0.074 A 
ATOM     65  C   UNL A   1      43.549  26.859  34.190  1.00  0.00     0.031 C 
ATOM     66  C   UNL A   1      44.583  25.507  32.266  1.00  0.00     0.037 A 
BRANCH  53  67
ATOM     67  C   UNL A   1      43.648  23.525  26.585  1.00  0.00     0.057 A 
ATOM     68  C   UNL A   1      43.331  22.154  26.655  1.00  0.00     0.134 A 
ATOM     69  C   UNL A   1      44.376  23.883  25.436  1.00  0.00     0.134 A 
ATOM     70  F   UNL A   1      42.547  21.660  27.622  1.00  0.00    -0.206 F 
ATOM     71  C   UNL A   1      43.805  21.210  25.734  1.00  0.00     0.040 A 
ATOM     72  C   UNL A   1      44.907  22.945  24.539  1.00  0.00     0.040 A 
ATOM     73  F   UNL A   1      44.549  25.160  25.079  1.00  0.00    -0.206 F 
ATOM     74  C   UNL A   1      44.634  21.598  24.693  1.00  0.00     0.006 A 
ENDBRANCH  53  67
BRANCH  54  75
ATOM     75  C   UNL A   1      40.995  30.319  33.020  1.00  0.00     0.057 A 
ATOM     76  C   UNL A   1      40.906  31.712  33.198  1.00  0.00     0.134 A 
ATOM     77  C   UNL A   1      39.802  29.595  33.063  1.00  0.00     0.134 A 
ATOM     78  F   UNL A   1      42.015  32.469  33.172  1.00  0.00    -0.206 F 
ATOM     79  C   UNL A   1      39.676  32.367  33.285  1.00  0.00     0.040 A 
ATOM     80  C   UNL A   1      38.565  30.240  33.171  1.00  0.00     0.040 A 
ATOM     81  F   UNL A   1      39.802  28.266  32.878  1.00  0.00    -0.206 F 
ATOM     82  C   UNL A   1      38.498  31.631  33.238  1.00  0.00     0.006 A 
ENDBRANCH  54  75
BRANCH  66  83
ATOM     83  C   UNL A   1      45.011  24.307  33.051  1.00  0.00     0.057 A 
ATOM     84  C   UNL A   1      44.191  23.181  33.190  1.00  0.00     0.134 A 
ATOM     85  C   UNL A   1      46.198  24.308  33.807  1.00  0.00     0.134 A 
ATOM     86  F   UNL A   1      43.025  23.094  32.532  1.00  0.00    -0.206 F 
ATOM     87  C   UNL A   1      44.535  22.113  34.026  1.00  0.00     0.040 A 
ATOM     88  C   UNL A   1      46.531  23.268  34.678  1.00  0.00     0.040 A 
ATOM     89  F   UNL A   1      47.085  25.310  33.713  1.00  0.00    -0.206 F 
ATOM     90  C   UNL A   1      45.700  22.163  34.787  1.00  0.00     0.006 A 
ENDBRANCH  66  83
ENDBRANCH  40  41
ENDBRANCH  32  35
ENDBRANCH  30  31
ENDBRANCH  29  30
ENDBRANCH   1  29
TORSDOF 13
ENDMDL
