MODEL 1
REMARK VINA RESULT:     -12.3      0.000      0.000
REMARK SMILES CCc1nc2sc(C(=O)NCC(=O)NCCCNC(=O)c3ccc(-c4c5nc(c(-c6c(F)cccc6F)c6ccc([nH]6)c(-c6c(F)cccc6F)c6nc(c(-c7c(F)cccc7F)c7ccc4[nH]7)C=C6)C=C5)cc3)c(N)c2c(C(F)(F)F)c1C
REMARK SMILES IDX 15 1 14 2 12 3 13 4 11 6 10 7 8 8 9 9 7 11 3 12 4 13 83 14
REMARK SMILES IDX 5 15 78 16 84 17 6 18 77 19 75 20 2 21 1 22 79 23 80 24
REMARK SMILES IDX 81 25 82 26 76 27 16 30 17 31 18 32 19 33 20 35 21 36 22 37
REMARK SMILES IDX 74 38 23 39 73 40 24 41 25 42 26 43 67 44 27 45 72 46 66 47
REMARK SMILES IDX 68 48 28 49 71 50 65 51 64 52 29 54 55 55 38 56 54 57 39 58
REMARK SMILES IDX 42 59 53 60 69 61 40 62 41 63 52 65 70 66 43 67 30 68 31 69
REMARK SMILES IDX 36 70 32 71 33 72 35 73 37 74 34 75 56 76 57 77 62 78 58 79
REMARK SMILES IDX 59 80 61 81 63 82 60 83 44 84 45 85 50 86 46 87 47 88 49 89
REMARK SMILES IDX 51 90 48 91
REMARK H PARENT 14 5 10 10 76 28 76 29 18 34 68 53 42 64
REMARK Flexibility Score: inf
ROOT
ATOM      1  C   UNL A   1      32.063  30.190  25.866  1.00  0.00     0.117 C 
ENDROOT
BRANCH   1   2
ATOM      2  N   UNL A   1      32.901  29.779  24.754  1.00  0.00    -0.355 N 
ATOM      3  C   UNL A   1      32.722  28.869  23.758  1.00  0.00     0.239 C 
ATOM      4  O   UNL A   1      33.583  28.871  22.867  1.00  0.00    -0.273 OA
ATOM      5  H   UNL A   1      33.764  30.249  24.713  1.00  0.00     0.163 HD
BRANCH   3   6
ATOM      6  C   UNL A   1      31.495  27.949  23.617  1.00  0.00     0.216 C 
BRANCH   6   7
ATOM      7  N   UNL A   1      30.901  27.308  24.767  1.00  0.00    -0.342 N 
ATOM      8  C   UNL A   1      31.289  26.286  25.595  1.00  0.00     0.264 C 
ATOM      9  O   UNL A   1      30.572  26.207  26.602  1.00  0.00    -0.268 OA
ATOM     10  H   UNL A   1      30.025  27.688  25.010  1.00  0.00     0.164 HD
BRANCH   8  11
ATOM     11  C   UNL A   1      32.353  25.317  25.307  1.00  0.00     0.118 A 
ATOM     12  C   UNL A   1      36.468  22.976  25.408  1.00  0.00     0.045 A 
ATOM     13  N   UNL A   1      35.986  24.229  25.534  1.00  0.00    -0.242 NA
ATOM     14  C   UNL A   1      35.656  21.876  25.086  1.00  0.00    -0.017 A 
ATOM     15  C   UNL A   1      34.671  24.393  25.344  1.00  0.00     0.127 A 
ATOM     16  C   UNL A   1      34.271  22.097  24.804  1.00  0.00     0.073 A 
ATOM     17  C   UNL A   1      36.202  20.474  25.022  1.00  0.00     0.047 C 
ATOM     18  S   UNL A   1      33.963  25.910  25.577  1.00  0.00    -0.108 S 
ATOM     19  C   UNL A   1      33.764  23.420  24.981  1.00  0.00     0.048 A 
ATOM     20  C   UNL A   1      32.430  23.983  24.925  1.00  0.00     0.066 A 
BRANCH  12  21
ATOM     21  C   UNL A   1      37.945  22.906  25.745  1.00  0.00     0.053 C 
ATOM     22  C   UNL A   1      38.523  23.958  26.683  1.00  0.00     0.011 C 
ENDBRANCH  12  21
BRANCH  16  23
ATOM     23  C   UNL A   1      33.325  20.978  24.420  1.00  0.00     0.417 C 
ATOM     24  F   UNL A   1      32.351  20.786  25.358  1.00  0.00    -0.166 F 
ATOM     25  F   UNL A   1      32.662  21.228  23.250  1.00  0.00    -0.166 F 
ATOM     26  F   UNL A   1      33.891  19.757  24.229  1.00  0.00    -0.166 F 
ENDBRANCH  16  23
BRANCH  20  27
ATOM     27  N   UNL A   1      31.376  23.188  24.637  1.00  0.00    -0.397 N 
ATOM     28  H   UNL A   1      31.174  22.413  25.209  1.00  0.00     0.156 HD
ATOM     29  H   UNL A   1      30.810  23.384  23.856  1.00  0.00     0.156 HD
ENDBRANCH  20  27
ENDBRANCH   8  11
ENDBRANCH   6   7
ENDBRANCH   3   6
ENDBRANCH   1   2
BRANCH   1  30
ATOM     30  C   UNL A   1      32.714  30.029  27.234  1.00  0.00     0.042 C 
BRANCH  30  31
ATOM     31  C   UNL A   1      34.001  30.826  27.321  1.00  0.00     0.118 C 
BRANCH  31  32
ATOM     32  N   UNL A   1      34.028  31.727  28.474  1.00  0.00    -0.352 N 
ATOM     33  C   UNL A   1      34.979  31.791  29.476  1.00  0.00     0.251 C 
ATOM     34  H   UNL A   1      33.280  32.365  28.543  1.00  0.00     0.163 HD
ATOM     35  O   UNL A   1      34.774  32.386  30.514  1.00  0.00    -0.269 OA
BRANCH  33  36
ATOM     36  C   UNL A   1      36.252  31.082  29.250  1.00  0.00     0.039 A 
ATOM     37  C   UNL A   1      37.446  31.795  29.150  1.00  0.00     0.014 A 
ATOM     38  C   UNL A   1      36.237  29.689  29.245  1.00  0.00     0.014 A 
ATOM     39  C   UNL A   1      38.646  31.088  29.142  1.00  0.00     0.010 A 
ATOM     40  C   UNL A   1      37.422  29.004  29.375  1.00  0.00     0.010 A 
ATOM     41  C   UNL A   1      38.632  29.692  29.289  1.00  0.00    -0.014 A 
BRANCH  41  42
ATOM     42  C   UNL A   1      39.888  28.962  29.460  1.00  0.00     0.031 A 
ATOM     43  C   UNL A   1      40.377  28.820  30.866  1.00  0.00     0.074 A 
ATOM     44  C   UNL A   1      40.478  28.267  28.463  1.00  0.00     0.049 A 
ATOM     45  N   UNL A   1      41.491  29.242  31.371  1.00  0.00    -0.248 NA
ATOM     46  C   UNL A   1      39.480  28.191  31.850  1.00  0.00     0.031 C 
ATOM     47  C   UNL A   1      39.992  28.023  27.100  1.00  0.00     0.029 A 
ATOM     48  N   UNL A   1      41.622  27.533  28.508  1.00  0.00    -0.354 N 
ATOM     49  C   UNL A   1      41.517  28.796  32.692  1.00  0.00     0.074 A 
ATOM     50  C   UNL A   1      40.208  28.262  32.967  1.00  0.00     0.031 C 
ATOM     51  C   UNL A   1      40.706  27.026  26.536  1.00  0.00     0.029 A 
ATOM     52  C   UNL A   1      41.808  26.696  27.418  1.00  0.00     0.049 A 
ATOM     53  H   UNL A   1      42.265  27.589  29.253  1.00  0.00     0.167 HD
ATOM     54  C   UNL A   1      42.673  28.731  33.410  1.00  0.00     0.037 A 
ATOM     55  C   UNL A   1      42.792  25.782  27.256  1.00  0.00     0.037 A 
ATOM     56  C   UNL A   1      43.715  29.520  32.812  1.00  0.00     0.049 A 
ATOM     57  C   UNL A   1      43.894  26.153  28.173  1.00  0.00     0.074 A 
ATOM     58  C   UNL A   1      43.886  30.862  32.537  1.00  0.00     0.029 A 
ATOM     59  N   UNL A   1      44.666  28.866  32.070  1.00  0.00    -0.354 N 
ATOM     60  N   UNL A   1      44.626  27.222  28.039  1.00  0.00    -0.248 NA
ATOM     61  C   UNL A   1      43.922  25.534  29.488  1.00  0.00     0.031 C 
ATOM     62  C   UNL A   1      44.579  30.896  31.290  1.00  0.00     0.029 A 
ATOM     63  C   UNL A   1      44.830  29.576  30.909  1.00  0.00     0.049 A 
ATOM     64  H   UNL A   1      45.143  28.043  32.324  1.00  0.00     0.167 HD
ATOM     65  C   UNL A   1      44.863  27.650  29.336  1.00  0.00     0.074 A 
ATOM     66  C   UNL A   1      44.505  26.514  30.181  1.00  0.00     0.031 C 
ATOM     67  C   UNL A   1      45.063  28.971  29.618  1.00  0.00     0.037 A 
BRANCH  54  68
ATOM     68  C   UNL A   1      42.960  27.708  34.480  1.00  0.00     0.057 A 
ATOM     69  C   UNL A   1      43.254  26.380  34.122  1.00  0.00     0.134 A 
ATOM     70  C   UNL A   1      42.683  27.913  35.846  1.00  0.00     0.134 A 
ATOM     71  F   UNL A   1      43.505  26.049  32.846  1.00  0.00    -0.206 F 
ATOM     72  C   UNL A   1      43.227  25.327  35.048  1.00  0.00     0.040 A 
ATOM     73  C   UNL A   1      42.701  26.879  36.787  1.00  0.00     0.040 A 
ATOM     74  F   UNL A   1      42.282  29.100  36.319  1.00  0.00    -0.206 F 
ATOM     75  C   UNL A   1      42.947  25.576  36.386  1.00  0.00     0.006 A 
ENDBRANCH  54  68
BRANCH  55  76
ATOM     76  C   UNL A   1      42.735  24.470  26.579  1.00  0.00     0.057 A 
ATOM     77  C   UNL A   1      43.496  24.220  25.429  1.00  0.00     0.134 A 
ATOM     78  C   UNL A   1      42.168  23.346  27.205  1.00  0.00     0.134 A 
ATOM     79  F   UNL A   1      44.099  25.227  24.781  1.00  0.00    -0.206 F 
ATOM     80  C   UNL A   1      43.719  22.922  24.953  1.00  0.00     0.040 A 
ATOM     81  C   UNL A   1      42.377  22.045  26.736  1.00  0.00     0.040 A 
ATOM     82  F   UNL A   1      41.471  23.466  28.345  1.00  0.00    -0.206 F 
ATOM     83  C   UNL A   1      43.171  21.829  25.617  1.00  0.00     0.006 A 
ENDBRANCH  55  76
BRANCH  67  84
ATOM     84  C   UNL A   1      45.283  29.911  28.462  1.00  0.00     0.057 A 
ATOM     85  C   UNL A   1      44.253  30.596  27.799  1.00  0.00     0.134 A 
ATOM     86  C   UNL A   1      46.592  30.257  28.116  1.00  0.00     0.134 A 
ATOM     87  F   UNL A   1      42.970  30.407  28.127  1.00  0.00    -0.206 F 
ATOM     88  C   UNL A   1      44.515  31.552  26.812  1.00  0.00     0.040 A 
ATOM     89  C   UNL A   1      46.870  31.233  27.155  1.00  0.00     0.040 A 
ATOM     90  F   UNL A   1      47.632  29.686  28.745  1.00  0.00    -0.206 F 
ATOM     91  C   UNL A   1      45.829  31.880  26.494  1.00  0.00     0.006 A 
ENDBRANCH  67  84
ENDBRANCH  41  42
ENDBRANCH  33  36
ENDBRANCH  31  32
ENDBRANCH  30  31
ENDBRANCH   1  30
TORSDOF 15
ENDMDL
MODEL 2
REMARK VINA RESULT:     -12.1      1.969      6.043
REMARK SMILES CCc1nc2sc(C(=O)NCC(=O)NCCCNC(=O)c3ccc(-c4c5nc(c(-c6c(F)cccc6F)c6ccc([nH]6)c(-c6c(F)cccc6F)c6nc(c(-c7c(F)cccc7F)c7ccc4[nH]7)C=C6)C=C5)cc3)c(N)c2c(C(F)(F)F)c1C
REMARK SMILES IDX 15 1 14 2 12 3 13 4 11 6 10 7 8 8 9 9 7 11 3 12 4 13 83 14
REMARK SMILES IDX 5 15 78 16 84 17 6 18 77 19 75 20 2 21 1 22 79 23 80 24
REMARK SMILES IDX 81 25 82 26 76 27 16 30 17 31 18 32 19 33 20 35 21 36 22 37
REMARK SMILES IDX 74 38 23 39 73 40 24 41 25 42 26 43 67 44 27 45 72 46 66 47
REMARK SMILES IDX 68 48 28 49 71 50 65 51 64 52 29 54 55 55 38 56 54 57 39 58
REMARK SMILES IDX 42 59 53 60 69 61 40 62 41 63 52 65 70 66 43 67 30 68 31 69
REMARK SMILES IDX 36 70 32 71 33 72 35 73 37 74 34 75 56 76 57 77 62 78 58 79
REMARK SMILES IDX 59 80 61 81 63 82 60 83 44 84 45 85 50 86 46 87 47 88 49 89
REMARK SMILES IDX 51 90 48 91
REMARK H PARENT 14 5 10 10 76 28 76 29 18 34 68 53 42 64
REMARK Flexibility Score: inf
ROOT
ATOM      1  C   UNL A   1      33.545  28.166  25.636  1.00  0.00     0.117 C 
ENDROOT
BRANCH   1   2
ATOM      2  N   UNL A   1      32.275  28.478  25.006  1.00  0.00    -0.355 N 
ATOM      3  C   UNL A   1      31.282  27.694  24.504  1.00  0.00     0.239 C 
ATOM      4  O   UNL A   1      30.247  28.285  24.169  1.00  0.00    -0.273 OA
ATOM      5  H   UNL A   1      32.097  29.443  24.928  1.00  0.00     0.163 HD
BRANCH   3   6
ATOM      6  C   UNL A   1      31.326  26.156  24.438  1.00  0.00     0.216 C 
BRANCH   6   7
ATOM      7  N   UNL A   1      30.865  25.342  25.538  1.00  0.00    -0.342 N 
ATOM      8  C   UNL A   1      31.402  24.292  26.239  1.00  0.00     0.264 C 
ATOM      9  O   UNL A   1      30.752  24.036  27.261  1.00  0.00    -0.268 OA
ATOM     10  H   UNL A   1      29.968  25.597  25.856  1.00  0.00     0.164 HD
BRANCH   8  11
ATOM     11  C   UNL A   1      32.545  23.480  25.807  1.00  0.00     0.118 A 
ATOM     12  C   UNL A   1      36.908  21.678  25.423  1.00  0.00     0.045 A 
ATOM     13  N   UNL A   1      36.289  22.853  25.660  1.00  0.00    -0.242 NA
ATOM     14  C   UNL A   1      36.210  20.499  25.112  1.00  0.00    -0.017 A 
ATOM     15  C   UNL A   1      34.952  22.856  25.593  1.00  0.00     0.127 A 
ATOM     16  C   UNL A   1      34.788  20.555  24.963  1.00  0.00     0.073 A 
ATOM     17  C   UNL A   1      36.915  19.182  24.924  1.00  0.00     0.047 C 
ATOM     18  S   UNL A   1      34.089  24.260  25.969  1.00  0.00    -0.108 S 
ATOM     19  C   UNL A   1      34.141  21.794  25.256  1.00  0.00     0.048 A 
ATOM     20  C   UNL A   1      32.749  22.185  25.346  1.00  0.00     0.066 A 
BRANCH  12  21
ATOM     21  C   UNL A   1      38.407  21.781  25.628  1.00  0.00     0.053 C 
ATOM     22  C   UNL A   1      38.953  22.989  26.379  1.00  0.00     0.011 C 
ENDBRANCH  12  21
BRANCH  16  23
ATOM     23  C   UNL A   1      33.955  19.343  24.600  1.00  0.00     0.417 C 
ATOM     24  F   UNL A   1      33.163  18.937  25.636  1.00  0.00    -0.166 F 
ATOM     25  F   UNL A   1      33.101  19.585  23.560  1.00  0.00    -0.166 F 
ATOM     26  F   UNL A   1      34.646  18.237  24.215  1.00  0.00    -0.166 F 
ENDBRANCH  16  23
BRANCH  20  27
ATOM     27  N   UNL A   1      31.778  21.276  25.106  1.00  0.00    -0.397 N 
ATOM     28  H   UNL A   1      30.833  21.524  25.224  1.00  0.00     0.156 HD
ATOM     29  H   UNL A   1      32.017  20.367  24.813  1.00  0.00     0.156 HD
ENDBRANCH  20  27
ENDBRANCH   8  11
ENDBRANCH   6   7
ENDBRANCH   3   6
ENDBRANCH   1   2
BRANCH   1  30
ATOM     30  C   UNL A   1      33.698  28.720  27.047  1.00  0.00     0.042 C 
BRANCH  30  31
ATOM     31  C   UNL A   1      35.113  29.207  27.289  1.00  0.00     0.118 C 
BRANCH  31  32
ATOM     32  N   UNL A   1      35.225  30.034  28.492  1.00  0.00    -0.352 N 
ATOM     33  C   UNL A   1      36.254  30.048  29.417  1.00  0.00     0.251 C 
ATOM     34  H   UNL A   1      34.479  30.655  28.662  1.00  0.00     0.163 HD
ATOM     35  O   UNL A   1      36.127  30.573  30.504  1.00  0.00    -0.269 OA
BRANCH  33  36
ATOM     36  C   UNL A   1      37.510  29.373  29.045  1.00  0.00     0.039 A 
ATOM     37  C   UNL A   1      38.235  29.800  27.932  1.00  0.00     0.014 A 
ATOM     38  C   UNL A   1      37.997  28.378  29.888  1.00  0.00     0.014 A 
ATOM     39  C   UNL A   1      39.510  29.281  27.728  1.00  0.00     0.010 A 
ATOM     40  C   UNL A   1      39.305  27.970  29.762  1.00  0.00     0.010 A 
ATOM     41  C   UNL A   1      40.057  28.390  28.665  1.00  0.00    -0.014 A 
BRANCH  41  42
ATOM     42  C   UNL A   1      41.456  27.979  28.554  1.00  0.00     0.031 A 
ATOM     43  C   UNL A   1      41.709  26.709  27.804  1.00  0.00     0.074 A 
ATOM     44  C   UNL A   1      42.489  28.774  28.906  1.00  0.00     0.049 A 
ATOM     45  N   UNL A   1      42.266  25.624  28.234  1.00  0.00    -0.248 NA
ATOM     46  C   UNL A   1      41.214  26.614  26.420  1.00  0.00     0.031 C 
ATOM     47  C   UNL A   1      42.459  30.169  29.364  1.00  0.00     0.029 A 
ATOM     48  N   UNL A   1      43.822  28.516  28.823  1.00  0.00    -0.354 N 
ATOM     49  C   UNL A   1      42.342  24.762  27.141  1.00  0.00     0.074 A 
ATOM     50  C   UNL A   1      41.575  25.373  26.086  1.00  0.00     0.031 C 
ATOM     51  C   UNL A   1      43.701  30.695  29.294  1.00  0.00     0.029 A 
ATOM     52  C   UNL A   1      44.632  29.631  28.972  1.00  0.00     0.049 A 
ATOM     53  H   UNL A   1      44.182  27.612  28.669  1.00  0.00     0.167 HD
ATOM     54  C   UNL A   1      43.186  23.691  27.121  1.00  0.00     0.037 A 
ATOM     55  C   UNL A   1      45.976  29.683  28.825  1.00  0.00     0.037 A 
ATOM     56  C   UNL A   1      43.641  23.351  28.442  1.00  0.00     0.049 A 
ATOM     57  C   UNL A   1      46.488  28.301  28.968  1.00  0.00     0.074 A 
ATOM     58  C   UNL A   1      43.030  22.930  29.606  1.00  0.00     0.029 A 
ATOM     59  N   UNL A   1      44.896  23.764  28.812  1.00  0.00    -0.354 N 
ATOM     60  N   UNL A   1      46.460  27.623  30.080  1.00  0.00    -0.248 NA
ATOM     61  C   UNL A   1      46.670  27.516  27.759  1.00  0.00     0.031 C 
ATOM     62  C   UNL A   1      43.753  23.573  30.654  1.00  0.00     0.029 A 
ATOM     63  C   UNL A   1      44.789  24.304  30.067  1.00  0.00     0.049 A 
ATOM     64  H   UNL A   1      45.719  23.687  28.277  1.00  0.00     0.167 HD
ATOM     65  C   UNL A   1      46.194  26.320  29.691  1.00  0.00     0.074 A 
ATOM     66  C   UNL A   1      46.447  26.295  28.252  1.00  0.00     0.031 C 
ATOM     67  C   UNL A   1      45.531  25.459  30.517  1.00  0.00     0.037 A 
BRANCH  54  68
ATOM     68  C   UNL A   1      43.849  23.145  25.883  1.00  0.00     0.057 A 
ATOM     69  C   UNL A   1      43.741  21.777  25.572  1.00  0.00     0.134 A 
ATOM     70  C   UNL A   1      44.817  23.853  25.143  1.00  0.00     0.134 A 
ATOM     71  F   UNL A   1      42.878  20.987  26.228  1.00  0.00    -0.206 F 
ATOM     72  C   UNL A   1      44.568  21.153  24.628  1.00  0.00     0.040 A 
ATOM     73  C   UNL A   1      45.613  23.250  24.164  1.00  0.00     0.040 A 
ATOM     74  F   UNL A   1      45.110  25.134  25.399  1.00  0.00    -0.206 F 
ATOM     75  C   UNL A   1      45.510  21.890  23.922  1.00  0.00     0.006 A 
ENDBRANCH  54  68
BRANCH  55  76
ATOM     76  C   UNL A   1      46.808  30.785  28.300  1.00  0.00     0.057 A 
ATOM     77  C   UNL A   1      46.590  31.302  27.016  1.00  0.00     0.134 A 
ATOM     78  C   UNL A   1      47.632  31.548  29.145  1.00  0.00     0.134 A 
ATOM     79  F   UNL A   1      45.794  30.659  26.150  1.00  0.00    -0.206 F 
ATOM     80  C   UNL A   1      47.124  32.530  26.609  1.00  0.00     0.040 A 
ATOM     81  C   UNL A   1      48.178  32.773  28.749  1.00  0.00     0.040 A 
ATOM     82  F   UNL A   1      47.858  31.175  30.414  1.00  0.00    -0.206 F 
ATOM     83  C   UNL A   1      47.908  33.278  27.483  1.00  0.00     0.006 A 
ENDBRANCH  55  76
BRANCH  67  84
ATOM     84  C   UNL A   1      45.332  25.872  31.951  1.00  0.00     0.057 A 
ATOM     85  C   UNL A   1      46.307  25.732  32.952  1.00  0.00     0.134 A 
ATOM     86  C   UNL A   1      44.176  26.579  32.294  1.00  0.00     0.134 A 
ATOM     87  F   UNL A   1      47.487  25.157  32.696  1.00  0.00    -0.206 F 
ATOM     88  C   UNL A   1      46.122  26.241  34.242  1.00  0.00     0.040 A 
ATOM     89  C   UNL A   1      43.992  27.121  33.569  1.00  0.00     0.040 A 
ATOM     90  F   UNL A   1      43.223  26.802  31.376  1.00  0.00    -0.206 F 
ATOM     91  C   UNL A   1      44.964  26.947  34.551  1.00  0.00     0.006 A 
ENDBRANCH  67  84
ENDBRANCH  41  42
ENDBRANCH  33  36
ENDBRANCH  31  32
ENDBRANCH  30  31
ENDBRANCH   1  30
TORSDOF 15
ENDMDL
MODEL 3
REMARK VINA RESULT:     -11.8      2.946      8.020
REMARK SMILES CCc1nc2sc(C(=O)NCC(=O)NCCCNC(=O)c3ccc(-c4c5nc(c(-c6c(F)cccc6F)c6ccc([nH]6)c(-c6c(F)cccc6F)c6nc(c(-c7c(F)cccc7F)c7ccc4[nH]7)C=C6)C=C5)cc3)c(N)c2c(C(F)(F)F)c1C
REMARK SMILES IDX 15 1 14 2 12 3 13 4 11 6 10 7 8 8 9 9 7 11 3 12 4 13 83 14
REMARK SMILES IDX 5 15 78 16 84 17 6 18 77 19 75 20 2 21 1 22 79 23 80 24
REMARK SMILES IDX 81 25 82 26 76 27 16 30 17 31 18 32 19 33 20 35 21 36 22 37
REMARK SMILES IDX 74 38 23 39 73 40 24 41 25 42 26 43 67 44 27 45 72 46 66 47
REMARK SMILES IDX 68 48 28 49 71 50 65 51 64 52 29 54 55 55 38 56 54 57 39 58
REMARK SMILES IDX 42 59 53 60 69 61 40 62 41 63 52 65 70 66 43 67 30 68 31 69
REMARK SMILES IDX 36 70 32 71 33 72 35 73 37 74 34 75 56 76 57 77 62 78 58 79
REMARK SMILES IDX 59 80 61 81 63 82 60 83 44 84 45 85 50 86 46 87 47 88 49 89
REMARK SMILES IDX 51 90 48 91
REMARK H PARENT 14 5 10 10 76 28 76 29 18 34 68 53 42 64
REMARK Flexibility Score: inf
ROOT
ATOM      1  C   UNL A   1      39.512  21.275  26.255  1.00  0.00     0.117 C 
ENDROOT
BRANCH   1   2
ATOM      2  N   UNL A   1      38.716  21.620  25.091  1.00  0.00    -0.355 N 
ATOM      3  C   UNL A   1      37.381  21.810  24.915  1.00  0.00     0.239 C 
ATOM      4  O   UNL A   1      37.040  22.251  23.809  1.00  0.00    -0.273 OA
ATOM      5  H   UNL A   1      39.246  21.740  24.270  1.00  0.00     0.163 HD
BRANCH   3   6
ATOM      6  C   UNL A   1      36.315  21.623  26.012  1.00  0.00     0.216 C 
BRANCH   6   7
ATOM      7  N   UNL A   1      35.153  20.792  25.797  1.00  0.00    -0.342 N 
ATOM      8  C   UNL A   1      33.891  21.024  25.313  1.00  0.00     0.264 C 
ATOM      9  O   UNL A   1      33.279  19.970  25.089  1.00  0.00    -0.268 OA
ATOM     10  H   UNL A   1      35.300  19.852  26.054  1.00  0.00     0.164 HD
BRANCH   8  11
ATOM     11  C   UNL A   1      33.268  22.344  25.165  1.00  0.00     0.118 A 
ATOM     12  C   UNL A   1      31.715  26.724  26.074  1.00  0.00     0.045 A 
ATOM     13  N   UNL A   1      31.880  25.535  26.689  1.00  0.00    -0.242 NA
ATOM     14  C   UNL A   1      31.978  26.919  24.708  1.00  0.00    -0.017 A 
ATOM     15  C   UNL A   1      32.321  24.521  25.935  1.00  0.00     0.127 A 
ATOM     16  C   UNL A   1      32.364  25.795  23.911  1.00  0.00     0.073 A 
ATOM     17  C   UNL A   1      31.857  28.271  24.057  1.00  0.00     0.047 C 
ATOM     18  S   UNL A   1      32.649  23.021  26.641  1.00  0.00    -0.108 S 
ATOM     19  C   UNL A   1      32.575  24.552  24.580  1.00  0.00     0.048 A 
ATOM     20  C   UNL A   1      33.085  23.268  24.143  1.00  0.00     0.066 A 
BRANCH  12  21
ATOM     21  C   UNL A   1      31.312  27.811  27.052  1.00  0.00     0.053 C 
ATOM     22  C   UNL A   1      32.395  28.740  27.587  1.00  0.00     0.011 C 
ENDBRANCH  12  21
BRANCH  16  23
ATOM     23  C   UNL A   1      32.639  25.901  22.425  1.00  0.00     0.417 C 
ATOM     24  F   UNL A   1      33.975  25.854  22.147  1.00  0.00    -0.166 F 
ATOM     25  F   UNL A   1      32.081  24.876  21.712  1.00  0.00    -0.166 F 
ATOM     26  F   UNL A   1      32.179  27.024  21.811  1.00  0.00    -0.166 F 
ENDBRANCH  16  23
BRANCH  20  27
ATOM     27  N   UNL A   1      33.450  23.092  22.854  1.00  0.00    -0.397 N 
ATOM     28  H   UNL A   1      32.762  22.993  22.158  1.00  0.00     0.156 HD
ATOM     29  H   UNL A   1      34.404  23.065  22.612  1.00  0.00     0.156 HD
ENDBRANCH  20  27
ENDBRANCH   8  11
ENDBRANCH   6   7
ENDBRANCH   3   6
ENDBRANCH   1   2
BRANCH   1  30
ATOM     30  C   UNL A   1      40.361  20.022  26.085  1.00  0.00     0.042 C 
BRANCH  30  31
ATOM     31  C   UNL A   1      41.706  20.181  26.767  1.00  0.00     0.118 C 
BRANCH  31  32
ATOM     32  N   UNL A   1      42.822  19.775  25.911  1.00  0.00    -0.352 N 
ATOM     33  C   UNL A   1      43.729  20.592  25.259  1.00  0.00     0.251 C 
ATOM     34  H   UNL A   1      42.942  18.806  25.785  1.00  0.00     0.163 HD
ATOM     35  O   UNL A   1      44.445  20.171  24.374  1.00  0.00    -0.269 OA
BRANCH  33  36
ATOM     36  C   UNL A   1      43.777  22.009  25.661  1.00  0.00     0.039 A 
ATOM     37  C   UNL A   1      43.013  22.959  24.983  1.00  0.00     0.014 A 
ATOM     38  C   UNL A   1      44.517  22.348  26.791  1.00  0.00     0.014 A 
ATOM     39  C   UNL A   1      42.922  24.243  25.513  1.00  0.00     0.010 A 
ATOM     40  C   UNL A   1      44.317  23.573  27.383  1.00  0.00     0.010 A 
ATOM     41  C   UNL A   1      43.549  24.538  26.733  1.00  0.00    -0.014 A 
BRANCH  41  42
ATOM     42  C   UNL A   1      43.314  25.827  27.384  1.00  0.00     0.031 A 
ATOM     43  C   UNL A   1      44.286  26.915  27.055  1.00  0.00     0.074 A 
ATOM     44  C   UNL A   1      42.186  26.112  28.071  1.00  0.00     0.049 A 
ATOM     45  N   UNL A   1      45.063  27.564  27.861  1.00  0.00    -0.248 NA
ATOM     46  C   UNL A   1      44.467  27.276  25.638  1.00  0.00     0.031 C 
ATOM     47  C   UNL A   1      40.982  25.290  28.239  1.00  0.00     0.029 A 
ATOM     48  N   UNL A   1      41.844  27.274  28.690  1.00  0.00    -0.354 N 
ATOM     49  C   UNL A   1      45.715  28.525  27.089  1.00  0.00     0.074 A 
ATOM     50  C   UNL A   1      45.403  28.225  25.716  1.00  0.00     0.031 C 
ATOM     51  C   UNL A   1      39.972  26.056  28.707  1.00  0.00     0.029 A 
ATOM     52  C   UNL A   1      40.507  27.360  29.045  1.00  0.00     0.049 A 
ATOM     53  H   UNL A   1      42.492  27.993  28.871  1.00  0.00     0.167 HD
ATOM     54  C   UNL A   1      46.318  29.613  27.647  1.00  0.00     0.037 A 
ATOM     55  C   UNL A   1      39.875  28.436  29.569  1.00  0.00     0.037 A 
ATOM     56  C   UNL A   1      46.541  29.431  29.056  1.00  0.00     0.049 A 
ATOM     57  C   UNL A   1      40.913  29.316  30.151  1.00  0.00     0.074 A 
ATOM     58  C   UNL A   1      47.279  28.550  29.820  1.00  0.00     0.029 A 
ATOM     59  N   UNL A   1      45.666  30.031  29.924  1.00  0.00    -0.354 N 
ATOM     60  N   UNL A   1      41.629  29.010  31.195  1.00  0.00    -0.248 NA
ATOM     61  C   UNL A   1      41.442  30.386  29.319  1.00  0.00     0.031 C 
ATOM     62  C   UNL A   1      46.480  28.310  30.977  1.00  0.00     0.029 A 
ATOM     63  C   UNL A   1      45.331  29.096  30.869  1.00  0.00     0.049 A 
ATOM     64  H   UNL A   1      45.340  30.960  29.879  1.00  0.00     0.167 HD
ATOM     65  C   UNL A   1      42.884  29.535  30.928  1.00  0.00     0.074 A 
ATOM     66  C   UNL A   1      42.677  30.464  29.819  1.00  0.00     0.031 C 
ATOM     67  C   UNL A   1      44.012  28.964  31.444  1.00  0.00     0.037 A 
BRANCH  54  68
ATOM     68  C   UNL A   1      46.423  30.965  26.989  1.00  0.00     0.057 A 
ATOM     69  C   UNL A   1      47.666  31.622  26.928  1.00  0.00     0.134 A 
ATOM     70  C   UNL A   1      45.307  31.763  26.669  1.00  0.00     0.134 A 
ATOM     71  F   UNL A   1      48.801  30.981  27.241  1.00  0.00    -0.206 F 
ATOM     72  C   UNL A   1      47.781  32.985  26.616  1.00  0.00     0.040 A 
ATOM     73  C   UNL A   1      45.415  33.109  26.309  1.00  0.00     0.040 A 
ATOM     74  F   UNL A   1      44.053  31.309  26.786  1.00  0.00    -0.206 F 
ATOM     75  C   UNL A   1      46.652  33.733  26.308  1.00  0.00     0.006 A 
ENDBRANCH  54  68
BRANCH  55  76
ATOM     76  C   UNL A   1      38.484  28.886  29.358  1.00  0.00     0.057 A 
ATOM     77  C   UNL A   1      37.587  28.977  30.431  1.00  0.00     0.134 A 
ATOM     78  C   UNL A   1      38.090  29.515  28.164  1.00  0.00     0.134 A 
ATOM     79  F   UNL A   1      37.890  28.433  31.618  1.00  0.00    -0.206 F 
ATOM     80  C   UNL A   1      36.386  29.690  30.337  1.00  0.00     0.040 A 
ATOM     81  C   UNL A   1      36.890  30.225  28.054  1.00  0.00     0.040 A 
ATOM     82  F   UNL A   1      38.899  29.540  27.094  1.00  0.00    -0.206 F 
ATOM     83  C   UNL A   1      36.042  30.330  29.150  1.00  0.00     0.006 A 
ENDBRANCH  55  76
BRANCH  67  84
ATOM     84  C   UNL A   1      43.845  27.921  32.516  1.00  0.00     0.057 A 
ATOM     85  C   UNL A   1      43.836  26.539  32.273  1.00  0.00     0.134 A 
ATOM     86  C   UNL A   1      43.855  28.324  33.855  1.00  0.00     0.134 A 
ATOM     87  F   UNL A   1      43.923  26.051  31.031  1.00  0.00    -0.206 F 
ATOM     88  C   UNL A   1      43.801  25.604  33.314  1.00  0.00     0.040 A 
ATOM     89  C   UNL A   1      43.853  27.401  34.905  1.00  0.00     0.040 A 
ATOM     90  F   UNL A   1      43.919  29.628  34.168  1.00  0.00    -0.206 F 
ATOM     91  C   UNL A   1      43.819  26.035  34.636  1.00  0.00     0.006 A 
ENDBRANCH  67  84
ENDBRANCH  41  42
ENDBRANCH  33  36
ENDBRANCH  31  32
ENDBRANCH  30  31
ENDBRANCH   1  30
TORSDOF 15
ENDMDL
