MODEL 1
REMARK VINA RESULT:     -11.0      0.000      0.000
REMARK SMILES CC(C)(C)[NH2+]CC(=O)N[C@](C)(C(=O)NCCCNC(=O)c1ccc(-c2c3nc(c(-c4c(F)cccc4F)c4ccc([nH]4)c(-c4c(F)cccc4F)c4nc(c(-c5c(F)cccc5F)c5ccc2[nH]5)C=C4)C=C3)cc1)C1CC1
REMARK SMILES IDX 15 1 14 2 12 3 13 4 10 6 11 7 9 8 7 9 8 10 6 12 5 13 2 16
REMARK SMILES IDX 1 17 3 18 4 19 75 20 76 21 77 22 16 23 17 24 18 25 19 26
REMARK SMILES IDX 20 28 21 29 22 30 74 31 23 32 73 33 24 34 25 35 26 36 67 37
REMARK SMILES IDX 27 38 72 39 66 40 68 41 28 42 71 43 65 44 64 45 29 47 55 48
REMARK SMILES IDX 38 49 54 50 39 51 42 52 53 53 69 54 40 55 41 56 52 58 70 59
REMARK SMILES IDX 43 60 30 61 31 62 36 63 32 64 33 65 35 66 37 67 34 68 56 69
REMARK SMILES IDX 57 70 62 71 58 72 59 73 61 74 63 75 60 76 44 77 45 78 50 79
REMARK SMILES IDX 46 80 47 81 49 82 51 83 48 84
REMARK H PARENT 14 5 9 11 5 14 5 15 18 27 68 46 42 57
REMARK Flexibility Score: inf
ROOT
ATOM      1  C   UNL A   1      36.232  21.538  24.903  1.00  0.00     0.117 C 
ENDROOT
BRANCH   1   2
ATOM      2  N   UNL A   1      35.607  21.458  26.221  1.00  0.00    -0.354 N 
ATOM      3  C   UNL A   1      34.370  21.750  26.719  1.00  0.00     0.245 C 
ATOM      4  O   UNL A   1      34.270  21.533  27.934  1.00  0.00    -0.272 OA
ATOM      5  H   UNL A   1      36.220  21.114  26.911  1.00  0.00     0.163 HD
BRANCH   3   6
ATOM      6  C   UNL A   1      33.228  22.477  25.904  1.00  0.00     0.119 C 
ATOM      7  C   UNL A   1      33.916  23.733  25.308  1.00  0.00     0.046 C 
BRANCH   6   8
ATOM      8  N   UNL A   1      32.745  21.658  24.748  1.00  0.00    -0.337 N 
ATOM      9  C   UNL A   1      32.659  20.346  24.394  1.00  0.00     0.275 C 
ATOM     10  O   UNL A   1      32.366  20.151  23.204  1.00  0.00    -0.268 OA
ATOM     11  H   UNL A   1      32.385  22.237  24.037  1.00  0.00     0.164 HD
BRANCH   9  12
ATOM     12  C   UNL A   1      32.879  19.127  25.309  1.00  0.00     0.362 C 
BRANCH  12  13
ATOM     13  N   UNL A   1      34.118  18.359  25.038  1.00  0.00    -0.334 N 
ATOM     14  H   UNL A   1      34.613  18.836  24.285  1.00  0.00     0.347 HD
ATOM     15  H   UNL A   1      34.606  18.332  25.933  1.00  0.00     0.347 HD
BRANCH  13  16
ATOM     16  C   UNL A   1      33.973  16.948  24.647  1.00  0.00     0.088 C 
ATOM     17  C   UNL A   1      34.022  16.745  23.124  1.00  0.00     0.078 C 
ATOM     18  C   UNL A   1      32.707  16.380  25.280  1.00  0.00     0.078 C 
ATOM     19  C   UNL A   1      35.136  16.130  25.236  1.00  0.00     0.078 C 
ENDBRANCH  13  16
ENDBRANCH  12  13
ENDBRANCH   9  12
ENDBRANCH   6   8
BRANCH   6  20
ATOM     20  C   UNL A   1      32.044  22.933  26.779  1.00  0.00     0.024 C 
ATOM     21  C   UNL A   1      31.164  24.112  26.409  1.00  0.00     0.007 C 
ATOM     22  C   UNL A   1      30.574  22.737  26.440  1.00  0.00     0.007 C 
ENDBRANCH   6  20
ENDBRANCH   3   6
ENDBRANCH   1   2
BRANCH   1  23
ATOM     23  C   UNL A   1      37.355  20.507  24.762  1.00  0.00     0.042 C 
BRANCH  23  24
ATOM     24  C   UNL A   1      38.554  20.748  25.682  1.00  0.00     0.118 C 
BRANCH  24  25
ATOM     25  N   UNL A   1      39.533  19.670  25.650  1.00  0.00    -0.352 N 
ATOM     26  C   UNL A   1      40.873  19.683  25.982  1.00  0.00     0.251 C 
ATOM     27  H   UNL A   1      39.186  18.800  25.347  1.00  0.00     0.163 HD
ATOM     28  O   UNL A   1      41.572  18.708  25.760  1.00  0.00    -0.269 OA
BRANCH  26  29
ATOM     29  C   UNL A   1      41.476  20.902  26.573  1.00  0.00     0.039 A 
ATOM     30  C   UNL A   1      42.013  21.870  25.720  1.00  0.00     0.014 A 
ATOM     31  C   UNL A   1      41.504  21.098  27.954  1.00  0.00     0.014 A 
ATOM     32  C   UNL A   1      42.483  23.078  26.248  1.00  0.00     0.010 A 
ATOM     33  C   UNL A   1      41.896  22.331  28.472  1.00  0.00     0.010 A 
ATOM     34  C   UNL A   1      42.380  23.341  27.624  1.00  0.00    -0.014 A 
BRANCH  34  35
ATOM     35  C   UNL A   1      42.744  24.669  28.189  1.00  0.00     0.031 A 
ATOM     36  C   UNL A   1      41.688  25.719  28.417  1.00  0.00     0.074 A 
ATOM     37  C   UNL A   1      44.040  24.966  28.415  1.00  0.00     0.049 A 
ATOM     38  N   UNL A   1      41.828  26.959  28.814  1.00  0.00    -0.248 NA
ATOM     39  C   UNL A   1      40.297  25.336  28.128  1.00  0.00     0.031 C 
ATOM     40  C   UNL A   1      45.172  24.068  28.170  1.00  0.00     0.029 A 
ATOM     41  N   UNL A   1      44.630  26.115  28.884  1.00  0.00    -0.354 N 
ATOM     42  C   UNL A   1      40.552  27.510  28.793  1.00  0.00     0.074 A 
ATOM     43  C   UNL A   1      39.657  26.483  28.306  1.00  0.00     0.031 C 
ATOM     44  C   UNL A   1      46.313  24.693  28.505  1.00  0.00     0.029 A 
ATOM     45  C   UNL A   1      46.001  26.046  28.954  1.00  0.00     0.049 A 
ATOM     46  H   UNL A   1      44.117  26.915  29.146  1.00  0.00     0.167 HD
ATOM     47  C   UNL A   1      40.159  28.751  29.165  1.00  0.00     0.037 A 
ATOM     48  C   UNL A   1      46.908  26.969  29.329  1.00  0.00     0.037 A 
ATOM     49  C   UNL A   1      41.038  29.755  29.703  1.00  0.00     0.049 A 
ATOM     50  C   UNL A   1      46.437  28.325  29.778  1.00  0.00     0.074 A 
ATOM     51  C   UNL A   1      40.715  31.004  30.204  1.00  0.00     0.029 A 
ATOM     52  N   UNL A   1      42.414  29.625  29.809  1.00  0.00    -0.354 N 
ATOM     53  N   UNL A   1      45.216  28.796  29.844  1.00  0.00    -0.248 NA
ATOM     54  C   UNL A   1      47.470  29.276  30.216  1.00  0.00     0.031 C 
ATOM     55  C   UNL A   1      41.899  31.647  30.576  1.00  0.00     0.029 A 
ATOM     56  C   UNL A   1      42.956  30.781  30.347  1.00  0.00     0.049 A 
ATOM     57  H   UNL A   1      42.929  28.830  29.543  1.00  0.00     0.167 HD
ATOM     58  C   UNL A   1      45.332  30.082  30.354  1.00  0.00     0.074 A 
ATOM     59  C   UNL A   1      46.739  30.313  30.597  1.00  0.00     0.031 C 
ATOM     60  C   UNL A   1      44.357  30.993  30.597  1.00  0.00     0.037 A 
BRANCH  47  61
ATOM     61  C   UNL A   1      38.707  29.100  29.018  1.00  0.00     0.057 A 
ATOM     62  C   UNL A   1      37.819  29.048  30.100  1.00  0.00     0.134 A 
ATOM     63  C   UNL A   1      38.203  29.553  27.791  1.00  0.00     0.134 A 
ATOM     64  F   UNL A   1      38.234  28.614  31.300  1.00  0.00    -0.206 F 
ATOM     65  C   UNL A   1      36.480  29.416  29.964  1.00  0.00     0.040 A 
ATOM     66  C   UNL A   1      36.873  29.949  27.649  1.00  0.00     0.040 A 
ATOM     67  F   UNL A   1      39.002  29.634  26.716  1.00  0.00    -0.206 F 
ATOM     68  C   UNL A   1      36.006  29.878  28.737  1.00  0.00     0.006 A 
ENDBRANCH  47  61
BRANCH  48  69
ATOM     69  C   UNL A   1      48.359  26.648  29.307  1.00  0.00     0.057 A 
ATOM     70  C   UNL A   1      49.154  26.967  28.200  1.00  0.00     0.134 A 
ATOM     71  C   UNL A   1      48.977  25.988  30.376  1.00  0.00     0.134 A 
ATOM     72  F   UNL A   1      48.615  27.582  27.137  1.00  0.00    -0.206 F 
ATOM     73  C   UNL A   1      50.504  26.614  28.142  1.00  0.00     0.040 A 
ATOM     74  C   UNL A   1      50.332  25.652  30.343  1.00  0.00     0.040 A 
ATOM     75  F   UNL A   1      48.274  25.662  31.469  1.00  0.00    -0.206 F 
ATOM     76  C   UNL A   1      51.097  25.957  29.218  1.00  0.00     0.006 A 
ENDBRANCH  48  69
BRANCH  60  77
ATOM     77  C   UNL A   1      44.775  32.306  31.188  1.00  0.00     0.057 A 
ATOM     78  C   UNL A   1      44.875  32.495  32.572  1.00  0.00     0.134 A 
ATOM     79  C   UNL A   1      45.120  33.382  30.361  1.00  0.00     0.134 A 
ATOM     80  F   UNL A   1      44.547  31.508  33.419  1.00  0.00    -0.206 F 
ATOM     81  C   UNL A   1      45.284  33.716  33.112  1.00  0.00     0.040 A 
ATOM     82  C   UNL A   1      45.555  34.598  30.888  1.00  0.00     0.040 A 
ATOM     83  F   UNL A   1      45.053  33.263  29.026  1.00  0.00    -0.206 F 
ATOM     84  C   UNL A   1      45.633  34.769  32.268  1.00  0.00     0.006 A 
ENDBRANCH  60  77
ENDBRANCH  34  35
ENDBRANCH  26  29
ENDBRANCH  24  25
ENDBRANCH  23  24
ENDBRANCH   1  23
TORSDOF 15
ENDMDL
MODEL 2
REMARK VINA RESULT:     -10.9      5.397     10.048
REMARK SMILES CC(C)(C)[NH2+]CC(=O)N[C@](C)(C(=O)NCCCNC(=O)c1ccc(-c2c3nc(c(-c4c(F)cccc4F)c4ccc([nH]4)c(-c4c(F)cccc4F)c4nc(c(-c5c(F)cccc5F)c5ccc2[nH]5)C=C4)C=C3)cc1)C1CC1
REMARK SMILES IDX 15 1 14 2 12 3 13 4 10 6 11 7 9 8 7 9 8 10 6 12 5 13 2 16
REMARK SMILES IDX 1 17 3 18 4 19 75 20 76 21 77 22 16 23 17 24 18 25 19 26
REMARK SMILES IDX 20 28 21 29 22 30 74 31 23 32 73 33 24 34 25 35 26 36 67 37
REMARK SMILES IDX 27 38 72 39 66 40 68 41 28 42 71 43 65 44 64 45 29 47 55 48
REMARK SMILES IDX 38 49 54 50 39 51 42 52 53 53 69 54 40 55 41 56 52 58 70 59
REMARK SMILES IDX 43 60 30 61 31 62 36 63 32 64 33 65 35 66 37 67 34 68 56 69
REMARK SMILES IDX 57 70 62 71 58 72 59 73 61 74 63 75 60 76 44 77 45 78 50 79
REMARK SMILES IDX 46 80 47 81 49 82 51 83 48 84
REMARK H PARENT 14 5 9 11 5 14 5 15 18 27 68 46 42 57
REMARK Flexibility Score: inf
ROOT
ATOM      1  C   UNL A   1      32.015  29.711  25.960  1.00  0.00     0.117 C 
ENDROOT
BRANCH   1   2
ATOM      2  N   UNL A   1      32.718  29.727  24.679  1.00  0.00    -0.354 N 
ATOM      3  C   UNL A   1      33.072  28.778  23.764  1.00  0.00     0.245 C 
ATOM      4  O   UNL A   1      33.685  29.242  22.794  1.00  0.00    -0.272 OA
ATOM      5  H   UNL A   1      33.003  30.632  24.415  1.00  0.00     0.163 HD
BRANCH   3   6
ATOM      6  C   UNL A   1      32.911  27.222  23.983  1.00  0.00     0.119 C 
ATOM      7  C   UNL A   1      33.654  26.939  25.315  1.00  0.00     0.046 C 
BRANCH   6   8
ATOM      8  N   UNL A   1      31.484  26.822  24.189  1.00  0.00    -0.337 N 
ATOM      9  C   UNL A   1      30.243  27.248  23.825  1.00  0.00     0.275 C 
ATOM     10  O   UNL A   1      29.310  26.698  24.431  1.00  0.00    -0.268 OA
ATOM     11  H   UNL A   1      31.426  26.015  24.752  1.00  0.00     0.164 HD
BRANCH   9  12
ATOM     12  C   UNL A   1      29.907  28.310  22.762  1.00  0.00     0.362 C 
BRANCH  12  13
ATOM     13  N   UNL A   1      29.417  29.601  23.303  1.00  0.00    -0.334 N 
ATOM     14  H   UNL A   1      29.395  29.516  24.319  1.00  0.00     0.347 HD
ATOM     15  H   UNL A   1      30.065  30.297  22.936  1.00  0.00     0.347 HD
BRANCH  13  16
ATOM     16  C   UNL A   1      28.088  30.060  22.869  1.00  0.00     0.088 C 
ATOM     17  C   UNL A   1      27.687  31.402  23.503  1.00  0.00     0.078 C 
ATOM     18  C   UNL A   1      27.068  28.955  23.126  1.00  0.00     0.078 C 
ATOM     19  C   UNL A   1      28.091  30.278  21.346  1.00  0.00     0.078 C 
ENDBRANCH  13  16
ENDBRANCH  12  13
ENDBRANCH   9  12
ENDBRANCH   6   8
BRANCH   6  20
ATOM     20  C   UNL A   1      33.557  26.375  22.869  1.00  0.00     0.024 C 
ATOM     21  C   UNL A   1      33.123  24.951  22.574  1.00  0.00     0.007 C 
ATOM     22  C   UNL A   1      32.900  26.015  21.545  1.00  0.00     0.007 C 
ENDBRANCH   6  20
ENDBRANCH   3   6
ENDBRANCH   1   2
BRANCH   1  23
ATOM     23  C   UNL A   1      31.660  31.130  26.412  1.00  0.00     0.042 C 
BRANCH  23  24
ATOM     24  C   UNL A   1      32.834  31.921  26.994  1.00  0.00     0.118 C 
BRANCH  24  25
ATOM     25  N   UNL A   1      32.513  33.314  27.269  1.00  0.00    -0.352 N 
ATOM     26  C   UNL A   1      33.059  34.181  28.195  1.00  0.00     0.251 C 
ATOM     27  H   UNL A   1      31.797  33.696  26.711  1.00  0.00     0.163 HD
ATOM     28  O   UNL A   1      32.565  35.281  28.377  1.00  0.00    -0.269 OA
BRANCH  26  29
ATOM     29  C   UNL A   1      34.229  33.758  29.002  1.00  0.00     0.039 A 
ATOM     30  C   UNL A   1      34.028  32.885  30.076  1.00  0.00     0.014 A 
ATOM     31  C   UNL A   1      35.516  34.205  28.700  1.00  0.00     0.014 A 
ATOM     32  C   UNL A   1      35.129  32.384  30.779  1.00  0.00     0.010 A 
ATOM     33  C   UNL A   1      36.616  33.643  29.347  1.00  0.00     0.010 A 
ATOM     34  C   UNL A   1      36.436  32.717  30.387  1.00  0.00    -0.014 A 
BRANCH  34  35
ATOM     35  C   UNL A   1      37.622  32.088  31.030  1.00  0.00     0.031 A 
ATOM     36  C   UNL A   1      38.383  30.995  30.327  1.00  0.00     0.074 A 
ATOM     37  C   UNL A   1      37.964  32.437  32.287  1.00  0.00     0.049 A 
ATOM     38  N   UNL A   1      39.383  30.270  30.765  1.00  0.00    -0.248 NA
ATOM     39  C   UNL A   1      37.944  30.647  28.967  1.00  0.00     0.031 C 
ATOM     40  C   UNL A   1      37.269  33.430  33.111  1.00  0.00     0.029 A 
ATOM     41  N   UNL A   1      38.972  31.983  33.102  1.00  0.00    -0.354 N 
ATOM     42  C   UNL A   1      39.668  29.365  29.750  1.00  0.00     0.074 A 
ATOM     43  C   UNL A   1      38.712  29.603  28.690  1.00  0.00     0.031 C 
ATOM     44  C   UNL A   1      37.880  33.520  34.304  1.00  0.00     0.029 A 
ATOM     45  C   UNL A   1      38.986  32.569  34.346  1.00  0.00     0.049 A 
ATOM     46  H   UNL A   1      39.626  31.301  32.822  1.00  0.00     0.167 HD
ATOM     47  C   UNL A   1      40.650  28.434  29.696  1.00  0.00     0.037 A 
ATOM     48  C   UNL A   1      39.791  32.360  35.406  1.00  0.00     0.037 A 
ATOM     49  C   UNL A   1      41.636  28.233  30.724  1.00  0.00     0.049 A 
ATOM     50  C   UNL A   1      40.900  31.349  35.301  1.00  0.00     0.074 A 
ATOM     51  C   UNL A   1      42.731  27.385  30.714  1.00  0.00     0.029 A 
ATOM     52  N   UNL A   1      41.648  28.886  31.946  1.00  0.00    -0.354 N 
ATOM     53  N   UNL A   1      41.215  30.570  34.295  1.00  0.00    -0.248 NA
ATOM     54  C   UNL A   1      41.773  31.196  36.474  1.00  0.00     0.031 C 
ATOM     55  C   UNL A   1      43.382  27.495  31.946  1.00  0.00     0.029 A 
ATOM     56  C   UNL A   1      42.718  28.443  32.706  1.00  0.00     0.049 A 
ATOM     57  H   UNL A   1      40.994  29.564  32.231  1.00  0.00     0.167 HD
ATOM     58  C   UNL A   1      42.335  29.857  34.704  1.00  0.00     0.074 A 
ATOM     59  C   UNL A   1      42.655  30.307  36.041  1.00  0.00     0.031 C 
ATOM     60  C   UNL A   1      43.033  28.910  34.031  1.00  0.00     0.037 A 
BRANCH  47  61
ATOM     61  C   UNL A   1      40.721  27.560  28.478  1.00  0.00     0.057 A 
ATOM     62  C   UNL A   1      39.999  26.363  28.382  1.00  0.00     0.134 A 
ATOM     63  C   UNL A   1      41.472  27.952  27.362  1.00  0.00     0.134 A 
ATOM     64  F   UNL A   1      39.268  25.925  29.419  1.00  0.00    -0.206 F 
ATOM     65  C   UNL A   1      40.036  25.579  27.229  1.00  0.00     0.040 A 
ATOM     66  C   UNL A   1      41.496  27.190  26.194  1.00  0.00     0.040 A 
ATOM     67  F   UNL A   1      42.181  29.091  27.385  1.00  0.00    -0.206 F 
ATOM     68  C   UNL A   1      40.779  25.997  26.126  1.00  0.00     0.006 A 
ENDBRANCH  47  61
BRANCH  48  69
ATOM     69  C   UNL A   1      39.592  33.127  36.663  1.00  0.00     0.057 A 
ATOM     70  C   UNL A   1      38.672  32.704  37.631  1.00  0.00     0.134 A 
ATOM     71  C   UNL A   1      40.290  34.314  36.913  1.00  0.00     0.134 A 
ATOM     72  F   UNL A   1      37.959  31.585  37.439  1.00  0.00    -0.206 F 
ATOM     73  C   UNL A   1      38.431  33.450  38.786  1.00  0.00     0.040 A 
ATOM     74  C   UNL A   1      40.078  35.056  38.077  1.00  0.00     0.040 A 
ATOM     75  F   UNL A   1      41.191  34.769  36.031  1.00  0.00    -0.206 F 
ATOM     76  C   UNL A   1      39.138  34.628  39.013  1.00  0.00     0.006 A 
ENDBRANCH  48  69
BRANCH  60  77
ATOM     77  C   UNL A   1      44.234  28.325  34.714  1.00  0.00     0.057 A 
ATOM     78  C   UNL A   1      45.499  28.918  34.620  1.00  0.00     0.134 A 
ATOM     79  C   UNL A   1      44.113  27.178  35.509  1.00  0.00     0.134 A 
ATOM     80  F   UNL A   1      45.684  30.011  33.864  1.00  0.00    -0.206 F 
ATOM     81  C   UNL A   1      46.607  28.377  35.276  1.00  0.00     0.040 A 
ATOM     82  C   UNL A   1      45.207  26.644  36.190  1.00  0.00     0.040 A 
ATOM     83  F   UNL A   1      42.926  26.568  35.647  1.00  0.00    -0.206 F 
ATOM     84  C   UNL A   1      46.460  27.241  36.070  1.00  0.00     0.006 A 
ENDBRANCH  60  77
ENDBRANCH  34  35
ENDBRANCH  26  29
ENDBRANCH  24  25
ENDBRANCH  23  24
ENDBRANCH   1  23
TORSDOF 15
ENDMDL
MODEL 3
REMARK VINA RESULT:     -10.9      4.768      9.427
REMARK SMILES CC(C)(C)[NH2+]CC(=O)N[C@](C)(C(=O)NCCCNC(=O)c1ccc(-c2c3nc(c(-c4c(F)cccc4F)c4ccc([nH]4)c(-c4c(F)cccc4F)c4nc(c(-c5c(F)cccc5F)c5ccc2[nH]5)C=C4)C=C3)cc1)C1CC1
REMARK SMILES IDX 15 1 14 2 12 3 13 4 10 6 11 7 9 8 7 9 8 10 6 12 5 13 2 16
REMARK SMILES IDX 1 17 3 18 4 19 75 20 76 21 77 22 16 23 17 24 18 25 19 26
REMARK SMILES IDX 20 28 21 29 22 30 74 31 23 32 73 33 24 34 25 35 26 36 67 37
REMARK SMILES IDX 27 38 72 39 66 40 68 41 28 42 71 43 65 44 64 45 29 47 55 48
REMARK SMILES IDX 38 49 54 50 39 51 42 52 53 53 69 54 40 55 41 56 52 58 70 59
REMARK SMILES IDX 43 60 30 61 31 62 36 63 32 64 33 65 35 66 37 67 34 68 56 69
REMARK SMILES IDX 57 70 62 71 58 72 59 73 61 74 63 75 60 76 44 77 45 78 50 79
REMARK SMILES IDX 46 80 47 81 49 82 51 83 48 84
REMARK H PARENT 14 5 9 11 5 14 5 15 18 27 68 46 42 57
REMARK Flexibility Score: inf
ROOT
ATOM      1  C   UNL A   1      31.810  29.869  26.079  1.00  0.00     0.117 C 
ENDROOT
BRANCH   1   2
ATOM      2  N   UNL A   1      32.575  29.871  24.835  1.00  0.00    -0.354 N 
ATOM      3  C   UNL A   1      33.026  28.906  23.980  1.00  0.00     0.245 C 
ATOM      4  O   UNL A   1      33.661  29.364  23.021  1.00  0.00    -0.272 OA
ATOM      5  H   UNL A   1      32.824  30.779  24.545  1.00  0.00     0.163 HD
BRANCH   3   6
ATOM      6  C   UNL A   1      32.938  27.355  24.260  1.00  0.00     0.119 C 
ATOM      7  C   UNL A   1      33.631  27.168  25.635  1.00  0.00     0.046 C 
BRANCH   6   8
ATOM      8  N   UNL A   1      31.526  26.884  24.418  1.00  0.00    -0.337 N 
ATOM      9  C   UNL A   1      30.287  27.203  23.953  1.00  0.00     0.275 C 
ATOM     10  O   UNL A   1      29.352  26.646  24.549  1.00  0.00    -0.268 OA
ATOM     11  H   UNL A   1      31.480  26.122  25.041  1.00  0.00     0.164 HD
BRANCH   9  12
ATOM     12  C   UNL A   1      29.956  28.157  22.790  1.00  0.00     0.362 C 
BRANCH  12  13
ATOM     13  N   UNL A   1      29.478  29.499  23.200  1.00  0.00    -0.334 N 
ATOM     14  H   UNL A   1      29.531  29.543  24.218  1.00  0.00     0.347 HD
ATOM     15  H   UNL A   1      30.081  30.152  22.702  1.00  0.00     0.347 HD
BRANCH  13  16
ATOM     16  C   UNL A   1      28.111  29.883  22.813  1.00  0.00     0.088 C 
ATOM     17  C   UNL A   1      27.084  28.767  23.067  1.00  0.00     0.078 C 
ATOM     18  C   UNL A   1      28.116  30.365  21.365  1.00  0.00     0.078 C 
ATOM     19  C   UNL A   1      27.660  31.092  23.652  1.00  0.00     0.078 C 
ENDBRANCH  13  16
ENDBRANCH  12  13
ENDBRANCH   9  12
ENDBRANCH   6   8
BRANCH   6  20
ATOM     20  C   UNL A   1      33.681  26.500  23.214  1.00  0.00     0.024 C 
ATOM     21  C   UNL A   1      33.265  25.079  22.880  1.00  0.00     0.007 C 
ATOM     22  C   UNL A   1      33.151  26.143  21.833  1.00  0.00     0.007 C 
ENDBRANCH   6  20
ENDBRANCH   3   6
ENDBRANCH   1   2
BRANCH   1  23
ATOM     23  C   UNL A   1      31.522  31.296  26.553  1.00  0.00     0.042 C 
BRANCH  23  24
ATOM     24  C   UNL A   1      32.760  32.074  27.008  1.00  0.00     0.118 C 
BRANCH  24  25
ATOM     25  N   UNL A   1      32.469  33.444  27.403  1.00  0.00    -0.352 N 
ATOM     26  C   UNL A   1      33.134  34.269  28.288  1.00  0.00     0.251 C 
ATOM     27  H   UNL A   1      31.678  33.843  26.974  1.00  0.00     0.163 HD
ATOM     28  O   UNL A   1      32.660  35.350  28.598  1.00  0.00    -0.269 OA
BRANCH  26  29
ATOM     29  C   UNL A   1      34.410  33.824  28.897  1.00  0.00     0.039 A 
ATOM     30  C   UNL A   1      34.370  33.087  30.084  1.00  0.00     0.014 A 
ATOM     31  C   UNL A   1      35.637  34.117  28.300  1.00  0.00     0.014 A 
ATOM     32  C   UNL A   1      35.552  32.560  30.615  1.00  0.00     0.010 A 
ATOM     33  C   UNL A   1      36.802  33.523  28.783  1.00  0.00     0.010 A 
ATOM     34  C   UNL A   1      36.772  32.728  29.940  1.00  0.00    -0.014 A 
BRANCH  34  35
ATOM     35  C   UNL A   1      38.017  32.060  30.411  1.00  0.00     0.031 A 
ATOM     36  C   UNL A   1      38.880  32.706  31.462  1.00  0.00     0.074 A 
ATOM     37  C   UNL A   1      38.420  30.912  29.829  1.00  0.00     0.049 A 
ATOM     38  N   UNL A   1      40.042  32.319  31.931  1.00  0.00    -0.248 NA
ATOM     39  C   UNL A   1      38.394  33.968  32.039  1.00  0.00     0.031 C 
ATOM     40  C   UNL A   1      37.716  30.215  28.748  1.00  0.00     0.029 A 
ATOM     41  N   UNL A   1      39.532  30.136  30.049  1.00  0.00    -0.354 N 
ATOM     42  C   UNL A   1      40.434  33.304  32.829  1.00  0.00     0.074 A 
ATOM     43  C   UNL A   1      39.409  34.324  32.812  1.00  0.00     0.031 C 
ATOM     44  C   UNL A   1      38.403  29.111  28.414  1.00  0.00     0.029 A 
ATOM     45  C   UNL A   1      39.612  29.037  29.227  1.00  0.00     0.049 A 
ATOM     46  H   UNL A   1      40.209  30.346  30.734  1.00  0.00     0.167 HD
ATOM     47  C   UNL A   1      41.538  33.343  33.613  1.00  0.00     0.037 A 
ATOM     48  C   UNL A   1      40.556  28.080  29.131  1.00  0.00     0.037 A 
ATOM     49  C   UNL A   1      42.530  32.303  33.673  1.00  0.00     0.049 A 
ATOM     50  C   UNL A   1      41.750  28.128  30.045  1.00  0.00     0.074 A 
ATOM     51  C   UNL A   1      43.627  32.206  34.511  1.00  0.00     0.029 A 
ATOM     52  N   UNL A   1      42.546  31.178  32.863  1.00  0.00    -0.354 N 
ATOM     53  N   UNL A   1      42.056  29.017  30.958  1.00  0.00    -0.248 NA
ATOM     54  C   UNL A   1      42.725  27.034  29.922  1.00  0.00     0.031 C 
ATOM     55  C   UNL A   1      44.331  31.044  34.180  1.00  0.00     0.029 A 
ATOM     56  C   UNL A   1      43.647  30.395  33.166  1.00  0.00     0.049 A 
ATOM     57  H   UNL A   1      41.874  30.968  32.174  1.00  0.00     0.167 HD
ATOM     58  C   UNL A   1      43.240  28.576  31.535  1.00  0.00     0.074 A 
ATOM     59  C   UNL A   1      43.589  27.332  30.883  1.00  0.00     0.031 C 
ATOM     60  C   UNL A   1      43.974  29.152  32.518  1.00  0.00     0.037 A 
BRANCH  47  61
ATOM     61  C   UNL A   1      41.735  34.548  34.486  1.00  0.00     0.057 A 
ATOM     62  C   UNL A   1      42.401  35.692  34.029  1.00  0.00     0.134 A 
ATOM     63  C   UNL A   1      41.195  34.588  35.778  1.00  0.00     0.134 A 
ATOM     64  F   UNL A   1      42.950  35.716  32.805  1.00  0.00    -0.206 F 
ATOM     65  C   UNL A   1      42.541  36.825  34.832  1.00  0.00     0.040 A 
ATOM     66  C   UNL A   1      41.305  35.724  36.581  1.00  0.00     0.040 A 
ATOM     67  F   UNL A   1      40.538  33.529  36.274  1.00  0.00    -0.206 F 
ATOM     68  C   UNL A   1      41.983  36.846  36.109  1.00  0.00     0.006 A 
ENDBRANCH  47  61
BRANCH  48  69
ATOM     69  C   UNL A   1      40.416  26.984  28.138  1.00  0.00     0.057 A 
ATOM     70  C   UNL A   1      41.023  27.066  26.878  1.00  0.00     0.134 A 
ATOM     71  C   UNL A   1      39.648  25.845  28.409  1.00  0.00     0.134 A 
ATOM     72  F   UNL A   1      41.755  28.140  26.552  1.00  0.00    -0.206 F 
ATOM     73  C   UNL A   1      40.847  26.071  25.915  1.00  0.00     0.040 A 
ATOM     74  C   UNL A   1      39.484  24.830  27.464  1.00  0.00     0.040 A 
ATOM     75  F   UNL A   1      39.047  25.701  29.599  1.00  0.00    -0.206 F 
ATOM     76  C   UNL A   1      40.077  24.948  26.208  1.00  0.00     0.006 A 
ENDBRANCH  48  69
BRANCH  60  77
ATOM     77  C   UNL A   1      45.206  28.427  32.972  1.00  0.00     0.057 A 
ATOM     78  C   UNL A   1      45.161  27.454  33.978  1.00  0.00     0.134 A 
ATOM     79  C   UNL A   1      46.444  28.676  32.366  1.00  0.00     0.134 A 
ATOM     80  F   UNL A   1      44.009  27.177  34.607  1.00  0.00    -0.206 F 
ATOM     81  C   UNL A   1      46.310  26.769  34.380  1.00  0.00     0.040 A 
ATOM     82  C   UNL A   1      47.593  27.980  32.742  1.00  0.00     0.040 A 
ATOM     83  F   UNL A   1      46.552  29.590  31.390  1.00  0.00    -0.206 F 
ATOM     84  C   UNL A   1      47.529  27.027  33.755  1.00  0.00     0.006 A 
ENDBRANCH  60  77
ENDBRANCH  34  35
ENDBRANCH  26  29
ENDBRANCH  24  25
ENDBRANCH  23  24
ENDBRANCH   1  23
TORSDOF 15
ENDMDL
