MODEL 1
REMARK VINA RESULT:     -14.0      0.000      0.000
REMARK SMILES O=C(NCCCNC(=O)[C@H]1CCCN(c2cc(-c3ccccn3)nc(-c3ccccc3F)n2)C1)c1ccc(-c2c3nc(c(-c4c(F)cccc4F)c4ccc([nH]4)c(-c4c(F)cccc4F)c4nc(c(-c5c(F)cccc5F)c5ccc2[nH]5)C=C4)C=C3)cc1
REMARK SMILES IDX 5 1 4 2 3 3 1 4 2 5 35 7 36 8 88 9 37 10 87 11 38 12 39 13
REMARK SMILES IDX 40 14 81 15 41 16 86 17 80 18 82 19 42 20 85 21 79 22 78 23
REMARK SMILES IDX 43 25 69 26 52 27 68 28 53 29 56 30 67 31 83 32 54 33 55 34
REMARK SMILES IDX 66 36 84 37 57 38 44 39 45 40 50 41 46 42 47 43 49 44 51 45
REMARK SMILES IDX 48 46 70 47 71 48 76 49 72 50 73 51 75 52 77 53 74 54 58 55
REMARK SMILES IDX 59 56 64 57 60 58 61 59 63 60 65 61 62 62 6 63 7 64 8 65
REMARK SMILES IDX 9 67 10 68 11 69 34 70 12 71 14 72 13 73 15 74 16 75 33 76
REMARK SMILES IDX 17 77 25 78 24 79 18 80 19 81 23 82 20 83 22 84 21 85 26 86
REMARK SMILES IDX 27 87 31 88 28 89 30 90 32 91 29 92
REMARK H PARENT 3 6 82 24 56 35 7 66
REMARK Flexibility Score: inf
ROOT
ATOM      1  C   UNL A   1      32.903  28.956  23.677  1.00  0.00     0.042 C 
ENDROOT
BRANCH   1   2
ATOM      2  C   UNL A   1      33.178  29.179  25.162  1.00  0.00     0.118 C 
BRANCH   2   3
ATOM      3  N   UNL A   1      32.603  30.424  25.656  1.00  0.00    -0.352 N 
ATOM      4  O   UNL A   1      32.198  32.094  27.109  1.00  0.00    -0.269 OA
ATOM      5  C   UNL A   1      32.935  31.178  26.753  1.00  0.00     0.251 C 
ATOM      6  H   UNL A   1      31.859  30.780  25.118  1.00  0.00     0.163 HD
BRANCH   5   7
ATOM      7  C   UNL A   1      34.167  30.886  27.515  1.00  0.00     0.039 A 
ATOM      8  C   UNL A   1      34.429  29.597  27.982  1.00  0.00     0.014 A 
ATOM      9  C   UNL A   1      35.094  31.911  27.730  1.00  0.00     0.014 A 
ATOM     10  C   UNL A   1      35.539  29.364  28.783  1.00  0.00     0.010 A 
ATOM     11  C   UNL A   1      36.258  31.652  28.459  1.00  0.00     0.010 A 
ATOM     12  C   UNL A   1      36.478  30.382  29.012  1.00  0.00    -0.014 A 
BRANCH  12  13
ATOM     13  C   UNL A   1      37.717  30.070  29.767  1.00  0.00     0.031 A 
ATOM     14  C   UNL A   1      37.927  30.575  31.166  1.00  0.00     0.074 A 
ATOM     15  C   UNL A   1      38.649  29.292  29.180  1.00  0.00     0.049 A 
ATOM     16  N   UNL A   1      38.949  30.385  31.962  1.00  0.00    -0.248 NA
ATOM     17  C   UNL A   1      36.861  31.404  31.750  1.00  0.00     0.031 C 
ATOM     18  C   UNL A   1      38.554  28.748  27.823  1.00  0.00     0.029 A 
ATOM     19  N   UNL A   1      39.844  28.810  29.647  1.00  0.00    -0.354 N 
ATOM     20  C   UNL A   1      38.656  31.074  33.132  1.00  0.00     0.074 A 
ATOM     21  C   UNL A   1      37.374  31.714  32.933  1.00  0.00     0.031 C 
ATOM     22  C   UNL A   1      39.618  27.968  27.586  1.00  0.00     0.029 A 
ATOM     23  C   UNL A   1      40.503  28.013  28.744  1.00  0.00     0.049 A 
ATOM     24  H   UNL A   1      40.197  29.016  30.543  1.00  0.00     0.167 HD
ATOM     25  C   UNL A   1      39.389  31.153  34.268  1.00  0.00     0.037 A 
ATOM     26  C   UNL A   1      41.698  27.397  28.826  1.00  0.00     0.037 A 
ATOM     27  C   UNL A   1      40.658  30.500  34.461  1.00  0.00     0.049 A 
ATOM     28  C   UNL A   1      42.506  27.540  30.081  1.00  0.00     0.074 A 
ATOM     29  C   UNL A   1      41.459  30.497  35.590  1.00  0.00     0.029 A 
ATOM     30  N   UNL A   1      41.314  29.737  33.506  1.00  0.00    -0.354 N 
ATOM     31  N   UNL A   1      42.204  28.175  31.187  1.00  0.00    -0.248 NA
ATOM     32  C   UNL A   1      43.822  26.887  30.101  1.00  0.00     0.031 C 
ATOM     33  C   UNL A   1      42.622  29.778  35.301  1.00  0.00     0.029 A 
ATOM     34  C   UNL A   1      42.520  29.282  34.012  1.00  0.00     0.049 A 
ATOM     35  H   UNL A   1      40.971  29.546  32.603  1.00  0.00     0.167 HD
ATOM     36  C   UNL A   1      43.282  27.986  32.040  1.00  0.00     0.074 A 
ATOM     37  C   UNL A   1      44.238  27.161  31.330  1.00  0.00     0.031 C 
ATOM     38  C   UNL A   1      43.462  28.459  33.297  1.00  0.00     0.037 A 
BRANCH  25  39
ATOM     39  C   UNL A   1      38.850  31.974  35.403  1.00  0.00     0.057 A 
ATOM     40  C   UNL A   1      39.117  33.348  35.480  1.00  0.00     0.134 A 
ATOM     41  C   UNL A   1      38.157  31.391  36.472  1.00  0.00     0.134 A 
ATOM     42  F   UNL A   1      39.784  33.967  34.494  1.00  0.00    -0.206 F 
ATOM     43  C   UNL A   1      38.734  34.107  36.587  1.00  0.00     0.040 A 
ATOM     44  C   UNL A   1      37.748  32.145  37.573  1.00  0.00     0.040 A 
ATOM     45  F   UNL A   1      37.860  30.083  36.458  1.00  0.00    -0.206 F 
ATOM     46  C   UNL A   1      38.046  33.505  37.638  1.00  0.00     0.006 A 
ENDBRANCH  25  39
BRANCH  26  47
ATOM     47  C   UNL A   1      42.190  26.597  27.676  1.00  0.00     0.057 A 
ATOM     48  C   UNL A   1      42.871  27.195  26.608  1.00  0.00     0.134 A 
ATOM     49  C   UNL A   1      41.960  25.219  27.603  1.00  0.00     0.134 A 
ATOM     50  F   UNL A   1      43.114  28.514  26.614  1.00  0.00    -0.206 F 
ATOM     51  C   UNL A   1      43.283  26.459  25.499  1.00  0.00     0.040 A 
ATOM     52  C   UNL A   1      42.393  24.464  26.512  1.00  0.00     0.040 A 
ATOM     53  F   UNL A   1      41.328  24.586  28.602  1.00  0.00    -0.206 F 
ATOM     54  C   UNL A   1      43.047  25.086  25.451  1.00  0.00     0.006 A 
ENDBRANCH  26  47
BRANCH  38  55
ATOM     55  C   UNL A   1      44.730  28.081  34.003  1.00  0.00     0.057 A 
ATOM     56  C   UNL A   1      44.799  26.909  34.767  1.00  0.00     0.134 A 
ATOM     57  C   UNL A   1      45.857  28.912  33.988  1.00  0.00     0.134 A 
ATOM     58  F   UNL A   1      43.750  26.074  34.831  1.00  0.00    -0.206 F 
ATOM     59  C   UNL A   1      45.938  26.585  35.506  1.00  0.00     0.040 A 
ATOM     60  C   UNL A   1      47.012  28.586  34.702  1.00  0.00     0.040 A 
ATOM     61  F   UNL A   1      45.859  30.042  33.266  1.00  0.00    -0.206 F 
ATOM     62  C   UNL A   1      47.049  27.424  35.471  1.00  0.00     0.006 A 
ENDBRANCH  38  55
ENDBRANCH  12  13
ENDBRANCH   5   7
ENDBRANCH   2   3
ENDBRANCH   1   2
BRANCH   1  63
ATOM     63  C   UNL A   1      33.987  28.145  22.979  1.00  0.00     0.117 C 
BRANCH  63  64
ATOM     64  N   UNL A   1      33.497  27.577  21.737  1.00  0.00    -0.356 N 
ATOM     65  C   UNL A   1      33.080  26.304  21.486  1.00  0.00     0.224 C 
ATOM     66  H   UNL A   1      33.462  28.196  20.971  1.00  0.00     0.163 HD
ATOM     67  O   UNL A   1      32.866  25.984  20.317  1.00  0.00    -0.275 OA
BRANCH  65  68
ATOM     68  C   UNL A   1      32.810  25.375  22.655  1.00  0.00     0.098 C 
ATOM     69  C   UNL A   1      31.381  25.636  23.162  1.00  0.00     0.017 C 
ATOM     70  C   UNL A   1      32.973  23.924  22.208  1.00  0.00     0.131 C 
ATOM     71  C   UNL A   1      30.972  24.631  24.237  1.00  0.00     0.022 C 
ATOM     72  N   UNL A   1      32.504  23.022  23.252  1.00  0.00    -0.356 N 
ATOM     73  C   UNL A   1      31.151  23.191  23.755  1.00  0.00     0.118 C 
BRANCH  72  74
ATOM     74  C   UNL A   1      33.389  22.167  23.872  1.00  0.00     0.133 A 
ATOM     75  C   UNL A   1      33.019  20.855  24.075  1.00  0.00     0.077 A 
ATOM     76  N   UNL A   1      34.603  22.617  24.229  1.00  0.00    -0.211 NA
ATOM     77  C   UNL A   1      33.953  20.001  24.622  1.00  0.00     0.095 A 
ATOM     78  C   UNL A   1      35.441  21.724  24.795  1.00  0.00     0.165 A 
ATOM     79  N   UNL A   1      35.172  20.426  25.001  1.00  0.00    -0.226 NA
BRANCH  77  80
ATOM     80  C   UNL A   1      33.666  18.569  24.766  1.00  0.00     0.089 A 
ATOM     81  C   UNL A   1      34.373  17.615  24.031  1.00  0.00     0.030 A 
ATOM     82  N   UNL A   1      32.650  18.231  25.602  1.00  0.00    -0.255 NA
ATOM     83  C   UNL A   1      34.032  16.271  24.158  1.00  0.00     0.004 A 
ATOM     84  C   UNL A   1      32.351  16.918  25.714  1.00  0.00     0.112 A 
ATOM     85  C   UNL A   1      33.002  15.914  25.018  1.00  0.00     0.020 A 
ENDBRANCH  77  80
BRANCH  78  86
ATOM     86  C   UNL A   1      36.709  22.214  25.326  1.00  0.00     0.055 A 
ATOM     87  C   UNL A   1      36.815  23.509  25.868  1.00  0.00     0.015 A 
ATOM     88  C   UNL A   1      37.839  21.392  25.374  1.00  0.00     0.134 A 
ATOM     89  C   UNL A   1      38.007  23.948  26.455  1.00  0.00     0.001 A 
ATOM     90  C   UNL A   1      39.034  21.827  25.951  1.00  0.00     0.040 A 
ATOM     91  F   UNL A   1      37.802  20.156  24.854  1.00  0.00    -0.206 F 
ATOM     92  C   UNL A   1      39.116  23.105  26.500  1.00  0.00     0.003 A 
ENDBRANCH  78  86
ENDBRANCH  72  74
ENDBRANCH  65  68
ENDBRANCH  63  64
ENDBRANCH   1  63
TORSDOF 13
ENDMDL
MODEL 2
REMARK VINA RESULT:     -14.0      1.669      2.692
REMARK SMILES O=C(NCCCNC(=O)[C@H]1CCCN(c2cc(-c3ccccn3)nc(-c3ccccc3F)n2)C1)c1ccc(-c2c3nc(c(-c4c(F)cccc4F)c4ccc([nH]4)c(-c4c(F)cccc4F)c4nc(c(-c5c(F)cccc5F)c5ccc2[nH]5)C=C4)C=C3)cc1
REMARK SMILES IDX 5 1 4 2 3 3 1 4 2 5 35 7 36 8 88 9 37 10 87 11 38 12 39 13
REMARK SMILES IDX 40 14 81 15 41 16 86 17 80 18 82 19 42 20 85 21 79 22 78 23
REMARK SMILES IDX 43 25 69 26 52 27 68 28 53 29 56 30 67 31 83 32 54 33 55 34
REMARK SMILES IDX 66 36 84 37 57 38 44 39 45 40 50 41 46 42 47 43 49 44 51 45
REMARK SMILES IDX 48 46 70 47 71 48 76 49 72 50 73 51 75 52 77 53 74 54 58 55
REMARK SMILES IDX 59 56 64 57 60 58 61 59 63 60 65 61 62 62 6 63 7 64 8 65
REMARK SMILES IDX 9 67 10 68 11 69 34 70 12 71 14 72 13 73 15 74 16 75 33 76
REMARK SMILES IDX 17 77 25 78 24 79 18 80 19 81 23 82 20 83 22 84 21 85 26 86
REMARK SMILES IDX 27 87 31 88 28 89 30 90 32 91 29 92
REMARK H PARENT 3 6 82 24 56 35 7 66
REMARK Flexibility Score: inf
ROOT
ATOM      1  C   UNL A   1      34.155  28.384  24.549  1.00  0.00     0.042 C 
ENDROOT
BRANCH   1   2
ATOM      2  C   UNL A   1      34.030  28.503  26.065  1.00  0.00     0.118 C 
BRANCH   2   3
ATOM      3  N   UNL A   1      33.767  29.869  26.499  1.00  0.00    -0.352 N 
ATOM      4  O   UNL A   1      33.918  31.706  27.791  1.00  0.00    -0.269 OA
ATOM      5  C   UNL A   1      34.417  30.643  27.426  1.00  0.00     0.251 C 
ATOM      6  H   UNL A   1      33.003  30.306  26.056  1.00  0.00     0.163 HD
BRANCH   5   7
ATOM      7  C   UNL A   1      35.705  30.201  27.998  1.00  0.00     0.039 A 
ATOM      8  C   UNL A   1      36.893  30.349  27.280  1.00  0.00     0.014 A 
ATOM      9  C   UNL A   1      35.731  29.667  29.291  1.00  0.00     0.014 A 
ATOM     10  C   UNL A   1      38.079  29.835  27.790  1.00  0.00     0.010 A 
ATOM     11  C   UNL A   1      36.941  29.235  29.840  1.00  0.00     0.010 A 
ATOM     12  C   UNL A   1      38.121  29.293  29.085  1.00  0.00    -0.014 A 
BRANCH  12  13
ATOM     13  C   UNL A   1      39.425  28.867  29.650  1.00  0.00     0.031 A 
ATOM     14  C   UNL A   1      39.991  29.514  30.882  1.00  0.00     0.074 A 
ATOM     15  C   UNL A   1      40.087  27.858  29.049  1.00  0.00     0.049 A 
ATOM     16  N   UNL A   1      41.112  29.252  31.505  1.00  0.00    -0.248 NA
ATOM     17  C   UNL A   1      39.205  30.597  31.494  1.00  0.00     0.031 C 
ATOM     18  C   UNL A   1      39.636  27.158  27.844  1.00  0.00     0.029 A 
ATOM     19  N   UNL A   1      41.264  27.235  29.372  1.00  0.00    -0.354 N 
ATOM     20  C   UNL A   1      41.172  30.139  32.572  1.00  0.00     0.074 A 
ATOM     21  C   UNL A   1      39.989  30.969  32.497  1.00  0.00     0.031 C 
ATOM     22  C   UNL A   1      40.498  26.171  27.560  1.00  0.00     0.029 A 
ATOM     23  C   UNL A   1      41.596  26.213  28.517  1.00  0.00     0.049 A 
ATOM     24  H   UNL A   1      41.820  27.495  30.143  1.00  0.00     0.167 HD
ATOM     25  C   UNL A   1      42.124  30.239  33.530  1.00  0.00     0.037 A 
ATOM     26  C   UNL A   1      42.674  25.407  28.490  1.00  0.00     0.037 A 
ATOM     27  C   UNL A   1      43.292  29.398  33.604  1.00  0.00     0.049 A 
ATOM     28  C   UNL A   1      43.733  25.572  29.539  1.00  0.00     0.074 A 
ATOM     29  C   UNL A   1      44.296  29.405  34.556  1.00  0.00     0.029 A 
ATOM     30  N   UNL A   1      43.614  28.403  32.693  1.00  0.00    -0.354 N 
ATOM     31  N   UNL A   1      43.764  26.398  30.555  1.00  0.00    -0.248 NA
ATOM     32  C   UNL A   1      44.910  24.698  29.437  1.00  0.00     0.031 C 
ATOM     33  C   UNL A   1      45.252  28.453  34.194  1.00  0.00     0.029 A 
ATOM     34  C   UNL A   1      44.814  27.810  33.047  1.00  0.00     0.049 A 
ATOM     35  H   UNL A   1      43.070  28.155  31.911  1.00  0.00     0.167 HD
ATOM     36  C   UNL A   1      44.952  26.136  31.223  1.00  0.00     0.074 A 
ATOM     37  C   UNL A   1      45.605  25.059  30.507  1.00  0.00     0.031 C 
ATOM     38  C   UNL A   1      45.454  26.737  32.329  1.00  0.00     0.037 A 
BRANCH  25  39
ATOM     39  C   UNL A   1      41.960  31.295  34.585  1.00  0.00     0.057 A 
ATOM     40  C   UNL A   1      41.177  31.052  35.721  1.00  0.00     0.134 A 
ATOM     41  C   UNL A   1      42.490  32.582  34.429  1.00  0.00     0.134 A 
ATOM     42  F   UNL A   1      40.633  29.843  35.927  1.00  0.00    -0.206 F 
ATOM     43  C   UNL A   1      40.908  32.057  36.652  1.00  0.00     0.040 A 
ATOM     44  C   UNL A   1      42.248  33.588  35.366  1.00  0.00     0.040 A 
ATOM     45  F   UNL A   1      43.257  32.878  33.369  1.00  0.00    -0.206 F 
ATOM     46  C   UNL A   1      41.445  33.330  36.476  1.00  0.00     0.006 A 
ENDBRANCH  25  39
BRANCH  26  47
ATOM     47  C   UNL A   1      42.793  24.378  27.426  1.00  0.00     0.057 A 
ATOM     48  C   UNL A   1      42.498  23.031  27.678  1.00  0.00     0.134 A 
ATOM     49  C   UNL A   1      43.236  24.712  26.143  1.00  0.00     0.134 A 
ATOM     50  F   UNL A   1      42.076  22.646  28.892  1.00  0.00    -0.206 F 
ATOM     51  C   UNL A   1      42.663  22.051  26.700  1.00  0.00     0.040 A 
ATOM     52  C   UNL A   1      43.379  23.745  25.146  1.00  0.00     0.040 A 
ATOM     53  F   UNL A   1      43.519  25.986  25.836  1.00  0.00    -0.206 F 
ATOM     54  C   UNL A   1      43.102  22.409  25.427  1.00  0.00     0.006 A 
ENDBRANCH  26  47
BRANCH  38  55
ATOM     55  C   UNL A   1      46.766  26.235  32.853  1.00  0.00     0.057 A 
ATOM     56  C   UNL A   1      47.974  26.737  32.351  1.00  0.00     0.134 A 
ATOM     57  C   UNL A   1      46.837  25.206  33.800  1.00  0.00     0.134 A 
ATOM     58  F   UNL A   1      47.975  27.717  31.434  1.00  0.00    -0.206 F 
ATOM     59  C   UNL A   1      49.205  26.220  32.757  1.00  0.00     0.040 A 
ATOM     60  C   UNL A   1      48.062  24.699  34.234  1.00  0.00     0.040 A 
ATOM     61  F   UNL A   1      45.717  24.691  34.329  1.00  0.00    -0.206 F 
ATOM     62  C   UNL A   1      49.250  25.200  33.704  1.00  0.00     0.006 A 
ENDBRANCH  38  55
ENDBRANCH  12  13
ENDBRANCH   5   7
ENDBRANCH   2   3
ENDBRANCH   1   2
BRANCH   1  63
ATOM     63  C   UNL A   1      32.810  28.335  23.835  1.00  0.00     0.117 C 
BRANCH  63  64
ATOM     64  N   UNL A   1      32.959  27.875  22.468  1.00  0.00    -0.356 N 
ATOM     65  C   UNL A   1      33.048  26.598  22.000  1.00  0.00     0.224 C 
ATOM     66  H   UNL A   1      33.003  28.583  21.784  1.00  0.00     0.163 HD
ATOM     67  O   UNL A   1      33.345  26.433  20.817  1.00  0.00    -0.275 OA
BRANCH  65  68
ATOM     68  C   UNL A   1      32.687  25.451  22.925  1.00  0.00     0.098 C 
ATOM     69  C   UNL A   1      31.163  25.456  23.133  1.00  0.00     0.017 C 
ATOM     70  C   UNL A   1      33.149  24.130  22.312  1.00  0.00     0.131 C 
ATOM     71  C   UNL A   1      30.698  24.235  23.925  1.00  0.00     0.022 C 
ATOM     72  N   UNL A   1      32.616  23.009  23.076  1.00  0.00    -0.356 N 
ATOM     73  C   UNL A   1      31.180  22.934  23.283  1.00  0.00     0.118 C 
BRANCH  72  74
ATOM     74  C   UNL A   1      33.475  22.161  23.742  1.00  0.00     0.133 A 
ATOM     75  C   UNL A   1      33.084  20.859  23.968  1.00  0.00     0.077 A 
ATOM     76  N   UNL A   1      34.684  22.607  24.121  1.00  0.00    -0.211 NA
ATOM     77  C   UNL A   1      33.993  20.009  24.563  1.00  0.00     0.095 A 
ATOM     78  C   UNL A   1      35.495  21.720  24.733  1.00  0.00     0.165 A 
ATOM     79  N   UNL A   1      35.206  20.431  24.965  1.00  0.00    -0.226 NA
BRANCH  77  80
ATOM     80  C   UNL A   1      33.685  18.584  24.736  1.00  0.00     0.089 A 
ATOM     81  C   UNL A   1      34.496  17.599  24.169  1.00  0.00     0.030 A 
ATOM     82  N   UNL A   1      32.552  18.283  25.421  1.00  0.00    -0.255 NA
ATOM     83  C   UNL A   1      34.138  16.261  24.311  1.00  0.00     0.004 A 
ATOM     84  C   UNL A   1      32.238  16.976  25.554  1.00  0.00     0.112 A 
ATOM     85  C   UNL A   1      32.987  15.941  25.020  1.00  0.00     0.020 A 
ENDBRANCH  77  80
BRANCH  78  86
ATOM     86  C   UNL A   1      36.753  22.210  25.287  1.00  0.00     0.055 A 
ATOM     87  C   UNL A   1      36.845  23.497  25.848  1.00  0.00     0.015 A 
ATOM     88  C   UNL A   1      37.887  21.394  25.338  1.00  0.00     0.134 A 
ATOM     89  C   UNL A   1      38.027  23.935  26.456  1.00  0.00     0.001 A 
ATOM     90  C   UNL A   1      39.072  21.827  25.936  1.00  0.00     0.040 A 
ATOM     91  F   UNL A   1      37.864  20.164  24.800  1.00  0.00    -0.206 F 
ATOM     92  C   UNL A   1      39.140  23.098  26.503  1.00  0.00     0.003 A 
ENDBRANCH  78  86
ENDBRANCH  72  74
ENDBRANCH  65  68
ENDBRANCH  63  64
ENDBRANCH   1  63
TORSDOF 13
ENDMDL
MODEL 3
REMARK VINA RESULT:     -13.8      4.136      8.986
REMARK SMILES O=C(NCCCNC(=O)[C@H]1CCCN(c2cc(-c3ccccn3)nc(-c3ccccc3F)n2)C1)c1ccc(-c2c3nc(c(-c4c(F)cccc4F)c4ccc([nH]4)c(-c4c(F)cccc4F)c4nc(c(-c5c(F)cccc5F)c5ccc2[nH]5)C=C4)C=C3)cc1
REMARK SMILES IDX 5 1 4 2 3 3 1 4 2 5 35 7 36 8 88 9 37 10 87 11 38 12 39 13
REMARK SMILES IDX 40 14 81 15 41 16 86 17 80 18 82 19 42 20 85 21 79 22 78 23
REMARK SMILES IDX 43 25 69 26 52 27 68 28 53 29 56 30 67 31 83 32 54 33 55 34
REMARK SMILES IDX 66 36 84 37 57 38 44 39 45 40 50 41 46 42 47 43 49 44 51 45
REMARK SMILES IDX 48 46 70 47 71 48 76 49 72 50 73 51 75 52 77 53 74 54 58 55
REMARK SMILES IDX 59 56 64 57 60 58 61 59 63 60 65 61 62 62 6 63 7 64 8 65
REMARK SMILES IDX 9 67 10 68 11 69 34 70 12 71 14 72 13 73 15 74 16 75 33 76
REMARK SMILES IDX 17 77 25 78 24 79 18 80 19 81 23 82 20 83 22 84 21 85 26 86
REMARK SMILES IDX 27 87 31 88 28 89 30 90 32 91 29 92
REMARK H PARENT 3 6 82 24 56 35 7 66
REMARK Flexibility Score: inf
ROOT
ATOM      1  C   UNL A   1      35.314  23.495  26.539  1.00  0.00     0.042 C 
ENDROOT
BRANCH   1   2
ATOM      2  C   UNL A   1      36.592  23.751  25.746  1.00  0.00     0.118 C 
BRANCH   2   3
ATOM      3  N   UNL A   1      37.602  22.723  25.968  1.00  0.00    -0.352 N 
ATOM      4  O   UNL A   1      39.654  21.867  26.317  1.00  0.00    -0.269 OA
ATOM      5  C   UNL A   1      38.905  22.839  26.381  1.00  0.00     0.251 C 
ATOM      6  H   UNL A   1      37.303  21.802  25.793  1.00  0.00     0.163 HD
BRANCH   5   7
ATOM      7  C   UNL A   1      39.416  24.128  26.891  1.00  0.00     0.039 A 
ATOM      8  C   UNL A   1      39.316  24.450  28.246  1.00  0.00     0.014 A 
ATOM      9  C   UNL A   1      40.042  25.012  26.006  1.00  0.00     0.014 A 
ATOM     10  C   UNL A   1      39.708  25.707  28.689  1.00  0.00     0.010 A 
ATOM     11  C   UNL A   1      40.521  26.239  26.472  1.00  0.00     0.010 A 
ATOM     12  C   UNL A   1      40.335  26.607  27.813  1.00  0.00    -0.014 A 
BRANCH  12  13
ATOM     13  C   UNL A   1      40.856  27.891  28.343  1.00  0.00     0.031 A 
ATOM     14  C   UNL A   1      42.324  28.208  28.321  1.00  0.00     0.074 A 
ATOM     15  C   UNL A   1      39.976  28.792  28.825  1.00  0.00     0.049 A 
ATOM     16  N   UNL A   1      42.937  29.286  28.738  1.00  0.00    -0.248 NA
ATOM     17  C   UNL A   1      43.224  27.185  27.765  1.00  0.00     0.031 C 
ATOM     18  C   UNL A   1      38.526  28.592  28.901  1.00  0.00     0.029 A 
ATOM     19  N   UNL A   1      40.161  30.055  29.324  1.00  0.00    -0.354 N 
ATOM     20  C   UNL A   1      44.290  29.071  28.506  1.00  0.00     0.074 A 
ATOM     21  C   UNL A   1      44.413  27.746  27.939  1.00  0.00     0.031 C 
ATOM     22  C   UNL A   1      37.951  29.709  29.367  1.00  0.00     0.029 A 
ATOM     23  C   UNL A   1      38.993  30.677  29.689  1.00  0.00     0.049 A 
ATOM     24  H   UNL A   1      41.047  30.477  29.411  1.00  0.00     0.167 HD
ATOM     25  C   UNL A   1      45.327  29.911  28.737  1.00  0.00     0.037 A 
ATOM     26  C   UNL A   1      38.778  31.886  30.242  1.00  0.00     0.037 A 
ATOM     27  C   UNL A   1      45.191  31.235  29.289  1.00  0.00     0.049 A 
ATOM     28  C   UNL A   1      39.951  32.775  30.526  1.00  0.00     0.074 A 
ATOM     29  C   UNL A   1      46.183  32.170  29.530  1.00  0.00     0.029 A 
ATOM     30  N   UNL A   1      43.995  31.811  29.688  1.00  0.00    -0.354 N 
ATOM     31  N   UNL A   1      41.221  32.567  30.279  1.00  0.00    -0.248 NA
ATOM     32  C   UNL A   1      39.667  34.064  31.171  1.00  0.00     0.031 C 
ATOM     33  C   UNL A   1      45.595  33.290  30.123  1.00  0.00     0.029 A 
ATOM     34  C   UNL A   1      44.228  33.078  30.197  1.00  0.00     0.049 A 
ATOM     35  H   UNL A   1      43.110  31.383  29.618  1.00  0.00     0.167 HD
ATOM     36  C   UNL A   1      41.886  33.702  30.721  1.00  0.00     0.074 A 
ATOM     37  C   UNL A   1      40.876  34.604  31.236  1.00  0.00     0.031 C 
ATOM     38  C   UNL A   1      43.215  33.968  30.704  1.00  0.00     0.037 A 
BRANCH  25  39
ATOM     39  C   UNL A   1      46.711  29.437  28.400  1.00  0.00     0.057 A 
ATOM     40  C   UNL A   1      47.210  29.559  27.096  1.00  0.00     0.134 A 
ATOM     41  C   UNL A   1      47.510  28.767  29.336  1.00  0.00     0.134 A 
ATOM     42  F   UNL A   1      46.492  30.182  26.149  1.00  0.00    -0.206 F 
ATOM     43  C   UNL A   1      48.441  29.015  26.730  1.00  0.00     0.040 A 
ATOM     44  C   UNL A   1      48.754  28.240  28.987  1.00  0.00     0.040 A 
ATOM     45  F   UNL A   1      47.097  28.624  30.604  1.00  0.00    -0.206 F 
ATOM     46  C   UNL A   1      49.219  28.352  27.678  1.00  0.00     0.006 A 
ENDBRANCH  25  39
BRANCH  26  47
ATOM     47  C   UNL A   1      37.391  32.311  30.558  1.00  0.00     0.057 A 
ATOM     48  C   UNL A   1      36.676  33.161  29.704  1.00  0.00     0.134 A 
ATOM     49  C   UNL A   1      36.761  31.904  31.738  1.00  0.00     0.134 A 
ATOM     50  F   UNL A   1      37.228  33.593  28.561  1.00  0.00    -0.206 F 
ATOM     51  C   UNL A   1      35.396  33.611  30.024  1.00  0.00     0.040 A 
ATOM     52  C   UNL A   1      35.468  32.323  32.057  1.00  0.00     0.040 A 
ATOM     53  F   UNL A   1      37.388  31.078  32.588  1.00  0.00    -0.206 F 
ATOM     54  C   UNL A   1      34.786  33.187  31.203  1.00  0.00     0.006 A 
ENDBRANCH  26  47
BRANCH  38  55
ATOM     55  C   UNL A   1      43.661  35.297  31.237  1.00  0.00     0.057 A 
ATOM     56  C   UNL A   1      43.919  35.467  32.604  1.00  0.00     0.134 A 
ATOM     57  C   UNL A   1      43.764  36.424  30.413  1.00  0.00     0.134 A 
ATOM     58  F   UNL A   1      43.828  34.428  33.449  1.00  0.00    -0.206 F 
ATOM     59  C   UNL A   1      44.246  36.715  33.135  1.00  0.00     0.040 A 
ATOM     60  C   UNL A   1      44.117  37.673  30.928  1.00  0.00     0.040 A 
ATOM     61  F   UNL A   1      43.542  36.325  29.094  1.00  0.00    -0.206 F 
ATOM     62  C   UNL A   1      44.348  37.822  32.295  1.00  0.00     0.006 A 
ENDBRANCH  38  55
ENDBRANCH  12  13
ENDBRANCH   5   7
ENDBRANCH   2   3
ENDBRANCH   1   2
BRANCH   1  63
ATOM     63  C   UNL A   1      34.483  22.343  25.989  1.00  0.00     0.117 C 
BRANCH  63  64
ATOM     64  N   UNL A   1      33.256  22.174  26.745  1.00  0.00    -0.356 N 
ATOM     65  C   UNL A   1      32.112  22.912  26.692  1.00  0.00     0.224 C 
ATOM     66  H   UNL A   1      33.250  21.424  27.383  1.00  0.00     0.163 HD
ATOM     67  O   UNL A   1      31.248  22.706  27.544  1.00  0.00    -0.275 OA
BRANCH  65  68
ATOM     68  C   UNL A   1      31.915  23.881  25.541  1.00  0.00     0.098 C 
ATOM     69  C   UNL A   1      31.514  23.075  24.293  1.00  0.00     0.017 C 
ATOM     70  C   UNL A   1      30.835  24.899  25.902  1.00  0.00     0.131 C 
ATOM     71  C   UNL A   1      31.141  23.990  23.127  1.00  0.00     0.022 C 
ATOM     72  N   UNL A   1      30.480  25.691  24.732  1.00  0.00    -0.356 N 
ATOM     73  C   UNL A   1      30.060  24.995  23.527  1.00  0.00     0.118 C 
BRANCH  72  74
ATOM     74  C   UNL A   1      30.727  27.047  24.718  1.00  0.00     0.133 A 
ATOM     75  C   UNL A   1      30.017  27.846  23.848  1.00  0.00     0.077 A 
ATOM     76  N   UNL A   1      31.622  27.564  25.575  1.00  0.00    -0.211 NA
ATOM     77  C   UNL A   1      30.224  29.207  23.912  1.00  0.00     0.095 A 
ATOM     78  C   UNL A   1      31.792  28.903  25.543  1.00  0.00     0.165 A 
ATOM     79  N   UNL A   1      31.123  29.753  24.751  1.00  0.00    -0.226 NA
BRANCH  77  80
ATOM     80  C   UNL A   1      29.425  30.127  23.092  1.00  0.00     0.089 A 
ATOM     81  C   UNL A   1      28.960  31.337  23.613  1.00  0.00     0.030 A 
ATOM     82  N   UNL A   1      29.120  29.716  21.835  1.00  0.00    -0.255 NA
ATOM     83  C   UNL A   1      28.160  32.153  22.819  1.00  0.00     0.004 A 
ATOM     84  C   UNL A   1      28.354  30.536  21.084  1.00  0.00     0.112 A 
ATOM     85  C   UNL A   1      27.851  31.747  21.527  1.00  0.00     0.020 A 
ENDBRANCH  77  80
BRANCH  78  86
ATOM     86  C   UNL A   1      32.860  29.478  26.355  1.00  0.00     0.055 A 
ATOM     87  C   UNL A   1      34.095  28.820  26.499  1.00  0.00     0.015 A 
ATOM     88  C   UNL A   1      32.712  30.729  26.960  1.00  0.00     0.134 A 
ATOM     89  C   UNL A   1      35.148  29.412  27.206  1.00  0.00     0.001 A 
ATOM     90  C   UNL A   1      33.756  31.322  27.675  1.00  0.00     0.040 A 
ATOM     91  F   UNL A   1      31.550  31.394  26.874  1.00  0.00    -0.206 F 
ATOM     92  C   UNL A   1      34.979  30.666  27.792  1.00  0.00     0.003 A 
ENDBRANCH  78  86
ENDBRANCH  72  74
ENDBRANCH  65  68
ENDBRANCH  63  64
ENDBRANCH   1  63
TORSDOF 13
ENDMDL
