MODEL 1
REMARK VINA RESULT:     -11.1      0.000      0.000
REMARK SMILES CCC[NH2+][C@]1(C(=O)NCCCNC(=O)c2ccc(-c3c4nc(c(-c5c(F)cccc5F)c5ccc([nH]5)c(-c5c(F)cccc5F)c5nc(c(-c6c(F)cccc6F)c6ccc3[nH]6)C=C5)C=C4)cc2)CC[C@H](n2nc(C)c(CC)c2C)C1
REMARK SMILES IDX 9 1 8 2 6 3 7 4 5 6 69 7 81 8 70 9 71 10 4 11 3 14 2 15 1 16
REMARK SMILES IDX 72 17 73 18 79 19 74 20 76 21 80 22 75 23 77 24 78 25 10 26
REMARK SMILES IDX 11 27 12 28 13 29 14 31 15 32 16 33 68 34 17 35 67 36 18 37
REMARK SMILES IDX 19 38 20 39 61 40 21 41 66 42 60 43 62 44 22 45 65 46 59 47
REMARK SMILES IDX 58 48 23 50 49 51 32 52 48 53 33 54 36 55 47 56 63 57 34 58
REMARK SMILES IDX 35 59 46 61 64 62 37 63 24 64 25 65 30 66 26 67 27 68 29 69
REMARK SMILES IDX 31 70 28 71 50 72 51 73 56 74 52 75 53 76 55 77 57 78 54 79
REMARK SMILES IDX 38 80 39 81 44 82 40 83 41 84 43 85 45 86 42 87
REMARK H PARENT 8 5 4 12 4 13 12 30 62 49 36 60
REMARK Flexibility Score: inf
ROOT
ATOM      1  C   UNL A   1      36.504  20.536  24.681  1.00  0.00     0.118 C 
ENDROOT
BRANCH   1   2
ATOM      2  N   UNL A   1      35.203  19.973  24.987  1.00  0.00    -0.351 N 
ATOM      3  C   UNL A   1      34.077  20.558  25.487  1.00  0.00     0.281 C 
ATOM      4  O   UNL A   1      33.134  19.799  25.741  1.00  0.00    -0.268 OA
ATOM      5  H   UNL A   1      35.118  19.010  24.803  1.00  0.00     0.163 HD
BRANCH   3   6
ATOM      6  C   UNL A   1      33.960  22.096  25.697  1.00  0.00     0.177 C 
ATOM      7  C   UNL A   1      35.244  22.682  26.309  1.00  0.00     0.081 C 
ATOM      8  C   UNL A   1      33.996  22.819  24.333  1.00  0.00     0.106 C 
ATOM      9  C   UNL A   1      35.226  24.165  25.918  1.00  0.00     0.034 C 
ATOM     10  C   UNL A   1      34.401  24.276  24.605  1.00  0.00     0.114 C 
BRANCH   6  11
ATOM     11  N   UNL A   1      32.795  22.444  26.550  1.00  0.00    -0.334 N 
ATOM     12  H   UNL A   1      32.710  21.729  27.273  1.00  0.00     0.347 HD
ATOM     13  H   UNL A   1      32.982  23.376  26.918  1.00  0.00     0.347 HD
BRANCH  11  14
ATOM     14  C   UNL A   1      31.514  22.531  25.848  1.00  0.00     0.261 C 
BRANCH  14  15
ATOM     15  C   UNL A   1      30.500  23.448  26.548  1.00  0.00     0.058 C 
ATOM     16  C   UNL A   1      29.487  22.726  27.426  1.00  0.00     0.010 C 
ENDBRANCH  14  15
ENDBRANCH  11  14
ENDBRANCH   6  11
BRANCH  10  17
ATOM     17  N   UNL A   1      33.313  25.251  24.663  1.00  0.00    -0.266 N 
ATOM     18  N   UNL A   1      33.078  25.867  25.840  1.00  0.00    -0.178 NA
ATOM     19  C   UNL A   1      32.532  25.780  23.654  1.00  0.00     0.039 A 
ATOM     20  C   UNL A   1      32.000  26.625  25.625  1.00  0.00     0.063 A 
ATOM     21  C   UNL A   1      31.530  26.497  24.294  1.00  0.00    -0.004 A 
ATOM     22  C   UNL A   1      32.756  25.590  22.197  1.00  0.00     0.066 C 
ATOM     23  C   UNL A   1      31.484  27.483  26.720  1.00  0.00     0.069 C 
BRANCH  21  24
ATOM     24  C   UNL A   1      30.301  27.096  23.690  1.00  0.00     0.036 C 
ATOM     25  C   UNL A   1      29.043  26.289  23.996  1.00  0.00     0.009 C 
ENDBRANCH  21  24
ENDBRANCH  10  17
ENDBRANCH   3   6
ENDBRANCH   1   2
BRANCH   1  26
ATOM     26  C   UNL A   1      37.654  19.583  24.999  1.00  0.00     0.042 C 
BRANCH  26  27
ATOM     27  C   UNL A   1      38.805  20.197  25.787  1.00  0.00     0.118 C 
BRANCH  27  28
ATOM     28  N   UNL A   1      39.962  19.322  25.846  1.00  0.00    -0.352 N 
ATOM     29  C   UNL A   1      41.284  19.595  26.077  1.00  0.00     0.251 C 
ATOM     30  H   UNL A   1      39.762  18.370  25.695  1.00  0.00     0.163 HD
ATOM     31  O   UNL A   1      42.114  18.709  25.856  1.00  0.00    -0.269 OA
BRANCH  29  32
ATOM     32  C   UNL A   1      41.749  20.908  26.584  1.00  0.00     0.039 A 
ATOM     33  C   UNL A   1      41.662  21.151  27.961  1.00  0.00     0.014 A 
ATOM     34  C   UNL A   1      42.158  21.938  25.733  1.00  0.00     0.014 A 
ATOM     35  C   UNL A   1      41.989  22.407  28.479  1.00  0.00     0.010 A 
ATOM     36  C   UNL A   1      42.556  23.171  26.258  1.00  0.00     0.010 A 
ATOM     37  C   UNL A   1      42.445  23.429  27.632  1.00  0.00    -0.014 A 
BRANCH  37  38
ATOM     38  C   UNL A   1      42.737  24.784  28.169  1.00  0.00     0.031 A 
ATOM     39  C   UNL A   1      44.152  25.171  28.514  1.00  0.00     0.074 A 
ATOM     40  C   UNL A   1      41.738  25.665  28.362  1.00  0.00     0.049 A 
ATOM     41  N   UNL A   1      44.606  26.298  29.005  1.00  0.00    -0.248 NA
ATOM     42  C   UNL A   1      45.189  24.150  28.304  1.00  0.00     0.031 C 
ATOM     43  C   UNL A   1      40.320  25.404  28.106  1.00  0.00     0.029 A 
ATOM     44  N   UNL A   1      41.763  26.959  28.817  1.00  0.00    -0.354 N 
ATOM     45  C   UNL A   1      45.972  26.112  29.179  1.00  0.00     0.074 A 
ATOM     46  C   UNL A   1      46.267  24.751  28.786  1.00  0.00     0.031 C 
ATOM     47  C   UNL A   1      39.613  26.513  28.385  1.00  0.00     0.029 A 
ATOM     48  C   UNL A   1      40.524  27.553  28.857  1.00  0.00     0.049 A 
ATOM     49  H   UNL A   1      42.589  27.419  29.089  1.00  0.00     0.167 HD
ATOM     50  C   UNL A   1      46.904  26.998  29.606  1.00  0.00     0.037 A 
ATOM     51  C   UNL A   1      40.165  28.796  29.225  1.00  0.00     0.037 A 
ATOM     52  C   UNL A   1      46.623  28.364  29.961  1.00  0.00     0.049 A 
ATOM     53  C   UNL A   1      41.222  29.776  29.652  1.00  0.00     0.074 A 
ATOM     54  C   UNL A   1      47.507  29.352  30.361  1.00  0.00     0.029 A 
ATOM     55  N   UNL A   1      45.362  28.938  29.944  1.00  0.00    -0.354 N 
ATOM     56  N   UNL A   1      42.516  29.600  29.764  1.00  0.00    -0.248 NA
ATOM     57  C   UNL A   1      40.769  31.134  29.989  1.00  0.00     0.031 C 
ATOM     58  C   UNL A   1      46.774  30.518  30.610  1.00  0.00     0.029 A 
ATOM     59  C   UNL A   1      45.442  30.266  30.329  1.00  0.00     0.049 A 
ATOM     60  H   UNL A   1      44.532  28.470  29.695  1.00  0.00     0.167 HD
ATOM     61  C   UNL A   1      43.035  30.829  30.150  1.00  0.00     0.074 A 
ATOM     62  C   UNL A   1      41.917  31.744  30.246  1.00  0.00     0.031 C 
ATOM     63  C   UNL A   1      44.323  31.169  30.402  1.00  0.00     0.037 A 
BRANCH  50  64
ATOM     64  C   UNL A   1      48.321  26.513  29.707  1.00  0.00     0.057 A 
ATOM     65  C   UNL A   1      49.232  26.676  28.655  1.00  0.00     0.134 A 
ATOM     66  C   UNL A   1      48.787  25.897  30.874  1.00  0.00     0.134 A 
ATOM     67  F   UNL A   1      48.845  27.246  27.504  1.00  0.00    -0.206 F 
ATOM     68  C   UNL A   1      50.548  26.219  28.750  1.00  0.00     0.040 A 
ATOM     69  C   UNL A   1      50.107  25.458  30.992  1.00  0.00     0.040 A 
ATOM     70  F   UNL A   1      47.968  25.715  31.922  1.00  0.00    -0.206 F 
ATOM     71  C   UNL A   1      50.989  25.613  29.924  1.00  0.00     0.006 A 
ENDBRANCH  50  64
BRANCH  51  72
ATOM     72  C   UNL A   1      38.740  29.206  29.157  1.00  0.00     0.057 A 
ATOM     73  C   UNL A   1      37.919  29.144  30.288  1.00  0.00     0.134 A 
ATOM     74  C   UNL A   1      38.168  29.664  27.965  1.00  0.00     0.134 A 
ATOM     75  F   UNL A   1      38.409  28.695  31.453  1.00  0.00    -0.206 F 
ATOM     76  C   UNL A   1      36.572  29.504  30.233  1.00  0.00     0.040 A 
ATOM     77  C   UNL A   1      36.828  30.048  27.901  1.00  0.00     0.040 A 
ATOM     78  F   UNL A   1      38.907  29.752  26.849  1.00  0.00    -0.206 F 
ATOM     79  C   UNL A   1      36.024  29.963  29.037  1.00  0.00     0.006 A 
ENDBRANCH  51  72
BRANCH  63  80
ATOM     80  C   UNL A   1      44.596  32.599  30.757  1.00  0.00     0.057 A 
ATOM     81  C   UNL A   1      44.847  33.569  29.780  1.00  0.00     0.134 A 
ATOM     82  C   UNL A   1      44.582  33.013  32.095  1.00  0.00     0.134 A 
ATOM     83  F   UNL A   1      44.887  33.233  28.482  1.00  0.00    -0.206 F 
ATOM     84  C   UNL A   1      45.100  34.898  30.124  1.00  0.00     0.040 A 
ATOM     85  C   UNL A   1      44.811  34.343  32.450  1.00  0.00     0.040 A 
ATOM     86  F   UNL A   1      44.340  32.132  33.079  1.00  0.00    -0.206 F 
ATOM     87  C   UNL A   1      45.077  35.289  31.461  1.00  0.00     0.006 A 
ENDBRANCH  63  80
ENDBRANCH  37  38
ENDBRANCH  29  32
ENDBRANCH  27  28
ENDBRANCH  26  27
ENDBRANCH   1  26
TORSDOF 15
ENDMDL
MODEL 2
REMARK VINA RESULT:     -11.1      3.806      8.619
REMARK SMILES CCC[NH2+][C@]1(C(=O)NCCCNC(=O)c2ccc(-c3c4nc(c(-c5c(F)cccc5F)c5ccc([nH]5)c(-c5c(F)cccc5F)c5nc(c(-c6c(F)cccc6F)c6ccc3[nH]6)C=C5)C=C4)cc2)CC[C@H](n2nc(C)c(CC)c2C)C1
REMARK SMILES IDX 9 1 8 2 6 3 7 4 5 6 69 7 81 8 70 9 71 10 4 11 3 14 2 15 1 16
REMARK SMILES IDX 72 17 73 18 79 19 74 20 76 21 80 22 75 23 77 24 78 25 10 26
REMARK SMILES IDX 11 27 12 28 13 29 14 31 15 32 16 33 68 34 17 35 67 36 18 37
REMARK SMILES IDX 19 38 20 39 61 40 21 41 66 42 60 43 62 44 22 45 65 46 59 47
REMARK SMILES IDX 58 48 23 50 49 51 32 52 48 53 33 54 36 55 47 56 63 57 34 58
REMARK SMILES IDX 35 59 46 61 64 62 37 63 24 64 25 65 30 66 26 67 27 68 29 69
REMARK SMILES IDX 31 70 28 71 50 72 51 73 56 74 52 75 53 76 55 77 57 78 54 79
REMARK SMILES IDX 38 80 39 81 44 82 40 83 41 84 43 85 45 86 42 87
REMARK H PARENT 8 5 4 12 4 13 12 30 62 49 36 60
REMARK Flexibility Score: inf
ROOT
ATOM      1  C   UNL A   1      31.511  30.193  25.798  1.00  0.00     0.118 C 
ENDROOT
BRANCH   1   2
ATOM      2  N   UNL A   1      32.445  30.052  24.696  1.00  0.00    -0.351 N 
ATOM      3  C   UNL A   1      32.761  28.967  23.934  1.00  0.00     0.281 C 
ATOM      4  O   UNL A   1      33.678  29.122  23.119  1.00  0.00    -0.268 OA
ATOM      5  H   UNL A   1      32.929  30.876  24.460  1.00  0.00     0.163 HD
BRANCH   3   6
ATOM      6  C   UNL A   1      31.998  27.615  24.048  1.00  0.00     0.177 C 
ATOM      7  C   UNL A   1      30.523  27.763  23.636  1.00  0.00     0.081 C 
ATOM      8  C   UNL A   1      32.460  26.653  22.932  1.00  0.00     0.106 C 
ATOM      9  C   UNL A   1      30.082  26.350  23.234  1.00  0.00     0.034 C 
ATOM     10  C   UNL A   1      31.358  25.597  22.762  1.00  0.00     0.114 C 
BRANCH   6  11
ATOM     11  N   UNL A   1      32.081  27.055  25.420  1.00  0.00    -0.334 N 
ATOM     12  H   UNL A   1      31.644  27.720  26.059  1.00  0.00     0.347 HD
ATOM     13  H   UNL A   1      31.608  26.152  25.387  1.00  0.00     0.347 HD
BRANCH  11  14
ATOM     14  C   UNL A   1      33.436  26.789  25.903  1.00  0.00     0.261 C 
BRANCH  14  15
ATOM     15  C   UNL A   1      33.721  25.295  26.121  1.00  0.00     0.058 C 
ATOM     16  C   UNL A   1      34.893  24.746  25.319  1.00  0.00     0.010 C 
ENDBRANCH  14  15
ENDBRANCH  11  14
ENDBRANCH   6  11
BRANCH  10  17
ATOM     17  N   UNL A   1      31.578  24.316  23.433  1.00  0.00    -0.266 N 
ATOM     18  N   UNL A   1      30.824  24.031  24.516  1.00  0.00    -0.178 NA
ATOM     19  C   UNL A   1      32.358  23.237  23.064  1.00  0.00     0.039 A 
ATOM     20  C   UNL A   1      31.288  22.861  24.961  1.00  0.00     0.063 A 
ATOM     21  C   UNL A   1      32.355  22.384  24.160  1.00  0.00    -0.004 A 
ATOM     22  C   UNL A   1      33.042  23.070  21.756  1.00  0.00     0.066 C 
ATOM     23  C   UNL A   1      30.647  22.226  26.139  1.00  0.00     0.069 C 
BRANCH  21  24
ATOM     24  C   UNL A   1      33.203  21.173  24.382  1.00  0.00     0.036 C 
ATOM     25  C   UNL A   1      32.523  19.888  23.921  1.00  0.00     0.009 C 
ENDBRANCH  21  24
ENDBRANCH  10  17
ENDBRANCH   3   6
ENDBRANCH   1   2
BRANCH   1  26
ATOM     26  C   UNL A   1      31.401  31.630  26.303  1.00  0.00     0.042 C 
BRANCH  26  27
ATOM     27  C   UNL A   1      32.574  32.112  27.148  1.00  0.00     0.118 C 
BRANCH  27  28
ATOM     28  N   UNL A   1      32.443  33.507  27.530  1.00  0.00    -0.352 N 
ATOM     29  C   UNL A   1      33.134  34.256  28.444  1.00  0.00     0.251 C 
ATOM     30  H   UNL A   1      31.738  33.997  27.048  1.00  0.00     0.163 HD
ATOM     31  O   UNL A   1      32.689  35.366  28.750  1.00  0.00    -0.269 OA
BRANCH  29  32
ATOM     32  C   UNL A   1      34.391  33.786  29.072  1.00  0.00     0.039 A 
ATOM     33  C   UNL A   1      35.599  34.068  28.420  1.00  0.00     0.014 A 
ATOM     34  C   UNL A   1      34.403  32.983  30.217  1.00  0.00     0.014 A 
ATOM     35  C   UNL A   1      36.803  33.559  28.914  1.00  0.00     0.010 A 
ATOM     36  C   UNL A   1      35.615  32.536  30.752  1.00  0.00     0.010 A 
ATOM     37  C   UNL A   1      36.823  32.792  30.089  1.00  0.00    -0.014 A 
BRANCH  37  38
ATOM     38  C   UNL A   1      38.093  32.199  30.586  1.00  0.00     0.031 A 
ATOM     39  C   UNL A   1      38.625  30.930  29.974  1.00  0.00     0.074 A 
ATOM     40  C   UNL A   1      38.764  32.787  31.594  1.00  0.00     0.049 A 
ATOM     41  N   UNL A   1      39.705  30.253  30.278  1.00  0.00    -0.248 NA
ATOM     42  C   UNL A   1      37.827  30.328  28.895  1.00  0.00     0.031 C 
ATOM     43  C   UNL A   1      38.339  33.996  32.302  1.00  0.00     0.029 A 
ATOM     44  N   UNL A   1      39.947  32.445  32.199  1.00  0.00    -0.354 N 
ATOM     45  C   UNL A   1      39.702  29.140  29.445  1.00  0.00     0.074 A 
ATOM     46  C   UNL A   1      38.491  29.207  28.655  1.00  0.00     0.031 C 
ATOM     47  C   UNL A   1      39.261  34.309  33.228  1.00  0.00     0.029 A 
ATOM     48  C   UNL A   1      40.329  33.313  33.193  1.00  0.00     0.049 A 
ATOM     49  H   UNL A   1      40.473  31.653  31.945  1.00  0.00     0.167 HD
ATOM     50  C   UNL A   1      40.632  28.161  29.328  1.00  0.00     0.037 A 
ATOM     51  C   UNL A   1      41.420  33.312  33.981  1.00  0.00     0.037 A 
ATOM     52  C   UNL A   1      41.856  28.111  30.083  1.00  0.00     0.049 A 
ATOM     53  C   UNL A   1      42.460  32.241  33.803  1.00  0.00     0.074 A 
ATOM     54  C   UNL A   1      42.882  27.185  30.004  1.00  0.00     0.029 A 
ATOM     55  N   UNL A   1      42.225  29.035  31.047  1.00  0.00    -0.354 N 
ATOM     56  N   UNL A   1      42.466  31.224  32.976  1.00  0.00    -0.248 NA
ATOM     57  C   UNL A   1      43.653  32.328  34.658  1.00  0.00     0.031 C 
ATOM     58  C   UNL A   1      43.862  27.537  30.939  1.00  0.00     0.029 A 
ATOM     59  C   UNL A   1      43.462  28.701  31.573  1.00  0.00     0.049 A 
ATOM     60  H   UNL A   1      41.687  29.814  31.318  1.00  0.00     0.167 HD
ATOM     61  C   UNL A   1      43.674  30.571  33.186  1.00  0.00     0.074 A 
ATOM     62  C   UNL A   1      44.377  31.311  34.213  1.00  0.00     0.031 C 
ATOM     63  C   UNL A   1      44.157  29.458  32.582  1.00  0.00     0.037 A 
BRANCH  50  64
ATOM     64  C   UNL A   1      40.358  27.065  28.340  1.00  0.00     0.057 A 
ATOM     65  C   UNL A   1      40.957  27.049  27.073  1.00  0.00     0.134 A 
ATOM     66  C   UNL A   1      39.506  26.003  28.665  1.00  0.00     0.134 A 
ATOM     67  F   UNL A   1      41.773  28.045  26.695  1.00  0.00    -0.206 F 
ATOM     68  C   UNL A   1      40.697  26.031  26.155  1.00  0.00     0.040 A 
ATOM     69  C   UNL A   1      39.256  24.966  27.765  1.00  0.00     0.040 A 
ATOM     70  F   UNL A   1      38.905  25.954  29.863  1.00  0.00    -0.206 F 
ATOM     71  C   UNL A   1      39.848  24.982  26.502  1.00  0.00     0.006 A 
ENDBRANCH  50  64
BRANCH  51  72
ATOM     72  C   UNL A   1      41.613  34.392  34.980  1.00  0.00     0.057 A 
ATOM     73  C   UNL A   1      41.215  34.221  36.310  1.00  0.00     0.134 A 
ATOM     74  C   UNL A   1      42.194  35.616  34.630  1.00  0.00     0.134 A 
ATOM     75  F   UNL A   1      40.635  33.075  36.699  1.00  0.00    -0.206 F 
ATOM     76  C   UNL A   1      41.370  35.236  37.256  1.00  0.00     0.040 A 
ATOM     77  C   UNL A   1      42.375  36.631  35.570  1.00  0.00     0.040 A 
ATOM     78  F   UNL A   1      42.602  35.837  33.371  1.00  0.00    -0.206 F 
ATOM     79  C   UNL A   1      41.956  36.445  36.886  1.00  0.00     0.006 A 
ENDBRANCH  51  72
BRANCH  63  80
ATOM     80  C   UNL A   1      45.527  29.003  32.981  1.00  0.00     0.057 A 
ATOM     81  C   UNL A   1      46.681  29.490  32.354  1.00  0.00     0.134 A 
ATOM     82  C   UNL A   1      45.694  28.083  34.025  1.00  0.00     0.134 A 
ATOM     83  F   UNL A   1      46.587  30.362  31.340  1.00  0.00    -0.206 F 
ATOM     84  C   UNL A   1      47.952  29.058  32.736  1.00  0.00     0.040 A 
ATOM     85  C   UNL A   1      46.961  27.662  34.430  1.00  0.00     0.040 A 
ATOM     86  F   UNL A   1      44.629  27.585  34.671  1.00  0.00    -0.206 F 
ATOM     87  C   UNL A   1      48.095  28.146  33.780  1.00  0.00     0.006 A 
ENDBRANCH  63  80
ENDBRANCH  37  38
ENDBRANCH  29  32
ENDBRANCH  27  28
ENDBRANCH  26  27
ENDBRANCH   1  26
TORSDOF 15
ENDMDL
MODEL 3
REMARK VINA RESULT:     -11.1      4.257      9.088
REMARK SMILES CCC[NH2+][C@]1(C(=O)NCCCNC(=O)c2ccc(-c3c4nc(c(-c5c(F)cccc5F)c5ccc([nH]5)c(-c5c(F)cccc5F)c5nc(c(-c6c(F)cccc6F)c6ccc3[nH]6)C=C5)C=C4)cc2)CC[C@H](n2nc(C)c(CC)c2C)C1
REMARK SMILES IDX 9 1 8 2 6 3 7 4 5 6 69 7 81 8 70 9 71 10 4 11 3 14 2 15 1 16
REMARK SMILES IDX 72 17 73 18 79 19 74 20 76 21 80 22 75 23 77 24 78 25 10 26
REMARK SMILES IDX 11 27 12 28 13 29 14 31 15 32 16 33 68 34 17 35 67 36 18 37
REMARK SMILES IDX 19 38 20 39 61 40 21 41 66 42 60 43 62 44 22 45 65 46 59 47
REMARK SMILES IDX 58 48 23 50 49 51 32 52 48 53 33 54 36 55 47 56 63 57 34 58
REMARK SMILES IDX 35 59 46 61 64 62 37 63 24 64 25 65 30 66 26 67 27 68 29 69
REMARK SMILES IDX 31 70 28 71 50 72 51 73 56 74 52 75 53 76 55 77 57 78 54 79
REMARK SMILES IDX 38 80 39 81 44 82 40 83 41 84 43 85 45 86 42 87
REMARK H PARENT 8 5 4 12 4 13 12 30 62 49 36 60
REMARK Flexibility Score: inf
ROOT
ATOM      1  C   UNL A   1      31.403  30.250  25.870  1.00  0.00     0.118 C 
ENDROOT
BRANCH   1   2
ATOM      2  N   UNL A   1      32.338  30.113  24.770  1.00  0.00    -0.351 N 
ATOM      3  C   UNL A   1      32.665  29.027  24.011  1.00  0.00     0.281 C 
ATOM      4  O   UNL A   1      33.581  29.187  23.197  1.00  0.00    -0.268 OA
ATOM      5  H   UNL A   1      32.816  30.939  24.531  1.00  0.00     0.163 HD
BRANCH   3   6
ATOM      6  C   UNL A   1      31.911  27.670  24.129  1.00  0.00     0.177 C 
ATOM      7  C   UNL A   1      30.425  27.815  23.759  1.00  0.00     0.081 C 
ATOM      8  C   UNL A   1      32.348  26.725  22.988  1.00  0.00     0.106 C 
ATOM      9  C   UNL A   1      29.980  26.405  23.351  1.00  0.00     0.034 C 
ATOM     10  C   UNL A   1      31.247  25.664  22.835  1.00  0.00     0.114 C 
BRANCH   6  11
ATOM     11  N   UNL A   1      32.034  27.093  25.492  1.00  0.00    -0.334 N 
ATOM     12  H   UNL A   1      31.614  27.749  26.150  1.00  0.00     0.347 HD
ATOM     13  H   UNL A   1      31.563  26.189  25.460  1.00  0.00     0.347 HD
BRANCH  11  14
ATOM     14  C   UNL A   1      33.403  26.825  25.932  1.00  0.00     0.261 C 
BRANCH  14  15
ATOM     15  C   UNL A   1      33.716  25.327  26.066  1.00  0.00     0.058 C 
ATOM     16  C   UNL A   1      34.889  24.843  25.225  1.00  0.00     0.010 C 
ENDBRANCH  14  15
ENDBRANCH  11  14
ENDBRANCH   6  11
BRANCH  10  17
ATOM     17  N   UNL A   1      31.492  24.376  23.483  1.00  0.00    -0.266 N 
ATOM     18  N   UNL A   1      30.743  24.058  24.561  1.00  0.00    -0.178 NA
ATOM     19  C   UNL A   1      32.293  23.320  23.097  1.00  0.00     0.039 A 
ATOM     20  C   UNL A   1      31.230  22.890  24.986  1.00  0.00     0.063 A 
ATOM     21  C   UNL A   1      32.306  22.448  24.178  1.00  0.00    -0.004 A 
ATOM     22  C   UNL A   1      32.981  23.190  21.786  1.00  0.00     0.066 C 
ATOM     23  C   UNL A   1      30.600  22.221  26.152  1.00  0.00     0.069 C 
BRANCH  21  24
ATOM     24  C   UNL A   1      33.178  21.250  24.379  1.00  0.00     0.036 C 
ATOM     25  C   UNL A   1      32.600  19.990  23.741  1.00  0.00     0.009 C 
ENDBRANCH  21  24
ENDBRANCH  10  17
ENDBRANCH   3   6
ENDBRANCH   1   2
BRANCH   1  26
ATOM     26  C   UNL A   1      31.345  31.670  26.427  1.00  0.00     0.042 C 
BRANCH  26  27
ATOM     27  C   UNL A   1      32.682  32.242  26.885  1.00  0.00     0.118 C 
BRANCH  27  28
ATOM     28  N   UNL A   1      32.559  33.595  27.396  1.00  0.00    -0.352 N 
ATOM     29  C   UNL A   1      33.199  34.228  28.427  1.00  0.00     0.251 C 
ATOM     30  H   UNL A   1      31.902  34.153  26.919  1.00  0.00     0.163 HD
ATOM     31  O   UNL A   1      32.761  35.316  28.812  1.00  0.00    -0.269 OA
BRANCH  29  32
ATOM     32  C   UNL A   1      34.396  33.658  29.090  1.00  0.00     0.039 A 
ATOM     33  C   UNL A   1      35.658  34.061  28.634  1.00  0.00     0.014 A 
ATOM     34  C   UNL A   1      34.309  32.659  30.065  1.00  0.00     0.014 A 
ATOM     35  C   UNL A   1      36.816  33.478  29.153  1.00  0.00     0.010 A 
ATOM     36  C   UNL A   1      35.469  32.129  30.637  1.00  0.00     0.010 A 
ATOM     37  C   UNL A   1      36.733  32.509  30.165  1.00  0.00    -0.014 A 
BRANCH  37  38
ATOM     38  C   UNL A   1      37.959  31.843  30.679  1.00  0.00     0.031 A 
ATOM     39  C   UNL A   1      38.534  32.243  32.013  1.00  0.00     0.074 A 
ATOM     40  C   UNL A   1      38.568  30.892  29.947  1.00  0.00     0.049 A 
ATOM     41  N   UNL A   1      39.599  31.790  32.626  1.00  0.00    -0.248 NA
ATOM     42  C   UNL A   1      37.832  33.308  32.745  1.00  0.00     0.031 C 
ATOM     43  C   UNL A   1      38.140  30.439  28.623  1.00  0.00     0.029 A 
ATOM     44  N   UNL A   1      39.680  30.133  30.216  1.00  0.00    -0.354 N 
ATOM     45  C   UNL A   1      39.705  32.527  33.798  1.00  0.00     0.074 A 
ATOM     46  C   UNL A   1      38.624  33.489  33.792  1.00  0.00     0.031 C 
ATOM     47  C   UNL A   1      38.964  29.463  28.205  1.00  0.00     0.029 A 
ATOM     48  C   UNL A   1      39.989  29.236  29.222  1.00  0.00     0.049 A 
ATOM     49  H   UNL A   1      40.205  30.221  31.043  1.00  0.00     0.167 HD
ATOM     50  C   UNL A   1      40.606  32.404  34.803  1.00  0.00     0.037 A 
ATOM     51  C   UNL A   1      40.979  28.329  29.142  1.00  0.00     0.037 A 
ATOM     52  C   UNL A   1      41.660  31.425  34.833  1.00  0.00     0.049 A 
ATOM     53  C   UNL A   1      41.940  28.180  30.288  1.00  0.00     0.074 A 
ATOM     54  C   UNL A   1      42.594  31.191  35.828  1.00  0.00     0.029 A 
ATOM     55  N   UNL A   1      41.910  30.506  33.826  1.00  0.00    -0.354 N 
ATOM     56  N   UNL A   1      41.996  28.851  31.412  1.00  0.00    -0.248 NA
ATOM     57  C   UNL A   1      42.966  27.134  30.161  1.00  0.00     0.031 C 
ATOM     58  C   UNL A   1      43.425  30.145  35.409  1.00  0.00     0.029 A 
ATOM     59  C   UNL A   1      42.985  29.705  34.173  1.00  0.00     0.049 A 
ATOM     60  H   UNL A   1      41.398  30.434  32.987  1.00  0.00     0.167 HD
ATOM     61  C   UNL A   1      43.037  28.289  32.140  1.00  0.00     0.074 A 
ATOM     62  C   UNL A   1      43.581  27.217  31.332  1.00  0.00     0.031 C 
ATOM     63  C   UNL A   1      43.502  28.630  33.366  1.00  0.00     0.037 A 
BRANCH  50  64
ATOM     64  C   UNL A   1      40.484  33.355  35.959  1.00  0.00     0.057 A 
ATOM     65  C   UNL A   1      39.634  33.092  37.041  1.00  0.00     0.134 A 
ATOM     66  C   UNL A   1      41.239  34.532  36.002  1.00  0.00     0.134 A 
ATOM     67  F   UNL A   1      38.872  31.988  37.055  1.00  0.00    -0.206 F 
ATOM     68  C   UNL A   1      39.518  33.980  38.112  1.00  0.00     0.040 A 
ATOM     69  C   UNL A   1      41.152  35.417  37.078  1.00  0.00     0.040 A 
ATOM     70  F   UNL A   1      42.078  34.840  35.001  1.00  0.00    -0.206 F 
ATOM     71  C   UNL A   1      40.284  35.144  38.134  1.00  0.00     0.006 A 
ENDBRANCH  50  64
BRANCH  51  72
ATOM     72  C   UNL A   1      41.085  27.452  27.950  1.00  0.00     0.057 A 
ATOM     73  C   UNL A   1      41.823  27.846  26.829  1.00  0.00     0.134 A 
ATOM     74  C   UNL A   1      40.451  26.205  27.902  1.00  0.00     0.134 A 
ATOM     75  F   UNL A   1      42.436  29.039  26.811  1.00  0.00    -0.206 F 
ATOM     76  C   UNL A   1      41.913  27.041  25.692  1.00  0.00     0.040 A 
ATOM     77  C   UNL A   1      40.551  25.380  26.781  1.00  0.00     0.040 A 
ATOM     78  F   UNL A   1      39.735  25.769  28.949  1.00  0.00    -0.206 F 
ATOM     79  C   UNL A   1      41.279  25.801  25.669  1.00  0.00     0.006 A 
ENDBRANCH  51  72
BRANCH  63  80
ATOM     80  C   UNL A   1      44.620  27.806  33.928  1.00  0.00     0.057 A 
ATOM     81  C   UNL A   1      44.382  26.637  34.660  1.00  0.00     0.134 A 
ATOM     82  C   UNL A   1      45.954  28.176  33.710  1.00  0.00     0.134 A 
ATOM     83  F   UNL A   1      43.128  26.237  34.914  1.00  0.00    -0.206 F 
ATOM     84  C   UNL A   1      45.433  25.877  35.178  1.00  0.00     0.040 A 
ATOM     85  C   UNL A   1      47.012  27.413  34.203  1.00  0.00     0.040 A 
ATOM     86  F   UNL A   1      46.249  29.282  33.010  1.00  0.00    -0.206 F 
ATOM     87  C   UNL A   1      46.752  26.262  34.946  1.00  0.00     0.006 A 
ENDBRANCH  63  80
ENDBRANCH  37  38
ENDBRANCH  29  32
ENDBRANCH  27  28
ENDBRANCH  26  27
ENDBRANCH   1  26
TORSDOF 15
ENDMDL
