MODEL 1
REMARK VINA RESULT:     -11.7      0.000      0.000
REMARK SMILES CC(=O)N1C[C@@H]2C[N@H+](CC(=O)NCc3ccccc3)C[C@]2(C(=O)NCCCNC(=O)c2ccc(-c3c4nc(c(-c5c(F)cccc5F)c5ccc([nH]5)c(-c5c(F)cccc5F)c5nc(c(-c6c(F)cccc6F)c6ccc3[nH]6)C=C5)C=C4)cc2)C1
REMARK SMILES IDX 25 1 24 2 22 3 23 4 21 6 4 7 5 8 85 9 6 10 7 11 20 12 8 13
REMARK SMILES IDX 2 15 1 16 3 17 9 18 10 19 11 20 12 21 13 23 14 24 15 25
REMARK SMILES IDX 19 26 16 27 18 28 17 29 26 30 27 31 28 32 29 33 30 35 31 36
REMARK SMILES IDX 32 37 84 38 33 39 83 40 34 41 35 42 36 43 77 44 37 45 82 46
REMARK SMILES IDX 76 47 78 48 38 49 81 50 75 51 74 52 39 54 65 55 48 56 64 57
REMARK SMILES IDX 49 58 52 59 63 60 79 61 50 62 51 63 62 65 80 66 53 67 40 68
REMARK SMILES IDX 41 69 46 70 42 71 43 72 45 73 47 74 44 75 66 76 67 77 72 78
REMARK SMILES IDX 68 79 69 80 71 81 73 82 70 83 54 84 55 85 60 86 56 87 57 88
REMARK SMILES IDX 59 89 61 90 58 91
REMARK H PARENT 24 5 8 14 12 22 28 34 78 53 52 64
REMARK Flexibility Score: inf
ROOT
ATOM      1  C   UNL A   1      32.270  27.225  26.563  1.00  0.00     0.117 C 
ENDROOT
BRANCH   1   2
ATOM      2  N   UNL A   1      30.966  26.617  26.838  1.00  0.00    -0.355 N 
ATOM      3  C   UNL A   1      30.390  25.431  26.386  1.00  0.00     0.234 C 
ATOM      4  O   UNL A   1      29.226  25.223  26.733  1.00  0.00    -0.274 OA
ATOM      5  H   UNL A   1      30.396  27.137  27.449  1.00  0.00     0.163 HD
BRANCH   3   6
ATOM      6  C   UNL A   1      31.215  24.451  25.456  1.00  0.00     0.125 C 
ATOM      7  N   UNL A   1      32.277  22.266  26.235  1.00  0.00    -0.341 N 
ATOM      8  C   UNL A   1      31.815  21.913  24.952  1.00  0.00     0.130 C 
ATOM      9  C   UNL A   1      31.564  23.459  26.669  1.00  0.00     0.143 C 
ATOM     10  C   UNL A   1      30.840  23.022  24.621  1.00  0.00     0.087 C 
ATOM     11  C   UNL A   1      30.961  23.243  23.101  1.00  0.00     0.269 C 
ATOM     12  C   UNL A   1      30.490  25.077  24.223  1.00  0.00     0.282 C 
ATOM     13  N   UNL A   1      31.171  24.668  23.011  1.00  0.00    -0.326 N 
ATOM     14  H   UNL A   1      30.828  25.065  22.136  1.00  0.00     0.348 HD
BRANCH   7  15
ATOM     15  C   UNL A   1      33.551  21.896  26.609  1.00  0.00     0.219 C 
ATOM     16  C   UNL A   1      34.153  22.680  27.739  1.00  0.00     0.114 C 
ATOM     17  O   UNL A   1      34.124  20.895  26.176  1.00  0.00    -0.275 OA
ENDBRANCH   7  15
BRANCH  13  18
ATOM     18  C   UNL A   1      32.591  25.156  22.918  1.00  0.00     0.363 C 
BRANCH  18  19
ATOM     19  C   UNL A   1      33.686  24.124  22.595  1.00  0.00     0.275 C 
ATOM     20  O   UNL A   1      33.690  23.626  21.459  1.00  0.00    -0.268 OA
ATOM     21  N   UNL A   1      34.639  23.659  23.452  1.00  0.00    -0.347 N 
ATOM     22  H   UNL A   1      34.872  22.722  23.255  1.00  0.00     0.164 HD
BRANCH  21  23
ATOM     23  C   UNL A   1      35.415  24.175  24.589  1.00  0.00     0.151 C 
BRANCH  23  24
ATOM     24  C   UNL A   1      36.628  23.319  24.959  1.00  0.00    -0.029 A 
ATOM     25  C   UNL A   1      36.775  22.017  24.469  1.00  0.00     0.005 A 
ATOM     26  C   UNL A   1      37.670  23.778  25.779  1.00  0.00     0.005 A 
ATOM     27  C   UNL A   1      37.816  21.179  24.911  1.00  0.00     0.000 A 
ATOM     28  C   UNL A   1      38.678  22.937  26.270  1.00  0.00     0.000 A 
ATOM     29  C   UNL A   1      38.735  21.621  25.855  1.00  0.00     0.000 A 
ENDBRANCH  23  24
ENDBRANCH  21  23
ENDBRANCH  18  19
ENDBRANCH  13  18
ENDBRANCH   3   6
ENDBRANCH   1   2
BRANCH   1  30
ATOM     30  C   UNL A   1      32.373  28.738  26.723  1.00  0.00     0.042 C 
BRANCH  30  31
ATOM     31  C   UNL A   1      33.775  29.162  27.160  1.00  0.00     0.118 C 
BRANCH  31  32
ATOM     32  N   UNL A   1      33.837  30.390  27.958  1.00  0.00    -0.352 N 
ATOM     33  C   UNL A   1      34.909  30.906  28.661  1.00  0.00     0.251 C 
ATOM     34  H   UNL A   1      33.006  30.916  27.999  1.00  0.00     0.163 HD
ATOM     35  O   UNL A   1      34.788  31.943  29.309  1.00  0.00    -0.269 OA
BRANCH  33  36
ATOM     36  C   UNL A   1      36.189  30.167  28.669  1.00  0.00     0.039 A 
ATOM     37  C   UNL A   1      37.032  30.237  27.558  1.00  0.00     0.014 A 
ATOM     38  C   UNL A   1      36.598  29.500  29.822  1.00  0.00     0.014 A 
ATOM     39  C   UNL A   1      38.335  29.739  27.653  1.00  0.00     0.010 A 
ATOM     40  C   UNL A   1      37.927  29.127  29.958  1.00  0.00     0.010 A 
ATOM     41  C   UNL A   1      38.813  29.239  28.875  1.00  0.00    -0.014 A 
BRANCH  41  42
ATOM     42  C   UNL A   1      40.225  28.815  29.056  1.00  0.00     0.031 A 
ATOM     43  C   UNL A   1      41.221  29.779  29.643  1.00  0.00     0.074 A 
ATOM     44  C   UNL A   1      40.631  27.611  28.603  1.00  0.00     0.049 A 
ATOM     45  N   UNL A   1      42.517  29.653  29.775  1.00  0.00    -0.248 NA
ATOM     46  C   UNL A   1      40.699  31.081  30.092  1.00  0.00     0.031 C 
ATOM     47  C   UNL A   1      39.781  26.620  27.938  1.00  0.00     0.029 A 
ATOM     48  N   UNL A   1      41.868  27.020  28.625  1.00  0.00    -0.354 N 
ATOM     49  C   UNL A   1      42.961  30.866  30.286  1.00  0.00     0.074 A 
ATOM     50  C   UNL A   1      41.814  31.741  30.365  1.00  0.00     0.031 C 
ATOM     51  C   UNL A   1      40.512  25.530  27.655  1.00  0.00     0.029 A 
ATOM     52  C   UNL A   1      41.888  25.757  28.082  1.00  0.00     0.049 A 
ATOM     53  H   UNL A   1      42.669  27.458  28.996  1.00  0.00     0.167 HD
ATOM     54  C   UNL A   1      44.206  31.212  30.691  1.00  0.00     0.037 A 
ATOM     55  C   UNL A   1      42.903  24.881  27.951  1.00  0.00     0.037 A 
ATOM     56  C   UNL A   1      45.330  30.317  30.669  1.00  0.00     0.049 A 
ATOM     57  C   UNL A   1      44.265  25.266  28.458  1.00  0.00     0.074 A 
ATOM     58  C   UNL A   1      46.615  30.534  31.133  1.00  0.00     0.029 A 
ATOM     59  N   UNL A   1      45.295  29.025  30.166  1.00  0.00    -0.354 N 
ATOM     60  N   UNL A   1      44.655  26.392  29.009  1.00  0.00    -0.248 NA
ATOM     61  C   UNL A   1      45.328  24.258  28.334  1.00  0.00     0.031 C 
ATOM     62  C   UNL A   1      47.367  29.383  30.879  1.00  0.00     0.029 A 
ATOM     63  C   UNL A   1      46.540  28.434  30.297  1.00  0.00     0.049 A 
ATOM     64  H   UNL A   1      44.503  28.593  29.772  1.00  0.00     0.167 HD
ATOM     65  C   UNL A   1      45.996  26.217  29.322  1.00  0.00     0.074 A 
ATOM     66  C   UNL A   1      46.348  24.872  28.915  1.00  0.00     0.031 C 
ATOM     67  C   UNL A   1      46.862  27.090  29.893  1.00  0.00     0.037 A 
BRANCH  54  68
ATOM     68  C   UNL A   1      44.399  32.606  31.214  1.00  0.00     0.057 A 
ATOM     69  C   UNL A   1      44.773  33.666  30.376  1.00  0.00     0.134 A 
ATOM     70  C   UNL A   1      44.203  32.897  32.569  1.00  0.00     0.134 A 
ATOM     71  F   UNL A   1      44.994  33.454  29.069  1.00  0.00    -0.206 F 
ATOM     72  C   UNL A   1      44.979  34.954  30.871  1.00  0.00     0.040 A 
ATOM     73  C   UNL A   1      44.375  34.188  33.071  1.00  0.00     0.040 A 
ATOM     74  F   UNL A   1      43.842  31.933  33.429  1.00  0.00    -0.206 F 
ATOM     75  C   UNL A   1      44.774  35.220  32.223  1.00  0.00     0.006 A 
ENDBRANCH  54  68
BRANCH  55  76
ATOM     76  C   UNL A   1      42.662  23.539  27.361  1.00  0.00     0.057 A 
ATOM     77  C   UNL A   1      42.788  23.327  25.982  1.00  0.00     0.134 A 
ATOM     78  C   UNL A   1      42.296  22.442  28.149  1.00  0.00     0.134 A 
ATOM     79  F   UNL A   1      43.119  24.343  25.171  1.00  0.00    -0.206 F 
ATOM     80  C   UNL A   1      42.537  22.080  25.406  1.00  0.00     0.040 A 
ATOM     81  C   UNL A   1      42.068  21.183  27.589  1.00  0.00     0.040 A 
ATOM     82  F   UNL A   1      42.169  22.574  29.478  1.00  0.00    -0.206 F 
ATOM     83  C   UNL A   1      42.179  21.002  26.212  1.00  0.00     0.006 A 
ENDBRANCH  55  76
BRANCH  67  84
ATOM     84  C   UNL A   1      48.258  26.605  30.141  1.00  0.00     0.057 A 
ATOM     85  C   UNL A   1      48.613  25.953  31.328  1.00  0.00     0.134 A 
ATOM     86  C   UNL A   1      49.247  26.756  29.162  1.00  0.00     0.134 A 
ATOM     87  F   UNL A   1      47.713  25.788  32.309  1.00  0.00    -0.206 F 
ATOM     88  C   UNL A   1      49.913  25.490  31.542  1.00  0.00     0.040 A 
ATOM     89  C   UNL A   1      50.541  26.274  29.353  1.00  0.00     0.040 A 
ATOM     90  F   UNL A   1      48.967  27.361  27.997  1.00  0.00    -0.206 F 
ATOM     91  C   UNL A   1      50.879  25.645  30.550  1.00  0.00     0.006 A 
ENDBRANCH  67  84
ENDBRANCH  41  42
ENDBRANCH  33  36
ENDBRANCH  31  32
ENDBRANCH  30  31
ENDBRANCH   1  30
TORSDOF 15
ENDMDL
MODEL 2
REMARK VINA RESULT:     -11.7      1.595      3.610
REMARK SMILES CC(=O)N1C[C@@H]2C[N@H+](CC(=O)NCc3ccccc3)C[C@]2(C(=O)NCCCNC(=O)c2ccc(-c3c4nc(c(-c5c(F)cccc5F)c5ccc([nH]5)c(-c5c(F)cccc5F)c5nc(c(-c6c(F)cccc6F)c6ccc3[nH]6)C=C5)C=C4)cc2)C1
REMARK SMILES IDX 25 1 24 2 22 3 23 4 21 6 4 7 5 8 85 9 6 10 7 11 20 12 8 13
REMARK SMILES IDX 2 15 1 16 3 17 9 18 10 19 11 20 12 21 13 23 14 24 15 25
REMARK SMILES IDX 19 26 16 27 18 28 17 29 26 30 27 31 28 32 29 33 30 35 31 36
REMARK SMILES IDX 32 37 84 38 33 39 83 40 34 41 35 42 36 43 77 44 37 45 82 46
REMARK SMILES IDX 76 47 78 48 38 49 81 50 75 51 74 52 39 54 65 55 48 56 64 57
REMARK SMILES IDX 49 58 52 59 63 60 79 61 50 62 51 63 62 65 80 66 53 67 40 68
REMARK SMILES IDX 41 69 46 70 42 71 43 72 45 73 47 74 44 75 66 76 67 77 72 78
REMARK SMILES IDX 68 79 69 80 71 81 73 82 70 83 54 84 55 85 60 86 56 87 57 88
REMARK SMILES IDX 59 89 61 90 58 91
REMARK H PARENT 24 5 8 14 12 22 28 34 78 53 52 64
REMARK Flexibility Score: inf
ROOT
ATOM      1  C   UNL A   1      32.393  26.771  26.449  1.00  0.00     0.117 C 
ENDROOT
BRANCH   1   2
ATOM      2  N   UNL A   1      31.525  25.710  26.965  1.00  0.00    -0.355 N 
ATOM      3  C   UNL A   1      31.326  24.397  26.540  1.00  0.00     0.234 C 
ATOM      4  O   UNL A   1      30.456  23.759  27.134  1.00  0.00    -0.274 OA
ATOM      5  H   UNL A   1      30.990  25.968  27.749  1.00  0.00     0.163 HD
BRANCH   3   6
ATOM      6  C   UNL A   1      32.172  23.814  25.337  1.00  0.00     0.125 C 
ATOM      7  N   UNL A   1      34.280  22.400  25.600  1.00  0.00    -0.341 N 
ATOM      8  C   UNL A   1      33.657  21.775  24.502  1.00  0.00     0.130 C 
ATOM      9  C   UNL A   1      33.281  23.183  26.312  1.00  0.00     0.143 C 
ATOM     10  C   UNL A   1      32.240  22.304  24.564  1.00  0.00     0.087 C 
ATOM     11  C   UNL A   1      31.779  22.431  23.100  1.00  0.00     0.269 C 
ATOM     12  C   UNL A   1      30.907  23.949  24.433  1.00  0.00     0.282 C 
ATOM     13  N   UNL A   1      31.291  23.789  23.045  1.00  0.00    -0.326 N 
ATOM     14  H   UNL A   1      30.557  23.919  22.348  1.00  0.00     0.348 HD
BRANCH   7  15
ATOM     15  C   UNL A   1      35.631  22.666  25.536  1.00  0.00     0.219 C 
ATOM     16  C   UNL A   1      36.004  24.109  25.354  1.00  0.00     0.114 C 
ATOM     17  O   UNL A   1      36.502  21.826  25.767  1.00  0.00    -0.275 OA
ENDBRANCH   7  15
BRANCH  13  18
ATOM     18  C   UNL A   1      32.239  24.847  22.551  1.00  0.00     0.363 C 
BRANCH  18  19
ATOM     19  C   UNL A   1      31.649  26.030  21.763  1.00  0.00     0.275 C 
ATOM     20  O   UNL A   1      31.777  26.021  20.530  1.00  0.00    -0.268 OA
ATOM     21  N   UNL A   1      31.030  27.125  22.289  1.00  0.00    -0.347 N 
ATOM     22  H   UNL A   1      31.193  27.927  21.740  1.00  0.00     0.164 HD
BRANCH  21  23
ATOM     23  C   UNL A   1      30.185  27.436  23.452  1.00  0.00     0.151 C 
BRANCH  23  24
ATOM     24  C   UNL A   1      29.444  28.770  23.348  1.00  0.00    -0.029 A 
ATOM     25  C   UNL A   1      30.034  29.965  23.774  1.00  0.00     0.005 A 
ATOM     26  C   UNL A   1      28.155  28.892  22.806  1.00  0.00     0.005 A 
ATOM     27  C   UNL A   1      29.309  31.171  23.805  1.00  0.00     0.000 A 
ATOM     28  C   UNL A   1      27.405  30.073  22.884  1.00  0.00     0.000 A 
ATOM     29  C   UNL A   1      27.977  31.213  23.413  1.00  0.00     0.000 A 
ENDBRANCH  23  24
ENDBRANCH  21  23
ENDBRANCH  18  19
ENDBRANCH  13  18
ENDBRANCH   3   6
ENDBRANCH   1   2
BRANCH   1  30
ATOM     30  C   UNL A   1      32.297  28.132  27.130  1.00  0.00     0.042 C 
BRANCH  30  31
ATOM     31  C   UNL A   1      33.592  28.931  26.975  1.00  0.00     0.118 C 
BRANCH  31  32
ATOM     32  N   UNL A   1      33.626  30.212  27.685  1.00  0.00    -0.352 N 
ATOM     33  C   UNL A   1      34.682  30.794  28.360  1.00  0.00     0.251 C 
ATOM     34  H   UNL A   1      32.787  30.726  27.680  1.00  0.00     0.163 HD
ATOM     35  O   UNL A   1      34.538  31.871  28.932  1.00  0.00    -0.269 OA
BRANCH  33  36
ATOM     36  C   UNL A   1      35.973  30.077  28.433  1.00  0.00     0.039 A 
ATOM     37  C   UNL A   1      36.874  30.170  27.370  1.00  0.00     0.014 A 
ATOM     38  C   UNL A   1      36.331  29.410  29.603  1.00  0.00     0.014 A 
ATOM     39  C   UNL A   1      38.178  29.695  27.532  1.00  0.00     0.010 A 
ATOM     40  C   UNL A   1      37.658  29.061  29.808  1.00  0.00     0.010 A 
ATOM     41  C   UNL A   1      38.598  29.196  28.776  1.00  0.00    -0.014 A 
BRANCH  41  42
ATOM     42  C   UNL A   1      40.006  28.795  29.031  1.00  0.00     0.031 A 
ATOM     43  C   UNL A   1      40.944  29.763  29.702  1.00  0.00     0.074 A 
ATOM     44  C   UNL A   1      40.465  27.614  28.571  1.00  0.00     0.049 A 
ATOM     45  N   UNL A   1      42.232  29.660  29.909  1.00  0.00    -0.248 NA
ATOM     46  C   UNL A   1      40.367  31.041  30.153  1.00  0.00     0.031 C 
ATOM     47  C   UNL A   1      39.679  26.624  27.829  1.00  0.00     0.029 A 
ATOM     48  N   UNL A   1      41.712  27.047  28.651  1.00  0.00    -0.354 N 
ATOM     49  C   UNL A   1      42.617  30.867  30.478  1.00  0.00     0.074 A 
ATOM     50  C   UNL A   1      41.448  31.716  30.512  1.00  0.00     0.031 C 
ATOM     51  C   UNL A   1      40.450  25.558  27.561  1.00  0.00     0.029 A 
ATOM     52  C   UNL A   1      41.793  25.801  28.077  1.00  0.00     0.049 A 
ATOM     53  H   UNL A   1      42.479  27.492  29.081  1.00  0.00     0.167 HD
ATOM     54  C   UNL A   1      43.827  31.227  30.967  1.00  0.00     0.037 A 
ATOM     55  C   UNL A   1      42.833  24.950  27.984  1.00  0.00     0.037 A 
ATOM     56  C   UNL A   1      44.970  30.356  30.989  1.00  0.00     0.049 A 
ATOM     57  C   UNL A   1      44.153  25.349  28.582  1.00  0.00     0.074 A 
ATOM     58  C   UNL A   1      46.220  30.586  31.536  1.00  0.00     0.029 A 
ATOM     59  N   UNL A   1      44.995  29.079  30.450  1.00  0.00    -0.354 N 
ATOM     60  N   UNL A   1      44.483  26.466  29.187  1.00  0.00    -0.248 NA
ATOM     61  C   UNL A   1      45.243  24.367  28.496  1.00  0.00     0.031 C 
ATOM     62  C   UNL A   1      47.012  29.458  31.297  1.00  0.00     0.029 A 
ATOM     63  C   UNL A   1      46.242  28.510  30.640  1.00  0.00     0.049 A 
ATOM     64  H   UNL A   1      44.237  28.641  29.998  1.00  0.00     0.167 HD
ATOM     65  C   UNL A   1      45.807  26.310  29.575  1.00  0.00     0.074 A 
ATOM     66  C   UNL A   1      46.213  24.984  29.154  1.00  0.00     0.031 C 
ATOM     67  C   UNL A   1      46.617  27.185  30.221  1.00  0.00     0.037 A 
BRANCH  54  68
ATOM     68  C   UNL A   1      43.958  32.610  31.539  1.00  0.00     0.057 A 
ATOM     69  C   UNL A   1      44.334  33.705  30.747  1.00  0.00     0.134 A 
ATOM     70  C   UNL A   1      43.700  32.853  32.892  1.00  0.00     0.134 A 
ATOM     71  F   UNL A   1      44.613  33.538  29.445  1.00  0.00    -0.206 F 
ATOM     72  C   UNL A   1      44.481  34.983  31.289  1.00  0.00     0.040 A 
ATOM     73  C   UNL A   1      43.813  34.133  33.439  1.00  0.00     0.040 A 
ATOM     74  F   UNL A   1      43.334  31.853  33.708  1.00  0.00    -0.206 F 
ATOM     75  C   UNL A   1      44.214  35.201  32.638  1.00  0.00     0.006 A 
ENDBRANCH  54  68
BRANCH  55  76
ATOM     76  C   UNL A   1      42.657  23.621  27.345  1.00  0.00     0.057 A 
ATOM     77  C   UNL A   1      42.313  22.497  28.106  1.00  0.00     0.134 A 
ATOM     78  C   UNL A   1      42.834  23.435  25.969  1.00  0.00     0.134 A 
ATOM     79  F   UNL A   1      42.146  22.606  29.432  1.00  0.00    -0.206 F 
ATOM     80  C   UNL A   1      42.172  21.234  27.527  1.00  0.00     0.040 A 
ATOM     81  C   UNL A   1      42.671  22.183  25.372  1.00  0.00     0.040 A 
ATOM     82  F   UNL A   1      43.154  24.473  25.181  1.00  0.00    -0.206 F 
ATOM     83  C   UNL A   1      42.348  21.076  26.154  1.00  0.00     0.006 A 
ENDBRANCH  55  76
BRANCH  67  84
ATOM     84  C   UNL A   1      48.006  26.721  30.540  1.00  0.00     0.057 A 
ATOM     85  C   UNL A   1      48.300  26.020  31.716  1.00  0.00     0.134 A 
ATOM     86  C   UNL A   1      49.054  26.945  29.639  1.00  0.00     0.134 A 
ATOM     87  F   UNL A   1      47.341  25.783  32.624  1.00  0.00    -0.206 F 
ATOM     88  C   UNL A   1      49.594  25.578  31.996  1.00  0.00     0.040 A 
ATOM     89  C   UNL A   1      50.346  26.485  29.894  1.00  0.00     0.040 A 
ATOM     90  F   UNL A   1      48.837  27.601  28.489  1.00  0.00    -0.206 F 
ATOM     91  C   UNL A   1      50.620  25.805  31.080  1.00  0.00     0.006 A 
ENDBRANCH  67  84
ENDBRANCH  41  42
ENDBRANCH  33  36
ENDBRANCH  31  32
ENDBRANCH  30  31
ENDBRANCH   1  30
TORSDOF 15
ENDMDL
MODEL 3
REMARK VINA RESULT:     -11.7      2.057      7.165
REMARK SMILES CC(=O)N1C[C@@H]2C[N@H+](CC(=O)NCc3ccccc3)C[C@]2(C(=O)NCCCNC(=O)c2ccc(-c3c4nc(c(-c5c(F)cccc5F)c5ccc([nH]5)c(-c5c(F)cccc5F)c5nc(c(-c6c(F)cccc6F)c6ccc3[nH]6)C=C5)C=C4)cc2)C1
REMARK SMILES IDX 25 1 24 2 22 3 23 4 21 6 4 7 5 8 85 9 6 10 7 11 20 12 8 13
REMARK SMILES IDX 2 15 1 16 3 17 9 18 10 19 11 20 12 21 13 23 14 24 15 25
REMARK SMILES IDX 19 26 16 27 18 28 17 29 26 30 27 31 28 32 29 33 30 35 31 36
REMARK SMILES IDX 32 37 84 38 33 39 83 40 34 41 35 42 36 43 77 44 37 45 82 46
REMARK SMILES IDX 76 47 78 48 38 49 81 50 75 51 74 52 39 54 65 55 48 56 64 57
REMARK SMILES IDX 49 58 52 59 63 60 79 61 50 62 51 63 62 65 80 66 53 67 40 68
REMARK SMILES IDX 41 69 46 70 42 71 43 72 45 73 47 74 44 75 66 76 67 77 72 78
REMARK SMILES IDX 68 79 69 80 71 81 73 82 70 83 54 84 55 85 60 86 56 87 57 88
REMARK SMILES IDX 59 89 61 90 58 91
REMARK H PARENT 24 5 8 14 12 22 28 34 78 53 52 64
REMARK Flexibility Score: inf
ROOT
ATOM      1  C   UNL A   1      36.037  21.338  25.437  1.00  0.00     0.117 C 
ENDROOT
BRANCH   1   2
ATOM      2  N   UNL A   1      34.955  20.607  24.773  1.00  0.00    -0.355 N 
ATOM      3  C   UNL A   1      33.693  21.018  24.349  1.00  0.00     0.234 C 
ATOM      4  O   UNL A   1      32.960  20.141  23.889  1.00  0.00    -0.274 OA
ATOM      5  H   UNL A   1      35.154  19.660  24.596  1.00  0.00     0.163 HD
BRANCH   3   6
ATOM      6  C   UNL A   1      33.259  22.532  24.498  1.00  0.00     0.125 C 
ATOM      7  N   UNL A   1      32.024  23.494  26.514  1.00  0.00    -0.341 N 
ATOM      8  C   UNL A   1      32.909  24.544  26.199  1.00  0.00     0.130 C 
ATOM      9  C   UNL A   1      32.523  22.271  25.902  1.00  0.00     0.143 C 
ATOM     10  C   UNL A   1      33.923  23.878  25.293  1.00  0.00     0.087 C 
ATOM     11  C   UNL A   1      34.336  24.953  24.270  1.00  0.00     0.269 C 
ATOM     12  C   UNL A   1      34.359  22.908  23.456  1.00  0.00     0.282 C 
ATOM     13  N   UNL A   1      34.149  24.272  23.011  1.00  0.00    -0.326 N 
ATOM     14  H   UNL A   1      34.770  24.615  22.278  1.00  0.00     0.348 HD
BRANCH   7  15
ATOM     15  C   UNL A   1      30.705  23.793  26.781  1.00  0.00     0.219 C 
ATOM     16  C   UNL A   1      30.113  24.913  25.975  1.00  0.00     0.114 C 
ATOM     17  O   UNL A   1      29.986  23.107  27.509  1.00  0.00    -0.275 OA
ENDBRANCH   7  15
BRANCH  13  18
ATOM     18  C   UNL A   1      32.844  24.483  22.295  1.00  0.00     0.363 C 
BRANCH  18  19
ATOM     19  C   UNL A   1      32.726  25.697  21.357  1.00  0.00     0.275 C 
ATOM     20  O   UNL A   1      33.075  25.548  20.177  1.00  0.00    -0.268 OA
ATOM     21  N   UNL A   1      32.316  26.951  21.702  1.00  0.00    -0.347 N 
ATOM     22  H   UNL A   1      32.773  27.638  21.166  1.00  0.00     0.164 HD
BRANCH  21  23
ATOM     23  C   UNL A   1      31.375  27.556  22.657  1.00  0.00     0.151 C 
BRANCH  23  24
ATOM     24  C   UNL A   1      32.006  27.945  23.996  1.00  0.00    -0.029 A 
ATOM     25  C   UNL A   1      33.364  28.265  24.094  1.00  0.00     0.005 A 
ATOM     26  C   UNL A   1      31.277  28.030  25.192  1.00  0.00     0.005 A 
ATOM     27  C   UNL A   1      33.977  28.491  25.340  1.00  0.00     0.000 A 
ATOM     28  C   UNL A   1      31.885  28.198  26.443  1.00  0.00     0.000 A 
ATOM     29  C   UNL A   1      33.249  28.402  26.520  1.00  0.00     0.000 A 
ENDBRANCH  23  24
ENDBRANCH  21  23
ENDBRANCH  18  19
ENDBRANCH  13  18
ENDBRANCH   3   6
ENDBRANCH   1   2
BRANCH   1  30
ATOM     30  C   UNL A   1      37.397  21.335  24.745  1.00  0.00     0.042 C 
BRANCH  30  31
ATOM     31  C   UNL A   1      38.540  21.232  25.754  1.00  0.00     0.118 C 
BRANCH  31  32
ATOM     32  N   UNL A   1      39.382  20.039  25.628  1.00  0.00    -0.352 N 
ATOM     33  C   UNL A   1      40.706  19.878  25.988  1.00  0.00     0.251 C 
ATOM     34  H   UNL A   1      38.946  19.248  25.235  1.00  0.00     0.163 HD
ATOM     35  O   UNL A   1      41.280  18.811  25.789  1.00  0.00    -0.269 OA
BRANCH  33  36
ATOM     36  C   UNL A   1      41.440  21.023  26.566  1.00  0.00     0.039 A 
ATOM     37  C   UNL A   1      42.007  21.977  25.718  1.00  0.00     0.014 A 
ATOM     38  C   UNL A   1      41.464  21.205  27.948  1.00  0.00     0.014 A 
ATOM     39  C   UNL A   1      42.492  23.172  26.257  1.00  0.00     0.010 A 
ATOM     40  C   UNL A   1      41.823  22.442  28.465  1.00  0.00     0.010 A 
ATOM     41  C   UNL A   1      42.343  23.440  27.628  1.00  0.00    -0.014 A 
BRANCH  41  42
ATOM     42  C   UNL A   1      42.730  24.745  28.223  1.00  0.00     0.031 A 
ATOM     43  C   UNL A   1      41.681  25.802  28.445  1.00  0.00     0.074 A 
ATOM     44  C   UNL A   1      44.028  25.018  28.466  1.00  0.00     0.049 A 
ATOM     45  N   UNL A   1      41.822  27.042  28.837  1.00  0.00    -0.248 NA
ATOM     46  C   UNL A   1      40.290  25.431  28.131  1.00  0.00     0.031 C 
ATOM     47  C   UNL A   1      45.152  24.110  28.214  1.00  0.00     0.029 A 
ATOM     48  N   UNL A   1      44.626  26.144  28.972  1.00  0.00    -0.354 N 
ATOM     49  C   UNL A   1      40.552  27.600  28.782  1.00  0.00     0.074 A 
ATOM     50  C   UNL A   1      39.666  26.592  28.245  1.00  0.00     0.031 C 
ATOM     51  C   UNL A   1      46.292  24.700  28.606  1.00  0.00     0.029 A 
ATOM     52  C   UNL A   1      45.990  26.038  29.101  1.00  0.00     0.049 A 
ATOM     53  H   UNL A   1      44.123  26.954  29.222  1.00  0.00     0.167 HD
ATOM     54  C   UNL A   1      40.147  28.829  29.180  1.00  0.00     0.037 A 
ATOM     55  C   UNL A   1      46.891  26.921  29.572  1.00  0.00     0.037 A 
ATOM     56  C   UNL A   1      41.020  29.804  29.772  1.00  0.00     0.049 A 
ATOM     57  C   UNL A   1      46.412  28.260  30.059  1.00  0.00     0.074 A 
ATOM     58  C   UNL A   1      40.702  31.048  30.289  1.00  0.00     0.029 A 
ATOM     59  N   UNL A   1      42.387  29.636  29.939  1.00  0.00    -0.354 N 
ATOM     60  N   UNL A   1      45.193  28.747  30.071  1.00  0.00    -0.248 NA
ATOM     61  C   UNL A   1      47.428  29.170  30.606  1.00  0.00     0.031 C 
ATOM     62  C   UNL A   1      41.883  31.646  30.738  1.00  0.00     0.029 A 
ATOM     63  C   UNL A   1      42.930  30.758  30.541  1.00  0.00     0.049 A 
ATOM     64  H   UNL A   1      42.895  28.837  29.669  1.00  0.00     0.167 HD
ATOM     65  C   UNL A   1      45.293  30.005  30.651  1.00  0.00     0.074 A 
ATOM     66  C   UNL A   1      46.688  30.198  30.992  1.00  0.00     0.031 C 
ATOM     67  C   UNL A   1      44.320  30.921  30.880  1.00  0.00     0.037 A 
BRANCH  54  68
ATOM     68  C   UNL A   1      38.693  29.167  29.009  1.00  0.00     0.057 A 
ATOM     69  C   UNL A   1      37.783  29.078  30.071  1.00  0.00     0.134 A 
ATOM     70  C   UNL A   1      38.198  29.593  27.771  1.00  0.00     0.134 A 
ATOM     71  F   UNL A   1      38.188  28.659  31.280  1.00  0.00    -0.206 F 
ATOM     72  C   UNL A   1      36.428  29.366  29.900  1.00  0.00     0.040 A 
ATOM     73  C   UNL A   1      36.850  29.914  27.596  1.00  0.00     0.040 A 
ATOM     74  F   UNL A   1      39.012  29.704  26.711  1.00  0.00    -0.206 F 
ATOM     75  C   UNL A   1      35.959  29.792  28.660  1.00  0.00     0.006 A 
ENDBRANCH  54  68
BRANCH  55  76
ATOM     76  C   UNL A   1      48.329  26.552  29.653  1.00  0.00     0.057 A 
ATOM     77  C   UNL A   1      48.830  25.853  30.757  1.00  0.00     0.134 A 
ATOM     78  C   UNL A   1      49.235  26.891  28.641  1.00  0.00     0.134 A 
ATOM     79  F   UNL A   1      48.015  25.514  31.768  1.00  0.00    -0.206 F 
ATOM     80  C   UNL A   1      50.183  25.523  30.864  1.00  0.00     0.040 A 
ATOM     81  C   UNL A   1      50.585  26.545  28.723  1.00  0.00     0.040 A 
ATOM     82  F   UNL A   1      48.817  27.552  27.551  1.00  0.00    -0.206 F 
ATOM     83  C   UNL A   1      51.064  25.866  29.842  1.00  0.00     0.006 A 
ENDBRANCH  55  76
BRANCH  67  84
ATOM     84  C   UNL A   1      44.726  32.194  31.559  1.00  0.00     0.057 A 
ATOM     85  C   UNL A   1      44.734  32.317  32.954  1.00  0.00     0.134 A 
ATOM     86  C   UNL A   1      45.153  33.295  30.807  1.00  0.00     0.134 A 
ATOM     87  F   UNL A   1      44.326  31.301  33.728  1.00  0.00    -0.206 F 
ATOM     88  C   UNL A   1      45.130  33.502  33.576  1.00  0.00     0.040 A 
ATOM     89  C   UNL A   1      45.576  34.475  31.418  1.00  0.00     0.040 A 
ATOM     90  F   UNL A   1      45.180  33.237  29.467  1.00  0.00    -0.206 F 
ATOM     91  C   UNL A   1      45.558  34.583  32.807  1.00  0.00     0.006 A 
ENDBRANCH  67  84
ENDBRANCH  41  42
ENDBRANCH  33  36
ENDBRANCH  31  32
ENDBRANCH  30  31
ENDBRANCH   1  30
TORSDOF 15
ENDMDL
