MODEL 1
REMARK VINA RESULT:     -13.6      0.000      0.000
REMARK SMILES C[N@@H+]1CCN(C(=O)c2ccc3[nH]c4c(c3c2)CSCC4)C[C@H]1C(=O)NCCCNC(=O)c1ccc(-c2c3nc(c(-c4c(F)cccc4F)c4ccc([nH]4)c(-c4c(F)cccc4F)c4nc(c(-c5c(F)cccc5F)c5ccc2[nH]5)C=C4)C=C3)cc1
REMARK SMILES IDX 27 1 26 2 25 3 23 4 24 5 22 7 1 8 2 9 3 10 4 12 21 13 5 14
REMARK SMILES IDX 6 15 7 16 8 17 9 18 16 19 10 20 15 21 11 22 14 23 12 24
REMARK SMILES IDX 13 25 17 26 20 28 18 29 19 30 28 31 29 32 30 33 31 35 32 36
REMARK SMILES IDX 33 37 85 38 34 39 84 40 35 41 36 42 37 43 78 44 38 45 83 46
REMARK SMILES IDX 77 47 79 48 39 49 82 50 76 51 75 52 40 54 66 55 49 56 65 57
REMARK SMILES IDX 50 58 53 59 64 60 80 61 51 62 52 63 63 65 81 66 54 67 41 68
REMARK SMILES IDX 42 69 47 70 43 71 44 72 46 73 48 74 45 75 67 76 68 77 73 78
REMARK SMILES IDX 69 79 70 80 72 81 74 82 71 83 55 84 56 85 61 86 57 87 58 88
REMARK SMILES IDX 60 89 62 90 59 91
REMARK H PARENT 25 6 2 11 12 27 29 34 79 53 53 64
REMARK Flexibility Score: inf
ROOT
ATOM      1  C   UNL A   1      33.584  29.002  26.979  1.00  0.00     0.042 C 
ENDROOT
BRANCH   1   2
ATOM      2  C   UNL A   1      32.958  29.925  25.939  1.00  0.00     0.118 C 
BRANCH   2   3
ATOM      3  N   UNL A   1      33.342  29.592  24.580  1.00  0.00    -0.351 N 
ATOM      4  C   UNL A   1      32.889  28.605  23.756  1.00  0.00     0.280 C 
ATOM      5  O   UNL A   1      33.381  28.541  22.624  1.00  0.00    -0.268 OA
ATOM      6  H   UNL A   1      34.040  30.168  24.193  1.00  0.00     0.163 HD
BRANCH   4   7
ATOM      7  C   UNL A   1      31.785  27.625  24.181  1.00  0.00     0.293 C 
ATOM      8  C   UNL A   1      30.101  28.601  22.706  1.00  0.00     0.333 C 
ATOM      9  N   UNL A   1      30.799  27.367  23.086  1.00  0.00    -0.324 N 
ATOM     10  C   UNL A   1      29.808  26.371  23.559  1.00  0.00     0.284 C 
ATOM     11  H   UNL A   1      31.299  27.015  22.270  1.00  0.00     0.348 HD
ATOM     12  C   UNL A   1      30.454  25.069  24.064  1.00  0.00     0.181 C 
ATOM     13  C   UNL A   1      32.447  26.349  24.747  1.00  0.00     0.195 C 
ATOM     14  N   UNL A   1      31.462  25.315  25.096  1.00  0.00    -0.326 N 
BRANCH  14  15
ATOM     15  C   UNL A   1      31.609  24.387  26.117  1.00  0.00     0.254 C 
ATOM     16  O   UNL A   1      30.865  24.342  27.106  1.00  0.00    -0.269 OA
BRANCH  15  17
ATOM     17  C   UNL A   1      32.674  23.369  26.023  1.00  0.00     0.040 A 
ATOM     18  C   UNL A   1      33.916  23.579  26.626  1.00  0.00     0.016 A 
ATOM     19  C   UNL A   1      32.392  22.181  25.334  1.00  0.00     0.024 A 
ATOM     20  C   UNL A   1      34.941  22.641  26.488  1.00  0.00     0.027 A 
ATOM     21  C   UNL A   1      33.405  21.212  25.205  1.00  0.00     0.004 A 
ATOM     22  C   UNL A   1      34.657  21.472  25.770  1.00  0.00     0.046 A 
ATOM     23  C   UNL A   1      33.466  19.915  24.606  1.00  0.00    -0.009 A 
ATOM     24  N   UNL A   1      35.464  20.393  25.486  1.00  0.00    -0.358 N 
ATOM     25  C   UNL A   1      34.747  19.437  24.822  1.00  0.00     0.021 A 
ATOM     26  C   UNL A   1      32.352  19.177  23.936  1.00  0.00     0.107 C 
ATOM     27  H   UNL A   1      36.415  20.321  25.725  1.00  0.00     0.166 HD
ATOM     28  C   UNL A   1      35.298  18.113  24.422  1.00  0.00     0.065 C 
ATOM     29  S   UNL A   1      32.889  17.638  23.098  1.00  0.00    -0.157 SA
ATOM     30  C   UNL A   1      34.171  17.085  24.283  1.00  0.00     0.076 C 
ENDBRANCH  15  17
ENDBRANCH  14  15
ENDBRANCH   4   7
ENDBRANCH   2   3
ENDBRANCH   1   2
BRANCH   1  31
ATOM     31  C   UNL A   1      35.030  29.333  27.350  1.00  0.00     0.118 C 
BRANCH  31  32
ATOM     32  N   UNL A   1      35.233  29.673  28.746  1.00  0.00    -0.352 N 
ATOM     33  C   UNL A   1      36.306  29.721  29.590  1.00  0.00     0.251 C 
ATOM     34  H   UNL A   1      34.394  29.931  29.193  1.00  0.00     0.163 HD
ATOM     35  O   UNL A   1      36.095  30.220  30.698  1.00  0.00    -0.269 OA
BRANCH  33  36
ATOM     36  C   UNL A   1      37.666  29.187  29.300  1.00  0.00     0.039 A 
ATOM     37  C   UNL A   1      38.363  28.275  30.088  1.00  0.00     0.014 A 
ATOM     38  C   UNL A   1      38.313  29.714  28.164  1.00  0.00     0.014 A 
ATOM     39  C   UNL A   1      39.692  27.965  29.803  1.00  0.00     0.010 A 
ATOM     40  C   UNL A   1      39.635  29.391  27.860  1.00  0.00     0.010 A 
ATOM     41  C   UNL A   1      40.342  28.544  28.707  1.00  0.00    -0.014 A 
BRANCH  41  42
ATOM     42  C   UNL A   1      41.737  28.173  28.478  1.00  0.00     0.031 A 
ATOM     43  C   UNL A   1      41.965  26.889  27.755  1.00  0.00     0.074 A 
ATOM     44  C   UNL A   1      42.807  28.919  28.817  1.00  0.00     0.049 A 
ATOM     45  N   UNL A   1      42.516  25.810  28.210  1.00  0.00    -0.248 NA
ATOM     46  C   UNL A   1      41.467  26.777  26.378  1.00  0.00     0.031 C 
ATOM     47  C   UNL A   1      42.851  30.304  29.286  1.00  0.00     0.029 A 
ATOM     48  N   UNL A   1      44.127  28.574  28.739  1.00  0.00    -0.354 N 
ATOM     49  C   UNL A   1      42.583  24.925  27.137  1.00  0.00     0.074 A 
ATOM     50  C   UNL A   1      41.841  25.535  26.061  1.00  0.00     0.031 C 
ATOM     51  C   UNL A   1      44.130  30.741  29.261  1.00  0.00     0.029 A 
ATOM     52  C   UNL A   1      45.004  29.632  28.913  1.00  0.00     0.049 A 
ATOM     53  H   UNL A   1      44.429  27.652  28.573  1.00  0.00     0.167 HD
ATOM     54  C   UNL A   1      43.386  23.824  27.155  1.00  0.00     0.037 A 
ATOM     55  C   UNL A   1      46.349  29.608  28.747  1.00  0.00     0.037 A 
ATOM     56  C   UNL A   1      43.787  23.470  28.490  1.00  0.00     0.049 A 
ATOM     57  C   UNL A   1      46.804  28.202  28.869  1.00  0.00     0.074 A 
ATOM     58  C   UNL A   1      43.121  23.136  29.655  1.00  0.00     0.029 A 
ATOM     59  N   UNL A   1      45.080  23.722  28.878  1.00  0.00    -0.354 N 
ATOM     60  N   UNL A   1      46.833  27.537  29.989  1.00  0.00    -0.248 NA
ATOM     61  C   UNL A   1      46.875  27.393  27.663  1.00  0.00     0.031 C 
ATOM     62  C   UNL A   1      43.900  23.707  30.704  1.00  0.00     0.029 A 
ATOM     63  C   UNL A   1      45.002  24.320  30.109  1.00  0.00     0.049 A 
ATOM     64  H   UNL A   1      45.898  23.514  28.373  1.00  0.00     0.167 HD
ATOM     65  C   UNL A   1      46.486  26.243  29.638  1.00  0.00     0.074 A 
ATOM     66  C   UNL A   1      46.639  26.189  28.188  1.00  0.00     0.031 C 
ATOM     67  C   UNL A   1      45.841  25.421  30.517  1.00  0.00     0.037 A 
BRANCH  54  68
ATOM     68  C   UNL A   1      44.058  23.241  25.938  1.00  0.00     0.057 A 
ATOM     69  C   UNL A   1      45.039  23.922  25.192  1.00  0.00     0.134 A 
ATOM     70  C   UNL A   1      43.948  21.864  25.671  1.00  0.00     0.134 A 
ATOM     71  F   UNL A   1      45.319  25.216  25.400  1.00  0.00    -0.206 F 
ATOM     72  C   UNL A   1      45.861  23.282  24.260  1.00  0.00     0.040 A 
ATOM     73  C   UNL A   1      44.799  21.204  24.776  1.00  0.00     0.040 A 
ATOM     74  F   UNL A   1      43.064  21.103  26.333  1.00  0.00    -0.206 F 
ATOM     75  C   UNL A   1      45.764  21.912  24.072  1.00  0.00     0.006 A 
ENDBRANCH  54  68
BRANCH  55  76
ATOM     76  C   UNL A   1      47.246  30.690  28.289  1.00  0.00     0.057 A 
ATOM     77  C   UNL A   1      48.076  31.378  29.189  1.00  0.00     0.134 A 
ATOM     78  C   UNL A   1      47.117  31.256  27.013  1.00  0.00     0.134 A 
ATOM     79  F   UNL A   1      48.210  30.970  30.460  1.00  0.00    -0.206 F 
ATOM     80  C   UNL A   1      48.731  32.565  28.849  1.00  0.00     0.040 A 
ATOM     81  C   UNL A   1      47.759  32.451  26.661  1.00  0.00     0.040 A 
ATOM     82  F   UNL A   1      46.313  30.700  26.096  1.00  0.00    -0.206 F 
ATOM     83  C   UNL A   1      48.562  33.114  27.584  1.00  0.00     0.006 A 
ENDBRANCH  55  76
BRANCH  67  84
ATOM     84  C   UNL A   1      45.766  25.855  31.954  1.00  0.00     0.057 A 
ATOM     85  C   UNL A   1      44.685  26.636  32.375  1.00  0.00     0.134 A 
ATOM     86  C   UNL A   1      46.780  25.617  32.895  1.00  0.00     0.134 A 
ATOM     87  F   UNL A   1      43.709  26.963  31.513  1.00  0.00    -0.206 F 
ATOM     88  C   UNL A   1      44.595  27.128  33.680  1.00  0.00     0.040 A 
ATOM     89  C   UNL A   1      46.684  26.071  34.213  1.00  0.00     0.040 A 
ATOM     90  F   UNL A   1      47.909  24.981  32.554  1.00  0.00    -0.206 F 
ATOM     91  C   UNL A   1      45.588  26.830  34.609  1.00  0.00     0.006 A 
ENDBRANCH  67  84
ENDBRANCH  41  42
ENDBRANCH  33  36
ENDBRANCH  31  32
ENDBRANCH   1  31
TORSDOF 12
ENDMDL
MODEL 2
REMARK VINA RESULT:     -13.5      1.825      5.995
REMARK SMILES C[N@@H+]1CCN(C(=O)c2ccc3[nH]c4c(c3c2)CSCC4)C[C@H]1C(=O)NCCCNC(=O)c1ccc(-c2c3nc(c(-c4c(F)cccc4F)c4ccc([nH]4)c(-c4c(F)cccc4F)c4nc(c(-c5c(F)cccc5F)c5ccc2[nH]5)C=C4)C=C3)cc1
REMARK SMILES IDX 27 1 26 2 25 3 23 4 24 5 22 7 1 8 2 9 3 10 4 12 21 13 5 14
REMARK SMILES IDX 6 15 7 16 8 17 9 18 16 19 10 20 15 21 11 22 14 23 12 24
REMARK SMILES IDX 13 25 17 26 20 28 18 29 19 30 28 31 29 32 30 33 31 35 32 36
REMARK SMILES IDX 33 37 85 38 34 39 84 40 35 41 36 42 37 43 78 44 38 45 83 46
REMARK SMILES IDX 77 47 79 48 39 49 82 50 76 51 75 52 40 54 66 55 49 56 65 57
REMARK SMILES IDX 50 58 53 59 64 60 80 61 51 62 52 63 63 65 81 66 54 67 41 68
REMARK SMILES IDX 42 69 47 70 43 71 44 72 46 73 48 74 45 75 67 76 68 77 73 78
REMARK SMILES IDX 69 79 70 80 72 81 74 82 71 83 55 84 56 85 61 86 57 87 58 88
REMARK SMILES IDX 60 89 62 90 59 91
REMARK H PARENT 25 6 2 11 12 27 29 34 79 53 53 64
REMARK Flexibility Score: inf
ROOT
ATOM      1  C   UNL A   1      33.375  30.784  27.255  1.00  0.00     0.042 C 
ENDROOT
BRANCH   1   2
ATOM      2  C   UNL A   1      33.810  29.369  26.889  1.00  0.00     0.118 C 
BRANCH   2   3
ATOM      3  N   UNL A   1      34.094  29.210  25.475  1.00  0.00    -0.351 N 
ATOM      4  C   UNL A   1      33.454  28.469  24.527  1.00  0.00     0.280 C 
ATOM      5  O   UNL A   1      33.897  28.515  23.375  1.00  0.00    -0.268 OA
ATOM      6  H   UNL A   1      34.873  29.717  25.149  1.00  0.00     0.163 HD
BRANCH   4   7
ATOM      7  C   UNL A   1      32.206  27.632  24.848  1.00  0.00     0.293 C 
ATOM      8  C   UNL A   1      30.691  29.086  23.600  1.00  0.00     0.333 C 
ATOM      9  N   UNL A   1      31.174  27.710  23.767  1.00  0.00    -0.324 N 
ATOM     10  C   UNL A   1      30.035  26.832  24.127  1.00  0.00     0.284 C 
ATOM     11  H   UNL A   1      31.595  27.408  22.888  1.00  0.00     0.348 HD
ATOM     12  C   UNL A   1      30.458  25.380  24.409  1.00  0.00     0.181 C 
ATOM     13  C   UNL A   1      32.649  26.194  25.193  1.00  0.00     0.195 C 
ATOM     14  N   UNL A   1      31.508  25.296  25.425  1.00  0.00    -0.326 N 
BRANCH  14  15
ATOM     15  C   UNL A   1      31.509  24.214  26.293  1.00  0.00     0.254 C 
ATOM     16  O   UNL A   1      30.641  24.034  27.157  1.00  0.00    -0.269 OA
BRANCH  15  17
ATOM     17  C   UNL A   1      32.568  23.191  26.173  1.00  0.00     0.040 A 
ATOM     18  C   UNL A   1      33.789  23.349  26.833  1.00  0.00     0.016 A 
ATOM     19  C   UNL A   1      32.301  22.052  25.400  1.00  0.00     0.024 A 
ATOM     20  C   UNL A   1      34.810  22.410  26.674  1.00  0.00     0.027 A 
ATOM     21  C   UNL A   1      33.310  21.082  25.248  1.00  0.00     0.004 A 
ATOM     22  C   UNL A   1      34.542  21.293  25.872  1.00  0.00     0.046 A 
ATOM     23  C   UNL A   1      33.382  19.825  24.570  1.00  0.00    -0.009 A 
ATOM     24  N   UNL A   1      35.350  20.225  25.550  1.00  0.00    -0.358 N 
ATOM     25  C   UNL A   1      34.649  19.321  24.801  1.00  0.00     0.021 A 
ATOM     26  C   UNL A   1      32.287  19.143  23.814  1.00  0.00     0.107 C 
ATOM     27  H   UNL A   1      36.291  20.127  25.819  1.00  0.00     0.166 HD
ATOM     28  C   UNL A   1      35.204  18.019  24.339  1.00  0.00     0.065 C 
ATOM     29  S   UNL A   1      32.841  17.654  22.900  1.00  0.00    -0.157 SA
ATOM     30  C   UNL A   1      34.073  17.013  24.094  1.00  0.00     0.076 C 
ENDBRANCH  15  17
ENDBRANCH  14  15
ENDBRANCH   4   7
ENDBRANCH   2   3
ENDBRANCH   1   2
BRANCH   1  31
ATOM     31  C   UNL A   1      34.490  31.685  27.788  1.00  0.00     0.118 C 
BRANCH  31  32
ATOM     32  N   UNL A   1      34.351  32.056  29.183  1.00  0.00    -0.352 N 
ATOM     33  C   UNL A   1      35.145  31.984  30.293  1.00  0.00     0.251 C 
ATOM     34  H   UNL A   1      33.472  32.456  29.377  1.00  0.00     0.163 HD
ATOM     35  O   UNL A   1      34.717  32.560  31.297  1.00  0.00    -0.269 OA
BRANCH  33  36
ATOM     36  C   UNL A   1      36.431  31.241  30.396  1.00  0.00     0.039 A 
ATOM     37  C   UNL A   1      37.702  31.808  30.321  1.00  0.00     0.014 A 
ATOM     38  C   UNL A   1      36.335  29.840  30.508  1.00  0.00     0.014 A 
ATOM     39  C   UNL A   1      38.835  30.998  30.272  1.00  0.00     0.010 A 
ATOM     40  C   UNL A   1      37.466  29.025  30.483  1.00  0.00     0.010 A 
ATOM     41  C   UNL A   1      38.720  29.604  30.322  1.00  0.00    -0.014 A 
BRANCH  41  42
ATOM     42  C   UNL A   1      39.955  28.823  30.259  1.00  0.00     0.031 A 
ATOM     43  C   UNL A   1      40.703  28.674  31.540  1.00  0.00     0.074 A 
ATOM     44  C   UNL A   1      40.426  28.198  29.162  1.00  0.00     0.049 A 
ATOM     45  N   UNL A   1      41.874  29.139  31.834  1.00  0.00    -0.248 NA
ATOM     46  C   UNL A   1      40.041  27.969  32.645  1.00  0.00     0.031 C 
ATOM     47  C   UNL A   1      39.764  27.973  27.878  1.00  0.00     0.029 A 
ATOM     48  N   UNL A   1      41.625  27.560  29.013  1.00  0.00    -0.354 N 
ATOM     49  C   UNL A   1      42.177  28.659  33.106  1.00  0.00     0.074 A 
ATOM     50  C   UNL A   1      40.977  28.024  33.595  1.00  0.00     0.031 C 
ATOM     51  C   UNL A   1      40.487  27.086  27.155  1.00  0.00     0.029 A 
ATOM     52  C   UNL A   1      41.723  26.794  27.863  1.00  0.00     0.049 A 
ATOM     53  H   UNL A   1      42.357  27.639  29.666  1.00  0.00     0.167 HD
ATOM     54  C   UNL A   1      43.445  28.673  33.602  1.00  0.00     0.037 A 
ATOM     55  C   UNL A   1      42.731  25.950  27.533  1.00  0.00     0.037 A 
ATOM     56  C   UNL A   1      44.297  29.583  32.885  1.00  0.00     0.049 A 
ATOM     57  C   UNL A   1      43.937  26.350  28.296  1.00  0.00     0.074 A 
ATOM     58  C   UNL A   1      44.272  30.940  32.618  1.00  0.00     0.029 A 
ATOM     59  N   UNL A   1      45.241  29.069  32.032  1.00  0.00    -0.354 N 
ATOM     60  N   UNL A   1      44.631  27.427  28.057  1.00  0.00    -0.248 NA
ATOM     61  C   UNL A   1      44.165  25.739  29.597  1.00  0.00     0.031 C 
ATOM     62  C   UNL A   1      44.799  31.067  31.299  1.00  0.00     0.029 A 
ATOM     63  C   UNL A   1      45.139  29.785  30.868  1.00  0.00     0.049 A 
ATOM     64  H   UNL A   1      45.867  28.333  32.219  1.00  0.00     0.167 HD
ATOM     65  C   UNL A   1      45.034  27.869  29.306  1.00  0.00     0.074 A 
ATOM     66  C   UNL A   1      44.821  26.733  30.198  1.00  0.00     0.031 C 
ATOM     67  C   UNL A   1      45.241  29.196  29.555  1.00  0.00     0.037 A 
BRANCH  54  68
ATOM     68  C   UNL A   1      44.000  27.638  34.548  1.00  0.00     0.057 A 
ATOM     69  C   UNL A   1      44.209  26.293  34.190  1.00  0.00     0.134 A 
ATOM     70  C   UNL A   1      44.616  28.044  35.746  1.00  0.00     0.134 A 
ATOM     71  F   UNL A   1      43.760  25.786  33.034  1.00  0.00    -0.206 F 
ATOM     72  C   UNL A   1      44.985  25.417  34.956  1.00  0.00     0.040 A 
ATOM     73  C   UNL A   1      45.436  27.190  36.494  1.00  0.00     0.040 A 
ATOM     74  F   UNL A   1      44.507  29.307  36.182  1.00  0.00    -0.206 F 
ATOM     75  C   UNL A   1      45.628  25.873  36.097  1.00  0.00     0.006 A 
ENDBRANCH  54  68
BRANCH  55  76
ATOM     76  C   UNL A   1      42.672  24.694  26.754  1.00  0.00     0.057 A 
ATOM     77  C   UNL A   1      42.319  23.477  27.361  1.00  0.00     0.134 A 
ATOM     78  C   UNL A   1      43.221  24.606  25.467  1.00  0.00     0.134 A 
ATOM     79  F   UNL A   1      41.860  23.438  28.620  1.00  0.00    -0.206 F 
ATOM     80  C   UNL A   1      42.507  22.243  26.732  1.00  0.00     0.040 A 
ATOM     81  C   UNL A   1      43.424  23.374  24.829  1.00  0.00     0.040 A 
ATOM     82  F   UNL A   1      43.631  25.706  24.821  1.00  0.00    -0.206 F 
ATOM     83  C   UNL A   1      43.076  22.187  25.467  1.00  0.00     0.006 A 
ENDBRANCH  55  76
BRANCH  67  84
ATOM     84  C   UNL A   1      45.289  30.128  28.377  1.00  0.00     0.057 A 
ATOM     85  C   UNL A   1      46.532  30.532  27.878  1.00  0.00     0.134 A 
ATOM     86  C   UNL A   1      44.153  30.716  27.800  1.00  0.00     0.134 A 
ATOM     87  F   UNL A   1      47.665  30.065  28.424  1.00  0.00    -0.206 F 
ATOM     88  C   UNL A   1      46.642  31.450  26.830  1.00  0.00     0.040 A 
ATOM     89  C   UNL A   1      44.248  31.606  26.727  1.00  0.00     0.040 A 
ATOM     90  F   UNL A   1      42.927  30.483  28.286  1.00  0.00    -0.206 F 
ATOM     91  C   UNL A   1      45.497  31.977  26.239  1.00  0.00     0.006 A 
ENDBRANCH  67  84
ENDBRANCH  41  42
ENDBRANCH  33  36
ENDBRANCH  31  32
ENDBRANCH   1  31
TORSDOF 12
ENDMDL
MODEL 3
REMARK VINA RESULT:     -13.5      1.835      5.913
REMARK SMILES C[N@@H+]1CCN(C(=O)c2ccc3[nH]c4c(c3c2)CSCC4)C[C@H]1C(=O)NCCCNC(=O)c1ccc(-c2c3nc(c(-c4c(F)cccc4F)c4ccc([nH]4)c(-c4c(F)cccc4F)c4nc(c(-c5c(F)cccc5F)c5ccc2[nH]5)C=C4)C=C3)cc1
REMARK SMILES IDX 27 1 26 2 25 3 23 4 24 5 22 7 1 8 2 9 3 10 4 12 21 13 5 14
REMARK SMILES IDX 6 15 7 16 8 17 9 18 16 19 10 20 15 21 11 22 14 23 12 24
REMARK SMILES IDX 13 25 17 26 20 28 18 29 19 30 28 31 29 32 30 33 31 35 32 36
REMARK SMILES IDX 33 37 85 38 34 39 84 40 35 41 36 42 37 43 78 44 38 45 83 46
REMARK SMILES IDX 77 47 79 48 39 49 82 50 76 51 75 52 40 54 66 55 49 56 65 57
REMARK SMILES IDX 50 58 53 59 64 60 80 61 51 62 52 63 63 65 81 66 54 67 41 68
REMARK SMILES IDX 42 69 47 70 43 71 44 72 46 73 48 74 45 75 67 76 68 77 73 78
REMARK SMILES IDX 69 79 70 80 72 81 74 82 71 83 55 84 56 85 61 86 57 87 58 88
REMARK SMILES IDX 60 89 62 90 59 91
REMARK H PARENT 25 6 2 11 12 27 29 34 79 53 53 64
REMARK Flexibility Score: inf
ROOT
ATOM      1  C   UNL A   1      34.014  30.542  27.566  1.00  0.00     0.042 C 
ENDROOT
BRANCH   1   2
ATOM      2  C   UNL A   1      33.028  30.206  26.453  1.00  0.00     0.118 C 
BRANCH   2   3
ATOM      3  N   UNL A   1      33.668  29.654  25.274  1.00  0.00    -0.351 N 
ATOM      4  C   UNL A   1      33.341  28.563  24.525  1.00  0.00     0.280 C 
ATOM      5  O   UNL A   1      34.056  28.310  23.549  1.00  0.00    -0.268 OA
ATOM      6  H   UNL A   1      34.465  30.144  24.967  1.00  0.00     0.163 HD
BRANCH   4   7
ATOM      7  C   UNL A   1      32.117  27.690  24.841  1.00  0.00     0.293 C 
ATOM      8  C   UNL A   1      30.569  29.089  23.571  1.00  0.00     0.333 C 
ATOM      9  N   UNL A   1      31.092  27.730  23.750  1.00  0.00    -0.324 N 
ATOM     10  C   UNL A   1      29.978  26.820  24.107  1.00  0.00     0.284 C 
ATOM     11  H   UNL A   1      31.530  27.435  22.878  1.00  0.00     0.348 HD
ATOM     12  C   UNL A   1      30.443  25.383  24.402  1.00  0.00     0.181 C 
ATOM     13  C   UNL A   1      32.601  26.268  25.199  1.00  0.00     0.195 C 
ATOM     14  N   UNL A   1      31.486  25.338  25.427  1.00  0.00    -0.326 N 
BRANCH  14  15
ATOM     15  C   UNL A   1      31.513  24.261  26.302  1.00  0.00     0.254 C 
ATOM     16  O   UNL A   1      30.659  24.076  27.179  1.00  0.00    -0.269 OA
BRANCH  15  17
ATOM     17  C   UNL A   1      32.583  23.252  26.175  1.00  0.00     0.040 A 
ATOM     18  C   UNL A   1      33.817  23.439  26.802  1.00  0.00     0.016 A 
ATOM     19  C   UNL A   1      32.315  22.095  25.429  1.00  0.00     0.024 A 
ATOM     20  C   UNL A   1      34.847  22.511  26.635  1.00  0.00     0.027 A 
ATOM     21  C   UNL A   1      33.334  21.137  25.269  1.00  0.00     0.004 A 
ATOM     22  C   UNL A   1      34.577  21.376  25.860  1.00  0.00     0.046 A 
ATOM     23  C   UNL A   1      33.408  19.869  24.612  1.00  0.00    -0.009 A 
ATOM     24  N   UNL A   1      35.392  20.314  25.537  1.00  0.00    -0.358 N 
ATOM     25  C   UNL A   1      34.688  19.387  24.821  1.00  0.00     0.021 A 
ATOM     26  C   UNL A   1      32.306  19.158  23.894  1.00  0.00     0.107 C 
ATOM     27  H   UNL A   1      36.341  20.235  25.786  1.00  0.00     0.166 HD
ATOM     28  C   UNL A   1      35.250  18.085  24.369  1.00  0.00     0.065 C 
ATOM     29  S   UNL A   1      32.859  17.661  22.994  1.00  0.00    -0.157 SA
ATOM     30  C   UNL A   1      34.129  17.059  24.169  1.00  0.00     0.076 C 
ENDBRANCH  15  17
ENDBRANCH  14  15
ENDBRANCH   4   7
ENDBRANCH   2   3
ENDBRANCH   1   2
BRANCH   1  31
ATOM     31  C   UNL A   1      34.078  32.022  27.946  1.00  0.00     0.118 C 
BRANCH  31  32
ATOM     32  N   UNL A   1      34.216  32.275  29.368  1.00  0.00    -0.352 N 
ATOM     33  C   UNL A   1      35.169  32.019  30.314  1.00  0.00     0.251 C 
ATOM     34  H   UNL A   1      33.435  32.744  29.741  1.00  0.00     0.163 HD
ATOM     35  O   UNL A   1      34.983  32.541  31.417  1.00  0.00    -0.269 OA
BRANCH  33  36
ATOM     36  C   UNL A   1      36.358  31.142  30.136  1.00  0.00     0.039 A 
ATOM     37  C   UNL A   1      36.368  29.755  30.262  1.00  0.00     0.014 A 
ATOM     38  C   UNL A   1      37.583  31.795  29.888  1.00  0.00     0.014 A 
ATOM     39  C   UNL A   1      37.570  29.051  30.229  1.00  0.00     0.010 A 
ATOM     40  C   UNL A   1      38.786  31.093  29.831  1.00  0.00     0.010 A 
ATOM     41  C   UNL A   1      38.786  29.719  30.044  1.00  0.00    -0.014 A 
BRANCH  41  42
ATOM     42  C   UNL A   1      40.005  28.911  30.027  1.00  0.00     0.031 A 
ATOM     43  C   UNL A   1      40.688  28.725  31.339  1.00  0.00     0.074 A 
ATOM     44  C   UNL A   1      40.512  28.291  28.943  1.00  0.00     0.049 A 
ATOM     45  N   UNL A   1      41.854  29.159  31.694  1.00  0.00    -0.248 NA
ATOM     46  C   UNL A   1      39.959  28.020  32.401  1.00  0.00     0.031 C 
ATOM     47  C   UNL A   1      39.906  28.099  27.626  1.00  0.00     0.029 A 
ATOM     48  N   UNL A   1      41.702  27.627  28.840  1.00  0.00    -0.354 N 
ATOM     49  C   UNL A   1      42.086  28.653  32.971  1.00  0.00     0.074 A 
ATOM     50  C   UNL A   1      40.851  28.040  33.394  1.00  0.00     0.031 C 
ATOM     51  C   UNL A   1      40.642  27.207  26.924  1.00  0.00     0.029 A 
ATOM     52  C   UNL A   1      41.836  26.875  27.684  1.00  0.00     0.049 A 
ATOM     53  H   UNL A   1      42.404  27.679  29.528  1.00  0.00     0.167 HD
ATOM     54  C   UNL A   1      43.330  28.631  33.526  1.00  0.00     0.037 A 
ATOM     55  C   UNL A   1      42.839  26.013  27.388  1.00  0.00     0.037 A 
ATOM     56  C   UNL A   1      44.234  29.531  32.863  1.00  0.00     0.049 A 
ATOM     57  C   UNL A   1      44.017  26.374  28.213  1.00  0.00     0.074 A 
ATOM     58  C   UNL A   1      44.252  30.892  32.616  1.00  0.00     0.029 A 
ATOM     59  N   UNL A   1      45.206  29.007  32.048  1.00  0.00    -0.354 N 
ATOM     60  N   UNL A   1      44.745  27.437  28.023  1.00  0.00    -0.248 NA
ATOM     61  C   UNL A   1      44.169  25.740  29.513  1.00  0.00     0.031 C 
ATOM     62  C   UNL A   1      44.844  31.026  31.325  1.00  0.00     0.029 A 
ATOM     63  C   UNL A   1      45.174  29.743  30.890  1.00  0.00     0.049 A 
ATOM     64  H   UNL A   1      45.806  28.255  32.252  1.00  0.00     0.167 HD
ATOM     65  C   UNL A   1      45.100  27.852  29.297  1.00  0.00     0.074 A 
ATOM     66  C   UNL A   1      44.820  26.709  30.160  1.00  0.00     0.031 C 
ATOM     67  C   UNL A   1      45.324  29.170  29.575  1.00  0.00     0.037 A 
BRANCH  54  68
ATOM     68  C   UNL A   1      43.816  27.570  34.480  1.00  0.00     0.057 A 
ATOM     69  C   UNL A   1      43.895  27.756  35.873  1.00  0.00     0.134 A 
ATOM     70  C   UNL A   1      43.930  26.236  34.044  1.00  0.00     0.134 A 
ATOM     71  F   UNL A   1      43.716  28.956  36.442  1.00  0.00    -0.206 F 
ATOM     72  C   UNL A   1      44.060  26.696  36.771  1.00  0.00     0.040 A 
ATOM     73  C   UNL A   1      44.045  25.163  34.937  1.00  0.00     0.040 A 
ATOM     74  F   UNL A   1      43.849  25.929  32.742  1.00  0.00    -0.206 F 
ATOM     75  C   UNL A   1      44.104  25.391  36.305  1.00  0.00     0.006 A 
ENDBRANCH  54  68
BRANCH  55  76
ATOM     76  C   UNL A   1      42.789  24.771  26.588  1.00  0.00     0.057 A 
ATOM     77  C   UNL A   1      42.234  23.590  27.111  1.00  0.00     0.134 A 
ATOM     78  C   UNL A   1      43.522  24.635  25.401  1.00  0.00     0.134 A 
ATOM     79  F   UNL A   1      41.582  23.590  28.282  1.00  0.00    -0.206 F 
ATOM     80  C   UNL A   1      42.405  22.346  26.498  1.00  0.00     0.040 A 
ATOM     81  C   UNL A   1      43.710  23.391  24.782  1.00  0.00     0.040 A 
ATOM     82  F   UNL A   1      44.128  25.694  24.846  1.00  0.00    -0.206 F 
ATOM     83  C   UNL A   1      43.158  22.240  25.336  1.00  0.00     0.006 A 
ENDBRANCH  55  76
BRANCH  67  84
ATOM     84  C   UNL A   1      45.448  30.117  28.415  1.00  0.00     0.057 A 
ATOM     85  C   UNL A   1      46.721  30.524  28.000  1.00  0.00     0.134 A 
ATOM     86  C   UNL A   1      44.352  30.718  27.777  1.00  0.00     0.134 A 
ATOM     87  F   UNL A   1      47.817  30.045  28.609  1.00  0.00    -0.206 F 
ATOM     88  C   UNL A   1      46.900  31.456  26.974  1.00  0.00     0.040 A 
ATOM     89  C   UNL A   1      44.517  31.622  26.724  1.00  0.00     0.040 A 
ATOM     90  F   UNL A   1      43.098  30.483  28.183  1.00  0.00    -0.206 F 
ATOM     91  C   UNL A   1      45.795  31.994  26.320  1.00  0.00     0.006 A 
ENDBRANCH  67  84
ENDBRANCH  41  42
ENDBRANCH  33  36
ENDBRANCH  31  32
ENDBRANCH   1  31
TORSDOF 12
ENDMDL
