MODEL 1
REMARK VINA RESULT:     -12.0      0.000      0.000
REMARK SMILES O=C(NCCCNC(=O)c1ccc(S(=O)(=O)Cc2cnoc2)c(F)c1)c1ccc(-c2c3nc(c(-c4c(F)cccc4F)c4ccc([nH]4)c(-c4c(F)cccc4F)c4nc(c(-c5c(F)cccc5F)c5ccc2[nH]5)C=C4)C=C3)cc1
REMARK SMILES IDX 5 1 4 2 3 3 1 4 2 5 26 7 27 8 79 9 28 10 78 11 29 12 30 13
REMARK SMILES IDX 31 14 72 15 32 16 77 17 71 18 73 19 33 20 76 21 70 22 69 23
REMARK SMILES IDX 34 25 60 26 43 27 59 28 44 29 47 30 58 31 74 32 45 33 46 34
REMARK SMILES IDX 57 36 75 37 48 38 35 39 36 40 41 41 37 42 38 43 40 44 42 45
REMARK SMILES IDX 39 46 61 47 62 48 67 49 63 50 64 51 66 52 68 53 65 54 49 55
REMARK SMILES IDX 50 56 55 57 51 58 52 59 54 60 56 61 53 62 6 63 7 64 8 65
REMARK SMILES IDX 9 67 10 68 11 69 25 70 12 71 23 72 13 73 24 74 14 75 15 76
REMARK SMILES IDX 16 77 17 78 18 79 19 80 22 81 20 82 21 83
REMARK H PARENT 3 6 73 24 47 35 7 66
REMARK Flexibility Score: inf
ROOT
ATOM      1  C   UNL A   1      37.785  19.715  25.001  1.00  0.00     0.042 C 
ENDROOT
BRANCH   1   2
ATOM      2  C   UNL A   1      39.004  20.238  25.751  1.00  0.00     0.118 C 
BRANCH   2   3
ATOM      3  N   UNL A   1      40.023  19.214  25.929  1.00  0.00    -0.352 N 
ATOM      4  O   UNL A   1      42.088  18.333  26.000  1.00  0.00    -0.269 OA
ATOM      5  C   UNL A   1      41.379  19.331  26.097  1.00  0.00     0.251 C 
ATOM      6  H   UNL A   1      39.684  18.289  25.929  1.00  0.00     0.163 HD
BRANCH   5   7
ATOM      7  C   UNL A   1      41.994  20.641  26.400  1.00  0.00     0.039 A 
ATOM      8  C   UNL A   1      42.295  21.546  25.380  1.00  0.00     0.014 A 
ATOM      9  C   UNL A   1      42.190  21.003  27.737  1.00  0.00     0.014 A 
ATOM     10  C   UNL A   1      42.882  22.770  25.687  1.00  0.00     0.010 A 
ATOM     11  C   UNL A   1      42.706  22.264  28.050  1.00  0.00     0.010 A 
ATOM     12  C   UNL A   1      43.059  23.154  27.025  1.00  0.00    -0.014 A 
BRANCH  12  13
ATOM     13  C   UNL A   1      43.486  24.540  27.332  1.00  0.00     0.031 A 
ATOM     14  C   UNL A   1      42.506  25.578  27.786  1.00  0.00     0.074 A 
ATOM     15  C   UNL A   1      44.790  24.849  27.184  1.00  0.00     0.049 A 
ATOM     16  N   UNL A   1      42.721  26.838  28.068  1.00  0.00    -0.248 NA
ATOM     17  C   UNL A   1      41.104  25.158  27.944  1.00  0.00     0.031 C 
ATOM     18  C   UNL A   1      45.827  23.918  26.729  1.00  0.00     0.029 A 
ATOM     19  N   UNL A   1      45.469  26.019  27.402  1.00  0.00    -0.354 N 
ATOM     20  C   UNL A   1      41.487  27.365  28.420  1.00  0.00     0.074 A 
ATOM     21  C   UNL A   1      40.520  26.294  28.306  1.00  0.00     0.031 C 
ATOM     22  C   UNL A   1      47.012  24.544  26.727  1.00  0.00     0.029 A 
ATOM     23  C   UNL A   1      46.811  25.935  27.118  1.00  0.00     0.049 A 
ATOM     24  H   UNL A   1      45.037  26.842  27.729  1.00  0.00     0.167 HD
ATOM     25  C   UNL A   1      41.198  28.628  28.809  1.00  0.00     0.037 A 
ATOM     26  C   UNL A   1      47.771  26.877  27.139  1.00  0.00     0.037 A 
ATOM     27  C   UNL A   1      42.174  29.679  28.947  1.00  0.00     0.049 A 
ATOM     28  C   UNL A   1      47.411  28.275  27.539  1.00  0.00     0.074 A 
ATOM     29  C   UNL A   1      41.985  30.969  29.411  1.00  0.00     0.029 A 
ATOM     30  N   UNL A   1      43.513  29.564  28.612  1.00  0.00    -0.354 N 
ATOM     31  N   UNL A   1      46.248  28.745  27.921  1.00  0.00    -0.248 NA
ATOM     32  C   UNL A   1      48.483  29.278  27.497  1.00  0.00     0.031 C 
ATOM     33  C   UNL A   1      43.201  31.649  29.314  1.00  0.00     0.029 A 
ATOM     34  C   UNL A   1      44.155  30.772  28.824  1.00  0.00     0.049 A 
ATOM     35  H   UNL A   1      43.944  28.746  28.273  1.00  0.00     0.167 HD
ATOM     36  C   UNL A   1      46.447  30.096  28.162  1.00  0.00     0.074 A 
ATOM     37  C   UNL A   1      47.847  30.368  27.907  1.00  0.00     0.031 C 
ATOM     38  C   UNL A   1      45.545  31.027  28.553  1.00  0.00     0.037 A 
BRANCH  25  39
ATOM     39  C   UNL A   1      39.773  28.971  29.122  1.00  0.00     0.057 A 
ATOM     40  C   UNL A   1      39.279  28.827  30.425  1.00  0.00     0.134 A 
ATOM     41  C   UNL A   1      38.864  29.316  28.116  1.00  0.00     0.134 A 
ATOM     42  F   UNL A   1      40.100  28.491  31.430  1.00  0.00    -0.206 F 
ATOM     43  C   UNL A   1      37.923  28.992  30.713  1.00  0.00     0.040 A 
ATOM     44  C   UNL A   1      37.507  29.498  28.395  1.00  0.00     0.040 A 
ATOM     45  F   UNL A   1      39.277  29.474  26.850  1.00  0.00    -0.206 F 
ATOM     46  C   UNL A   1      37.032  29.324  29.694  1.00  0.00     0.006 A 
ENDBRANCH  25  39
BRANCH  26  47
ATOM     47  C   UNL A   1      49.152  26.521  26.734  1.00  0.00     0.057 A 
ATOM     48  C   UNL A   1      49.591  26.708  25.415  1.00  0.00     0.134 A 
ATOM     49  C   UNL A   1      50.052  25.952  27.639  1.00  0.00     0.134 A 
ATOM     50  F   UNL A   1      48.772  27.242  24.499  1.00  0.00    -0.206 F 
ATOM     51  C   UNL A   1      50.867  26.319  25.008  1.00  0.00     0.040 A 
ATOM     52  C   UNL A   1      51.340  25.581  27.251  1.00  0.00     0.040 A 
ATOM     53  F   UNL A   1      49.694  25.763  28.918  1.00  0.00    -0.206 F 
ATOM     54  C   UNL A   1      51.748  25.756  25.929  1.00  0.00     0.006 A 
ENDBRANCH  26  47
BRANCH  38  55
ATOM     55  C   UNL A   1      46.035  32.433  28.715  1.00  0.00     0.057 A 
ATOM     56  C   UNL A   1      46.520  32.885  29.948  1.00  0.00     0.134 A 
ATOM     57  C   UNL A   1      45.944  33.358  27.670  1.00  0.00     0.134 A 
ATOM     58  F   UNL A   1      46.622  32.047  30.990  1.00  0.00    -0.206 F 
ATOM     59  C   UNL A   1      46.881  34.218  30.139  1.00  0.00     0.040 A 
ATOM     60  C   UNL A   1      46.321  34.689  27.843  1.00  0.00     0.040 A 
ATOM     61  F   UNL A   1      45.497  32.978  26.463  1.00  0.00    -0.206 F 
ATOM     62  C   UNL A   1      46.781  35.125  29.086  1.00  0.00     0.006 A 
ENDBRANCH  38  55
ENDBRANCH  12  13
ENDBRANCH   5   7
ENDBRANCH   2   3
ENDBRANCH   1   2
BRANCH   1  63
ATOM     63  C   UNL A   1      36.675  20.750  24.843  1.00  0.00     0.118 C 
BRANCH  63  64
ATOM     64  N   UNL A   1      35.409  20.271  25.376  1.00  0.00    -0.352 N 
ATOM     65  C   UNL A   1      34.227  20.952  25.521  1.00  0.00     0.251 C 
ATOM     66  H   UNL A   1      35.400  19.332  25.672  1.00  0.00     0.163 HD
ATOM     67  O   UNL A   1      33.304  20.494  26.176  1.00  0.00    -0.269 OA
BRANCH  65  68
ATOM     68  C   UNL A   1      34.092  22.273  24.887  1.00  0.00     0.042 A 
ATOM     69  C   UNL A   1      34.537  23.420  25.553  1.00  0.00     0.015 A 
ATOM     70  C   UNL A   1      33.502  22.357  23.626  1.00  0.00     0.054 A 
ATOM     71  C   UNL A   1      34.341  24.672  24.971  1.00  0.00     0.024 A 
ATOM     72  C   UNL A   1      33.298  23.611  23.061  1.00  0.00     0.142 A 
ATOM     73  C   UNL A   1      33.709  24.762  23.724  1.00  0.00     0.103 A 
ATOM     74  F   UNL A   1      32.677  23.674  21.878  1.00  0.00    -0.206 F 
BRANCH  73  75
ATOM     75  S   UNL A   1      33.373  26.360  23.054  1.00  0.00     0.185 S 
ATOM     76  O   UNL A   1      34.122  27.288  23.883  1.00  0.00    -0.223 OA
ATOM     77  O   UNL A   1      33.651  26.281  21.629  1.00  0.00    -0.223 OA
BRANCH  75  78
ATOM     78  C   UNL A   1      31.638  26.726  23.242  1.00  0.00     0.183 C 
BRANCH  78  79
ATOM     79  C   UNL A   1      31.091  26.476  24.597  1.00  0.00     0.027 A 
ATOM     80  C   UNL A   1      30.246  25.430  25.032  1.00  0.00     0.162 A 
ATOM     81  C   UNL A   1      31.323  27.191  25.749  1.00  0.00     0.235 A 
ATOM     82  N   UNL A   1      29.970  25.513  26.334  1.00  0.00    -0.088 NA
ATOM     83  O   UNL A   1      30.658  26.626  26.786  1.00  0.00    -0.364 OA
ENDBRANCH  78  79
ENDBRANCH  75  78
ENDBRANCH  73  75
ENDBRANCH  65  68
ENDBRANCH  63  64
ENDBRANCH   1  63
TORSDOF 13
ENDMDL
MODEL 2
REMARK VINA RESULT:     -11.9      0.427      6.388
REMARK SMILES O=C(NCCCNC(=O)c1ccc(S(=O)(=O)Cc2cnoc2)c(F)c1)c1ccc(-c2c3nc(c(-c4c(F)cccc4F)c4ccc([nH]4)c(-c4c(F)cccc4F)c4nc(c(-c5c(F)cccc5F)c5ccc2[nH]5)C=C4)C=C3)cc1
REMARK SMILES IDX 5 1 4 2 3 3 1 4 2 5 26 7 27 8 79 9 28 10 78 11 29 12 30 13
REMARK SMILES IDX 31 14 72 15 32 16 77 17 71 18 73 19 33 20 76 21 70 22 69 23
REMARK SMILES IDX 34 25 60 26 43 27 59 28 44 29 47 30 58 31 74 32 45 33 46 34
REMARK SMILES IDX 57 36 75 37 48 38 35 39 36 40 41 41 37 42 38 43 40 44 42 45
REMARK SMILES IDX 39 46 61 47 62 48 67 49 63 50 64 51 66 52 68 53 65 54 49 55
REMARK SMILES IDX 50 56 55 57 51 58 52 59 54 60 56 61 53 62 6 63 7 64 8 65
REMARK SMILES IDX 9 67 10 68 11 69 25 70 12 71 23 72 13 73 24 74 14 75 15 76
REMARK SMILES IDX 16 77 17 78 18 79 19 80 22 81 20 82 21 83
REMARK H PARENT 3 6 73 24 47 35 7 66
REMARK Flexibility Score: inf
ROOT
ATOM      1  C   UNL A   1      37.674  19.729  25.002  1.00  0.00     0.042 C 
ENDROOT
BRANCH   1   2
ATOM      2  C   UNL A   1      38.913  20.272  25.703  1.00  0.00     0.118 C 
BRANCH   2   3
ATOM      3  N   UNL A   1      39.931  19.249  25.896  1.00  0.00    -0.352 N 
ATOM      4  O   UNL A   1      41.995  18.371  25.997  1.00  0.00    -0.269 OA
ATOM      5  C   UNL A   1      41.284  19.367  26.084  1.00  0.00     0.251 C 
ATOM      6  H   UNL A   1      39.593  18.324  25.889  1.00  0.00     0.163 HD
BRANCH   5   7
ATOM      7  C   UNL A   1      41.892  20.678  26.398  1.00  0.00     0.039 A 
ATOM      8  C   UNL A   1      42.276  21.554  25.380  1.00  0.00     0.014 A 
ATOM      9  C   UNL A   1      41.999  21.072  27.737  1.00  0.00     0.014 A 
ATOM     10  C   UNL A   1      42.855  22.778  25.697  1.00  0.00     0.010 A 
ATOM     11  C   UNL A   1      42.506  22.335  28.054  1.00  0.00     0.010 A 
ATOM     12  C   UNL A   1      42.942  23.194  27.035  1.00  0.00    -0.014 A 
BRANCH  12  13
ATOM     13  C   UNL A   1      43.365  24.583  27.337  1.00  0.00     0.031 A 
ATOM     14  C   UNL A   1      44.799  25.003  27.238  1.00  0.00     0.074 A 
ATOM     15  C   UNL A   1      42.417  25.465  27.715  1.00  0.00     0.049 A 
ATOM     16  N   UNL A   1      45.328  26.173  27.493  1.00  0.00    -0.248 NA
ATOM     17  C   UNL A   1      45.770  23.988  26.797  1.00  0.00     0.031 C 
ATOM     18  C   UNL A   1      40.992  25.156  27.863  1.00  0.00     0.029 A 
ATOM     19  N   UNL A   1      42.502  26.794  28.038  1.00  0.00    -0.354 N 
ATOM     20  C   UNL A   1      46.689  26.034  27.262  1.00  0.00     0.074 A 
ATOM     21  C   UNL A   1      46.912  24.662  26.857  1.00  0.00     0.031 C 
ATOM     22  C   UNL A   1      40.335  26.267  28.221  1.00  0.00     0.029 A 
ATOM     23  C   UNL A   1      41.296  27.351  28.389  1.00  0.00     0.049 A 
ATOM     24  H   UNL A   1      43.346  27.302  28.021  1.00  0.00     0.167 HD
ATOM     25  C   UNL A   1      47.656  26.973  27.375  1.00  0.00     0.037 A 
ATOM     26  C   UNL A   1      40.996  28.587  28.828  1.00  0.00     0.037 A 
ATOM     27  C   UNL A   1      47.417  28.343  27.751  1.00  0.00     0.049 A 
ATOM     28  C   UNL A   1      42.097  29.593  28.977  1.00  0.00     0.074 A 
ATOM     29  C   UNL A   1      48.325  29.385  27.814  1.00  0.00     0.029 A 
ATOM     30  N   UNL A   1      46.190  28.856  28.138  1.00  0.00    -0.354 N 
ATOM     31  N   UNL A   1      43.371  29.460  28.703  1.00  0.00    -0.248 NA
ATOM     32  C   UNL A   1      41.727  30.912  29.508  1.00  0.00     0.031 C 
ATOM     33  C   UNL A   1      47.657  30.519  28.283  1.00  0.00     0.029 A 
ATOM     34  C   UNL A   1      46.325  30.191  28.477  1.00  0.00     0.049 A 
ATOM     35  H   UNL A   1      45.347  28.347  28.167  1.00  0.00     0.167 HD
ATOM     36  C   UNL A   1      43.957  30.674  29.031  1.00  0.00     0.074 A 
ATOM     37  C   UNL A   1      42.895  31.540  29.501  1.00  0.00     0.031 C 
ATOM     38  C   UNL A   1      45.260  31.033  28.954  1.00  0.00     0.037 A 
BRANCH  25  39
ATOM     39  C   UNL A   1      49.073  26.578  27.090  1.00  0.00     0.057 A 
ATOM     40  C   UNL A   1      49.557  26.571  25.775  1.00  0.00     0.134 A 
ATOM     41  C   UNL A   1      49.912  26.082  28.094  1.00  0.00     0.134 A 
ATOM     42  F   UNL A   1      48.797  27.027  24.769  1.00  0.00    -0.206 F 
ATOM     43  C   UNL A   1      50.819  26.063  25.466  1.00  0.00     0.040 A 
ATOM     44  C   UNL A   1      51.184  25.584  27.798  1.00  0.00     0.040 A 
ATOM     45  F   UNL A   1      49.508  26.066  29.373  1.00  0.00    -0.206 F 
ATOM     46  C   UNL A   1      51.635  25.563  26.479  1.00  0.00     0.006 A 
ENDBRANCH  25  39
BRANCH  26  47
ATOM     47  C   UNL A   1      39.595  28.914  29.188  1.00  0.00     0.057 A 
ATOM     48  C   UNL A   1      39.116  28.712  30.490  1.00  0.00     0.134 A 
ATOM     49  C   UNL A   1      38.694  29.397  28.236  1.00  0.00     0.134 A 
ATOM     50  F   UNL A   1      39.931  28.243  31.446  1.00  0.00    -0.206 F 
ATOM     51  C   UNL A   1      37.785  28.958  30.825  1.00  0.00     0.040 A 
ATOM     52  C   UNL A   1      37.365  29.671  28.563  1.00  0.00     0.040 A 
ATOM     53  F   UNL A   1      39.099  29.625  26.978  1.00  0.00    -0.206 F 
ATOM     54  C   UNL A   1      36.905  29.443  29.860  1.00  0.00     0.006 A 
ENDBRANCH  26  47
BRANCH  38  55
ATOM     55  C   UNL A   1      45.620  32.416  29.402  1.00  0.00     0.057 A 
ATOM     56  C   UNL A   1      45.591  33.490  28.505  1.00  0.00     0.134 A 
ATOM     57  C   UNL A   1      46.075  32.662  30.701  1.00  0.00     0.134 A 
ATOM     58  F   UNL A   1      45.172  33.314  27.243  1.00  0.00    -0.206 F 
ATOM     59  C   UNL A   1      46.023  34.761  28.882  1.00  0.00     0.040 A 
ATOM     60  C   UNL A   1      46.491  33.933  31.096  1.00  0.00     0.040 A 
ATOM     61  F   UNL A   1      46.113  31.673  31.607  1.00  0.00    -0.206 F 
ATOM     62  C   UNL A   1      46.476  34.985  30.181  1.00  0.00     0.006 A 
ENDBRANCH  38  55
ENDBRANCH  12  13
ENDBRANCH   5   7
ENDBRANCH   2   3
ENDBRANCH   1   2
BRANCH   1  63
ATOM     63  C   UNL A   1      36.566  20.764  24.830  1.00  0.00     0.118 C 
BRANCH  63  64
ATOM     64  N   UNL A   1      35.463  20.534  25.751  1.00  0.00    -0.352 N 
ATOM     65  C   UNL A   1      34.437  21.379  26.088  1.00  0.00     0.251 C 
ATOM     66  H   UNL A   1      35.452  19.653  26.190  1.00  0.00     0.163 HD
ATOM     67  O   UNL A   1      33.698  21.141  27.030  1.00  0.00    -0.269 OA
BRANCH  65  68
ATOM     68  C   UNL A   1      34.250  22.610  25.303  1.00  0.00     0.042 A 
ATOM     69  C   UNL A   1      34.785  23.820  25.757  1.00  0.00     0.015 A 
ATOM     70  C   UNL A   1      33.521  22.546  24.116  1.00  0.00     0.054 A 
ATOM     71  C   UNL A   1      34.543  24.991  25.038  1.00  0.00     0.024 A 
ATOM     72  C   UNL A   1      33.273  23.721  23.415  1.00  0.00     0.142 A 
ATOM     73  C   UNL A   1      33.773  24.935  23.868  1.00  0.00     0.103 A 
ATOM     74  F   UNL A   1      32.521  23.648  22.310  1.00  0.00    -0.206 F 
BRANCH  73  75
ATOM     75  S   UNL A   1      33.387  26.443  23.033  1.00  0.00     0.185 S 
ATOM     76  O   UNL A   1      34.118  27.475  23.747  1.00  0.00    -0.223 OA
ATOM     77  O   UNL A   1      33.653  26.215  21.623  1.00  0.00    -0.223 OA
BRANCH  75  78
ATOM     78  C   UNL A   1      31.645  26.781  23.203  1.00  0.00     0.183 C 
BRANCH  78  79
ATOM     79  C   UNL A   1      31.090  26.533  24.555  1.00  0.00     0.027 A 
ATOM     80  C   UNL A   1      30.221  25.504  24.982  1.00  0.00     0.162 A 
ATOM     81  C   UNL A   1      31.335  27.235  25.713  1.00  0.00     0.235 A 
ATOM     82  N   UNL A   1      29.945  25.584  26.284  1.00  0.00    -0.088 NA
ATOM     83  O   UNL A   1      30.656  26.678  26.745  1.00  0.00    -0.364 OA
ENDBRANCH  78  79
ENDBRANCH  75  78
ENDBRANCH  73  75
ENDBRANCH  65  68
ENDBRANCH  63  64
ENDBRANCH   1  63
TORSDOF 13
ENDMDL
MODEL 3
REMARK VINA RESULT:     -11.9      5.031     10.186
REMARK SMILES O=C(NCCCNC(=O)c1ccc(S(=O)(=O)Cc2cnoc2)c(F)c1)c1ccc(-c2c3nc(c(-c4c(F)cccc4F)c4ccc([nH]4)c(-c4c(F)cccc4F)c4nc(c(-c5c(F)cccc5F)c5ccc2[nH]5)C=C4)C=C3)cc1
REMARK SMILES IDX 5 1 4 2 3 3 1 4 2 5 26 7 27 8 79 9 28 10 78 11 29 12 30 13
REMARK SMILES IDX 31 14 72 15 32 16 77 17 71 18 73 19 33 20 76 21 70 22 69 23
REMARK SMILES IDX 34 25 60 26 43 27 59 28 44 29 47 30 58 31 74 32 45 33 46 34
REMARK SMILES IDX 57 36 75 37 48 38 35 39 36 40 41 41 37 42 38 43 40 44 42 45
REMARK SMILES IDX 39 46 61 47 62 48 67 49 63 50 64 51 66 52 68 53 65 54 49 55
REMARK SMILES IDX 50 56 55 57 51 58 52 59 54 60 56 61 53 62 6 63 7 64 8 65
REMARK SMILES IDX 9 67 10 68 11 69 25 70 12 71 23 72 13 73 24 74 14 75 15 76
REMARK SMILES IDX 16 77 17 78 18 79 19 80 22 81 20 82 21 83
REMARK H PARENT 3 6 73 24 47 35 7 66
REMARK Flexibility Score: inf
ROOT
ATOM      1  C   UNL A   1      31.324  31.684  26.463  1.00  0.00     0.042 C 
ENDROOT
BRANCH   1   2
ATOM      2  C   UNL A   1      32.641  32.331  26.875  1.00  0.00     0.118 C 
BRANCH   2   3
ATOM      3  N   UNL A   1      32.462  33.700  27.338  1.00  0.00    -0.352 N 
ATOM      4  O   UNL A   1      32.575  35.443  28.750  1.00  0.00    -0.269 OA
ATOM      5  C   UNL A   1      33.035  34.362  28.393  1.00  0.00     0.251 C 
ATOM      6  H   UNL A   1      31.827  34.235  26.809  1.00  0.00     0.163 HD
BRANCH   5   7
ATOM      7  C   UNL A   1      34.202  33.793  29.100  1.00  0.00     0.039 A 
ATOM      8  C   UNL A   1      34.042  32.801  30.069  1.00  0.00     0.014 A 
ATOM      9  C   UNL A   1      35.487  34.200  28.721  1.00  0.00     0.014 A 
ATOM     10  C   UNL A   1      35.154  32.286  30.729  1.00  0.00     0.010 A 
ATOM     11  C   UNL A   1      36.607  33.624  29.327  1.00  0.00     0.010 A 
ATOM     12  C   UNL A   1      36.447  32.667  30.338  1.00  0.00    -0.014 A 
BRANCH  12  13
ATOM     13  C   UNL A   1      37.616  31.952  30.905  1.00  0.00     0.031 A 
ATOM     14  C   UNL A   1      38.348  30.906  30.120  1.00  0.00     0.074 A 
ATOM     15  C   UNL A   1      38.003  32.264  32.158  1.00  0.00     0.049 A 
ATOM     16  N   UNL A   1      39.371  30.177  30.486  1.00  0.00    -0.248 NA
ATOM     17  C   UNL A   1      37.878  30.639  28.751  1.00  0.00     0.031 C 
ATOM     18  C   UNL A   1      37.348  33.254  33.018  1.00  0.00     0.029 A 
ATOM     19  N   UNL A   1      39.035  31.791  32.925  1.00  0.00    -0.354 N 
ATOM     20  C   UNL A   1      39.659  29.355  29.406  1.00  0.00     0.074 A 
ATOM     21  C   UNL A   1      38.695  29.663  28.370  1.00  0.00     0.031 C 
ATOM     22  C   UNL A   1      38.008  33.333  34.181  1.00  0.00     0.029 A 
ATOM     23  C   UNL A   1      39.092  32.358  34.175  1.00  0.00     0.049 A 
ATOM     24  H   UNL A   1      39.674  31.110  32.612  1.00  0.00     0.167 HD
ATOM     25  C   UNL A   1      40.643  28.434  29.296  1.00  0.00     0.037 A 
ATOM     26  C   UNL A   1      39.906  32.103  35.217  1.00  0.00     0.037 A 
ATOM     27  C   UNL A   1      41.614  28.156  30.322  1.00  0.00     0.049 A 
ATOM     28  C   UNL A   1      40.963  31.051  35.074  1.00  0.00     0.074 A 
ATOM     29  C   UNL A   1      42.697  27.296  30.268  1.00  0.00     0.029 A 
ATOM     30  N   UNL A   1      41.613  28.722  31.587  1.00  0.00    -0.354 N 
ATOM     31  N   UNL A   1      41.255  30.320  34.026  1.00  0.00    -0.248 NA
ATOM     32  C   UNL A   1      41.791  30.773  36.254  1.00  0.00     0.031 C 
ATOM     33  C   UNL A   1      43.325  27.307  31.516  1.00  0.00     0.029 A 
ATOM     34  C   UNL A   1      42.655  28.201  32.335  1.00  0.00     0.049 A 
ATOM     35  H   UNL A   1      40.968  29.394  31.906  1.00  0.00     0.167 HD
ATOM     36  C   UNL A   1      42.298  29.494  34.420  1.00  0.00     0.074 A 
ATOM     37  C   UNL A   1      42.604  29.831  35.796  1.00  0.00     0.031 C 
ATOM     38  C   UNL A   1      42.937  28.538  33.706  1.00  0.00     0.037 A 
BRANCH  25  39
ATOM     39  C   UNL A   1      40.744  27.645  28.026  1.00  0.00     0.057 A 
ATOM     40  C   UNL A   1      40.133  26.388  27.921  1.00  0.00     0.134 A 
ATOM     41  C   UNL A   1      41.548  28.067  26.962  1.00  0.00     0.134 A 
ATOM     42  F   UNL A   1      39.357  25.925  28.912  1.00  0.00    -0.206 F 
ATOM     43  C   UNL A   1      40.339  25.568  26.810  1.00  0.00     0.040 A 
ATOM     44  C   UNL A   1      41.749  27.261  25.838  1.00  0.00     0.040 A 
ATOM     45  F   UNL A   1      42.155  29.262  27.000  1.00  0.00    -0.206 F 
ATOM     46  C   UNL A   1      41.153  26.003  25.767  1.00  0.00     0.006 A 
ENDBRANCH  25  39
BRANCH  26  47
ATOM     47  C   UNL A   1      39.716  32.841  36.489  1.00  0.00     0.057 A 
ATOM     48  C   UNL A   1      38.750  32.439  37.422  1.00  0.00     0.134 A 
ATOM     49  C   UNL A   1      40.465  33.982  36.786  1.00  0.00     0.134 A 
ATOM     50  F   UNL A   1      37.994  31.356  37.190  1.00  0.00    -0.206 F 
ATOM     51  C   UNL A   1      38.520  33.161  38.593  1.00  0.00     0.040 A 
ATOM     52  C   UNL A   1      40.263  34.700  37.966  1.00  0.00     0.040 A 
ATOM     53  F   UNL A   1      41.416  34.405  35.939  1.00  0.00    -0.206 F 
ATOM     54  C   UNL A   1      39.282  34.294  38.870  1.00  0.00     0.006 A 
ENDBRANCH  26  47
BRANCH  38  55
ATOM     55  C   UNL A   1      44.023  27.773  34.397  1.00  0.00     0.057 A 
ATOM     56  C   UNL A   1      43.741  26.576  35.067  1.00  0.00     0.134 A 
ATOM     57  C   UNL A   1      45.328  28.270  34.467  1.00  0.00     0.134 A 
ATOM     58  F   UNL A   1      42.506  26.055  35.042  1.00  0.00    -0.206 F 
ATOM     59  C   UNL A   1      44.722  25.909  35.800  1.00  0.00     0.040 A 
ATOM     60  C   UNL A   1      46.321  27.602  35.182  1.00  0.00     0.040 A 
ATOM     61  F   UNL A   1      45.658  29.407  33.836  1.00  0.00    -0.206 F 
ATOM     62  C   UNL A   1      46.016  26.422  35.861  1.00  0.00     0.006 A 
ENDBRANCH  38  55
ENDBRANCH  12  13
ENDBRANCH   5   7
ENDBRANCH   2   3
ENDBRANCH   1   2
BRANCH   1  63
ATOM     63  C   UNL A   1      31.465  30.221  26.055  1.00  0.00     0.118 C 
BRANCH  63  64
ATOM     64  N   UNL A   1      31.700  30.078  24.626  1.00  0.00    -0.352 N 
ATOM     65  C   UNL A   1      32.167  28.986  23.939  1.00  0.00     0.251 C 
ATOM     66  H   UNL A   1      31.498  30.871  24.080  1.00  0.00     0.163 HD
ATOM     67  O   UNL A   1      32.517  29.069  22.772  1.00  0.00    -0.269 OA
BRANCH  65  68
ATOM     68  C   UNL A   1      32.264  27.698  24.643  1.00  0.00     0.042 A 
ATOM     69  C   UNL A   1      33.491  27.273  25.165  1.00  0.00     0.015 A 
ATOM     70  C   UNL A   1      31.120  26.910  24.765  1.00  0.00     0.054 A 
ATOM     71  C   UNL A   1      33.584  26.021  25.771  1.00  0.00     0.024 A 
ATOM     72  C   UNL A   1      31.226  25.656  25.357  1.00  0.00     0.142 A 
ATOM     73  C   UNL A   1      32.445  25.209  25.854  1.00  0.00     0.103 A 
ATOM     74  F   UNL A   1      30.130  24.891  25.411  1.00  0.00    -0.206 F 
BRANCH  73  75
ATOM     75  S   UNL A   1      32.607  23.583  26.526  1.00  0.00     0.185 S 
ATOM     76  O   UNL A   1      33.953  23.526  27.069  1.00  0.00    -0.223 OA
ATOM     77  O   UNL A   1      31.466  23.382  27.404  1.00  0.00    -0.223 OA
BRANCH  75  78
ATOM     78  C   UNL A   1      32.489  22.387  25.209  1.00  0.00     0.183 C 
BRANCH  78  79
ATOM     79  C   UNL A   1      33.122  22.798  23.934  1.00  0.00     0.027 A 
ATOM     80  C   UNL A   1      32.507  23.228  22.737  1.00  0.00     0.162 A 
ATOM     81  C   UNL A   1      34.465  22.892  23.647  1.00  0.00     0.235 A 
ATOM     82  N   UNL A   1      33.398  23.538  21.794  1.00  0.00    -0.088 NA
ATOM     83  O   UNL A   1      34.637  23.329  22.376  1.00  0.00    -0.364 OA
ENDBRANCH  78  79
ENDBRANCH  75  78
ENDBRANCH  73  75
ENDBRANCH  65  68
ENDBRANCH  63  64
ENDBRANCH   1  63
TORSDOF 13
ENDMDL
