MODEL 1
REMARK VINA RESULT:     -11.9      0.000      0.000
REMARK SMILES Cn1ncc(C(=O)NCCCNC(=O)c2ccc(-c3c4nc(c(-c5c(F)cccc5F)c5ccc([nH]5)c(-c5c(F)cccc5F)c5nc(c(-c6c(F)cccc6F)c6ccc3[nH]6)C=C5)C=C4)cc2)c1NS(=O)(=O)[C@@H]1CCS(=O)(=O)C1
REMARK SMILES IDX 9 1 8 2 6 3 7 4 5 6 1 7 2 8 3 9 69 10 4 11 70 12 71 14 72 15
REMARK SMILES IDX 73 16 74 17 75 18 80 19 76 20 77 21 78 22 79 23 10 24 11 25
REMARK SMILES IDX 12 26 13 27 14 29 15 30 16 31 68 32 17 33 67 34 18 35 19 36
REMARK SMILES IDX 20 37 61 38 21 39 66 40 60 41 62 42 22 43 65 44 59 45 58 46
REMARK SMILES IDX 23 48 49 49 32 50 48 51 33 52 36 53 47 54 63 55 34 56 35 57
REMARK SMILES IDX 46 59 64 60 37 61 24 62 25 63 30 64 26 65 27 66 29 67 31 68
REMARK SMILES IDX 28 69 50 70 51 71 56 72 52 73 53 74 55 75 57 76 54 77 38 78
REMARK SMILES IDX 39 79 44 80 40 81 41 82 43 83 45 84 42 85
REMARK H PARENT 8 5 70 13 12 28 62 47 36 58
REMARK Flexibility Score: inf
ROOT
ATOM      1  C   UNL A   1      31.755  28.466  27.226  1.00  0.00     0.118 C 
ENDROOT
BRANCH   1   2
ATOM      2  N   UNL A   1      31.245  27.075  27.326  1.00  0.00    -0.352 N 
ATOM      3  C   UNL A   1      31.251  25.992  26.437  1.00  0.00     0.256 C 
ATOM      4  O   UNL A   1      30.395  25.119  26.502  1.00  0.00    -0.269 OA
ATOM      5  H   UNL A   1      30.817  26.873  28.189  1.00  0.00     0.163 HD
BRANCH   3   6
ATOM      6  C   UNL A   1      32.315  25.900  25.513  1.00  0.00     0.102 A 
ATOM      7  C   UNL A   1      33.276  24.311  22.686  1.00  0.00     0.176 C 
ATOM      8  N   UNL A   1      33.254  25.382  23.664  1.00  0.00    -0.251 N 
ATOM      9  N   UNL A   1      34.282  25.370  24.551  1.00  0.00    -0.179 NA
ATOM     10  C   UNL A   1      32.159  26.088  24.168  1.00  0.00     0.150 A 
ATOM     11  C   UNL A   1      33.685  25.654  25.710  1.00  0.00     0.151 A 
BRANCH  10  12
ATOM     12  N   UNL A   1      30.997  26.649  23.591  1.00  0.00    -0.267 N 
ATOM     13  H   UNL A   1      30.215  26.060  23.493  1.00  0.00     0.181 HD
BRANCH  12  14
ATOM     14  S   UNL A   1      30.831  28.252  23.050  1.00  0.00     0.237 S 
ATOM     15  O   UNL A   1      31.847  29.022  23.741  1.00  0.00    -0.206 OA
ATOM     16  O   UNL A   1      31.008  28.043  21.621  1.00  0.00    -0.206 OA
BRANCH  14  17
ATOM     17  C   UNL A   1      29.338  29.284  23.103  1.00  0.00     0.145 C 
ATOM     18  C   UNL A   1      28.051  29.271  22.259  1.00  0.00     0.039 C 
ATOM     19  C   UNL A   1      29.455  30.707  23.708  1.00  0.00     0.158 C 
ATOM     20  C   UNL A   1      27.857  30.631  21.604  1.00  0.00     0.138 C 
ATOM     21  S   UNL A   1      28.189  31.739  22.927  1.00  0.00     0.151 S 
ATOM     22  O   UNL A   1      28.727  32.920  22.324  1.00  0.00    -0.229 OA
ATOM     23  O   UNL A   1      27.016  31.776  23.787  1.00  0.00    -0.229 OA
ENDBRANCH  14  17
ENDBRANCH  12  14
ENDBRANCH  10  12
ENDBRANCH   3   6
ENDBRANCH   1   2
BRANCH   1  24
ATOM     24  C   UNL A   1      33.267  28.952  27.276  1.00  0.00     0.042 C 
BRANCH  24  25
ATOM     25  C   UNL A   1      33.791  30.401  27.006  1.00  0.00     0.118 C 
BRANCH  25  26
ATOM     26  N   UNL A   1      34.006  31.219  28.226  1.00  0.00    -0.352 N 
ATOM     27  C   UNL A   1      35.073  31.284  29.124  1.00  0.00     0.251 C 
ATOM     28  H   UNL A   1      33.263  31.827  28.440  1.00  0.00     0.163 HD
ATOM     29  O   UNL A   1      35.028  32.097  30.043  1.00  0.00    -0.269 OA
BRANCH  27  30
ATOM     30  C   UNL A   1      36.256  30.409  29.007  1.00  0.00     0.039 A 
ATOM     31  C   UNL A   1      37.018  30.373  27.844  1.00  0.00     0.014 A 
ATOM     32  C   UNL A   1      36.592  29.555  30.044  1.00  0.00     0.014 A 
ATOM     33  C   UNL A   1      38.233  29.673  27.837  1.00  0.00     0.010 A 
ATOM     34  C   UNL A   1      37.850  28.958  30.097  1.00  0.00     0.010 A 
ATOM     35  C   UNL A   1      38.726  29.076  29.016  1.00  0.00    -0.014 A 
BRANCH  35  36
ATOM     36  C   UNL A   1      40.173  28.740  29.175  1.00  0.00     0.031 A 
ATOM     37  C   UNL A   1      41.187  29.734  29.680  1.00  0.00     0.074 A 
ATOM     38  C   UNL A   1      40.602  27.539  28.722  1.00  0.00     0.049 A 
ATOM     39  N   UNL A   1      42.488  29.597  29.791  1.00  0.00    -0.248 NA
ATOM     40  C   UNL A   1      40.691  31.056  30.083  1.00  0.00     0.031 C 
ATOM     41  C   UNL A   1      39.751  26.512  28.110  1.00  0.00     0.029 A 
ATOM     42  N   UNL A   1      41.855  26.976  28.694  1.00  0.00    -0.354 N 
ATOM     43  C   UNL A   1      42.963  30.816  30.262  1.00  0.00     0.074 A 
ATOM     44  C   UNL A   1      41.818  31.698  30.361  1.00  0.00     0.031 C 
ATOM     45  C   UNL A   1      40.492  25.434  27.820  1.00  0.00     0.029 A 
ATOM     46  C   UNL A   1      41.880  25.707  28.165  1.00  0.00     0.049 A 
ATOM     47  H   UNL A   1      42.659  27.438  29.023  1.00  0.00     0.167 HD
ATOM     48  C   UNL A   1      44.228  31.164  30.605  1.00  0.00     0.037 A 
ATOM     49  C   UNL A   1      42.900  24.850  27.966  1.00  0.00     0.037 A 
ATOM     50  C   UNL A   1      45.367  30.283  30.530  1.00  0.00     0.049 A 
ATOM     51  C   UNL A   1      44.289  25.256  28.365  1.00  0.00     0.074 A 
ATOM     52  C   UNL A   1      46.671  30.525  30.929  1.00  0.00     0.029 A 
ATOM     53  N   UNL A   1      45.340  28.996  30.016  1.00  0.00    -0.354 N 
ATOM     54  N   UNL A   1      44.698  26.381  28.896  1.00  0.00    -0.248 NA
ATOM     55  C   UNL A   1      45.358  24.272  28.138  1.00  0.00     0.031 C 
ATOM     56  C   UNL A   1      47.443  29.402  30.614  1.00  0.00     0.029 A 
ATOM     57  C   UNL A   1      46.609  28.441  30.067  1.00  0.00     0.049 A 
ATOM     58  H   UNL A   1      44.539  28.543  29.667  1.00  0.00     0.167 HD
ATOM     59  C   UNL A   1      46.063  26.229  29.099  1.00  0.00     0.074 A 
ATOM     60  C   UNL A   1      46.412  24.900  28.641  1.00  0.00     0.031 C 
ATOM     61  C   UNL A   1      46.947  27.113  29.620  1.00  0.00     0.037 A 
BRANCH  48  62
ATOM     62  C   UNL A   1      44.454  32.562  31.114  1.00  0.00     0.057 A 
ATOM     63  C   UNL A   1      44.778  33.616  30.249  1.00  0.00     0.134 A 
ATOM     64  C   UNL A   1      44.292  32.870  32.470  1.00  0.00     0.134 A 
ATOM     65  F   UNL A   1      44.949  33.392  28.938  1.00  0.00    -0.206 F 
ATOM     66  C   UNL A   1      44.967  34.917  30.720  1.00  0.00     0.040 A 
ATOM     67  C   UNL A   1      44.450  34.172  32.949  1.00  0.00     0.040 A 
ATOM     68  F   UNL A   1      43.966  31.912  33.352  1.00  0.00    -0.206 F 
ATOM     69  C   UNL A   1      44.797  35.199  32.074  1.00  0.00     0.006 A 
ENDBRANCH  48  62
BRANCH  49  70
ATOM     70  C   UNL A   1      42.642  23.508  27.384  1.00  0.00     0.057 A 
ATOM     71  C   UNL A   1      42.755  23.287  26.006  1.00  0.00     0.134 A 
ATOM     72  C   UNL A   1      42.274  22.418  28.183  1.00  0.00     0.134 A 
ATOM     73  F   UNL A   1      43.094  24.294  25.189  1.00  0.00    -0.206 F 
ATOM     74  C   UNL A   1      42.486  22.041  25.440  1.00  0.00     0.040 A 
ATOM     75  C   UNL A   1      42.027  21.159  27.633  1.00  0.00     0.040 A 
ATOM     76  F   UNL A   1      42.167  22.557  29.513  1.00  0.00    -0.206 F 
ATOM     77  C   UNL A   1      42.125  20.970  26.255  1.00  0.00     0.006 A 
ENDBRANCH  49  70
BRANCH  61  78
ATOM     78  C   UNL A   1      48.371  26.664  29.767  1.00  0.00     0.057 A 
ATOM     79  C   UNL A   1      49.345  26.961  28.805  1.00  0.00     0.134 A 
ATOM     80  C   UNL A   1      48.783  25.971  30.913  1.00  0.00     0.134 A 
ATOM     81  F   UNL A   1      49.013  27.607  27.678  1.00  0.00    -0.206 F 
ATOM     82  C   UNL A   1      50.676  26.571  28.971  1.00  0.00     0.040 A 
ATOM     83  C   UNL A   1      50.114  25.599  31.102  1.00  0.00     0.040 A 
ATOM     84  F   UNL A   1      47.901  25.659  31.874  1.00  0.00    -0.206 F 
ATOM     85  C   UNL A   1      51.064  25.897  30.128  1.00  0.00     0.006 A 
ENDBRANCH  61  78
ENDBRANCH  35  36
ENDBRANCH  27  30
ENDBRANCH  25  26
ENDBRANCH  24  25
ENDBRANCH   1  24
TORSDOF 13
ENDMDL
MODEL 2
REMARK VINA RESULT:     -11.8      3.542      4.722
REMARK SMILES Cn1ncc(C(=O)NCCCNC(=O)c2ccc(-c3c4nc(c(-c5c(F)cccc5F)c5ccc([nH]5)c(-c5c(F)cccc5F)c5nc(c(-c6c(F)cccc6F)c6ccc3[nH]6)C=C5)C=C4)cc2)c1NS(=O)(=O)[C@@H]1CCS(=O)(=O)C1
REMARK SMILES IDX 9 1 8 2 6 3 7 4 5 6 1 7 2 8 3 9 69 10 4 11 70 12 71 14 72 15
REMARK SMILES IDX 73 16 74 17 75 18 80 19 76 20 77 21 78 22 79 23 10 24 11 25
REMARK SMILES IDX 12 26 13 27 14 29 15 30 16 31 68 32 17 33 67 34 18 35 19 36
REMARK SMILES IDX 20 37 61 38 21 39 66 40 60 41 62 42 22 43 65 44 59 45 58 46
REMARK SMILES IDX 23 48 49 49 32 50 48 51 33 52 36 53 47 54 63 55 34 56 35 57
REMARK SMILES IDX 46 59 64 60 37 61 24 62 25 63 30 64 26 65 27 66 29 67 31 68
REMARK SMILES IDX 28 69 50 70 51 71 56 72 52 73 53 74 55 75 57 76 54 77 38 78
REMARK SMILES IDX 39 79 44 80 40 81 41 82 43 83 45 84 42 85
REMARK H PARENT 8 5 70 13 12 28 62 47 36 58
REMARK Flexibility Score: inf
ROOT
ATOM      1  C   UNL A   1      31.983  30.132  26.589  1.00  0.00     0.118 C 
ENDROOT
BRANCH   1   2
ATOM      2  N   UNL A   1      31.522  28.880  27.241  1.00  0.00    -0.352 N 
ATOM      3  C   UNL A   1      31.512  27.540  26.830  1.00  0.00     0.256 C 
ATOM      4  O   UNL A   1      30.686  26.752  27.275  1.00  0.00    -0.269 OA
ATOM      5  H   UNL A   1      31.147  29.019  28.141  1.00  0.00     0.163 HD
BRANCH   3   6
ATOM      6  C   UNL A   1      32.525  27.112  25.947  1.00  0.00     0.102 A 
ATOM      7  C   UNL A   1      33.412  24.541  23.934  1.00  0.00     0.176 C 
ATOM      8  N   UNL A   1      33.387  25.915  24.398  1.00  0.00    -0.251 N 
ATOM      9  N   UNL A   1      34.462  26.291  25.138  1.00  0.00    -0.179 NA
ATOM     10  C   UNL A   1      32.285  26.735  24.654  1.00  0.00     0.150 A 
ATOM     11  C   UNL A   1      33.916  27.003  26.126  1.00  0.00     0.151 A 
BRANCH  10  12
ATOM     12  N   UNL A   1      31.064  26.983  23.987  1.00  0.00    -0.267 N 
ATOM     13  H   UNL A   1      30.335  26.338  24.130  1.00  0.00     0.181 HD
BRANCH  12  14
ATOM     14  S   UNL A   1      30.744  28.297  22.957  1.00  0.00     0.237 S 
ATOM     15  O   UNL A   1      31.884  29.186  23.066  1.00  0.00    -0.206 OA
ATOM     16  O   UNL A   1      30.572  27.582  21.701  1.00  0.00    -0.206 OA
BRANCH  14  17
ATOM     17  C   UNL A   1      29.292  29.387  22.978  1.00  0.00     0.145 C 
ATOM     18  C   UNL A   1      28.105  29.534  22.009  1.00  0.00     0.039 C 
ATOM     19  C   UNL A   1      29.391  30.722  23.760  1.00  0.00     0.158 C 
ATOM     20  C   UNL A   1      28.032  30.968  21.507  1.00  0.00     0.138 C 
ATOM     21  S   UNL A   1      28.256  31.898  22.982  1.00  0.00     0.151 S 
ATOM     22  O   UNL A   1      28.898  33.114  22.586  1.00  0.00    -0.229 OA
ATOM     23  O   UNL A   1      26.998  31.890  23.712  1.00  0.00    -0.229 OA
ENDBRANCH  14  17
ENDBRANCH  12  14
ENDBRANCH  10  12
ENDBRANCH   3   6
ENDBRANCH   1   2
BRANCH   1  24
ATOM     24  C   UNL A   1      31.446  31.608  26.831  1.00  0.00     0.042 C 
BRANCH  24  25
ATOM     25  C   UNL A   1      32.168  32.939  26.438  1.00  0.00     0.118 C 
BRANCH  25  26
ATOM     26  N   UNL A   1      32.252  33.943  27.528  1.00  0.00    -0.352 N 
ATOM     27  C   UNL A   1      33.233  34.187  28.491  1.00  0.00     0.251 C 
ATOM     28  H   UNL A   1      31.477  34.547  27.580  1.00  0.00     0.163 HD
ATOM     29  O   UNL A   1      33.085  35.130  29.264  1.00  0.00    -0.269 OA
BRANCH  27  30
ATOM     30  C   UNL A   1      34.444  33.352  28.612  1.00  0.00     0.039 A 
ATOM     31  C   UNL A   1      35.716  33.901  28.499  1.00  0.00     0.014 A 
ATOM     32  C   UNL A   1      34.327  31.982  28.782  1.00  0.00     0.014 A 
ATOM     33  C   UNL A   1      36.837  33.114  28.802  1.00  0.00     0.010 A 
ATOM     34  C   UNL A   1      35.415  31.221  29.206  1.00  0.00     0.010 A 
ATOM     35  C   UNL A   1      36.681  31.803  29.297  1.00  0.00    -0.014 A 
BRANCH  35  36
ATOM     36  C   UNL A   1      37.775  31.117  30.051  1.00  0.00     0.031 A 
ATOM     37  C   UNL A   1      38.090  31.433  31.491  1.00  0.00     0.074 A 
ATOM     38  C   UNL A   1      38.590  30.281  29.370  1.00  0.00     0.049 A 
ATOM     39  N   UNL A   1      39.063  30.970  32.240  1.00  0.00    -0.248 NA
ATOM     40  C   UNL A   1      37.230  32.411  32.169  1.00  0.00     0.031 C 
ATOM     41  C   UNL A   1      38.473  29.958  27.943  1.00  0.00     0.029 A 
ATOM     42  N   UNL A   1      39.684  29.553  29.774  1.00  0.00    -0.354 N 
ATOM     43  C   UNL A   1      38.939  31.608  33.469  1.00  0.00     0.074 A 
ATOM     44  C   UNL A   1      37.831  32.534  33.346  1.00  0.00     0.031 C 
ATOM     45  C   UNL A   1      39.414  29.065  27.609  1.00  0.00     0.029 A 
ATOM     46  C   UNL A   1      40.243  28.792  28.774  1.00  0.00     0.049 A 
ATOM     47  H   UNL A   1      40.034  29.575  30.693  1.00  0.00     0.167 HD
ATOM     48  C   UNL A   1      39.660  31.426  34.602  1.00  0.00     0.037 A 
ATOM     49  C   UNL A   1      41.309  27.968  28.778  1.00  0.00     0.037 A 
ATOM     50  C   UNL A   1      40.748  30.490  34.737  1.00  0.00     0.049 A 
ATOM     51  C   UNL A   1      42.084  27.775  30.050  1.00  0.00     0.074 A 
ATOM     52  C   UNL A   1      41.485  30.181  35.869  1.00  0.00     0.029 A 
ATOM     53  N   UNL A   1      41.260  29.717  33.707  1.00  0.00    -0.354 N 
ATOM     54  N   UNL A   1      41.888  28.320  31.224  1.00  0.00    -0.248 NA
ATOM     55  C   UNL A   1      43.226  26.851  29.996  1.00  0.00     0.031 C 
ATOM     56  C   UNL A   1      42.472  29.258  35.513  1.00  0.00     0.029 A 
ATOM     57  C   UNL A   1      42.318  28.951  34.171  1.00  0.00     0.049 A 
ATOM     58  H   UNL A   1      40.923  29.713  32.782  1.00  0.00     0.167 HD
ATOM     59  C   UNL A   1      42.859  27.781  32.058  1.00  0.00     0.074 A 
ATOM     60  C   UNL A   1      43.638  26.860  31.256  1.00  0.00     0.031 C 
ATOM     61  C   UNL A   1      43.081  28.027  33.370  1.00  0.00     0.037 A 
BRANCH  48  62
ATOM     62  C   UNL A   1      39.287  32.246  35.807  1.00  0.00     0.057 A 
ATOM     63  C   UNL A   1      39.818  33.527  36.018  1.00  0.00     0.134 A 
ATOM     64  C   UNL A   1      38.348  31.778  36.735  1.00  0.00     0.134 A 
ATOM     65  F   UNL A   1      40.722  34.036  35.169  1.00  0.00    -0.206 F 
ATOM     66  C   UNL A   1      39.454  34.296  37.125  1.00  0.00     0.040 A 
ATOM     67  C   UNL A   1      37.955  32.550  37.831  1.00  0.00     0.040 A 
ATOM     68  F   UNL A   1      37.787  30.569  36.586  1.00  0.00    -0.206 F 
ATOM     69  C   UNL A   1      38.515  33.810  38.033  1.00  0.00     0.006 A 
ENDBRANCH  48  62
BRANCH  49  70
ATOM     70  C   UNL A   1      41.691  27.239  27.542  1.00  0.00     0.057 A 
ATOM     71  C   UNL A   1      41.245  25.932  27.310  1.00  0.00     0.134 A 
ATOM     72  C   UNL A   1      42.509  27.822  26.566  1.00  0.00     0.134 A 
ATOM     73  F   UNL A   1      40.468  25.316  28.212  1.00  0.00    -0.206 F 
ATOM     74  C   UNL A   1      41.620  25.222  26.169  1.00  0.00     0.040 A 
ATOM     75  C   UNL A   1      42.871  27.134  25.408  1.00  0.00     0.040 A 
ATOM     76  F   UNL A   1      42.954  29.080  26.717  1.00  0.00    -0.206 F 
ATOM     77  C   UNL A   1      42.433  25.825  25.211  1.00  0.00     0.006 A 
ENDBRANCH  49  70
BRANCH  61  78
ATOM     78  C   UNL A   1      44.184  27.262  34.041  1.00  0.00     0.057 A 
ATOM     79  C   UNL A   1      43.965  26.014  34.638  1.00  0.00     0.134 A 
ATOM     80  C   UNL A   1      45.494  27.758  34.041  1.00  0.00     0.134 A 
ATOM     81  F   UNL A   1      42.730  25.491  34.686  1.00  0.00    -0.206 F 
ATOM     82  C   UNL A   1      45.007  25.294  35.225  1.00  0.00     0.040 A 
ATOM     83  C   UNL A   1      46.548  27.035  34.601  1.00  0.00     0.040 A 
ATOM     84  F   UNL A   1      45.773  28.945  33.482  1.00  0.00    -0.206 F 
ATOM     85  C   UNL A   1      46.305  25.801  35.198  1.00  0.00     0.006 A 
ENDBRANCH  61  78
ENDBRANCH  35  36
ENDBRANCH  27  30
ENDBRANCH  25  26
ENDBRANCH  24  25
ENDBRANCH   1  24
TORSDOF 13
ENDMDL
MODEL 3
REMARK VINA RESULT:     -11.8      2.323      3.882
REMARK SMILES Cn1ncc(C(=O)NCCCNC(=O)c2ccc(-c3c4nc(c(-c5c(F)cccc5F)c5ccc([nH]5)c(-c5c(F)cccc5F)c5nc(c(-c6c(F)cccc6F)c6ccc3[nH]6)C=C5)C=C4)cc2)c1NS(=O)(=O)[C@@H]1CCS(=O)(=O)C1
REMARK SMILES IDX 9 1 8 2 6 3 7 4 5 6 1 7 2 8 3 9 69 10 4 11 70 12 71 14 72 15
REMARK SMILES IDX 73 16 74 17 75 18 80 19 76 20 77 21 78 22 79 23 10 24 11 25
REMARK SMILES IDX 12 26 13 27 14 29 15 30 16 31 68 32 17 33 67 34 18 35 19 36
REMARK SMILES IDX 20 37 61 38 21 39 66 40 60 41 62 42 22 43 65 44 59 45 58 46
REMARK SMILES IDX 23 48 49 49 32 50 48 51 33 52 36 53 47 54 63 55 34 56 35 57
REMARK SMILES IDX 46 59 64 60 37 61 24 62 25 63 30 64 26 65 27 66 29 67 31 68
REMARK SMILES IDX 28 69 50 70 51 71 56 72 52 73 53 74 55 75 57 76 54 77 38 78
REMARK SMILES IDX 39 79 44 80 40 81 41 82 43 83 45 84 42 85
REMARK H PARENT 8 5 70 13 12 28 62 47 36 58
REMARK Flexibility Score: inf
ROOT
ATOM      1  C   UNL A   1      32.339  27.505  26.634  1.00  0.00     0.118 C 
ENDROOT
BRANCH   1   2
ATOM      2  N   UNL A   1      31.284  26.491  26.888  1.00  0.00    -0.352 N 
ATOM      3  C   UNL A   1      30.285  25.932  26.079  1.00  0.00     0.256 C 
ATOM      4  O   UNL A   1      29.249  25.498  26.567  1.00  0.00    -0.269 OA
ATOM      5  H   UNL A   1      31.285  26.144  27.809  1.00  0.00     0.163 HD
BRANCH   3   6
ATOM      6  C   UNL A   1      30.542  25.818  24.696  1.00  0.00     0.102 A 
ATOM      7  C   UNL A   1      32.865  24.744  22.483  1.00  0.00     0.176 C 
ATOM      8  N   UNL A   1      31.534  25.086  22.949  1.00  0.00    -0.251 N 
ATOM      9  N   UNL A   1      31.092  26.312  22.567  1.00  0.00    -0.179 NA
ATOM     10  C   UNL A   1      30.859  24.636  24.085  1.00  0.00     0.150 A 
ATOM     11  C   UNL A   1      30.508  26.782  23.672  1.00  0.00     0.151 A 
BRANCH  10  12
ATOM     12  N   UNL A   1      30.704  23.376  24.706  1.00  0.00    -0.267 N 
ATOM     13  H   UNL A   1      29.871  22.885  24.523  1.00  0.00     0.181 HD
BRANCH  12  14
ATOM     14  S   UNL A   1      31.828  22.634  25.742  1.00  0.00     0.237 S 
ATOM     15  O   UNL A   1      31.551  23.140  27.072  1.00  0.00    -0.206 OA
ATOM     16  O   UNL A   1      31.513  21.238  25.479  1.00  0.00    -0.206 OA
BRANCH  14  17
ATOM     17  C   UNL A   1      33.638  22.650  25.598  1.00  0.00     0.145 C 
ATOM     18  C   UNL A   1      34.699  23.641  26.112  1.00  0.00     0.039 C 
ATOM     19  C   UNL A   1      34.284  21.885  24.415  1.00  0.00     0.158 C 
ATOM     20  C   UNL A   1      35.517  24.163  24.940  1.00  0.00     0.138 C 
ATOM     21  S   UNL A   1      35.856  22.697  24.031  1.00  0.00     0.151 S 
ATOM     22  O   UNL A   1      35.956  23.099  22.661  1.00  0.00    -0.229 OA
ATOM     23  O   UNL A   1      36.930  21.987  24.709  1.00  0.00    -0.229 OA
ENDBRANCH  14  17
ENDBRANCH  12  14
ENDBRANCH  10  12
ENDBRANCH   3   6
ENDBRANCH   1   2
BRANCH   1  24
ATOM     24  C   UNL A   1      32.450  28.967  27.247  1.00  0.00     0.042 C 
BRANCH  24  25
ATOM     25  C   UNL A   1      33.526  30.046  26.896  1.00  0.00     0.118 C 
BRANCH  25  26
ATOM     26  N   UNL A   1      33.786  31.035  27.972  1.00  0.00    -0.352 N 
ATOM     27  C   UNL A   1      34.894  31.240  28.796  1.00  0.00     0.251 C 
ATOM     28  H   UNL A   1      33.044  31.659  28.134  1.00  0.00     0.163 HD
ATOM     29  O   UNL A   1      34.879  32.177  29.590  1.00  0.00    -0.269 OA
BRANCH  27  30
ATOM     30  C   UNL A   1      36.085  30.369  28.747  1.00  0.00     0.039 A 
ATOM     31  C   UNL A   1      36.889  30.306  27.614  1.00  0.00     0.014 A 
ATOM     32  C   UNL A   1      36.387  29.546  29.819  1.00  0.00     0.014 A 
ATOM     33  C   UNL A   1      38.108  29.614  27.671  1.00  0.00     0.010 A 
ATOM     34  C   UNL A   1      37.646  28.959  29.935  1.00  0.00     0.010 A 
ATOM     35  C   UNL A   1      38.560  29.053  28.883  1.00  0.00    -0.014 A 
BRANCH  35  36
ATOM     36  C   UNL A   1      40.002  28.730  29.104  1.00  0.00     0.031 A 
ATOM     37  C   UNL A   1      40.982  29.730  29.662  1.00  0.00     0.074 A 
ATOM     38  C   UNL A   1      40.463  27.538  28.662  1.00  0.00     0.049 A 
ATOM     39  N   UNL A   1      42.278  29.606  29.830  1.00  0.00    -0.248 NA
ATOM     40  C   UNL A   1      40.454  31.044  30.053  1.00  0.00     0.031 C 
ATOM     41  C   UNL A   1      39.652  26.508  28.004  1.00  0.00     0.029 A 
ATOM     42  N   UNL A   1      41.722  26.988  28.685  1.00  0.00    -0.354 N 
ATOM     43  C   UNL A   1      42.719  30.826  30.332  1.00  0.00     0.074 A 
ATOM     44  C   UNL A   1      41.561  31.695  30.386  1.00  0.00     0.031 C 
ATOM     45  C   UNL A   1      40.417  25.440  27.738  1.00  0.00     0.029 A 
ATOM     46  C   UNL A   1      41.785  25.724  28.148  1.00  0.00     0.049 A 
ATOM     47  H   UNL A   1      42.506  27.455  29.053  1.00  0.00     0.167 HD
ATOM     48  C   UNL A   1      43.963  31.184  30.733  1.00  0.00     0.037 A 
ATOM     49  C   UNL A   1      42.822  24.879  27.988  1.00  0.00     0.037 A 
ATOM     50  C   UNL A   1      45.113  30.316  30.702  1.00  0.00     0.049 A 
ATOM     51  C   UNL A   1      44.188  25.296  28.451  1.00  0.00     0.074 A 
ATOM     52  C   UNL A   1      46.396  30.567  31.162  1.00  0.00     0.029 A 
ATOM     53  N   UNL A   1      45.124  29.033  30.178  1.00  0.00    -0.354 N 
ATOM     54  N   UNL A   1      44.561  26.420  29.009  1.00  0.00    -0.248 NA
ATOM     55  C   UNL A   1      45.276  24.325  28.265  1.00  0.00     0.031 C 
ATOM     56  C   UNL A   1      47.193  29.455  30.873  1.00  0.00     0.029 A 
ATOM     57  C   UNL A   1      46.395  28.490  30.281  1.00  0.00     0.049 A 
ATOM     58  H   UNL A   1      44.343  28.574  29.790  1.00  0.00     0.167 HD
ATOM     59  C   UNL A   1      45.917  26.281  29.272  1.00  0.00     0.074 A 
ATOM     60  C   UNL A   1      46.299  24.959  28.819  1.00  0.00     0.031 C 
ATOM     61  C   UNL A   1      46.766  27.169  29.839  1.00  0.00     0.037 A 
BRANCH  48  62
ATOM     62  C   UNL A   1      44.151  32.579  31.263  1.00  0.00     0.057 A 
ATOM     63  C   UNL A   1      44.469  33.651  30.416  1.00  0.00     0.134 A 
ATOM     64  C   UNL A   1      43.959  32.867  32.620  1.00  0.00     0.134 A 
ATOM     65  F   UNL A   1      44.667  33.446  29.106  1.00  0.00    -0.206 F 
ATOM     66  C   UNL A   1      44.622  34.950  30.907  1.00  0.00     0.040 A 
ATOM     67  C   UNL A   1      44.082  34.167  33.117  1.00  0.00     0.040 A 
ATOM     68  F   UNL A   1      43.637  31.893  33.484  1.00  0.00    -0.206 F 
ATOM     69  C   UNL A   1      44.422  35.211  32.261  1.00  0.00     0.006 A 
ENDBRANCH  48  62
BRANCH  49  70
ATOM     70  C   UNL A   1      42.604  23.540  27.384  1.00  0.00     0.057 A 
ATOM     71  C   UNL A   1      42.302  22.430  28.184  1.00  0.00     0.134 A 
ATOM     72  C   UNL A   1      42.696  23.331  26.002  1.00  0.00     0.134 A 
ATOM     73  F   UNL A   1      42.212  22.564  29.514  1.00  0.00    -0.206 F 
ATOM     74  C   UNL A   1      42.126  21.160  27.635  1.00  0.00     0.040 A 
ATOM     75  C   UNL A   1      42.496  22.071  25.437  1.00  0.00     0.040 A 
ATOM     76  F   UNL A   1      42.962  24.356  25.178  1.00  0.00    -0.206 F 
ATOM     77  C   UNL A   1      42.219  20.978  26.257  1.00  0.00     0.006 A 
ENDBRANCH  49  70
BRANCH  61  78
ATOM     78  C   UNL A   1      48.188  26.734  30.046  1.00  0.00     0.057 A 
ATOM     79  C   UNL A   1      48.574  25.963  31.149  1.00  0.00     0.134 A 
ATOM     80  C   UNL A   1      49.170  27.046  29.097  1.00  0.00     0.134 A 
ATOM     81  F   UNL A   1      47.685  25.645  32.102  1.00  0.00    -0.206 F 
ATOM     82  C   UNL A   1      49.892  25.531  31.310  1.00  0.00     0.040 A 
ATOM     83  C   UNL A   1      50.485  26.597  29.234  1.00  0.00     0.040 A 
ATOM     84  F   UNL A   1      48.865  27.776  28.015  1.00  0.00    -0.206 F 
ATOM     85  C   UNL A   1      50.849  25.840  30.345  1.00  0.00     0.006 A 
ENDBRANCH  61  78
ENDBRANCH  35  36
ENDBRANCH  27  30
ENDBRANCH  25  26
ENDBRANCH  24  25
ENDBRANCH   1  24
TORSDOF 13
ENDMDL
