MODEL 1
REMARK VINA RESULT:     -11.3      0.000      0.000
REMARK SMILES [NH3+][C@H](CO)c1ccc(Cl)c(C(=O)NCCCNC(=O)c2ccc(-c3c4nc(c(-c5c(F)cccc5F)c5ccc([nH]5)c(-c5c(F)cccc5F)c5nc(c(-c6c(F)cccc6F)c6ccc3[nH]6)C=C5)C=C4)cc2)c1
REMARK SMILES IDX 14 1 13 2 11 3 12 4 10 6 5 7 6 8 74 9 7 10 8 11 9 12 2 13
REMARK SMILES IDX 1 14 3 18 4 19 15 21 16 22 17 23 18 24 19 26 20 27 21 28
REMARK SMILES IDX 73 29 22 30 72 31 23 32 24 33 25 34 66 35 26 36 71 37 65 38
REMARK SMILES IDX 67 39 27 40 70 41 64 42 63 43 28 45 54 46 37 47 53 48 38 49
REMARK SMILES IDX 41 50 52 51 68 52 39 53 40 54 51 56 69 57 42 58 29 59 30 60
REMARK SMILES IDX 35 61 31 62 32 63 34 64 36 65 33 66 55 67 56 68 61 69 57 70
REMARK SMILES IDX 58 71 60 72 62 73 59 74 43 75 44 76 49 77 45 78 46 79 48 80
REMARK SMILES IDX 50 81 47 82
REMARK H PARENT 13 5 1 15 1 16 1 17 4 20 17 25 67 44 41 55
REMARK Flexibility Score: inf
ROOT
ATOM      1  C   UNL A   1      31.601  30.591  26.535  1.00  0.00     0.118 C 
ENDROOT
BRANCH   1   2
ATOM      2  N   UNL A   1      32.517  30.093  25.529  1.00  0.00    -0.352 N 
ATOM      3  C   UNL A   1      32.311  29.336  24.402  1.00  0.00     0.252 C 
ATOM      4  O   UNL A   1      33.281  29.163  23.662  1.00  0.00    -0.269 OA
ATOM      5  H   UNL A   1      33.457  30.342  25.681  1.00  0.00     0.163 HD
BRANCH   3   6
ATOM      6  C   UNL A   1      31.037  28.635  24.075  1.00  0.00     0.058 A 
ATOM      7  C   UNL A   1      28.840  28.921  22.992  1.00  0.00     0.012 A 
ATOM      8  C   UNL A   1      28.556  27.576  23.242  1.00  0.00     0.011 A 
ATOM      9  C   UNL A   1      30.118  29.403  23.327  1.00  0.00     0.025 A 
ATOM     10  C   UNL A   1      29.435  26.814  24.009  1.00  0.00     0.022 A 
ATOM     11  C   UNL A   1      30.609  27.381  24.522  1.00  0.00     0.053 A 
ATOM     12  Cl  UNL A   1      31.275  26.566  25.897  1.00  0.00    -0.083 Cl
BRANCH   7  13
ATOM     13  C   UNL A   1      27.704  29.850  22.576  1.00  0.00     0.237 C 
BRANCH  13  14
ATOM     14  N   UNL A   1      27.799  30.283  21.177  1.00  0.00    -0.349 N 
ATOM     15  H   UNL A   1      26.866  30.305  20.764  1.00  0.00     0.345 HD
ATOM     16  H   UNL A   1      28.386  29.630  20.658  1.00  0.00     0.345 HD
ATOM     17  H   UNL A   1      28.210  31.216  21.137  1.00  0.00     0.345 HD
ENDBRANCH  13  14
BRANCH  13  18
ATOM     18  C   UNL A   1      27.687  31.084  23.527  1.00  0.00     0.226 C 
BRANCH  18  19
ATOM     19  O   UNL A   1      27.696  32.317  22.800  1.00  0.00    -0.390 OA
ATOM     20  H   UNL A   1      28.244  32.965  23.269  1.00  0.00     0.210 HD
ENDBRANCH  18  19
ENDBRANCH  13  18
ENDBRANCH   7  13
ENDBRANCH   3   6
ENDBRANCH   1   2
BRANCH   1  21
ATOM     21  C   UNL A   1      31.504  32.101  26.629  1.00  0.00     0.042 C 
BRANCH  21  22
ATOM     22  C   UNL A   1      32.714  32.799  27.223  1.00  0.00     0.118 C 
BRANCH  22  23
ATOM     23  N   UNL A   1      32.458  34.179  27.623  1.00  0.00    -0.352 N 
ATOM     24  C   UNL A   1      33.022  34.959  28.604  1.00  0.00     0.251 C 
ATOM     25  H   UNL A   1      31.758  34.630  27.099  1.00  0.00     0.163 HD
ATOM     26  O   UNL A   1      32.524  36.057  28.864  1.00  0.00    -0.269 OA
BRANCH  24  27
ATOM     27  C   UNL A   1      34.197  34.496  29.373  1.00  0.00     0.039 A 
ATOM     28  C   UNL A   1      34.005  33.899  30.623  1.00  0.00     0.014 A 
ATOM     29  C   UNL A   1      35.491  34.658  28.881  1.00  0.00     0.014 A 
ATOM     30  C   UNL A   1      35.098  33.386  31.327  1.00  0.00     0.010 A 
ATOM     31  C   UNL A   1      36.560  34.041  29.517  1.00  0.00     0.010 A 
ATOM     32  C   UNL A   1      36.381  33.407  30.755  1.00  0.00    -0.014 A 
BRANCH  32  33
ATOM     33  C   UNL A   1      37.552  32.794  31.432  1.00  0.00     0.031 A 
ATOM     34  C   UNL A   1      38.227  31.592  30.829  1.00  0.00     0.074 A 
ATOM     35  C   UNL A   1      37.959  33.268  32.627  1.00  0.00     0.049 A 
ATOM     36  N   UNL A   1      39.198  30.857  31.310  1.00  0.00    -0.248 NA
ATOM     37  C   UNL A   1      37.719  31.129  29.526  1.00  0.00     0.031 C 
ATOM     38  C   UNL A   1      37.355  34.395  33.343  1.00  0.00     0.029 A 
ATOM     39  N   UNL A   1      38.971  32.855  33.456  1.00  0.00    -0.354 N 
ATOM     40  C   UNL A   1      39.401  29.844  30.381  1.00  0.00     0.074 A 
ATOM     41  C   UNL A   1      38.409  30.015  29.343  1.00  0.00     0.031 C 
ATOM     42  C   UNL A   1      38.029  34.603  34.485  1.00  0.00     0.029 A 
ATOM     43  C   UNL A   1      39.079  33.598  34.608  1.00  0.00     0.049 A 
ATOM     44  H   UNL A   1      39.564  32.099  33.246  1.00  0.00     0.167 HD
ATOM     45  C   UNL A   1      40.349  28.877  30.374  1.00  0.00     0.037 A 
ATOM     46  C   UNL A   1      39.925  33.478  35.648  1.00  0.00     0.037 A 
ATOM     47  C   UNL A   1      41.350  28.726  31.396  1.00  0.00     0.049 A 
ATOM     48  C   UNL A   1      40.958  32.383  35.626  1.00  0.00     0.074 A 
ATOM     49  C   UNL A   1      42.388  27.815  31.457  1.00  0.00     0.029 A 
ATOM     50  N   UNL A   1      41.434  29.508  32.539  1.00  0.00    -0.354 N 
ATOM     51  N   UNL A   1      41.182  31.476  34.708  1.00  0.00    -0.248 NA
ATOM     52  C   UNL A   1      41.860  32.303  36.784  1.00  0.00     0.031 C 
ATOM     53  C   UNL A   1      43.070  28.011  32.662  1.00  0.00     0.029 A 
ATOM     54  C   UNL A   1      42.494  29.084  33.324  1.00  0.00     0.049 A 
ATOM     55  H   UNL A   1      40.831  30.254  32.760  1.00  0.00     0.167 HD
ATOM     56  C   UNL A   1      42.269  30.736  35.160  1.00  0.00     0.074 A 
ATOM     57  C   UNL A   1      42.666  31.313  36.428  1.00  0.00     0.031 C 
ATOM     58  C   UNL A   1      42.882  29.676  34.579  1.00  0.00     0.037 A 
BRANCH  45  59
ATOM     59  C   UNL A   1      40.347  27.911  29.223  1.00  0.00     0.057 A 
ATOM     60  C   UNL A   1      39.531  26.771  29.214  1.00  0.00     0.134 A 
ATOM     61  C   UNL A   1      41.147  28.138  28.096  1.00  0.00     0.134 A 
ATOM     62  F   UNL A   1      38.749  26.487  30.267  1.00  0.00    -0.206 F 
ATOM     63  C   UNL A   1      39.535  25.877  28.142  1.00  0.00     0.040 A 
ATOM     64  C   UNL A   1      41.136  27.268  27.005  1.00  0.00     0.040 A 
ATOM     65  F   UNL A   1      41.947  29.213  28.033  1.00  0.00    -0.206 F 
ATOM     66  C   UNL A   1      40.334  26.129  27.029  1.00  0.00     0.006 A 
ENDBRANCH  45  59
BRANCH  46  67
ATOM     67  C   UNL A   1      39.851  34.429  36.786  1.00  0.00     0.057 A 
ATOM     68  C   UNL A   1      40.529  35.653  36.749  1.00  0.00     0.134 A 
ATOM     69  C   UNL A   1      39.116  34.137  37.941  1.00  0.00     0.134 A 
ATOM     70  F   UNL A   1      41.266  35.984  35.678  1.00  0.00    -0.206 F 
ATOM     71  C   UNL A   1      40.499  36.541  37.825  1.00  0.00     0.040 A 
ATOM     72  C   UNL A   1      39.052  35.029  39.014  1.00  0.00     0.040 A 
ATOM     73  F   UNL A   1      38.435  32.986  38.038  1.00  0.00    -0.206 F 
ATOM     74  C   UNL A   1      39.754  36.232  38.961  1.00  0.00     0.006 A 
ENDBRANCH  46  67
BRANCH  58  75
ATOM     75  C   UNL A   1      44.074  29.098  35.285  1.00  0.00     0.057 A 
ATOM     76  C   UNL A   1      43.949  28.092  36.250  1.00  0.00     0.134 A 
ATOM     77  C   UNL A   1      45.367  29.528  34.961  1.00  0.00     0.134 A 
ATOM     78  F   UNL A   1      42.738  27.645  36.615  1.00  0.00    -0.206 F 
ATOM     79  C   UNL A   1      45.067  27.551  36.887  1.00  0.00     0.040 A 
ATOM     80  C   UNL A   1      46.495  28.972  35.567  1.00  0.00     0.040 A 
ATOM     81  F   UNL A   1      45.558  30.482  34.037  1.00  0.00    -0.206 F 
ATOM     82  C   UNL A   1      46.345  27.985  36.539  1.00  0.00     0.006 A 
ENDBRANCH  58  75
ENDBRANCH  32  33
ENDBRANCH  24  27
ENDBRANCH  22  23
ENDBRANCH  21  22
ENDBRANCH   1  21
TORSDOF 14
ENDMDL
MODEL 2
REMARK VINA RESULT:     -11.2      6.881     11.501
REMARK SMILES [NH3+][C@H](CO)c1ccc(Cl)c(C(=O)NCCCNC(=O)c2ccc(-c3c4nc(c(-c5c(F)cccc5F)c5ccc([nH]5)c(-c5c(F)cccc5F)c5nc(c(-c6c(F)cccc6F)c6ccc3[nH]6)C=C5)C=C4)cc2)c1
REMARK SMILES IDX 14 1 13 2 11 3 12 4 10 6 5 7 6 8 74 9 7 10 8 11 9 12 2 13
REMARK SMILES IDX 1 14 3 18 4 19 15 21 16 22 17 23 18 24 19 26 20 27 21 28
REMARK SMILES IDX 73 29 22 30 72 31 23 32 24 33 25 34 66 35 26 36 71 37 65 38
REMARK SMILES IDX 67 39 27 40 70 41 64 42 63 43 28 45 54 46 37 47 53 48 38 49
REMARK SMILES IDX 41 50 52 51 68 52 39 53 40 54 51 56 69 57 42 58 29 59 30 60
REMARK SMILES IDX 35 61 31 62 32 63 34 64 36 65 33 66 55 67 56 68 61 69 57 70
REMARK SMILES IDX 58 71 60 72 62 73 59 74 43 75 44 76 49 77 45 78 46 79 48 80
REMARK SMILES IDX 50 81 47 82
REMARK H PARENT 13 5 1 15 1 16 1 17 4 20 17 25 67 44 41 55
REMARK Flexibility Score: inf
ROOT
ATOM      1  C   UNL A   1      37.418  21.274  24.557  1.00  0.00     0.118 C 
ENDROOT
BRANCH   1   2
ATOM      2  N   UNL A   1      36.720  22.002  25.598  1.00  0.00    -0.352 N 
ATOM      3  C   UNL A   1      35.387  22.086  25.916  1.00  0.00     0.252 C 
ATOM      4  O   UNL A   1      35.098  22.701  26.944  1.00  0.00    -0.269 OA
ATOM      5  H   UNL A   1      37.308  22.534  26.182  1.00  0.00     0.163 HD
BRANCH   3   6
ATOM      6  C   UNL A   1      34.278  21.579  25.059  1.00  0.00     0.058 A 
ATOM      7  C   UNL A   1      32.777  19.658  24.692  1.00  0.00     0.012 A 
ATOM      8  C   UNL A   1      32.137  20.369  23.674  1.00  0.00     0.011 A 
ATOM      9  C   UNL A   1      33.775  20.315  25.434  1.00  0.00     0.025 A 
ATOM     10  C   UNL A   1      32.642  21.602  23.267  1.00  0.00     0.022 A 
ATOM     11  C   UNL A   1      33.781  22.142  23.879  1.00  0.00     0.053 A 
ATOM     12  Cl  UNL A   1      34.635  23.314  22.932  1.00  0.00    -0.083 Cl
BRANCH   7  13
ATOM     13  C   UNL A   1      32.527  18.159  24.814  1.00  0.00     0.237 C 
BRANCH  13  14
ATOM     14  N   UNL A   1      32.906  17.618  26.125  1.00  0.00    -0.349 N 
ATOM     15  H   UNL A   1      32.107  17.669  26.758  1.00  0.00     0.345 HD
ATOM     16  H   UNL A   1      33.678  18.164  26.508  1.00  0.00     0.345 HD
ATOM     17  H   UNL A   1      33.196  16.645  26.021  1.00  0.00     0.345 HD
ENDBRANCH  13  14
BRANCH  13  18
ATOM     18  C   UNL A   1      33.301  17.423  23.680  1.00  0.00     0.226 C 
BRANCH  18  19
ATOM     19  O   UNL A   1      32.525  17.329  22.480  1.00  0.00    -0.390 OA
ATOM     20  H   UNL A   1      31.583  17.290  22.706  1.00  0.00     0.210 HD
ENDBRANCH  18  19
ENDBRANCH  13  18
ENDBRANCH   7  13
ENDBRANCH   3   6
ENDBRANCH   1   2
BRANCH   1  21
ATOM     21  C   UNL A   1      38.102  20.000  25.009  1.00  0.00     0.042 C 
BRANCH  21  22
ATOM     22  C   UNL A   1      39.145  20.168  26.099  1.00  0.00     0.118 C 
BRANCH  22  23
ATOM     23  N   UNL A   1      40.200  19.160  26.062  1.00  0.00    -0.352 N 
ATOM     24  C   UNL A   1      41.569  19.274  26.126  1.00  0.00     0.251 C 
ATOM     25  H   UNL A   1      39.875  18.235  25.976  1.00  0.00     0.163 HD
ATOM     26  O   UNL A   1      42.269  18.283  25.911  1.00  0.00    -0.269 OA
BRANCH  24  27
ATOM     27  C   UNL A   1      42.218  20.570  26.420  1.00  0.00     0.039 A 
ATOM     28  C   UNL A   1      42.679  21.360  25.362  1.00  0.00     0.014 A 
ATOM     29  C   UNL A   1      42.391  21.010  27.732  1.00  0.00     0.014 A 
ATOM     30  C   UNL A   1      43.224  22.621  25.619  1.00  0.00     0.010 A 
ATOM     31  C   UNL A   1      42.815  22.308  27.980  1.00  0.00     0.010 A 
ATOM     32  C   UNL A   1      43.249  23.128  26.929  1.00  0.00    -0.014 A 
BRANCH  32  33
ATOM     33  C   UNL A   1      43.739  24.497  27.232  1.00  0.00     0.031 A 
ATOM     34  C   UNL A   1      42.769  25.570  27.647  1.00  0.00     0.074 A 
ATOM     35  C   UNL A   1      45.042  24.796  27.056  1.00  0.00     0.049 A 
ATOM     36  N   UNL A   1      42.982  26.844  27.861  1.00  0.00    -0.248 NA
ATOM     37  C   UNL A   1      41.361  25.165  27.808  1.00  0.00     0.031 C 
ATOM     38  C   UNL A   1      46.075  23.860  26.606  1.00  0.00     0.029 A 
ATOM     39  N   UNL A   1      45.720  25.977  27.226  1.00  0.00    -0.354 N 
ATOM     40  C   UNL A   1      41.740  27.388  28.163  1.00  0.00     0.074 A 
ATOM     41  C   UNL A   1      40.768  26.326  28.037  1.00  0.00     0.031 C 
ATOM     42  C   UNL A   1      47.258  24.492  26.569  1.00  0.00     0.029 A 
ATOM     43  C   UNL A   1      47.062  25.889  26.943  1.00  0.00     0.049 A 
ATOM     44  H   UNL A   1      45.286  26.809  27.523  1.00  0.00     0.167 HD
ATOM     45  C   UNL A   1      41.439  28.653  28.543  1.00  0.00     0.037 A 
ATOM     46  C   UNL A   1      48.025  26.830  26.975  1.00  0.00     0.037 A 
ATOM     47  C   UNL A   1      42.413  29.701  28.693  1.00  0.00     0.049 A 
ATOM     48  C   UNL A   1      47.662  28.232  27.383  1.00  0.00     0.074 A 
ATOM     49  C   UNL A   1      42.221  31.000  29.125  1.00  0.00     0.029 A 
ATOM     50  N   UNL A   1      43.765  29.567  28.410  1.00  0.00    -0.354 N 
ATOM     51  N   UNL A   1      46.495  28.716  27.733  1.00  0.00    -0.248 NA
ATOM     52  C   UNL A   1      48.753  29.217  27.408  1.00  0.00     0.031 C 
ATOM     53  C   UNL A   1      43.448  31.668  29.055  1.00  0.00     0.029 A 
ATOM     54  C   UNL A   1      44.415  30.769  28.636  1.00  0.00     0.049 A 
ATOM     55  H   UNL A   1      44.197  28.741  28.096  1.00  0.00     0.167 HD
ATOM     56  C   UNL A   1      46.716  30.051  28.049  1.00  0.00     0.074 A 
ATOM     57  C   UNL A   1      48.131  30.295  27.863  1.00  0.00     0.031 C 
ATOM     58  C   UNL A   1      45.828  30.991  28.456  1.00  0.00     0.037 A 
BRANCH  45  59
ATOM     59  C   UNL A   1      39.997  28.967  28.828  1.00  0.00     0.057 A 
ATOM     60  C   UNL A   1      39.478  28.944  30.131  1.00  0.00     0.134 A 
ATOM     61  C   UNL A   1      39.124  29.326  27.794  1.00  0.00     0.134 A 
ATOM     62  F   UNL A   1      40.257  28.596  31.166  1.00  0.00    -0.206 F 
ATOM     63  C   UNL A   1      38.138  29.234  30.389  1.00  0.00     0.040 A 
ATOM     64  C   UNL A   1      37.789  29.649  28.044  1.00  0.00     0.040 A 
ATOM     65  F   UNL A   1      39.554  29.375  26.524  1.00  0.00    -0.206 F 
ATOM     66  C   UNL A   1      37.290  29.596  29.344  1.00  0.00     0.006 A 
ENDBRANCH  45  59
BRANCH  46  67
ATOM     67  C   UNL A   1      49.427  26.477  26.635  1.00  0.00     0.057 A 
ATOM     68  C   UNL A   1      49.930  26.684  25.345  1.00  0.00     0.134 A 
ATOM     69  C   UNL A   1      50.294  25.916  27.580  1.00  0.00     0.134 A 
ATOM     70  F   UNL A   1      49.145  27.201  24.389  1.00  0.00    -0.206 F 
ATOM     71  C   UNL A   1      51.234  26.324  25.000  1.00  0.00     0.040 A 
ATOM     72  C   UNL A   1      51.610  25.578  27.258  1.00  0.00     0.040 A 
ATOM     73  F   UNL A   1      49.877  25.701  28.837  1.00  0.00    -0.206 F 
ATOM     74  C   UNL A   1      52.080  25.774  25.961  1.00  0.00     0.006 A 
ENDBRANCH  46  67
BRANCH  58  75
ATOM     75  C   UNL A   1      46.365  32.356  28.771  1.00  0.00     0.057 A 
ATOM     76  C   UNL A   1      46.837  32.692  30.047  1.00  0.00     0.134 A 
ATOM     77  C   UNL A   1      46.451  33.334  27.771  1.00  0.00     0.134 A 
ATOM     78  F   UNL A   1      46.772  31.805  31.051  1.00  0.00    -0.206 F 
ATOM     79  C   UNL A   1      47.350  33.960  30.322  1.00  0.00     0.040 A 
ATOM     80  C   UNL A   1      46.992  34.594  28.027  1.00  0.00     0.040 A 
ATOM     81  F   UNL A   1      46.027  33.074  26.526  1.00  0.00    -0.206 F 
ATOM     82  C   UNL A   1      47.437  34.912  29.308  1.00  0.00     0.006 A 
ENDBRANCH  58  75
ENDBRANCH  32  33
ENDBRANCH  24  27
ENDBRANCH  22  23
ENDBRANCH  21  22
ENDBRANCH   1  21
TORSDOF 14
ENDMDL
MODEL 3
REMARK VINA RESULT:     -11.2      1.380      6.521
REMARK SMILES [NH3+][C@H](CO)c1ccc(Cl)c(C(=O)NCCCNC(=O)c2ccc(-c3c4nc(c(-c5c(F)cccc5F)c5ccc([nH]5)c(-c5c(F)cccc5F)c5nc(c(-c6c(F)cccc6F)c6ccc3[nH]6)C=C5)C=C4)cc2)c1
REMARK SMILES IDX 14 1 13 2 11 3 12 4 10 6 5 7 6 8 74 9 7 10 8 11 9 12 2 13
REMARK SMILES IDX 1 14 3 18 4 19 15 21 16 22 17 23 18 24 19 26 20 27 21 28
REMARK SMILES IDX 73 29 22 30 72 31 23 32 24 33 25 34 66 35 26 36 71 37 65 38
REMARK SMILES IDX 67 39 27 40 70 41 64 42 63 43 28 45 54 46 37 47 53 48 38 49
REMARK SMILES IDX 41 50 52 51 68 52 39 53 40 54 51 56 69 57 42 58 29 59 30 60
REMARK SMILES IDX 35 61 31 62 32 63 34 64 36 65 33 66 55 67 56 68 61 69 57 70
REMARK SMILES IDX 58 71 60 72 62 73 59 74 43 75 44 76 49 77 45 78 46 79 48 80
REMARK SMILES IDX 50 81 47 82
REMARK H PARENT 13 5 1 15 1 16 1 17 4 20 17 25 67 44 41 55
REMARK Flexibility Score: inf
ROOT
ATOM      1  C   UNL A   1      31.631  30.502  26.740  1.00  0.00     0.118 C 
ENDROOT
BRANCH   1   2
ATOM      2  N   UNL A   1      32.567  30.049  25.731  1.00  0.00    -0.352 N 
ATOM      3  C   UNL A   1      32.385  29.333  24.574  1.00  0.00     0.252 C 
ATOM      4  O   UNL A   1      33.369  29.194  23.845  1.00  0.00    -0.269 OA
ATOM      5  H   UNL A   1      33.503  30.299  25.908  1.00  0.00     0.163 HD
BRANCH   3   6
ATOM      6  C   UNL A   1      31.122  28.635  24.200  1.00  0.00     0.058 A 
ATOM      7  C   UNL A   1      28.934  28.950  23.107  1.00  0.00     0.012 A 
ATOM      8  C   UNL A   1      28.662  27.592  23.292  1.00  0.00     0.011 A 
ATOM      9  C   UNL A   1      30.203  29.428  23.478  1.00  0.00     0.025 A 
ATOM     10  C   UNL A   1      29.540  26.803  24.031  1.00  0.00     0.022 A 
ATOM     11  C   UNL A   1      30.702  27.358  24.584  1.00  0.00     0.053 A 
ATOM     12  Cl  UNL A   1      31.363  26.485  25.927  1.00  0.00    -0.083 Cl
BRANCH   7  13
ATOM     13  C   UNL A   1      27.793  29.886  22.723  1.00  0.00     0.237 C 
BRANCH  13  14
ATOM     14  N   UNL A   1      27.756  30.187  21.287  1.00  0.00    -0.349 N 
ATOM     15  H   UNL A   1      27.624  31.190  21.153  1.00  0.00     0.345 HD
ATOM     16  H   UNL A   1      26.982  29.682  20.854  1.00  0.00     0.345 HD
ATOM     17  H   UNL A   1      28.634  29.899  20.856  1.00  0.00     0.345 HD
ENDBRANCH  13  14
BRANCH  13  18
ATOM     18  C   UNL A   1      27.917  31.200  23.550  1.00  0.00     0.226 C 
BRANCH  18  19
ATOM     19  O   UNL A   1      27.699  32.362  22.742  1.00  0.00    -0.390 OA
ATOM     20  H   UNL A   1      28.521  32.872  22.681  1.00  0.00     0.210 HD
ENDBRANCH  18  19
ENDBRANCH  13  18
ENDBRANCH   7  13
ENDBRANCH   3   6
ENDBRANCH   1   2
BRANCH   1  21
ATOM     21  C   UNL A   1      31.456  32.005  26.828  1.00  0.00     0.042 C 
BRANCH  21  22
ATOM     22  C   UNL A   1      32.731  32.802  27.041  1.00  0.00     0.118 C 
BRANCH  22  23
ATOM     23  N   UNL A   1      32.515  34.096  27.680  1.00  0.00    -0.352 N 
ATOM     24  C   UNL A   1      33.173  34.720  28.712  1.00  0.00     0.251 C 
ATOM     25  H   UNL A   1      31.765  34.613  27.306  1.00  0.00     0.163 HD
ATOM     26  O   UNL A   1      32.703  35.754  29.192  1.00  0.00    -0.269 OA
BRANCH  24  27
ATOM     27  C   UNL A   1      34.420  34.160  29.278  1.00  0.00     0.039 A 
ATOM     28  C   UNL A   1      34.358  33.398  30.449  1.00  0.00     0.014 A 
ATOM     29  C   UNL A   1      35.654  34.391  28.673  1.00  0.00     0.014 A 
ATOM     30  C   UNL A   1      35.516  32.799  30.952  1.00  0.00     0.010 A 
ATOM     31  C   UNL A   1      36.779  33.697  29.098  1.00  0.00     0.010 A 
ATOM     32  C   UNL A   1      36.729  32.900  30.251  1.00  0.00    -0.014 A 
BRANCH  32  33
ATOM     33  C   UNL A   1      37.960  32.205  30.706  1.00  0.00     0.031 A 
ATOM     34  C   UNL A   1      38.797  32.800  31.806  1.00  0.00     0.074 A 
ATOM     35  C   UNL A   1      38.367  31.084  30.079  1.00  0.00     0.049 A 
ATOM     36  N   UNL A   1      39.951  32.400  32.279  1.00  0.00    -0.248 NA
ATOM     37  C   UNL A   1      38.289  34.031  32.437  1.00  0.00     0.031 C 
ATOM     38  C   UNL A   1      37.672  30.436  28.963  1.00  0.00     0.029 A 
ATOM     39  N   UNL A   1      39.470  30.294  30.283  1.00  0.00    -0.354 N 
ATOM     40  C   UNL A   1      40.308  33.335  33.243  1.00  0.00     0.074 A 
ATOM     41  C   UNL A   1      39.288  34.359  33.240  1.00  0.00     0.031 C 
ATOM     42  C   UNL A   1      38.347  29.332  28.605  1.00  0.00     0.029 A 
ATOM     43  C   UNL A   1      39.546  29.219  29.429  1.00  0.00     0.049 A 
ATOM     44  H   UNL A   1      40.145  30.480  30.975  1.00  0.00     0.167 HD
ATOM     45  C   UNL A   1      41.375  33.326  34.078  1.00  0.00     0.037 A 
ATOM     46  C   UNL A   1      40.480  28.256  29.319  1.00  0.00     0.037 A 
ATOM     47  C   UNL A   1      42.374  32.292  34.095  1.00  0.00     0.049 A 
ATOM     48  C   UNL A   1      41.664  28.277  30.247  1.00  0.00     0.074 A 
ATOM     49  C   UNL A   1      43.463  32.159  34.937  1.00  0.00     0.029 A 
ATOM     50  N   UNL A   1      42.406  31.212  33.224  1.00  0.00    -0.354 N 
ATOM     51  N   UNL A   1      41.953  29.130  31.200  1.00  0.00    -0.248 NA
ATOM     52  C   UNL A   1      42.649  27.198  30.088  1.00  0.00     0.031 C 
ATOM     53  C   UNL A   1      44.183  31.027  34.543  1.00  0.00     0.029 A 
ATOM     54  C   UNL A   1      43.511  30.421  33.494  1.00  0.00     0.049 A 
ATOM     55  H   UNL A   1      41.743  31.034  32.519  1.00  0.00     0.167 HD
ATOM     56  C   UNL A   1      43.134  28.674  31.774  1.00  0.00     0.074 A 
ATOM     57  C   UNL A   1      43.497  27.461  31.071  1.00  0.00     0.031 C 
ATOM     58  C   UNL A   1      43.852  29.211  32.790  1.00  0.00     0.037 A 
BRANCH  45  59
ATOM     59  C   UNL A   1      41.508  34.469  35.044  1.00  0.00     0.057 A 
ATOM     60  C   UNL A   1      40.906  34.442  36.311  1.00  0.00     0.134 A 
ATOM     61  C   UNL A   1      42.271  35.598  34.720  1.00  0.00     0.134 A 
ATOM     62  F   UNL A   1      40.150  33.397  36.681  1.00  0.00    -0.206 F 
ATOM     63  C   UNL A   1      41.031  35.507  37.204  1.00  0.00     0.040 A 
ATOM     64  C   UNL A   1      42.430  36.655  35.616  1.00  0.00     0.040 A 
ATOM     65  F   UNL A   1      42.881  35.689  33.528  1.00  0.00    -0.206 F 
ATOM     66  C   UNL A   1      41.802  36.615  36.860  1.00  0.00     0.006 A 
ENDBRANCH  45  59
BRANCH  46  67
ATOM     67  C   UNL A   1      40.325  27.175  28.312  1.00  0.00     0.057 A 
ATOM     68  C   UNL A   1      40.926  27.273  27.051  1.00  0.00     0.134 A 
ATOM     69  C   UNL A   1      39.566  26.028  28.574  1.00  0.00     0.134 A 
ATOM     70  F   UNL A   1      41.651  28.355  26.731  1.00  0.00    -0.206 F 
ATOM     71  C   UNL A   1      40.760  26.283  26.081  1.00  0.00     0.040 A 
ATOM     72  C   UNL A   1      39.415  25.016  27.624  1.00  0.00     0.040 A 
ATOM     73  F   UNL A   1      38.972  25.868  29.766  1.00  0.00    -0.206 F 
ATOM     74  C   UNL A   1      40.006  25.147  26.369  1.00  0.00     0.006 A 
ENDBRANCH  46  67
BRANCH  58  75
ATOM     75  C   UNL A   1      45.078  28.467  33.234  1.00  0.00     0.057 A 
ATOM     76  C   UNL A   1      45.023  27.453  34.199  1.00  0.00     0.134 A 
ATOM     77  C   UNL A   1      46.324  28.744  32.657  1.00  0.00     0.134 A 
ATOM     78  F   UNL A   1      43.863  27.148  34.799  1.00  0.00    -0.206 F 
ATOM     79  C   UNL A   1      46.168  26.758  34.590  1.00  0.00     0.040 A 
ATOM     80  C   UNL A   1      47.470  28.034  33.017  1.00  0.00     0.040 A 
ATOM     81  F   UNL A   1      46.445  29.696  31.719  1.00  0.00    -0.206 F 
ATOM     82  C   UNL A   1      47.394  27.042  33.992  1.00  0.00     0.006 A 
ENDBRANCH  58  75
ENDBRANCH  32  33
ENDBRANCH  24  27
ENDBRANCH  22  23
ENDBRANCH  21  22
ENDBRANCH   1  21
TORSDOF 14
ENDMDL
