MODEL 1
REMARK VINA RESULT:     -12.0      0.000      0.000
REMARK SMILES Cc1cccc(Nc2ccccc2C(=O)NCCCNC(=O)c2ccc(-c3c4nc(c(-c5c(F)cccc5F)c5ccc([nH]5)c(-c5c(F)cccc5F)c5nc(c(-c6c(F)cccc6F)c6ccc3[nH]6)C=C5)C=C4)cc2)c1C
REMARK SMILES IDX 18 1 17 2 16 3 14 4 15 5 13 7 8 8 9 9 10 10 12 11 11 12 7 13
REMARK SMILES IDX 6 15 1 16 2 17 3 18 77 19 4 20 78 21 5 22 19 23 20 24 21 25
REMARK SMILES IDX 22 27 23 28 24 29 76 30 25 31 75 32 26 33 27 34 28 35 69 36
REMARK SMILES IDX 29 37 74 38 68 39 70 40 30 41 73 42 67 43 66 44 31 46 57 47
REMARK SMILES IDX 40 48 56 49 41 50 44 51 55 52 71 53 42 54 43 55 54 57 72 58
REMARK SMILES IDX 45 59 32 60 33 61 38 62 34 63 35 64 37 65 39 66 36 67 58 68
REMARK SMILES IDX 59 69 64 70 60 71 61 72 63 73 65 74 62 75 46 76 47 77 52 78
REMARK SMILES IDX 48 79 49 80 51 81 53 82 50 83
REMARK H PARENT 16 6 7 14 20 26 70 45 44 56
REMARK Flexibility Score: inf
ROOT
ATOM      1  C   UNL A   1      31.340  31.541  26.701  1.00  0.00     0.042 C 
ENDROOT
BRANCH   1   2
ATOM      2  C   UNL A   1      31.883  30.139  26.829  1.00  0.00     0.118 C 
BRANCH   2   3
ATOM      3  N   UNL A   1      32.792  29.700  25.808  1.00  0.00    -0.352 N 
ATOM      4  C   UNL A   1      32.482  29.072  24.623  1.00  0.00     0.253 C 
ATOM      5  O   UNL A   1      33.362  29.072  23.756  1.00  0.00    -0.269 OA
ATOM      6  H   UNL A   1      33.747  29.867  25.975  1.00  0.00     0.163 HD
BRANCH   4   7
ATOM      7  C   UNL A   1      31.238  28.260  24.389  1.00  0.00     0.063 A 
ATOM      8  C   UNL A   1      30.891  26.966  24.837  1.00  0.00     0.051 A 
ATOM      9  C   UNL A   1      29.689  26.394  24.341  1.00  0.00     0.027 A 
ATOM     10  C   UNL A   1      28.817  27.086  23.501  1.00  0.00     0.002 A 
ATOM     11  C   UNL A   1      30.320  28.950  23.554  1.00  0.00     0.016 A 
ATOM     12  C   UNL A   1      29.122  28.380  23.126  1.00  0.00     0.001 A 
BRANCH   8  13
ATOM     13  N   UNL A   1      31.523  26.167  25.818  1.00  0.00    -0.355 N 
ATOM     14  H   UNL A   1      31.164  26.329  26.721  1.00  0.00     0.167 HD
BRANCH  13  15
ATOM     15  C   UNL A   1      32.545  25.197  25.815  1.00  0.00     0.042 A 
ATOM     16  C   UNL A   1      33.636  21.861  27.342  1.00  0.00     0.044 C 
ATOM     17  C   UNL A   1      33.650  23.170  26.600  1.00  0.00    -0.046 A 
ATOM     18  C   UNL A   1      34.867  23.627  26.071  1.00  0.00     0.004 A 
ATOM     19  C   UNL A   1      32.466  23.933  26.429  1.00  0.00    -0.025 A 
ATOM     20  C   UNL A   1      34.928  24.827  25.379  1.00  0.00     0.002 A 
ATOM     21  C   UNL A   1      31.147  23.354  26.874  1.00  0.00     0.047 C 
ATOM     22  C   UNL A   1      33.779  25.601  25.251  1.00  0.00     0.026 A 
ENDBRANCH  13  15
ENDBRANCH   8  13
ENDBRANCH   4   7
ENDBRANCH   2   3
ENDBRANCH   1   2
BRANCH   1  23
ATOM     23  C   UNL A   1      32.402  32.611  26.500  1.00  0.00     0.118 C 
BRANCH  23  24
ATOM     24  N   UNL A   1      32.218  33.820  27.310  1.00  0.00    -0.352 N 
ATOM     25  C   UNL A   1      32.937  34.347  28.364  1.00  0.00     0.251 C 
ATOM     26  H   UNL A   1      31.435  34.358  27.052  1.00  0.00     0.163 HD
ATOM     27  O   UNL A   1      32.531  35.337  28.952  1.00  0.00    -0.269 OA
BRANCH  25  28
ATOM     28  C   UNL A   1      34.179  33.686  28.821  1.00  0.00     0.039 A 
ATOM     29  C   UNL A   1      35.407  34.342  28.670  1.00  0.00     0.014 A 
ATOM     30  C   UNL A   1      34.136  32.434  29.427  1.00  0.00     0.014 A 
ATOM     31  C   UNL A   1      36.561  33.790  29.234  1.00  0.00     0.010 A 
ATOM     32  C   UNL A   1      35.242  31.968  30.117  1.00  0.00     0.010 A 
ATOM     33  C   UNL A   1      36.475  32.628  30.016  1.00  0.00    -0.014 A 
BRANCH  33  34
ATOM     34  C   UNL A   1      37.648  32.037  30.706  1.00  0.00     0.031 A 
ATOM     35  C   UNL A   1      38.457  30.976  30.007  1.00  0.00     0.074 A 
ATOM     36  C   UNL A   1      37.912  32.358  31.988  1.00  0.00     0.049 A 
ATOM     37  N   UNL A   1      39.394  30.197  30.481  1.00  0.00    -0.248 NA
ATOM     38  C   UNL A   1      38.120  30.716  28.597  1.00  0.00     0.031 C 
ATOM     39  C   UNL A   1      37.159  33.315  32.801  1.00  0.00     0.029 A 
ATOM     40  N   UNL A   1      38.881  31.892  32.841  1.00  0.00    -0.354 N 
ATOM     41  C   UNL A   1      39.721  29.333  29.443  1.00  0.00     0.074 A 
ATOM     42  C   UNL A   1      38.829  29.628  28.346  1.00  0.00     0.031 C 
ATOM     43  C   UNL A   1      37.707  33.383  34.024  1.00  0.00     0.029 A 
ATOM     44  C   UNL A   1      38.823  32.446  34.097  1.00  0.00     0.049 A 
ATOM     45  H   UNL A   1      39.554  31.224  32.578  1.00  0.00     0.167 HD
ATOM     46  C   UNL A   1      40.703  28.402  29.391  1.00  0.00     0.037 A 
ATOM     47  C   UNL A   1      39.581  32.217  35.185  1.00  0.00     0.037 A 
ATOM     48  C   UNL A   1      41.622  28.154  30.468  1.00  0.00     0.049 A 
ATOM     49  C   UNL A   1      40.700  31.217  35.093  1.00  0.00     0.074 A 
ATOM     50  C   UNL A   1      42.697  27.286  30.504  1.00  0.00     0.029 A 
ATOM     51  N   UNL A   1      41.577  28.792  31.700  1.00  0.00    -0.354 N 
ATOM     52  N   UNL A   1      41.038  30.446  34.087  1.00  0.00    -0.248 NA
ATOM     53  C   UNL A   1      41.551  31.063  36.281  1.00  0.00     0.031 C 
ATOM     54  C   UNL A   1      43.286  27.377  31.771  1.00  0.00     0.029 A 
ATOM     55  C   UNL A   1      42.603  28.334  32.507  1.00  0.00     0.049 A 
ATOM     56  H   UNL A   1      40.913  29.471  31.961  1.00  0.00     0.167 HD
ATOM     57  C   UNL A   1      42.153  29.734  34.509  1.00  0.00     0.074 A 
ATOM     58  C   UNL A   1      42.443  30.177  35.860  1.00  0.00     0.031 C 
ATOM     59  C   UNL A   1      42.873  28.798  33.844  1.00  0.00     0.037 A 
BRANCH  46  60
ATOM     60  C   UNL A   1      40.831  27.611  28.121  1.00  0.00     0.057 A 
ATOM     61  C   UNL A   1      40.190  26.375  27.951  1.00  0.00     0.134 A 
ATOM     62  C   UNL A   1      41.617  28.078  27.060  1.00  0.00     0.134 A 
ATOM     63  F   UNL A   1      39.435  25.861  28.933  1.00  0.00    -0.206 F 
ATOM     64  C   UNL A   1      40.363  25.613  26.795  1.00  0.00     0.040 A 
ATOM     65  C   UNL A   1      41.770  27.340  25.883  1.00  0.00     0.040 A 
ATOM     66  F   UNL A   1      42.255  29.254  27.149  1.00  0.00    -0.206 F 
ATOM     67  C   UNL A   1      41.153  26.098  25.754  1.00  0.00     0.006 A 
ENDBRANCH  46  60
BRANCH  47  68
ATOM     68  C   UNL A   1      39.331  32.977  36.435  1.00  0.00     0.057 A 
ATOM     69  C   UNL A   1      38.444  32.496  37.406  1.00  0.00     0.134 A 
ATOM     70  C   UNL A   1      39.985  34.186  36.704  1.00  0.00     0.134 A 
ATOM     71  F   UNL A   1      37.777  31.351  37.200  1.00  0.00    -0.206 F 
ATOM     72  C   UNL A   1      38.204  33.193  38.591  1.00  0.00     0.040 A 
ATOM     73  C   UNL A   1      39.772  34.883  37.895  1.00  0.00     0.040 A 
ATOM     74  F   UNL A   1      40.856  34.694  35.821  1.00  0.00    -0.206 F 
ATOM     75  C   UNL A   1      38.875  34.389  38.841  1.00  0.00     0.006 A 
ENDBRANCH  47  68
BRANCH  59  76
ATOM     76  C   UNL A   1      44.061  28.218  34.552  1.00  0.00     0.057 A 
ATOM     77  C   UNL A   1      45.324  28.820  34.490  1.00  0.00     0.134 A 
ATOM     78  C   UNL A   1      43.927  27.068  35.339  1.00  0.00     0.134 A 
ATOM     79  F   UNL A   1      45.519  29.916  33.744  1.00  0.00    -0.206 F 
ATOM     80  C   UNL A   1      46.418  28.284  35.173  1.00  0.00     0.040 A 
ATOM     81  C   UNL A   1      45.006  26.539  36.047  1.00  0.00     0.040 A 
ATOM     82  F   UNL A   1      42.740  26.450  35.446  1.00  0.00    -0.206 F 
ATOM     83  C   UNL A   1      46.257  27.145  35.959  1.00  0.00     0.006 A 
ENDBRANCH  59  76
ENDBRANCH  33  34
ENDBRANCH  25  28
ENDBRANCH  23  24
ENDBRANCH   1  23
TORSDOF 12
ENDMDL
MODEL 2
REMARK VINA RESULT:     -12.0      0.606      6.247
REMARK SMILES Cc1cccc(Nc2ccccc2C(=O)NCCCNC(=O)c2ccc(-c3c4nc(c(-c5c(F)cccc5F)c5ccc([nH]5)c(-c5c(F)cccc5F)c5nc(c(-c6c(F)cccc6F)c6ccc3[nH]6)C=C5)C=C4)cc2)c1C
REMARK SMILES IDX 18 1 17 2 16 3 14 4 15 5 13 7 8 8 9 9 10 10 12 11 11 12 7 13
REMARK SMILES IDX 6 15 1 16 2 17 3 18 77 19 4 20 78 21 5 22 19 23 20 24 21 25
REMARK SMILES IDX 22 27 23 28 24 29 76 30 25 31 75 32 26 33 27 34 28 35 69 36
REMARK SMILES IDX 29 37 74 38 68 39 70 40 30 41 73 42 67 43 66 44 31 46 57 47
REMARK SMILES IDX 40 48 56 49 41 50 44 51 55 52 71 53 42 54 43 55 54 57 72 58
REMARK SMILES IDX 45 59 32 60 33 61 38 62 34 63 35 64 37 65 39 66 36 67 58 68
REMARK SMILES IDX 59 69 64 70 60 71 61 72 63 73 65 74 62 75 46 76 47 77 52 78
REMARK SMILES IDX 48 79 49 80 51 81 53 82 50 83
REMARK H PARENT 16 6 7 14 20 26 70 45 44 56
REMARK Flexibility Score: inf
ROOT
ATOM      1  C   UNL A   1      31.354  31.558  26.880  1.00  0.00     0.042 C 
ENDROOT
BRANCH   1   2
ATOM      2  C   UNL A   1      31.922  30.159  26.878  1.00  0.00     0.118 C 
BRANCH   2   3
ATOM      3  N   UNL A   1      32.795  29.815  25.792  1.00  0.00    -0.352 N 
ATOM      4  C   UNL A   1      32.453  29.236  24.591  1.00  0.00     0.253 C 
ATOM      5  O   UNL A   1      33.287  29.321  23.684  1.00  0.00    -0.269 OA
ATOM      6  H   UNL A   1      33.750  30.016  25.921  1.00  0.00     0.163 HD
BRANCH   4   7
ATOM      7  C   UNL A   1      31.235  28.382  24.375  1.00  0.00     0.063 A 
ATOM      8  C   UNL A   1      30.932  27.082  24.840  1.00  0.00     0.051 A 
ATOM      9  C   UNL A   1      29.746  26.466  24.358  1.00  0.00     0.027 A 
ATOM     10  C   UNL A   1      28.848  27.119  23.515  1.00  0.00     0.002 A 
ATOM     11  C   UNL A   1      30.290  29.031  23.537  1.00  0.00     0.016 A 
ATOM     12  C   UNL A   1      29.109  28.417  23.123  1.00  0.00     0.001 A 
BRANCH   8  13
ATOM     13  N   UNL A   1      31.596  26.316  25.827  1.00  0.00    -0.355 N 
ATOM     14  H   UNL A   1      31.304  26.547  26.738  1.00  0.00     0.167 HD
BRANCH  13  15
ATOM     15  C   UNL A   1      32.575  25.302  25.819  1.00  0.00     0.042 A 
ATOM     16  C   UNL A   1      33.523  21.918  27.335  1.00  0.00     0.044 C 
ATOM     17  C   UNL A   1      33.592  23.227  26.596  1.00  0.00    -0.046 A 
ATOM     18  C   UNL A   1      34.827  23.633  26.066  1.00  0.00     0.004 A 
ATOM     19  C   UNL A   1      32.442  24.042  26.429  1.00  0.00    -0.025 A 
ATOM     20  C   UNL A   1      34.938  24.831  25.376  1.00  0.00     0.002 A 
ATOM     21  C   UNL A   1      31.100  23.519  26.876  1.00  0.00     0.047 C 
ATOM     22  C   UNL A   1      33.824  25.654  25.253  1.00  0.00     0.026 A 
ENDBRANCH  13  15
ENDBRANCH   8  13
ENDBRANCH   4   7
ENDBRANCH   2   3
ENDBRANCH   1   2
BRANCH   1  23
ATOM     23  C   UNL A   1      32.352  32.641  26.500  1.00  0.00     0.118 C 
BRANCH  23  24
ATOM     24  N   UNL A   1      32.318  33.834  27.352  1.00  0.00    -0.352 N 
ATOM     25  C   UNL A   1      33.124  34.253  28.391  1.00  0.00     0.251 C 
ATOM     26  H   UNL A   1      31.583  34.454  27.142  1.00  0.00     0.163 HD
ATOM     27  O   UNL A   1      32.839  35.258  29.024  1.00  0.00    -0.269 OA
BRANCH  25  28
ATOM     28  C   UNL A   1      34.311  33.459  28.779  1.00  0.00     0.039 A 
ATOM     29  C   UNL A   1      35.566  34.076  28.837  1.00  0.00     0.014 A 
ATOM     30  C   UNL A   1      34.186  32.115  29.117  1.00  0.00     0.014 A 
ATOM     31  C   UNL A   1      36.661  33.371  29.345  1.00  0.00     0.010 A 
ATOM     32  C   UNL A   1      35.228  31.471  29.763  1.00  0.00     0.010 A 
ATOM     33  C   UNL A   1      36.485  32.082  29.870  1.00  0.00    -0.014 A 
BRANCH  33  34
ATOM     34  C   UNL A   1      37.589  31.313  30.496  1.00  0.00     0.031 A 
ATOM     35  C   UNL A   1      37.942  31.573  31.937  1.00  0.00     0.074 A 
ATOM     36  C   UNL A   1      38.345  30.483  29.752  1.00  0.00     0.049 A 
ATOM     37  N   UNL A   1      38.975  31.165  32.628  1.00  0.00    -0.248 NA
ATOM     38  C   UNL A   1      37.040  32.468  32.683  1.00  0.00     0.031 C 
ATOM     39  C   UNL A   1      38.153  30.201  28.328  1.00  0.00     0.029 A 
ATOM     40  N   UNL A   1      39.446  29.736  30.090  1.00  0.00    -0.354 N 
ATOM     41  C   UNL A   1      38.866  31.785  33.867  1.00  0.00     0.074 A 
ATOM     42  C   UNL A   1      37.717  32.660  33.804  1.00  0.00     0.031 C 
ATOM     43  C   UNL A   1      39.087  29.328  27.920  1.00  0.00     0.029 A 
ATOM     44  C   UNL A   1      39.968  29.018  29.041  1.00  0.00     0.049 A 
ATOM     45  H   UNL A   1      39.825  29.717  30.998  1.00  0.00     0.167 HD
ATOM     46  C   UNL A   1      39.628  31.616  34.972  1.00  0.00     0.037 A 
ATOM     47  C   UNL A   1      41.042  28.208  28.991  1.00  0.00     0.037 A 
ATOM     48  C   UNL A   1      40.736  30.701  35.042  1.00  0.00     0.049 A 
ATOM     49  C   UNL A   1      41.847  27.990  30.242  1.00  0.00     0.074 A 
ATOM     50  C   UNL A   1      41.537  30.395  36.125  1.00  0.00     0.029 A 
ATOM     51  N   UNL A   1      41.187  29.934  33.976  1.00  0.00    -0.354 N 
ATOM     52  N   UNL A   1      41.700  28.539  31.424  1.00  0.00    -0.248 NA
ATOM     53  C   UNL A   1      42.958  27.033  30.156  1.00  0.00     0.031 C 
ATOM     54  C   UNL A   1      42.494  29.462  35.708  1.00  0.00     0.029 A 
ATOM     55  C   UNL A   1      42.259  29.156  34.376  1.00  0.00     0.049 A 
ATOM     56  H   UNL A   1      40.801  29.941  33.071  1.00  0.00     0.167 HD
ATOM     57  C   UNL A   1      42.682  27.978  32.230  1.00  0.00     0.074 A 
ATOM     58  C   UNL A   1      43.409  27.034  31.403  1.00  0.00     0.031 C 
ATOM     59  C   UNL A   1      42.960  28.220  33.535  1.00  0.00     0.037 A 
BRANCH  46  60
ATOM     60  C   UNL A   1      39.267  32.423  36.185  1.00  0.00     0.057 A 
ATOM     61  C   UNL A   1      38.357  31.951  37.144  1.00  0.00     0.134 A 
ATOM     62  C   UNL A   1      39.818  33.693  36.394  1.00  0.00     0.134 A 
ATOM     63  F   UNL A   1      37.780  30.749  36.999  1.00  0.00    -0.206 F 
ATOM     64  C   UNL A   1      37.975  32.730  38.237  1.00  0.00     0.040 A 
ATOM     65  C   UNL A   1      39.469  34.468  37.503  1.00  0.00     0.040 A 
ATOM     66  F   UNL A   1      40.697  34.207  35.522  1.00  0.00    -0.206 F 
ATOM     67  C   UNL A   1      38.535  33.992  38.421  1.00  0.00     0.006 A 
ENDBRANCH  46  60
BRANCH  47  68
ATOM     68  C   UNL A   1      41.387  27.515  27.724  1.00  0.00     0.057 A 
ATOM     69  C   UNL A   1      40.849  26.259  27.419  1.00  0.00     0.134 A 
ATOM     70  C   UNL A   1      42.242  28.095  26.779  1.00  0.00     0.134 A 
ATOM     71  F   UNL A   1      40.035  25.645  28.291  1.00  0.00    -0.206 F 
ATOM     72  C   UNL A   1      41.157  25.598  26.229  1.00  0.00     0.040 A 
ATOM     73  C   UNL A   1      42.541  27.456  25.574  1.00  0.00     0.040 A 
ATOM     74  F   UNL A   1      42.781  29.302  27.005  1.00  0.00    -0.206 F 
ATOM     75  C   UNL A   1      42.001  26.201  25.298  1.00  0.00     0.006 A 
ENDBRANCH  47  68
BRANCH  59  76
ATOM     76  C   UNL A   1      44.072  27.428  34.156  1.00  0.00     0.057 A 
ATOM     77  C   UNL A   1      45.385  27.911  34.204  1.00  0.00     0.134 A 
ATOM     78  C   UNL A   1      43.813  26.188  34.751  1.00  0.00     0.134 A 
ATOM     79  F   UNL A   1      45.698  29.087  33.641  1.00  0.00    -0.206 F 
ATOM     80  C   UNL A   1      46.408  27.176  34.806  1.00  0.00     0.040 A 
ATOM     81  C   UNL A   1      44.821  25.457  35.380  1.00  0.00     0.040 A 
ATOM     82  F   UNL A   1      42.573  25.674  34.747  1.00  0.00    -0.206 F 
ATOM     83  C   UNL A   1      46.124  25.949  35.402  1.00  0.00     0.006 A 
ENDBRANCH  59  76
ENDBRANCH  33  34
ENDBRANCH  25  28
ENDBRANCH  23  24
ENDBRANCH   1  23
TORSDOF 12
ENDMDL
MODEL 3
REMARK VINA RESULT:     -11.9      5.381     10.335
REMARK SMILES Cc1cccc(Nc2ccccc2C(=O)NCCCNC(=O)c2ccc(-c3c4nc(c(-c5c(F)cccc5F)c5ccc([nH]5)c(-c5c(F)cccc5F)c5nc(c(-c6c(F)cccc6F)c6ccc3[nH]6)C=C5)C=C4)cc2)c1C
REMARK SMILES IDX 18 1 17 2 16 3 14 4 15 5 13 7 8 8 9 9 10 10 12 11 11 12 7 13
REMARK SMILES IDX 6 15 1 16 2 17 3 18 77 19 4 20 78 21 5 22 19 23 20 24 21 25
REMARK SMILES IDX 22 27 23 28 24 29 76 30 25 31 75 32 26 33 27 34 28 35 69 36
REMARK SMILES IDX 29 37 74 38 68 39 70 40 30 41 73 42 67 43 66 44 31 46 57 47
REMARK SMILES IDX 40 48 56 49 41 50 44 51 55 52 71 53 42 54 43 55 54 57 72 58
REMARK SMILES IDX 45 59 32 60 33 61 38 62 34 63 35 64 37 65 39 66 36 67 58 68
REMARK SMILES IDX 59 69 64 70 60 71 61 72 63 73 65 74 62 75 46 76 47 77 52 78
REMARK SMILES IDX 48 79 49 80 51 81 53 82 50 83
REMARK H PARENT 16 6 7 14 20 26 70 45 44 56
REMARK Flexibility Score: inf
ROOT
ATOM      1  C   UNL A   1      37.987  20.360  25.001  1.00  0.00     0.042 C 
ENDROOT
BRANCH   1   2
ATOM      2  C   UNL A   1      37.144  21.611  24.963  1.00  0.00     0.118 C 
BRANCH   2   3
ATOM      3  N   UNL A   1      36.227  21.810  26.050  1.00  0.00    -0.352 N 
ATOM      4  C   UNL A   1      34.874  21.562  26.062  1.00  0.00     0.253 C 
ATOM      5  O   UNL A   1      34.338  21.493  27.173  1.00  0.00    -0.269 OA
ATOM      6  H   UNL A   1      36.612  22.164  26.884  1.00  0.00     0.163 HD
BRANCH   4   7
ATOM      7  C   UNL A   1      34.001  21.542  24.838  1.00  0.00     0.063 A 
ATOM      8  C   UNL A   1      33.663  22.577  23.937  1.00  0.00     0.051 A 
ATOM      9  C   UNL A   1      32.696  22.292  22.935  1.00  0.00     0.027 A 
ATOM     10  C   UNL A   1      32.138  21.027  22.766  1.00  0.00     0.002 A 
ATOM     11  C   UNL A   1      33.435  20.257  24.627  1.00  0.00     0.016 A 
ATOM     12  C   UNL A   1      32.528  19.997  23.601  1.00  0.00     0.001 A 
BRANCH   8  13
ATOM     13  N   UNL A   1      34.234  23.864  23.809  1.00  0.00    -0.355 N 
ATOM     14  H   UNL A   1      35.086  23.848  23.316  1.00  0.00     0.167 HD
BRANCH  13  15
ATOM     15  C   UNL A   1      33.878  25.165  24.220  1.00  0.00     0.042 A 
ATOM     16  C   UNL A   1      33.299  28.741  22.984  1.00  0.00     0.044 C 
ATOM     17  C   UNL A   1      33.515  27.552  23.881  1.00  0.00    -0.046 A 
ATOM     18  C   UNL A   1      33.653  27.770  25.260  1.00  0.00     0.004 A 
ATOM     19  C   UNL A   1      33.576  26.234  23.357  1.00  0.00    -0.025 A 
ATOM     20  C   UNL A   1      33.852  26.705  26.126  1.00  0.00     0.002 A 
ATOM     21  C   UNL A   1      33.278  26.009  21.896  1.00  0.00     0.047 C 
ATOM     22  C   UNL A   1      33.961  25.418  25.611  1.00  0.00     0.026 A 
ENDBRANCH  13  15
ENDBRANCH   8  13
ENDBRANCH   4   7
ENDBRANCH   2   3
ENDBRANCH   1   2
BRANCH   1  23
ATOM     23  C   UNL A   1      39.051  20.351  26.088  1.00  0.00     0.118 C 
BRANCH  23  24
ATOM     24  N   UNL A   1      40.037  19.273  25.972  1.00  0.00    -0.352 N 
ATOM     25  C   UNL A   1      41.415  19.263  26.071  1.00  0.00     0.251 C 
ATOM     26  H   UNL A   1      39.644  18.389  25.793  1.00  0.00     0.163 HD
ATOM     27  O   UNL A   1      42.040  18.239  25.842  1.00  0.00    -0.269 OA
BRANCH  25  28
ATOM     28  C   UNL A   1      42.146  20.505  26.405  1.00  0.00     0.039 A 
ATOM     29  C   UNL A   1      42.669  21.296  25.376  1.00  0.00     0.014 A 
ATOM     30  C   UNL A   1      42.292  20.910  27.728  1.00  0.00     0.014 A 
ATOM     31  C   UNL A   1      43.228  22.542  25.676  1.00  0.00     0.010 A 
ATOM     32  C   UNL A   1      42.698  22.203  28.009  1.00  0.00     0.010 A 
ATOM     33  C   UNL A   1      43.190  23.031  26.991  1.00  0.00    -0.014 A 
BRANCH  33  34
ATOM     34  C   UNL A   1      43.693  24.377  27.360  1.00  0.00     0.031 A 
ATOM     35  C   UNL A   1      42.716  25.426  27.824  1.00  0.00     0.074 A 
ATOM     36  C   UNL A   1      44.989  24.694  27.168  1.00  0.00     0.049 A 
ATOM     37  N   UNL A   1      42.899  26.707  28.014  1.00  0.00    -0.248 NA
ATOM     38  C   UNL A   1      41.329  24.982  28.040  1.00  0.00     0.031 C 
ATOM     39  C   UNL A   1      46.020  23.790  26.655  1.00  0.00     0.029 A 
ATOM     40  N   UNL A   1      45.655  25.877  27.364  1.00  0.00    -0.354 N 
ATOM     41  C   UNL A   1      41.647  27.221  28.329  1.00  0.00     0.074 A 
ATOM     42  C   UNL A   1      40.702  26.133  28.222  1.00  0.00     0.031 C 
ATOM     43  C   UNL A   1      47.191  24.444  26.598  1.00  0.00     0.029 A 
ATOM     44  C   UNL A   1      46.987  25.821  27.031  1.00  0.00     0.049 A 
ATOM     45  H   UNL A   1      45.219  26.690  27.709  1.00  0.00     0.167 HD
ATOM     46  C   UNL A   1      41.316  28.476  28.711  1.00  0.00     0.037 A 
ATOM     47  C   UNL A   1      47.933  26.778  27.066  1.00  0.00     0.037 A 
ATOM     48  C   UNL A   1      42.272  29.539  28.869  1.00  0.00     0.049 A 
ATOM     49  C   UNL A   1      47.558  28.154  27.543  1.00  0.00     0.074 A 
ATOM     50  C   UNL A   1      42.063  30.829  29.316  1.00  0.00     0.029 A 
ATOM     51  N   UNL A   1      43.627  29.420  28.594  1.00  0.00    -0.354 N 
ATOM     52  N   UNL A   1      46.381  28.614  27.893  1.00  0.00    -0.248 NA
ATOM     53  C   UNL A   1      48.643  29.140  27.642  1.00  0.00     0.031 C 
ATOM     54  C   UNL A   1      43.290  31.503  29.284  1.00  0.00     0.029 A 
ATOM     55  C   UNL A   1      44.268  30.617  28.859  1.00  0.00     0.049 A 
ATOM     56  H   UNL A   1      44.068  28.605  28.262  1.00  0.00     0.167 HD
ATOM     57  C   UNL A   1      46.585  29.933  28.277  1.00  0.00     0.074 A 
ATOM     58  C   UNL A   1      48.004  30.194  28.130  1.00  0.00     0.031 C 
ATOM     59  C   UNL A   1      45.683  30.848  28.711  1.00  0.00     0.037 A 
BRANCH  46  60
ATOM     60  C   UNL A   1      39.866  28.745  29.000  1.00  0.00     0.057 A 
ATOM     61  C   UNL A   1      38.977  29.160  27.997  1.00  0.00     0.134 A 
ATOM     62  C   UNL A   1      39.354  28.607  30.295  1.00  0.00     0.134 A 
ATOM     63  F   UNL A   1      39.405  29.328  26.737  1.00  0.00    -0.206 F 
ATOM     64  C   UNL A   1      37.646  29.471  28.280  1.00  0.00     0.040 A 
ATOM     65  C   UNL A   1      38.015  28.882  30.585  1.00  0.00     0.040 A 
ATOM     66  F   UNL A   1      40.144  28.210  31.303  1.00  0.00    -0.206 F 
ATOM     67  C   UNL A   1      37.161  29.328  29.579  1.00  0.00     0.006 A 
ENDBRANCH  46  60
BRANCH  47  68
ATOM     68  C   UNL A   1      49.328  26.454  26.676  1.00  0.00     0.057 A 
ATOM     69  C   UNL A   1      50.223  25.897  27.597  1.00  0.00     0.134 A 
ATOM     70  C   UNL A   1      49.797  26.669  25.374  1.00  0.00     0.134 A 
ATOM     71  F   UNL A   1      49.839  25.681  28.864  1.00  0.00    -0.206 F 
ATOM     72  C   UNL A   1      51.536  25.578  27.245  1.00  0.00     0.040 A 
ATOM     73  C   UNL A   1      51.100  26.333  25.001  1.00  0.00     0.040 A 
ATOM     74  F   UNL A   1      48.986  27.188  24.441  1.00  0.00    -0.206 F 
ATOM     75  C   UNL A   1      51.975  25.791  25.940  1.00  0.00     0.006 A 
ENDBRANCH  47  68
BRANCH  59  76
ATOM     76  C   UNL A   1      46.208  32.200  29.090  1.00  0.00     0.057 A 
ATOM     77  C   UNL A   1      46.270  33.253  28.169  1.00  0.00     0.134 A 
ATOM     78  C   UNL A   1      46.614  32.461  30.405  1.00  0.00     0.134 A 
ATOM     79  F   UNL A   1      45.907  33.063  26.893  1.00  0.00    -0.206 F 
ATOM     80  C   UNL A   1      46.738  34.515  28.540  1.00  0.00     0.040 A 
ATOM     81  C   UNL A   1      47.057  33.725  30.793  1.00  0.00     0.040 A 
ATOM     82  F   UNL A   1      46.569  31.495  31.336  1.00  0.00    -0.206 F 
ATOM     83  C   UNL A   1      47.127  34.754  29.857  1.00  0.00     0.006 A 
ENDBRANCH  59  76
ENDBRANCH  33  34
ENDBRANCH  25  28
ENDBRANCH  23  24
ENDBRANCH   1  23
TORSDOF 12
ENDMDL
