MODEL 1
REMARK VINA RESULT:     -11.8      0.000      0.000
REMARK SMILES Cn1ncc(C(=O)NCc2ccc(F)cc2)c1C(=O)NCCCNC(=O)c1ccc(-c2c3nc(c(-c4c(F)cccc4F)c4ccc([nH]4)c(-c4c(F)cccc4F)c4nc(c(-c5c(F)cccc5F)c5ccc2[nH]5)C=C4)C=C3)cc1
REMARK SMILES IDX 21 1 20 2 18 3 19 4 17 6 1 7 2 8 3 9 4 10 5 11 6 12 7 13
REMARK SMILES IDX 8 14 9 16 10 17 11 18 16 19 12 20 15 21 13 22 14 23 22 24
REMARK SMILES IDX 23 25 24 26 25 27 26 29 27 30 28 31 80 32 29 33 79 34 30 35
REMARK SMILES IDX 31 36 32 37 73 38 33 39 78 40 72 41 74 42 34 43 77 44 71 45
REMARK SMILES IDX 70 46 35 48 61 49 44 50 60 51 45 52 48 53 59 54 75 55 46 56
REMARK SMILES IDX 47 57 58 59 76 60 49 61 36 62 37 63 42 64 38 65 39 66 41 67
REMARK SMILES IDX 43 68 40 69 62 70 63 71 68 72 64 73 65 74 67 75 69 76 66 77
REMARK SMILES IDX 50 78 51 79 56 80 52 81 53 82 55 83 57 84 54 85
REMARK H PARENT 20 5 8 15 24 28 74 47 48 58
REMARK Flexibility Score: inf
ROOT
ATOM      1  C   UNL A   1      31.873  26.910  25.928  1.00  0.00     0.118 C 
ENDROOT
BRANCH   1   2
ATOM      2  N   UNL A   1      32.342  25.606  25.484  1.00  0.00    -0.351 N 
ATOM      3  C   UNL A   1      33.552  25.446  24.841  1.00  0.00     0.270 C 
ATOM      4  O   UNL A   1      34.573  25.357  25.515  1.00  0.00    -0.268 OA
ATOM      5  H   UNL A   1      31.778  24.816  25.645  1.00  0.00     0.163 HD
BRANCH   3   6
ATOM      6  C   UNL A   1      33.477  25.098  23.441  1.00  0.00     0.138 A 
ATOM      7  C   UNL A   1      33.742  22.570  23.593  1.00  0.00     0.174 C 
ATOM      8  N   UNL A   1      33.528  23.825  22.913  1.00  0.00    -0.262 N 
ATOM      9  N   UNL A   1      33.278  23.767  21.595  1.00  0.00    -0.180 NA
ATOM     10  C   UNL A   1      33.083  25.036  21.257  1.00  0.00     0.149 A 
ATOM     11  C   UNL A   1      33.266  25.934  22.338  1.00  0.00     0.090 A 
BRANCH  11  12
ATOM     12  C   UNL A   1      33.152  27.375  22.171  1.00  0.00     0.255 C 
ATOM     13  O   UNL A   1      34.160  28.054  21.964  1.00  0.00    -0.269 OA
ATOM     14  N   UNL A   1      31.983  28.058  22.376  1.00  0.00    -0.348 N 
ATOM     15  H   UNL A   1      32.079  29.038  22.372  1.00  0.00     0.164 HD
BRANCH  14  16
ATOM     16  C   UNL A   1      30.639  27.598  22.593  1.00  0.00     0.152 C 
BRANCH  16  17
ATOM     17  C   UNL A   1      29.629  28.695  22.790  1.00  0.00    -0.029 A 
ATOM     18  C   UNL A   1      28.253  28.419  22.765  1.00  0.00     0.008 A 
ATOM     19  C   UNL A   1      30.065  29.985  23.139  1.00  0.00     0.008 A 
ATOM     20  C   UNL A   1      27.333  29.405  23.124  1.00  0.00     0.039 A 
ATOM     21  C   UNL A   1      29.142  30.967  23.501  1.00  0.00     0.039 A 
ATOM     22  C   UNL A   1      27.786  30.664  23.501  1.00  0.00     0.123 A 
ATOM     23  F   UNL A   1      26.903  31.594  23.886  1.00  0.00    -0.207 F 
ENDBRANCH  16  17
ENDBRANCH  14  16
ENDBRANCH  11  12
ENDBRANCH   3   6
ENDBRANCH   1   2
BRANCH   1  24
ATOM     24  C   UNL A   1      33.000  27.940  25.878  1.00  0.00     0.042 C 
BRANCH  24  25
ATOM     25  C   UNL A   1      33.577  28.283  27.251  1.00  0.00     0.118 C 
BRANCH  25  26
ATOM     26  N   UNL A   1      33.555  29.717  27.498  1.00  0.00    -0.352 N 
ATOM     27  C   UNL A   1      34.501  30.528  28.077  1.00  0.00     0.251 C 
ATOM     28  H   UNL A   1      32.736  30.177  27.205  1.00  0.00     0.163 HD
ATOM     29  O   UNL A   1      34.182  31.657  28.437  1.00  0.00    -0.269 OA
BRANCH  27  30
ATOM     30  C   UNL A   1      35.895  30.067  28.274  1.00  0.00     0.039 A 
ATOM     31  C   UNL A   1      36.283  29.631  29.547  1.00  0.00     0.014 A 
ATOM     32  C   UNL A   1      36.843  30.146  27.251  1.00  0.00     0.014 A 
ATOM     33  C   UNL A   1      37.604  29.236  29.781  1.00  0.00     0.010 A 
ATOM     34  C   UNL A   1      38.148  29.703  27.470  1.00  0.00     0.010 A 
ATOM     35  C   UNL A   1      38.544  29.253  28.739  1.00  0.00    -0.014 A 
BRANCH  35  36
ATOM     36  C   UNL A   1      39.949  28.829  28.963  1.00  0.00     0.031 A 
ATOM     37  C   UNL A   1      40.937  29.778  29.583  1.00  0.00     0.074 A 
ATOM     38  C   UNL A   1      40.355  27.609  28.562  1.00  0.00     0.049 A 
ATOM     39  N   UNL A   1      42.225  29.628  29.765  1.00  0.00    -0.248 NA
ATOM     40  C   UNL A   1      40.412  31.075  30.039  1.00  0.00     0.031 C 
ATOM     41  C   UNL A   1      39.504  26.601  27.928  1.00  0.00     0.029 A 
ATOM     42  N   UNL A   1      41.590  27.015  28.622  1.00  0.00    -0.354 N 
ATOM     43  C   UNL A   1      42.669  30.816  30.329  1.00  0.00     0.074 A 
ATOM     44  C   UNL A   1      41.517  31.688  30.439  1.00  0.00     0.031 C 
ATOM     45  C   UNL A   1      40.240  25.507  27.673  1.00  0.00     0.029 A 
ATOM     46  C   UNL A   1      41.617  25.746  28.097  1.00  0.00     0.049 A 
ATOM     47  H   UNL A   1      42.383  27.455  29.007  1.00  0.00     0.167 HD
ATOM     48  C   UNL A   1      43.919  31.149  30.728  1.00  0.00     0.037 A 
ATOM     49  C   UNL A   1      42.635  24.877  27.963  1.00  0.00     0.037 A 
ATOM     50  C   UNL A   1      45.057  30.273  30.664  1.00  0.00     0.049 A 
ATOM     51  C   UNL A   1      44.008  25.260  28.434  1.00  0.00     0.074 A 
ATOM     52  C   UNL A   1      46.351  30.507  31.098  1.00  0.00     0.029 A 
ATOM     53  N   UNL A   1      45.035  28.990  30.141  1.00  0.00    -0.354 N 
ATOM     54  N   UNL A   1      44.407  26.381  28.983  1.00  0.00    -0.248 NA
ATOM     55  C   UNL A   1      45.073  24.259  28.267  1.00  0.00     0.031 C 
ATOM     56  C   UNL A   1      47.118  29.371  30.820  1.00  0.00     0.029 A 
ATOM     57  C   UNL A   1      46.296  28.423  30.235  1.00  0.00     0.049 A 
ATOM     58  H   UNL A   1      44.243  28.549  29.760  1.00  0.00     0.167 HD
ATOM     59  C   UNL A   1      45.763  26.219  29.237  1.00  0.00     0.074 A 
ATOM     60  C   UNL A   1      46.118  24.886  28.791  1.00  0.00     0.031 C 
ATOM     61  C   UNL A   1      46.633  27.096  29.790  1.00  0.00     0.037 A 
BRANCH  48  62
ATOM     62  C   UNL A   1      44.123  32.527  31.279  1.00  0.00     0.057 A 
ATOM     63  C   UNL A   1      43.993  32.774  32.652  1.00  0.00     0.134 A 
ATOM     64  C   UNL A   1      44.403  33.618  30.447  1.00  0.00     0.134 A 
ATOM     65  F   UNL A   1      43.720  31.772  33.501  1.00  0.00    -0.206 F 
ATOM     66  C   UNL A   1      44.133  34.060  33.177  1.00  0.00     0.040 A 
ATOM     67  C   UNL A   1      44.564  34.905  30.963  1.00  0.00     0.040 A 
ATOM     68  F   UNL A   1      44.552  33.442  29.125  1.00  0.00    -0.206 F 
ATOM     69  C   UNL A   1      44.423  35.129  32.331  1.00  0.00     0.006 A 
ENDBRANCH  48  62
BRANCH  49  70
ATOM     70  C   UNL A   1      42.382  23.541  27.375  1.00  0.00     0.057 A 
ATOM     71  C   UNL A   1      42.052  22.441  28.173  1.00  0.00     0.134 A 
ATOM     72  C   UNL A   1      42.491  23.335  25.996  1.00  0.00     0.134 A 
ATOM     73  F   UNL A   1      41.939  22.578  29.502  1.00  0.00    -0.206 F 
ATOM     74  C   UNL A   1      41.851  21.176  27.620  1.00  0.00     0.040 A 
ATOM     75  C   UNL A   1      42.278  22.079  25.428  1.00  0.00     0.040 A 
ATOM     76  F   UNL A   1      42.788  24.360  25.182  1.00  0.00    -0.206 F 
ATOM     77  C   UNL A   1      41.964  20.993  26.243  1.00  0.00     0.006 A 
ENDBRANCH  49  70
BRANCH  61  78
ATOM     78  C   UNL A   1      48.050  26.646  29.960  1.00  0.00     0.057 A 
ATOM     79  C   UNL A   1      48.993  26.854  28.947  1.00  0.00     0.134 A 
ATOM     80  C   UNL A   1      48.463  25.951  31.103  1.00  0.00     0.134 A 
ATOM     81  F   UNL A   1      48.654  27.510  27.827  1.00  0.00    -0.206 F 
ATOM     82  C   UNL A   1      50.299  26.376  29.060  1.00  0.00     0.040 A 
ATOM     83  C   UNL A   1      49.770  25.481  31.233  1.00  0.00     0.040 A 
ATOM     84  F   UNL A   1      47.606  25.731  32.112  1.00  0.00    -0.206 F 
ATOM     85  C   UNL A   1      50.690  25.688  30.207  1.00  0.00     0.006 A 
ENDBRANCH  61  78
ENDBRANCH  35  36
ENDBRANCH  27  30
ENDBRANCH  25  26
ENDBRANCH  24  25
ENDBRANCH   1  24
TORSDOF 13
ENDMDL
MODEL 2
REMARK VINA RESULT:     -11.7      3.265      8.482
REMARK SMILES Cn1ncc(C(=O)NCc2ccc(F)cc2)c1C(=O)NCCCNC(=O)c1ccc(-c2c3nc(c(-c4c(F)cccc4F)c4ccc([nH]4)c(-c4c(F)cccc4F)c4nc(c(-c5c(F)cccc5F)c5ccc2[nH]5)C=C4)C=C3)cc1
REMARK SMILES IDX 21 1 20 2 18 3 19 4 17 6 1 7 2 8 3 9 4 10 5 11 6 12 7 13
REMARK SMILES IDX 8 14 9 16 10 17 11 18 16 19 12 20 15 21 13 22 14 23 22 24
REMARK SMILES IDX 23 25 24 26 25 27 26 29 27 30 28 31 80 32 29 33 79 34 30 35
REMARK SMILES IDX 31 36 32 37 73 38 33 39 78 40 72 41 74 42 34 43 77 44 71 45
REMARK SMILES IDX 70 46 35 48 61 49 44 50 60 51 45 52 48 53 59 54 75 55 46 56
REMARK SMILES IDX 47 57 58 59 76 60 49 61 36 62 37 63 42 64 38 65 39 66 41 67
REMARK SMILES IDX 43 68 40 69 62 70 63 71 68 72 64 73 65 74 67 75 69 76 66 77
REMARK SMILES IDX 50 78 51 79 56 80 52 81 53 82 55 83 57 84 54 85
REMARK H PARENT 20 5 8 15 24 28 74 47 48 58
REMARK Flexibility Score: inf
ROOT
ATOM      1  C   UNL A   1      34.905  23.112  24.042  1.00  0.00     0.118 C 
ENDROOT
BRANCH   1   2
ATOM      2  N   UNL A   1      33.928  24.188  24.070  1.00  0.00    -0.351 N 
ATOM      3  C   UNL A   1      33.667  24.907  25.219  1.00  0.00     0.270 C 
ATOM      4  O   UNL A   1      34.403  25.842  25.512  1.00  0.00    -0.268 OA
ATOM      5  H   UNL A   1      33.437  24.409  23.246  1.00  0.00     0.163 HD
BRANCH   3   6
ATOM      6  C   UNL A   1      32.371  24.682  25.817  1.00  0.00     0.138 A 
ATOM      7  C   UNL A   1      31.170  26.810  25.100  1.00  0.00     0.174 C 
ATOM      8  N   UNL A   1      31.275  25.514  25.727  1.00  0.00    -0.262 N 
ATOM      9  N   UNL A   1      30.148  24.995  26.242  1.00  0.00    -0.180 NA
ATOM     10  C   UNL A   1      30.529  23.809  26.698  1.00  0.00     0.149 A 
ATOM     11  C   UNL A   1      31.918  23.572  26.539  1.00  0.00     0.090 A 
BRANCH  11  12
ATOM     12  C   UNL A   1      32.552  22.354  27.021  1.00  0.00     0.255 C 
ATOM     13  O   UNL A   1      33.109  22.340  28.120  1.00  0.00    -0.269 OA
ATOM     14  N   UNL A   1      32.694  21.233  26.247  1.00  0.00    -0.348 N 
ATOM     15  H   UNL A   1      33.267  20.537  26.643  1.00  0.00     0.164 HD
BRANCH  14  16
ATOM     16  C   UNL A   1      32.153  20.891  24.961  1.00  0.00     0.152 C 
BRANCH  16  17
ATOM     17  C   UNL A   1      32.828  19.726  24.290  1.00  0.00    -0.029 A 
ATOM     18  C   UNL A   1      34.053  19.233  24.766  1.00  0.00     0.008 A 
ATOM     19  C   UNL A   1      32.163  19.037  23.261  1.00  0.00     0.008 A 
ATOM     20  C   UNL A   1      34.579  18.048  24.251  1.00  0.00     0.039 A 
ATOM     21  C   UNL A   1      32.691  17.851  22.751  1.00  0.00     0.039 A 
ATOM     22  C   UNL A   1      33.888  17.361  23.259  1.00  0.00     0.123 A 
ATOM     23  F   UNL A   1      34.375  16.203  22.797  1.00  0.00    -0.207 F 
ENDBRANCH  16  17
ENDBRANCH  14  16
ENDBRANCH  11  12
ENDBRANCH   3   6
ENDBRANCH   1   2
BRANCH   1  24
ATOM     24  C   UNL A   1      36.252  23.583  24.589  1.00  0.00     0.042 C 
BRANCH  24  25
ATOM     25  C   UNL A   1      36.513  23.149  26.031  1.00  0.00     0.118 C 
BRANCH  25  26
ATOM     26  N   UNL A   1      37.692  22.302  26.130  1.00  0.00    -0.352 N 
ATOM     27  C   UNL A   1      39.009  22.641  26.324  1.00  0.00     0.251 C 
ATOM     28  H   UNL A   1      37.519  21.336  26.046  1.00  0.00     0.163 HD
ATOM     29  O   UNL A   1      39.881  21.805  26.107  1.00  0.00    -0.269 OA
BRANCH  27  30
ATOM     30  C   UNL A   1      39.396  23.994  26.786  1.00  0.00     0.039 A 
ATOM     31  C   UNL A   1      39.980  24.875  25.868  1.00  0.00     0.014 A 
ATOM     32  C   UNL A   1      39.279  24.369  28.127  1.00  0.00     0.014 A 
ATOM     33  C   UNL A   1      40.403  26.142  26.283  1.00  0.00     0.010 A 
ATOM     34  C   UNL A   1      39.653  25.652  28.531  1.00  0.00     0.010 A 
ATOM     35  C   UNL A   1      40.227  26.547  27.615  1.00  0.00    -0.014 A 
BRANCH  35  36
ATOM     36  C   UNL A   1      40.660  27.891  28.074  1.00  0.00     0.031 A 
ATOM     37  C   UNL A   1      42.119  28.253  28.087  1.00  0.00     0.074 A 
ATOM     38  C   UNL A   1      39.750  28.771  28.531  1.00  0.00     0.049 A 
ATOM     39  N   UNL A   1      42.700  29.334  28.545  1.00  0.00    -0.248 NA
ATOM     40  C   UNL A   1      43.053  27.261  27.530  1.00  0.00     0.031 C 
ATOM     41  C   UNL A   1      38.306  28.538  28.593  1.00  0.00     0.029 A 
ATOM     42  N   UNL A   1      39.907  30.037  29.038  1.00  0.00    -0.354 N 
ATOM     43  C   UNL A   1      44.062  29.141  28.359  1.00  0.00     0.074 A 
ATOM     44  C   UNL A   1      44.226  27.830  27.766  1.00  0.00     0.031 C 
ATOM     45  C   UNL A   1      37.708  29.632  29.093  1.00  0.00     0.029 A 
ATOM     46  C   UNL A   1      38.727  30.629  29.414  1.00  0.00     0.049 A 
ATOM     47  H   UNL A   1      40.782  30.479  29.122  1.00  0.00     0.167 HD
ATOM     48  C   UNL A   1      45.083  29.982  28.646  1.00  0.00     0.037 A 
ATOM     49  C   UNL A   1      38.490  31.835  29.963  1.00  0.00     0.037 A 
ATOM     50  C   UNL A   1      44.924  31.303  29.193  1.00  0.00     0.049 A 
ATOM     51  C   UNL A   1      39.637  32.760  30.251  1.00  0.00     0.074 A 
ATOM     52  C   UNL A   1      45.901  32.247  29.463  1.00  0.00     0.029 A 
ATOM     53  N   UNL A   1      43.709  31.870  29.543  1.00  0.00    -0.354 N 
ATOM     54  N   UNL A   1      40.917  32.570  30.052  1.00  0.00    -0.248 NA
ATOM     55  C   UNL A   1      39.306  34.065  30.842  1.00  0.00     0.031 C 
ATOM     56  C   UNL A   1      45.277  33.380  29.996  1.00  0.00     0.029 A 
ATOM     57  C   UNL A   1      43.912  33.149  30.034  1.00  0.00     0.049 A 
ATOM     58  H   UNL A   1      42.834  31.430  29.455  1.00  0.00     0.167 HD
ATOM     59  C   UNL A   1      41.545  33.732  30.480  1.00  0.00     0.074 A 
ATOM     60  C   UNL A   1      40.504  34.627  30.942  1.00  0.00     0.031 C 
ATOM     61  C   UNL A   1      42.866  34.029  30.488  1.00  0.00     0.037 A 
BRANCH  48  62
ATOM     62  C   UNL A   1      46.473  29.499  28.368  1.00  0.00     0.057 A 
ATOM     63  C   UNL A   1      47.220  28.859  29.365  1.00  0.00     0.134 A 
ATOM     64  C   UNL A   1      47.090  29.706  27.127  1.00  0.00     0.134 A 
ATOM     65  F   UNL A   1      46.688  28.635  30.576  1.00  0.00    -0.206 F 
ATOM     66  C   UNL A   1      48.533  28.444  29.139  1.00  0.00     0.040 A 
ATOM     67  C   UNL A   1      48.396  29.279  26.884  1.00  0.00     0.040 A 
ATOM     68  F   UNL A   1      46.421  30.302  26.129  1.00  0.00    -0.206 F 
ATOM     69  C   UNL A   1      49.123  28.651  27.893  1.00  0.00     0.006 A 
ENDBRANCH  48  62
BRANCH  49  70
ATOM     70  C   UNL A   1      37.096  32.244  30.253  1.00  0.00     0.057 A 
ATOM     71  C   UNL A   1      36.341  32.974  29.329  1.00  0.00     0.134 A 
ATOM     72  C   UNL A   1      36.499  31.931  31.479  1.00  0.00     0.134 A 
ATOM     73  F   UNL A   1      36.863  33.307  28.140  1.00  0.00    -0.206 F 
ATOM     74  C   UNL A   1      35.041  33.390  29.619  1.00  0.00     0.040 A 
ATOM     75  C   UNL A   1      35.196  32.328  31.776  1.00  0.00     0.040 A 
ATOM     76  F   UNL A   1      37.173  31.218  32.394  1.00  0.00    -0.206 F 
ATOM     77  C   UNL A   1      34.465  33.067  30.847  1.00  0.00     0.006 A 
ENDBRANCH  49  70
BRANCH  61  78
ATOM     78  C   UNL A   1      43.267  35.378  30.997  1.00  0.00     0.057 A 
ATOM     79  C   UNL A   1      43.479  36.442  30.112  1.00  0.00     0.134 A 
ATOM     80  C   UNL A   1      43.501  35.604  32.358  1.00  0.00     0.134 A 
ATOM     81  F   UNL A   1      43.275  36.283  28.796  1.00  0.00    -0.206 F 
ATOM     82  C   UNL A   1      43.923  37.685  30.565  1.00  0.00     0.040 A 
ATOM     83  C   UNL A   1      43.931  36.847  32.823  1.00  0.00     0.040 A 
ATOM     84  F   UNL A   1      43.304  34.625  33.254  1.00  0.00    -0.206 F 
ATOM     85  C   UNL A   1      44.150  37.890  31.924  1.00  0.00     0.006 A 
ENDBRANCH  61  78
ENDBRANCH  35  36
ENDBRANCH  27  30
ENDBRANCH  25  26
ENDBRANCH  24  25
ENDBRANCH   1  24
TORSDOF 13
ENDMDL
MODEL 3
REMARK VINA RESULT:     -11.7      1.899      2.540
REMARK SMILES Cn1ncc(C(=O)NCc2ccc(F)cc2)c1C(=O)NCCCNC(=O)c1ccc(-c2c3nc(c(-c4c(F)cccc4F)c4ccc([nH]4)c(-c4c(F)cccc4F)c4nc(c(-c5c(F)cccc5F)c5ccc2[nH]5)C=C4)C=C3)cc1
REMARK SMILES IDX 21 1 20 2 18 3 19 4 17 6 1 7 2 8 3 9 4 10 5 11 6 12 7 13
REMARK SMILES IDX 8 14 9 16 10 17 11 18 16 19 12 20 15 21 13 22 14 23 22 24
REMARK SMILES IDX 23 25 24 26 25 27 26 29 27 30 28 31 80 32 29 33 79 34 30 35
REMARK SMILES IDX 31 36 32 37 73 38 33 39 78 40 72 41 74 42 34 43 77 44 71 45
REMARK SMILES IDX 70 46 35 48 61 49 44 50 60 51 45 52 48 53 59 54 75 55 46 56
REMARK SMILES IDX 47 57 58 59 76 60 49 61 36 62 37 63 42 64 38 65 39 66 41 67
REMARK SMILES IDX 43 68 40 69 62 70 63 71 68 72 64 73 65 74 67 75 69 76 66 77
REMARK SMILES IDX 50 78 51 79 56 80 52 81 53 82 55 83 57 84 54 85
REMARK H PARENT 20 5 8 15 24 28 74 47 48 58
REMARK Flexibility Score: inf
ROOT
ATOM      1  C   UNL A   1      32.063  27.408  25.775  1.00  0.00     0.118 C 
ENDROOT
BRANCH   1   2
ATOM      2  N   UNL A   1      32.377  26.024  25.458  1.00  0.00    -0.351 N 
ATOM      3  C   UNL A   1      33.569  25.664  24.862  1.00  0.00     0.270 C 
ATOM      4  O   UNL A   1      34.562  25.516  25.566  1.00  0.00    -0.268 OA
ATOM      5  H   UNL A   1      31.721  25.324  25.674  1.00  0.00     0.163 HD
BRANCH   3   6
ATOM      6  C   UNL A   1      33.472  25.203  23.497  1.00  0.00     0.138 A 
ATOM      7  C   UNL A   1      33.773  22.699  23.848  1.00  0.00     0.174 C 
ATOM      8  N   UNL A   1      33.530  23.892  23.072  1.00  0.00    -0.262 N 
ATOM      9  N   UNL A   1      33.255  23.724  21.769  1.00  0.00    -0.180 NA
ATOM     10  C   UNL A   1      33.038  24.959  21.333  1.00  0.00     0.149 A 
ATOM     11  C   UNL A   1      33.229  25.943  22.334  1.00  0.00     0.090 A 
BRANCH  11  12
ATOM     12  C   UNL A   1      33.093  27.365  22.053  1.00  0.00     0.255 C 
ATOM     13  O   UNL A   1      34.090  28.041  21.790  1.00  0.00    -0.269 OA
ATOM     14  N   UNL A   1      31.914  28.044  22.206  1.00  0.00    -0.348 N 
ATOM     15  H   UNL A   1      31.996  29.022  22.124  1.00  0.00     0.164 HD
BRANCH  14  16
ATOM     16  C   UNL A   1      30.578  27.583  22.462  1.00  0.00     0.152 C 
BRANCH  16  17
ATOM     17  C   UNL A   1      29.630  28.651  22.937  1.00  0.00    -0.029 A 
ATOM     18  C   UNL A   1      30.109  29.896  23.371  1.00  0.00     0.008 A 
ATOM     19  C   UNL A   1      28.244  28.450  22.819  1.00  0.00     0.008 A 
ATOM     20  C   UNL A   1      29.218  30.935  23.640  1.00  0.00     0.039 A 
ATOM     21  C   UNL A   1      27.356  29.493  23.085  1.00  0.00     0.039 A 
ATOM     22  C   UNL A   1      27.852  30.729  23.482  1.00  0.00     0.123 A 
ATOM     23  F   UNL A   1      27.002  31.741  23.700  1.00  0.00    -0.207 F 
ENDBRANCH  16  17
ENDBRANCH  14  16
ENDBRANCH  11  12
ENDBRANCH   3   6
ENDBRANCH   1   2
BRANCH   1  24
ATOM     24  C   UNL A   1      33.057  27.976  26.786  1.00  0.00     0.042 C 
BRANCH  24  25
ATOM     25  C   UNL A   1      34.052  28.965  26.179  1.00  0.00     0.118 C 
BRANCH  25  26
ATOM     26  N   UNL A   1      33.872  30.304  26.717  1.00  0.00    -0.352 N 
ATOM     27  C   UNL A   1      34.519  30.934  27.752  1.00  0.00     0.251 C 
ATOM     28  H   UNL A   1      33.180  30.843  26.270  1.00  0.00     0.163 HD
ATOM     29  O   UNL A   1      34.037  31.960  28.223  1.00  0.00    -0.269 OA
BRANCH  27  30
ATOM     30  C   UNL A   1      35.783  30.400  28.310  1.00  0.00     0.039 A 
ATOM     31  C   UNL A   1      36.969  30.600  27.595  1.00  0.00     0.014 A 
ATOM     32  C   UNL A   1      35.799  29.628  29.476  1.00  0.00     0.014 A 
ATOM     33  C   UNL A   1      38.172  30.067  28.068  1.00  0.00     0.010 A 
ATOM     34  C   UNL A   1      37.007  29.141  29.976  1.00  0.00     0.010 A 
ATOM     35  C   UNL A   1      38.203  29.347  29.272  1.00  0.00    -0.014 A 
BRANCH  35  36
ATOM     36  C   UNL A   1      39.472  28.780  29.798  1.00  0.00     0.031 A 
ATOM     37  C   UNL A   1      40.115  29.371  31.021  1.00  0.00     0.074 A 
ATOM     38  C   UNL A   1      40.076  27.768  29.148  1.00  0.00     0.049 A 
ATOM     39  N   UNL A   1      41.268  29.083  31.571  1.00  0.00    -0.248 NA
ATOM     40  C   UNL A   1      39.374  30.443  31.707  1.00  0.00     0.031 C 
ATOM     41  C   UNL A   1      39.571  27.118  27.938  1.00  0.00     0.029 A 
ATOM     42  N   UNL A   1      41.254  27.115  29.411  1.00  0.00    -0.354 N 
ATOM     43  C   UNL A   1      41.404  29.952  32.645  1.00  0.00     0.074 A 
ATOM     44  C   UNL A   1      40.226  30.795  32.659  1.00  0.00     0.031 C 
ATOM     45  C   UNL A   1      40.425  26.148  27.574  1.00  0.00     0.029 A 
ATOM     46  C   UNL A   1      41.551  26.127  28.504  1.00  0.00     0.049 A 
ATOM     47  H   UNL A   1      41.832  27.333  30.178  1.00  0.00     0.167 HD
ATOM     48  C   UNL A   1      42.413  30.035  33.545  1.00  0.00     0.037 A 
ATOM     49  C   UNL A   1      42.611  25.303  28.425  1.00  0.00     0.037 A 
ATOM     50  C   UNL A   1      43.563  29.171  33.564  1.00  0.00     0.049 A 
ATOM     51  C   UNL A   1      43.706  25.399  29.447  1.00  0.00     0.074 A 
ATOM     52  C   UNL A   1      44.607  29.147  34.473  1.00  0.00     0.029 A 
ATOM     53  N   UNL A   1      43.814  28.173  32.637  1.00  0.00    -0.354 N 
ATOM     54  N   UNL A   1      43.811  26.213  30.468  1.00  0.00    -0.248 NA
ATOM     55  C   UNL A   1      44.831  24.462  29.307  1.00  0.00     0.031 C 
ATOM     56  C   UNL A   1      45.502  28.145  34.084  1.00  0.00     0.029 A 
ATOM     57  C   UNL A   1      45.001  27.531  32.948  1.00  0.00     0.049 A 
ATOM     58  H   UNL A   1      43.235  27.953  31.873  1.00  0.00     0.167 HD
ATOM     59  C   UNL A   1      45.004  25.883  31.098  1.00  0.00     0.074 A 
ATOM     60  C   UNL A   1      45.584  24.785  30.350  1.00  0.00     0.031 C 
ATOM     61  C   UNL A   1      45.565  26.440  32.197  1.00  0.00     0.037 A 
BRANCH  48  62
ATOM     62  C   UNL A   1      42.316  31.100  34.593  1.00  0.00     0.057 A 
ATOM     63  C   UNL A   1      41.635  30.860  35.794  1.00  0.00     0.134 A 
ATOM     64  C   UNL A   1      42.857  32.377  34.397  1.00  0.00     0.134 A 
ATOM     65  F   UNL A   1      41.090  29.659  36.039  1.00  0.00    -0.206 F 
ATOM     66  C   UNL A   1      41.493  31.855  36.762  1.00  0.00     0.040 A 
ATOM     67  C   UNL A   1      42.738  33.374  35.366  1.00  0.00     0.040 A 
ATOM     68  F   UNL A   1      43.531  32.663  33.273  1.00  0.00    -0.206 F 
ATOM     69  C   UNL A   1      42.050  33.116  36.550  1.00  0.00     0.006 A 
ENDBRANCH  48  62
BRANCH  49  70
ATOM     70  C   UNL A   1      42.672  24.294  27.342  1.00  0.00     0.057 A 
ATOM     71  C   UNL A   1      42.169  23.001  27.519  1.00  0.00     0.134 A 
ATOM     72  C   UNL A   1      43.262  24.601  26.111  1.00  0.00     0.134 A 
ATOM     73  F   UNL A   1      41.598  22.649  28.679  1.00  0.00    -0.206 F 
ATOM     74  C   UNL A   1      42.262  22.041  26.510  1.00  0.00     0.040 A 
ATOM     75  C   UNL A   1      43.347  23.656  25.089  1.00  0.00     0.040 A 
ATOM     76  F   UNL A   1      43.745  25.832  25.883  1.00  0.00    -0.206 F 
ATOM     77  C   UNL A   1      42.852  22.369  25.290  1.00  0.00     0.006 A 
ENDBRANCH  49  70
BRANCH  61  78
ATOM     78  C   UNL A   1      46.864  25.868  32.671  1.00  0.00     0.057 A 
ATOM     79  C   UNL A   1      46.891  24.881  33.664  1.00  0.00     0.134 A 
ATOM     80  C   UNL A   1      48.089  26.342  32.189  1.00  0.00     0.134 A 
ATOM     81  F   UNL A   1      45.748  24.392  34.168  1.00  0.00    -0.206 F 
ATOM     82  C   UNL A   1      48.096  24.390  34.169  1.00  0.00     0.040 A 
ATOM     83  C   UNL A   1      49.300  25.848  32.676  1.00  0.00     0.040 A 
ATOM     84  F   UNL A   1      48.126  27.279  31.230  1.00  0.00    -0.206 F 
ATOM     85  C   UNL A   1      49.305  24.875  33.674  1.00  0.00     0.006 A 
ENDBRANCH  61  78
ENDBRANCH  35  36
ENDBRANCH  27  30
ENDBRANCH  25  26
ENDBRANCH  24  25
ENDBRANCH   1  24
TORSDOF 13
ENDMDL
