MODEL 1
REMARK VINA RESULT:     -11.9      0.000      0.000
REMARK SMILES CCc1cc(Nc2ccc(C(=O)NCCCNC(=O)c3ccc(-c4c5nc(c(-c6c(F)cccc6F)c6ccc([nH]6)c(-c6c(F)cccc6F)c6nc(c(-c7c(F)cccc7F)c7ccc4[nH]7)C=C6)C=C5)cc3)cc2)nc(C(C)C)n1
REMARK SMILES IDX 14 1 13 2 11 3 12 4 10 6 7 7 8 8 75 9 9 10 74 11 6 12 5 14
REMARK SMILES IDX 3 15 4 16 81 17 77 18 76 19 2 20 1 21 78 22 79 23 80 24
REMARK SMILES IDX 15 25 16 26 17 27 18 28 19 30 20 31 21 32 73 33 22 34 72 35
REMARK SMILES IDX 23 36 24 37 25 38 66 39 26 40 71 41 65 42 67 43 27 44 70 45
REMARK SMILES IDX 64 46 63 47 28 49 54 50 37 51 53 52 38 53 41 54 52 55 68 56
REMARK SMILES IDX 39 57 40 58 51 60 69 61 42 62 29 63 30 64 35 65 31 66 32 67
REMARK SMILES IDX 34 68 36 69 33 70 55 71 56 72 61 73 57 74 58 75 60 76 62 77
REMARK SMILES IDX 59 78 43 79 44 80 49 81 45 82 46 83 48 84 50 85 47 86
REMARK H PARENT 13 5 6 13 17 29 67 48 41 59
REMARK Flexibility Score: inf
ROOT
ATOM      1  C   UNL A   1      35.932  20.504  24.994  1.00  0.00     0.118 C 
ENDROOT
BRANCH   1   2
ATOM      2  N   UNL A   1      34.940  19.444  24.986  1.00  0.00    -0.352 N 
ATOM      3  C   UNL A   1      33.584  19.455  24.783  1.00  0.00     0.251 C 
ATOM      4  O   UNL A   1      33.002  18.370  24.780  1.00  0.00    -0.269 OA
ATOM      5  H   UNL A   1      35.311  18.549  25.156  1.00  0.00     0.163 HD
BRANCH   3   6
ATOM      6  C   UNL A   1      32.805  20.695  24.519  1.00  0.00     0.039 A 
ATOM      7  C   UNL A   1      31.232  23.024  24.196  1.00  0.00     0.040 A 
ATOM      8  C   UNL A   1      31.367  22.426  25.452  1.00  0.00     0.027 A 
ATOM      9  C   UNL A   1      31.911  22.460  23.113  1.00  0.00     0.027 A 
ATOM     10  C   UNL A   1      32.138  21.269  25.611  1.00  0.00     0.016 A 
ATOM     11  C   UNL A   1      32.723  21.331  23.279  1.00  0.00     0.016 A 
BRANCH   7  12
ATOM     12  N   UNL A   1      30.371  24.118  24.031  1.00  0.00    -0.340 N 
ATOM     13  H   UNL A   1      29.466  23.918  23.699  1.00  0.00     0.168 HD
BRANCH  12  14
ATOM     14  C   UNL A   1      30.660  25.474  24.288  1.00  0.00     0.134 A 
ATOM     15  C   UNL A   1      30.424  27.751  23.699  1.00  0.00     0.046 A 
ATOM     16  C   UNL A   1      30.095  26.431  23.465  1.00  0.00     0.071 A 
ATOM     17  N   UNL A   1      31.265  28.098  24.694  1.00  0.00    -0.238 NA
ATOM     18  C   UNL A   1      31.764  27.111  25.460  1.00  0.00     0.133 A 
ATOM     19  N   UNL A   1      31.473  25.810  25.304  1.00  0.00    -0.216 NA
BRANCH  15  20
ATOM     20  C   UNL A   1      29.901  28.899  22.874  1.00  0.00     0.053 C 
ATOM     21  C   UNL A   1      28.390  29.011  22.723  1.00  0.00     0.011 C 
ENDBRANCH  15  20
BRANCH  18  22
ATOM     22  C   UNL A   1      32.756  27.474  26.543  1.00  0.00     0.051 C 
ATOM     23  C   UNL A   1      33.929  28.265  25.962  1.00  0.00     0.016 C 
ATOM     24  C   UNL A   1      32.079  28.248  27.673  1.00  0.00     0.016 C 
ENDBRANCH  18  22
ENDBRANCH  12  14
ENDBRANCH   7  12
ENDBRANCH   3   6
ENDBRANCH   1   2
BRANCH   1  25
ATOM     25  C   UNL A   1      37.318  19.961  24.648  1.00  0.00     0.042 C 
BRANCH  25  26
ATOM     26  C   UNL A   1      38.413  20.442  25.595  1.00  0.00     0.118 C 
BRANCH  26  27
ATOM     27  N   UNL A   1      39.516  19.497  25.679  1.00  0.00    -0.352 N 
ATOM     28  C   UNL A   1      40.829  19.705  26.020  1.00  0.00     0.251 C 
ATOM     29  H   UNL A   1      39.285  18.566  25.458  1.00  0.00     0.163 HD
ATOM     30  O   UNL A   1      41.652  18.815  25.828  1.00  0.00    -0.269 OA
BRANCH  28  31
ATOM     31  C   UNL A   1      41.265  20.992  26.607  1.00  0.00     0.039 A 
ATOM     32  C   UNL A   1      41.786  21.972  25.757  1.00  0.00     0.014 A 
ATOM     33  C   UNL A   1      41.215  21.217  27.985  1.00  0.00     0.014 A 
ATOM     34  C   UNL A   1      42.215  23.194  26.282  1.00  0.00     0.010 A 
ATOM     35  C   UNL A   1      41.582  22.458  28.501  1.00  0.00     0.010 A 
ATOM     36  C   UNL A   1      42.094  23.455  27.656  1.00  0.00    -0.014 A 
BRANCH  36  37
ATOM     37  C   UNL A   1      42.506  24.761  28.228  1.00  0.00     0.031 A 
ATOM     38  C   UNL A   1      41.487  25.843  28.456  1.00  0.00     0.074 A 
ATOM     39  C   UNL A   1      43.806  24.994  28.487  1.00  0.00     0.049 A 
ATOM     40  N   UNL A   1      41.661  27.065  28.890  1.00  0.00    -0.248 NA
ATOM     41  C   UNL A   1      40.091  25.515  28.126  1.00  0.00     0.031 C 
ATOM     42  C   UNL A   1      44.894  24.037  28.276  1.00  0.00     0.029 A 
ATOM     43  N   UNL A   1      44.433  26.110  28.976  1.00  0.00    -0.354 N 
ATOM     44  C   UNL A   1      40.405  27.658  28.863  1.00  0.00     0.074 A 
ATOM     45  C   UNL A   1      39.486  26.675  28.331  1.00  0.00     0.031 C 
ATOM     46  C   UNL A   1      46.050  24.599  28.661  1.00  0.00     0.029 A 
ATOM     47  C   UNL A   1      45.791  25.963  29.112  1.00  0.00     0.049 A 
ATOM     48  H   UNL A   1      43.955  26.939  29.209  1.00  0.00     0.167 HD
ATOM     49  C   UNL A   1      40.048  28.902  29.261  1.00  0.00     0.037 A 
ATOM     50  C   UNL A   1      46.723  26.831  29.548  1.00  0.00     0.037 A 
ATOM     51  C   UNL A   1      40.959  29.867  29.819  1.00  0.00     0.049 A 
ATOM     52  C   UNL A   1      46.303  28.207  29.978  1.00  0.00     0.074 A 
ATOM     53  C   UNL A   1      40.681  31.123  30.328  1.00  0.00     0.029 A 
ATOM     54  N   UNL A   1      42.328  29.682  29.938  1.00  0.00    -0.354 N 
ATOM     55  N   UNL A   1      45.103  28.732  30.013  1.00  0.00    -0.248 NA
ATOM     56  C   UNL A   1      47.370  29.112  30.429  1.00  0.00     0.031 C 
ATOM     57  C   UNL A   1      41.889  31.715  30.715  1.00  0.00     0.029 A 
ATOM     58  C   UNL A   1      42.914  30.811  30.485  1.00  0.00     0.049 A 
ATOM     59  H   UNL A   1      42.813  28.867  29.671  1.00  0.00     0.167 HD
ATOM     60  C   UNL A   1      45.263  30.017  30.515  1.00  0.00     0.074 A 
ATOM     61  C   UNL A   1      46.678  30.188  30.777  1.00  0.00     0.031 C 
ATOM     62  C   UNL A   1      44.323  30.966  30.742  1.00  0.00     0.037 A 
BRANCH  49  63
ATOM     63  C   UNL A   1      38.607  29.290  29.096  1.00  0.00     0.057 A 
ATOM     64  C   UNL A   1      37.707  29.280  30.171  1.00  0.00     0.134 A 
ATOM     65  C   UNL A   1      38.113  29.685  27.846  1.00  0.00     0.134 A 
ATOM     66  F   UNL A   1      38.113  28.901  31.392  1.00  0.00    -0.206 F 
ATOM     67  C   UNL A   1      36.363  29.616  30.001  1.00  0.00     0.040 A 
ATOM     68  C   UNL A   1      36.776  30.047  27.671  1.00  0.00     0.040 A 
ATOM     69  F   UNL A   1      38.920  29.723  26.775  1.00  0.00    -0.206 F 
ATOM     70  C   UNL A   1      35.895  30.004  28.748  1.00  0.00     0.006 A 
ENDBRANCH  49  63
BRANCH  50  71
ATOM     71  C   UNL A   1      48.140  26.405  29.641  1.00  0.00     0.057 A 
ATOM     72  C   UNL A   1      49.023  26.627  28.579  1.00  0.00     0.134 A 
ATOM     73  C   UNL A   1      48.649  25.786  30.788  1.00  0.00     0.134 A 
ATOM     74  F   UNL A   1      48.587  27.201  27.448  1.00  0.00    -0.206 F 
ATOM     75  C   UNL A   1      50.362  26.241  28.649  1.00  0.00     0.040 A 
ATOM     76  C   UNL A   1      49.991  25.413  30.880  1.00  0.00     0.040 A 
ATOM     77  F   UNL A   1      47.854  25.552  31.842  1.00  0.00    -0.206 F 
ATOM     78  C   UNL A   1      50.851  25.637  29.806  1.00  0.00     0.006 A 
ENDBRANCH  50  71
BRANCH  62  79
ATOM     79  C   UNL A   1      44.791  32.264  31.331  1.00  0.00     0.057 A 
ATOM     80  C   UNL A   1      44.873  32.458  32.716  1.00  0.00     0.134 A 
ATOM     81  C   UNL A   1      45.194  33.319  30.504  1.00  0.00     0.134 A 
ATOM     82  F   UNL A   1      44.486  31.491  33.561  1.00  0.00    -0.206 F 
ATOM     83  C   UNL A   1      45.322  33.664  33.257  1.00  0.00     0.040 A 
ATOM     84  C   UNL A   1      45.668  34.520  31.032  1.00  0.00     0.040 A 
ATOM     85  F   UNL A   1      45.146  33.194  29.169  1.00  0.00    -0.206 F 
ATOM     86  C   UNL A   1      45.727  34.696  32.413  1.00  0.00     0.006 A 
ENDBRANCH  62  79
ENDBRANCH  36  37
ENDBRANCH  28  31
ENDBRANCH  26  27
ENDBRANCH  25  26
ENDBRANCH   1  25
TORSDOF 14
ENDMDL
MODEL 2
REMARK VINA RESULT:     -11.9      2.530      7.699
REMARK SMILES CCc1cc(Nc2ccc(C(=O)NCCCNC(=O)c3ccc(-c4c5nc(c(-c6c(F)cccc6F)c6ccc([nH]6)c(-c6c(F)cccc6F)c6nc(c(-c7c(F)cccc7F)c7ccc4[nH]7)C=C6)C=C5)cc3)cc2)nc(C(C)C)n1
REMARK SMILES IDX 14 1 13 2 11 3 12 4 10 6 7 7 8 8 75 9 9 10 74 11 6 12 5 14
REMARK SMILES IDX 3 15 4 16 81 17 77 18 76 19 2 20 1 21 78 22 79 23 80 24
REMARK SMILES IDX 15 25 16 26 17 27 18 28 19 30 20 31 21 32 73 33 22 34 72 35
REMARK SMILES IDX 23 36 24 37 25 38 66 39 26 40 71 41 65 42 67 43 27 44 70 45
REMARK SMILES IDX 64 46 63 47 28 49 54 50 37 51 53 52 38 53 41 54 52 55 68 56
REMARK SMILES IDX 39 57 40 58 51 60 69 61 42 62 29 63 30 64 35 65 31 66 32 67
REMARK SMILES IDX 34 68 36 69 33 70 55 71 56 72 61 73 57 74 58 75 60 76 62 77
REMARK SMILES IDX 59 78 43 79 44 80 49 81 45 82 46 83 48 84 50 85 47 86
REMARK H PARENT 13 5 6 13 17 29 67 48 41 59
REMARK Flexibility Score: inf
ROOT
ATOM      1  C   UNL A   1      32.771  28.116  24.855  1.00  0.00     0.118 C 
ENDROOT
BRANCH   1   2
ATOM      2  N   UNL A   1      31.446  28.207  24.271  1.00  0.00    -0.352 N 
ATOM      3  C   UNL A   1      30.470  27.268  24.053  1.00  0.00     0.251 C 
ATOM      4  O   UNL A   1      29.403  27.658  23.579  1.00  0.00    -0.269 OA
ATOM      5  H   UNL A   1      31.201  29.113  23.975  1.00  0.00     0.163 HD
BRANCH   3   6
ATOM      6  C   UNL A   1      30.621  25.831  24.409  1.00  0.00     0.039 A 
ATOM      7  C   UNL A   1      30.926  23.157  25.281  1.00  0.00     0.040 A 
ATOM      8  C   UNL A   1      30.606  24.170  26.190  1.00  0.00     0.027 A 
ATOM      9  C   UNL A   1      31.065  23.493  23.932  1.00  0.00     0.027 A 
ATOM     10  C   UNL A   1      30.464  25.493  25.761  1.00  0.00     0.016 A 
ATOM     11  C   UNL A   1      30.874  24.809  23.493  1.00  0.00     0.016 A 
BRANCH   7  12
ATOM     12  N   UNL A   1      31.170  21.855  25.740  1.00  0.00    -0.340 N 
ATOM     13  H   UNL A   1      30.483  21.461  26.327  1.00  0.00     0.168 HD
BRANCH  12  14
ATOM     14  C   UNL A   1      32.290  21.048  25.455  1.00  0.00     0.134 A 
ATOM     15  C   UNL A   1      34.635  20.812  25.278  1.00  0.00     0.046 A 
ATOM     16  C   UNL A   1      33.549  21.598  25.606  1.00  0.00     0.071 A 
ATOM     17  N   UNL A   1      34.477  19.551  24.827  1.00  0.00    -0.238 NA
ATOM     18  C   UNL A   1      33.220  19.082  24.719  1.00  0.00     0.133 A 
ATOM     19  N   UNL A   1      32.120  19.782  25.039  1.00  0.00    -0.216 NA
BRANCH  15  20
ATOM     20  C   UNL A   1      36.064  21.282  25.374  1.00  0.00     0.053 C 
ATOM     21  C   UNL A   1      37.136  20.356  24.815  1.00  0.00     0.011 C 
ENDBRANCH  15  20
BRANCH  18  22
ATOM     22  C   UNL A   1      33.018  17.691  24.159  1.00  0.00     0.051 C 
ATOM     23  C   UNL A   1      34.315  17.161  23.544  1.00  0.00     0.016 C 
ATOM     24  C   UNL A   1      32.488  16.738  25.228  1.00  0.00     0.016 C 
ENDBRANCH  18  22
ENDBRANCH  12  14
ENDBRANCH   7  12
ENDBRANCH   3   6
ENDBRANCH   1   2
BRANCH   1  25
ATOM     25  C   UNL A   1      32.698  28.121  26.382  1.00  0.00     0.042 C 
BRANCH  25  26
ATOM     26  C   UNL A   1      33.988  28.587  27.050  1.00  0.00     0.118 C 
BRANCH  26  27
ATOM     27  N   UNL A   1      33.875  29.942  27.570  1.00  0.00    -0.352 N 
ATOM     28  C   UNL A   1      34.756  30.670  28.329  1.00  0.00     0.251 C 
ATOM     29  H   UNL A   1      33.037  30.407  27.342  1.00  0.00     0.163 HD
ATOM     30  O   UNL A   1      34.386  31.721  28.844  1.00  0.00    -0.269 OA
BRANCH  28  31
ATOM     31  C   UNL A   1      36.143  30.199  28.541  1.00  0.00     0.039 A 
ATOM     32  C   UNL A   1      37.048  30.284  27.479  1.00  0.00     0.014 A 
ATOM     33  C   UNL A   1      36.539  29.626  29.752  1.00  0.00     0.014 A 
ATOM     34  C   UNL A   1      38.362  29.838  27.646  1.00  0.00     0.010 A 
ATOM     35  C   UNL A   1      37.865  29.241  29.940  1.00  0.00     0.010 A 
ATOM     36  C   UNL A   1      38.787  29.335  28.885  1.00  0.00    -0.014 A 
BRANCH  36  37
ATOM     37  C   UNL A   1      40.188  28.894  29.095  1.00  0.00     0.031 A 
ATOM     38  C   UNL A   1      41.186  29.821  29.733  1.00  0.00     0.074 A 
ATOM     39  C   UNL A   1      40.577  27.683  28.657  1.00  0.00     0.049 A 
ATOM     40  N   UNL A   1      42.464  29.639  29.947  1.00  0.00    -0.248 NA
ATOM     41  C   UNL A   1      40.685  31.135  30.163  1.00  0.00     0.031 C 
ATOM     42  C   UNL A   1      39.712  26.707  27.991  1.00  0.00     0.029 A 
ATOM     43  N   UNL A   1      41.802  27.068  28.700  1.00  0.00    -0.354 N 
ATOM     44  C   UNL A   1      42.924  30.821  30.513  1.00  0.00     0.074 A 
ATOM     45  C   UNL A   1      41.797  31.728  30.570  1.00  0.00     0.031 C 
ATOM     46  C   UNL A   1      40.428  25.605  27.715  1.00  0.00     0.029 A 
ATOM     47  C   UNL A   1      41.806  25.810  28.150  1.00  0.00     0.049 A 
ATOM     48  H   UNL A   1      42.603  27.489  29.089  1.00  0.00     0.167 HD
ATOM     49  C   UNL A   1      44.168  31.118  30.959  1.00  0.00     0.037 A 
ATOM     50  C   UNL A   1      42.808  24.923  28.010  1.00  0.00     0.037 A 
ATOM     51  C   UNL A   1      45.279  30.204  30.929  1.00  0.00     0.049 A 
ATOM     52  C   UNL A   1      44.180  25.278  28.507  1.00  0.00     0.074 A 
ATOM     53  C   UNL A   1      46.556  30.381  31.431  1.00  0.00     0.029 A 
ATOM     54  N   UNL A   1      45.244  28.939  30.361  1.00  0.00    -0.354 N 
ATOM     55  N   UNL A   1      44.586  26.372  29.102  1.00  0.00    -0.248 NA
ATOM     56  C   UNL A   1      45.234  24.273  28.310  1.00  0.00     0.031 C 
ATOM     57  C   UNL A   1      47.307  29.239  31.128  1.00  0.00     0.029 A 
ATOM     58  C   UNL A   1      46.485  28.335  30.474  1.00  0.00     0.049 A 
ATOM     59  H   UNL A   1      44.454  28.531  29.939  1.00  0.00     0.167 HD
ATOM     60  C   UNL A   1      45.933  26.179  29.378  1.00  0.00     0.074 A 
ATOM     61  C   UNL A   1      46.273  24.857  28.890  1.00  0.00     0.031 C 
ATOM     62  C   UNL A   1      46.808  27.018  29.984  1.00  0.00     0.037 A 
BRANCH  49  63
ATOM     63  C   UNL A   1      44.390  32.498  31.510  1.00  0.00     0.057 A 
ATOM     64  C   UNL A   1      44.255  32.782  32.876  1.00  0.00     0.134 A 
ATOM     65  C   UNL A   1      44.748  33.554  30.664  1.00  0.00     0.134 A 
ATOM     66  F   UNL A   1      43.901  31.817  33.738  1.00  0.00    -0.206 F 
ATOM     67  C   UNL A   1      44.436  34.073  33.374  1.00  0.00     0.040 A 
ATOM     68  C   UNL A   1      44.958  34.844  31.156  1.00  0.00     0.040 A 
ATOM     69  F   UNL A   1      44.901  33.352  29.346  1.00  0.00    -0.206 F 
ATOM     70  C   UNL A   1      44.792  35.108  32.513  1.00  0.00     0.006 A 
ENDBRANCH  49  63
BRANCH  50  71
ATOM     71  C   UNL A   1      42.537  23.594  27.411  1.00  0.00     0.057 A 
ATOM     72  C   UNL A   1      42.622  23.405  26.028  1.00  0.00     0.134 A 
ATOM     73  C   UNL A   1      42.206  22.485  28.198  1.00  0.00     0.134 A 
ATOM     74  F   UNL A   1      42.918  24.435  25.223  1.00  0.00    -0.206 F 
ATOM     75  C   UNL A   1      42.378  22.161  25.444  1.00  0.00     0.040 A 
ATOM     76  C   UNL A   1      41.981  21.230  27.630  1.00  0.00     0.040 A 
ATOM     77  F   UNL A   1      42.117  22.602  29.531  1.00  0.00    -0.206 F 
ATOM     78  C   UNL A   1      42.062  21.067  26.248  1.00  0.00     0.006 A 
ENDBRANCH  50  71
BRANCH  62  79
ATOM     79  C   UNL A   1      48.208  26.520  30.182  1.00  0.00     0.057 A 
ATOM     80  C   UNL A   1      48.583  25.810  31.329  1.00  0.00     0.134 A 
ATOM     81  C   UNL A   1      49.184  26.724  29.198  1.00  0.00     0.134 A 
ATOM     82  F   UNL A   1      47.699  25.595  32.315  1.00  0.00    -0.206 F 
ATOM     83  C   UNL A   1      49.886  25.337  31.500  1.00  0.00     0.040 A 
ATOM     84  C   UNL A   1      50.482  26.236  29.346  1.00  0.00     0.040 A 
ATOM     85  F   UNL A   1      48.886  27.391  28.073  1.00  0.00    -0.206 F 
ATOM     86  C   UNL A   1      50.837  25.544  30.503  1.00  0.00     0.006 A 
ENDBRANCH  62  79
ENDBRANCH  36  37
ENDBRANCH  28  31
ENDBRANCH  26  27
ENDBRANCH  25  26
ENDBRANCH   1  25
TORSDOF 14
ENDMDL
MODEL 3
REMARK VINA RESULT:     -11.8      2.697      7.660
REMARK SMILES CCc1cc(Nc2ccc(C(=O)NCCCNC(=O)c3ccc(-c4c5nc(c(-c6c(F)cccc6F)c6ccc([nH]6)c(-c6c(F)cccc6F)c6nc(c(-c7c(F)cccc7F)c7ccc4[nH]7)C=C6)C=C5)cc3)cc2)nc(C(C)C)n1
REMARK SMILES IDX 14 1 13 2 11 3 12 4 10 6 7 7 8 8 75 9 9 10 74 11 6 12 5 14
REMARK SMILES IDX 3 15 4 16 81 17 77 18 76 19 2 20 1 21 78 22 79 23 80 24
REMARK SMILES IDX 15 25 16 26 17 27 18 28 19 30 20 31 21 32 73 33 22 34 72 35
REMARK SMILES IDX 23 36 24 37 25 38 66 39 26 40 71 41 65 42 67 43 27 44 70 45
REMARK SMILES IDX 64 46 63 47 28 49 54 50 37 51 53 52 38 53 41 54 52 55 68 56
REMARK SMILES IDX 39 57 40 58 51 60 69 61 42 62 29 63 30 64 35 65 31 66 32 67
REMARK SMILES IDX 34 68 36 69 33 70 55 71 56 72 61 73 57 74 58 75 60 76 62 77
REMARK SMILES IDX 59 78 43 79 44 80 49 81 45 82 46 83 48 84 50 85 47 86
REMARK H PARENT 13 5 6 13 17 29 67 48 41 59
REMARK Flexibility Score: inf
ROOT
ATOM      1  C   UNL A   1      33.037  29.318  24.868  1.00  0.00     0.118 C 
ENDROOT
BRANCH   1   2
ATOM      2  N   UNL A   1      31.706  29.664  24.402  1.00  0.00    -0.352 N 
ATOM      3  C   UNL A   1      30.724  28.925  23.795  1.00  0.00     0.251 C 
ATOM      4  O   UNL A   1      29.654  29.487  23.560  1.00  0.00    -0.269 OA
ATOM      5  H   UNL A   1      31.463  30.606  24.550  1.00  0.00     0.163 HD
BRANCH   3   6
ATOM      6  C   UNL A   1      30.871  27.482  23.462  1.00  0.00     0.039 A 
ATOM      7  C   UNL A   1      31.083  24.696  23.017  1.00  0.00     0.040 A 
ATOM      8  C   UNL A   1      30.327  25.190  24.084  1.00  0.00     0.027 A 
ATOM      9  C   UNL A   1      31.708  25.610  22.164  1.00  0.00     0.027 A 
ATOM     10  C   UNL A   1      30.228  26.567  24.309  1.00  0.00     0.016 A 
ATOM     11  C   UNL A   1      31.570  26.989  22.359  1.00  0.00     0.016 A 
BRANCH   7  12
ATOM     12  N   UNL A   1      31.260  23.314  22.866  1.00  0.00    -0.340 N 
ATOM     13  H   UNL A   1      30.586  22.842  22.324  1.00  0.00     0.168 HD
BRANCH  12  14
ATOM     14  C   UNL A   1      32.297  22.524  23.404  1.00  0.00     0.134 A 
ATOM     15  C   UNL A   1      33.040  20.448  24.255  1.00  0.00     0.046 A 
ATOM     16  C   UNL A   1      32.031  21.197  23.684  1.00  0.00     0.071 A 
ATOM     17  N   UNL A   1      34.244  20.989  24.528  1.00  0.00    -0.238 NA
ATOM     18  C   UNL A   1      34.432  22.284  24.214  1.00  0.00     0.133 A 
ATOM     19  N   UNL A   1      33.504  23.066  23.640  1.00  0.00    -0.216 NA
BRANCH  15  20
ATOM     20  C   UNL A   1      32.890  18.996  24.633  1.00  0.00     0.053 C 
ATOM     21  C   UNL A   1      34.031  18.061  24.254  1.00  0.00     0.011 C 
ENDBRANCH  15  20
BRANCH  18  22
ATOM     22  C   UNL A   1      35.756  22.925  24.567  1.00  0.00     0.051 C 
ATOM     23  C   UNL A   1      36.680  22.969  23.349  1.00  0.00     0.016 C 
ATOM     24  C   UNL A   1      35.553  24.321  25.154  1.00  0.00     0.016 C 
ENDBRANCH  18  22
ENDBRANCH  12  14
ENDBRANCH   7  12
ENDBRANCH   3   6
ENDBRANCH   1   2
BRANCH   1  25
ATOM     25  C   UNL A   1      32.971  28.308  26.014  1.00  0.00     0.042 C 
BRANCH  25  26
ATOM     26  C   UNL A   1      33.977  28.586  27.126  1.00  0.00     0.118 C 
BRANCH  26  27
ATOM     27  N   UNL A   1      33.870  29.947  27.631  1.00  0.00    -0.352 N 
ATOM     28  C   UNL A   1      34.758  30.683  28.375  1.00  0.00     0.251 C 
ATOM     29  H   UNL A   1      33.032  30.412  27.403  1.00  0.00     0.163 HD
ATOM     30  O   UNL A   1      34.394  31.740  28.880  1.00  0.00    -0.269 OA
BRANCH  28  31
ATOM     31  C   UNL A   1      36.145  30.210  28.584  1.00  0.00     0.039 A 
ATOM     32  C   UNL A   1      37.045  30.283  27.516  1.00  0.00     0.014 A 
ATOM     33  C   UNL A   1      36.547  29.649  29.799  1.00  0.00     0.014 A 
ATOM     34  C   UNL A   1      38.358  29.837  27.680  1.00  0.00     0.010 A 
ATOM     35  C   UNL A   1      37.873  29.263  29.982  1.00  0.00     0.010 A 
ATOM     36  C   UNL A   1      38.789  29.345  28.921  1.00  0.00    -0.014 A 
BRANCH  36  37
ATOM     37  C   UNL A   1      40.191  28.903  29.128  1.00  0.00     0.031 A 
ATOM     38  C   UNL A   1      41.190  29.829  29.763  1.00  0.00     0.074 A 
ATOM     39  C   UNL A   1      40.578  27.692  28.689  1.00  0.00     0.049 A 
ATOM     40  N   UNL A   1      42.469  29.647  29.974  1.00  0.00    -0.248 NA
ATOM     41  C   UNL A   1      40.691  31.144  30.194  1.00  0.00     0.031 C 
ATOM     42  C   UNL A   1      39.711  26.717  28.025  1.00  0.00     0.029 A 
ATOM     43  N   UNL A   1      41.803  27.077  28.729  1.00  0.00    -0.354 N 
ATOM     44  C   UNL A   1      42.931  30.829  30.538  1.00  0.00     0.074 A 
ATOM     45  C   UNL A   1      41.805  31.736  30.599  1.00  0.00     0.031 C 
ATOM     46  C   UNL A   1      40.425  25.614  27.747  1.00  0.00     0.029 A 
ATOM     47  C   UNL A   1      41.805  25.819  28.178  1.00  0.00     0.049 A 
ATOM     48  H   UNL A   1      42.605  27.497  29.115  1.00  0.00     0.167 HD
ATOM     49  C   UNL A   1      44.176  31.126  30.982  1.00  0.00     0.037 A 
ATOM     50  C   UNL A   1      42.806  24.931  28.036  1.00  0.00     0.037 A 
ATOM     51  C   UNL A   1      45.287  30.211  30.949  1.00  0.00     0.049 A 
ATOM     52  C   UNL A   1      44.180  25.285  28.530  1.00  0.00     0.074 A 
ATOM     53  C   UNL A   1      46.566  30.387  31.447  1.00  0.00     0.029 A 
ATOM     54  N   UNL A   1      45.250  28.946  30.381  1.00  0.00    -0.354 N 
ATOM     55  N   UNL A   1      44.588  26.379  29.124  1.00  0.00    -0.248 NA
ATOM     56  C   UNL A   1      45.233  24.279  28.330  1.00  0.00     0.031 C 
ATOM     57  C   UNL A   1      47.315  29.245  31.142  1.00  0.00     0.029 A 
ATOM     58  C   UNL A   1      46.492  28.341  30.491  1.00  0.00     0.049 A 
ATOM     59  H   UNL A   1      44.458  28.539  29.961  1.00  0.00     0.167 HD
ATOM     60  C   UNL A   1      45.935  26.185  29.396  1.00  0.00     0.074 A 
ATOM     61  C   UNL A   1      46.273  24.864  28.907  1.00  0.00     0.031 C 
ATOM     62  C   UNL A   1      46.812  27.024  30.000  1.00  0.00     0.037 A 
BRANCH  49  63
ATOM     63  C   UNL A   1      44.400  32.505  31.532  1.00  0.00     0.057 A 
ATOM     64  C   UNL A   1      44.829  33.566  30.723  1.00  0.00     0.134 A 
ATOM     65  C   UNL A   1      44.178  32.777  32.888  1.00  0.00     0.134 A 
ATOM     66  F   UNL A   1      45.072  33.370  29.418  1.00  0.00    -0.206 F 
ATOM     67  C   UNL A   1      45.061  34.838  31.249  1.00  0.00     0.040 A 
ATOM     68  C   UNL A   1      44.382  34.052  33.419  1.00  0.00     0.040 A 
ATOM     69  F   UNL A   1      43.761  31.809  33.718  1.00  0.00    -0.206 F 
ATOM     70  C   UNL A   1      44.834  35.084  32.601  1.00  0.00     0.006 A 
ENDBRANCH  49  63
BRANCH  50  71
ATOM     71  C   UNL A   1      42.533  23.602  27.438  1.00  0.00     0.057 A 
ATOM     72  C   UNL A   1      42.198  22.511  28.247  1.00  0.00     0.134 A 
ATOM     73  C   UNL A   1      42.584  23.392  26.055  1.00  0.00     0.134 A 
ATOM     74  F   UNL A   1      42.152  22.648  29.579  1.00  0.00    -0.206 F 
ATOM     75  C   UNL A   1      41.930  21.254  27.704  1.00  0.00     0.040 A 
ATOM     76  C   UNL A   1      42.298  22.146  25.496  1.00  0.00     0.040 A 
ATOM     77  F   UNL A   1      42.893  24.401  25.227  1.00  0.00    -0.206 F 
ATOM     78  C   UNL A   1      41.974  21.070  26.323  1.00  0.00     0.006 A 
ENDBRANCH  50  71
BRANCH  62  79
ATOM     79  C   UNL A   1      48.213  26.525  30.194  1.00  0.00     0.057 A 
ATOM     80  C   UNL A   1      48.588  25.806  31.336  1.00  0.00     0.134 A 
ATOM     81  C   UNL A   1      49.188  26.738  29.213  1.00  0.00     0.134 A 
ATOM     82  F   UNL A   1      47.703  25.582  32.319  1.00  0.00    -0.206 F 
ATOM     83  C   UNL A   1      49.890  25.332  31.503  1.00  0.00     0.040 A 
ATOM     84  C   UNL A   1      50.487  26.249  29.357  1.00  0.00     0.040 A 
ATOM     85  F   UNL A   1      48.891  27.414  28.093  1.00  0.00    -0.206 F 
ATOM     86  C   UNL A   1      50.842  25.548  30.508  1.00  0.00     0.006 A 
ENDBRANCH  62  79
ENDBRANCH  36  37
ENDBRANCH  28  31
ENDBRANCH  26  27
ENDBRANCH  25  26
ENDBRANCH   1  25
TORSDOF 14
ENDMDL
