MODEL 1
REMARK VINA RESULT:     -11.4      0.000      0.000
REMARK SMILES CC(C)CCOCC[N@@H+]1[C@@H](C(=O)NCCCNC(=O)c2ccc(-c3c4nc(c(-c5c(F)cccc5F)c5ccc([nH]5)c(-c5c(F)cccc5F)c5nc(c(-c6c(F)cccc6F)c6ccc3[nH]6)C=C5)C=C4)cc2)CC[C@H]2CCCC[C@H]21
REMARK SMILES IDX 11 1 12 2 13 3 10 5 9 6 81 7 74 9 76 10 80 11 75 12 77 13
REMARK SMILES IDX 79 14 78 15 8 16 7 17 6 18 5 19 4 20 2 21 1 22 3 23 14 24
REMARK SMILES IDX 15 25 16 26 17 27 18 28 19 30 20 31 21 32 73 33 22 34 72 35
REMARK SMILES IDX 23 36 24 37 25 38 66 39 26 40 71 41 65 42 67 43 27 44 70 45
REMARK SMILES IDX 64 46 63 47 28 49 54 50 37 51 53 52 38 53 41 54 52 55 68 56
REMARK SMILES IDX 39 57 40 58 51 60 69 61 42 62 29 63 30 64 35 65 31 66 32 67
REMARK SMILES IDX 34 68 36 69 33 70 55 71 56 72 61 73 57 74 58 75 60 76 62 77
REMARK SMILES IDX 59 78 43 79 44 80 49 81 45 82 46 83 48 84 50 85 47 86
REMARK H PARENT 13 4 9 8 17 29 67 48 41 59
REMARK Flexibility Score: inf
ROOT
ATOM      1  C   UNL A   1      31.630  24.882  26.497  1.00  0.00     0.278 C 
ATOM      2  O   UNL A   1      31.024  24.035  27.160  1.00  0.00    -0.268 OA
ATOM      3  N   UNL A   1      31.482  26.190  26.851  1.00  0.00    -0.351 N 
ATOM      4  H   UNL A   1      30.842  26.365  27.579  1.00  0.00     0.163 HD
ENDROOT
BRANCH   1   5
ATOM      5  C   UNL A   1      32.498  24.466  25.296  1.00  0.00     0.274 C 
ATOM      6  N   UNL A   1      31.779  23.507  24.367  1.00  0.00    -0.320 N 
ATOM      7  C   UNL A   1      32.748  22.974  23.339  1.00  0.00     0.187 C 
ATOM      8  H   UNL A   1      31.393  22.715  24.881  1.00  0.00     0.349 HD
ATOM      9  C   UNL A   1      33.874  24.035  25.828  1.00  0.00     0.076 C 
ATOM     10  C   UNL A   1      34.117  22.500  23.892  1.00  0.00     0.048 C 
ATOM     11  C   UNL A   1      32.309  21.794  22.436  1.00  0.00     0.065 C 
ATOM     12  C   UNL A   1      34.784  23.599  24.701  1.00  0.00     0.016 C 
ATOM     13  C   UNL A   1      34.104  21.145  24.631  1.00  0.00     0.010 C 
ATOM     14  C   UNL A   1      32.152  20.432  23.119  1.00  0.00     0.006 C 
ATOM     15  C   UNL A   1      32.853  20.293  24.459  1.00  0.00     0.001 C 
BRANCH   6  16
ATOM     16  C   UNL A   1      30.673  24.296  23.684  1.00  0.00     0.291 C 
BRANCH  16  17
ATOM     17  C   UNL A   1      30.890  25.759  23.140  1.00  0.00     0.221 C 
BRANCH  17  18
ATOM     18  O   UNL A   1      30.167  26.846  23.721  1.00  0.00    -0.376 OA
BRANCH  18  19
ATOM     19  C   UNL A   1      29.857  27.932  22.873  1.00  0.00     0.160 C 
BRANCH  19  20
ATOM     20  C   UNL A   1      28.426  28.428  23.127  1.00  0.00     0.031 C 
BRANCH  20  21
ATOM     21  C   UNL A   1      28.031  29.786  22.490  1.00  0.00    -0.015 C 
ATOM     22  C   UNL A   1      27.650  30.850  23.500  1.00  0.00     0.007 C 
ATOM     23  C   UNL A   1      29.171  30.333  21.635  1.00  0.00     0.007 C 
ENDBRANCH  20  21
ENDBRANCH  19  20
ENDBRANCH  18  19
ENDBRANCH  17  18
ENDBRANCH  16  17
ENDBRANCH   6  16
ENDBRANCH   1   5
BRANCH   3  24
ATOM     24  C   UNL A   1      32.138  27.358  26.301  1.00  0.00     0.118 C 
BRANCH  24  25
ATOM     25  C   UNL A   1      32.298  28.479  27.305  1.00  0.00     0.042 C 
BRANCH  25  26
ATOM     26  C   UNL A   1      33.715  29.026  27.357  1.00  0.00     0.118 C 
BRANCH  26  27
ATOM     27  N   UNL A   1      33.801  30.342  27.982  1.00  0.00    -0.352 N 
ATOM     28  C   UNL A   1      34.834  30.930  28.676  1.00  0.00     0.251 C 
ATOM     29  H   UNL A   1      32.993  30.898  27.893  1.00  0.00     0.163 HD
ATOM     30  O   UNL A   1      34.658  31.975  29.278  1.00  0.00    -0.269 OA
BRANCH  28  31
ATOM     31  C   UNL A   1      36.151  30.261  28.710  1.00  0.00     0.039 A 
ATOM     32  C   UNL A   1      36.960  30.296  27.573  1.00  0.00     0.014 A 
ATOM     33  C   UNL A   1      36.597  29.637  29.874  1.00  0.00     0.014 A 
ATOM     34  C   UNL A   1      38.258  29.786  27.641  1.00  0.00     0.010 A 
ATOM     35  C   UNL A   1      37.923  29.241  29.976  1.00  0.00     0.010 A 
ATOM     36  C   UNL A   1      38.766  29.307  28.859  1.00  0.00    -0.014 A 
BRANCH  36  37
ATOM     37  C   UNL A   1      40.175  28.860  28.992  1.00  0.00     0.031 A 
ATOM     38  C   UNL A   1      41.215  29.810  29.519  1.00  0.00     0.074 A 
ATOM     39  C   UNL A   1      40.528  27.628  28.571  1.00  0.00     0.049 A 
ATOM     40  N   UNL A   1      42.508  29.644  29.624  1.00  0.00    -0.248 NA
ATOM     41  C   UNL A   1      40.744  31.135  29.957  1.00  0.00     0.031 C 
ATOM     42  C   UNL A   1      39.620  26.634  27.994  1.00  0.00     0.029 A 
ATOM     43  N   UNL A   1      41.750  27.006  28.557  1.00  0.00    -0.354 N 
ATOM     44  C   UNL A   1      43.002  30.840  30.131  1.00  0.00     0.074 A 
ATOM     45  C   UNL A   1      41.883  31.749  30.241  1.00  0.00     0.031 C 
ATOM     46  C   UNL A   1      40.310  25.515  27.718  1.00  0.00     0.029 A 
ATOM     47  C   UNL A   1      41.715  25.729  28.050  1.00  0.00     0.049 A 
ATOM     48  H   UNL A   1      42.576  27.433  28.881  1.00  0.00     0.167 HD
ATOM     49  C   UNL A   1      44.266  31.144  30.505  1.00  0.00     0.037 A 
ATOM     50  C   UNL A   1      42.705  24.836  27.868  1.00  0.00     0.037 A 
ATOM     51  C   UNL A   1      45.373  30.230  30.414  1.00  0.00     0.049 A 
ATOM     52  C   UNL A   1      44.108  25.213  28.261  1.00  0.00     0.074 A 
ATOM     53  C   UNL A   1      46.687  30.428  30.799  1.00  0.00     0.029 A 
ATOM     54  N   UNL A   1      45.293  28.943  29.904  1.00  0.00    -0.354 N 
ATOM     55  N   UNL A   1      44.548  26.327  28.795  1.00  0.00    -0.248 NA
ATOM     56  C   UNL A   1      45.152  24.206  28.030  1.00  0.00     0.031 C 
ATOM     57  C   UNL A   1      47.413  29.276  30.481  1.00  0.00     0.029 A 
ATOM     58  C   UNL A   1      46.539  28.341  29.950  1.00  0.00     0.049 A 
ATOM     59  H   UNL A   1      44.473  28.521  29.561  1.00  0.00     0.167 HD
ATOM     60  C   UNL A   1      45.908  26.139  29.000  1.00  0.00     0.074 A 
ATOM     61  C   UNL A   1      46.218  24.800  28.547  1.00  0.00     0.031 C 
ATOM     62  C   UNL A   1      46.823  26.998  29.515  1.00  0.00     0.037 A 
BRANCH  49  63
ATOM     63  C   UNL A   1      44.513  32.514  31.067  1.00  0.00     0.057 A 
ATOM     64  C   UNL A   1      44.857  33.594  30.242  1.00  0.00     0.134 A 
ATOM     65  C   UNL A   1      44.366  32.769  32.435  1.00  0.00     0.134 A 
ATOM     66  F   UNL A   1      45.030  33.416  28.924  1.00  0.00    -0.206 F 
ATOM     67  C   UNL A   1      45.066  34.872  30.762  1.00  0.00     0.040 A 
ATOM     68  C   UNL A   1      44.543  34.049  32.962  1.00  0.00     0.040 A 
ATOM     69  F   UNL A   1      44.034  31.781  33.281  1.00  0.00    -0.206 F 
ATOM     70  C   UNL A   1      44.899  35.104  32.125  1.00  0.00     0.006 A 
ENDBRANCH  49  63
BRANCH  50  71
ATOM     71  C   UNL A   1      42.419  23.491  27.303  1.00  0.00     0.057 A 
ATOM     72  C   UNL A   1      42.119  22.407  28.138  1.00  0.00     0.134 A 
ATOM     73  C   UNL A   1      42.481  23.242  25.926  1.00  0.00     0.134 A 
ATOM     74  F   UNL A   1      42.062  22.576  29.468  1.00  0.00    -0.206 F 
ATOM     75  C   UNL A   1      41.931  21.121  27.631  1.00  0.00     0.040 A 
ATOM     76  C   UNL A   1      42.263  21.967  25.403  1.00  0.00     0.040 A 
ATOM     77  F   UNL A   1      42.752  24.238  25.069  1.00  0.00    -0.206 F 
ATOM     78  C   UNL A   1      42.002  20.899  26.258  1.00  0.00     0.006 A 
ENDBRANCH  50  71
BRANCH  62  79
ATOM     79  C   UNL A   1      48.228  26.494  29.668  1.00  0.00     0.057 A 
ATOM     80  C   UNL A   1      49.203  26.699  28.684  1.00  0.00     0.134 A 
ATOM     81  C   UNL A   1      48.619  25.829  30.838  1.00  0.00     0.134 A 
ATOM     82  F   UNL A   1      48.891  27.319  27.536  1.00  0.00    -0.206 F 
ATOM     83  C   UNL A   1      50.509  26.233  28.845  1.00  0.00     0.040 A 
ATOM     84  C   UNL A   1      49.929  25.387  31.023  1.00  0.00     0.040 A 
ATOM     85  F   UNL A   1      47.737  25.610  31.825  1.00  0.00    -0.206 F 
ATOM     86  C   UNL A   1      50.876  25.581  30.020  1.00  0.00     0.006 A 
ENDBRANCH  62  79
ENDBRANCH  36  37
ENDBRANCH  28  31
ENDBRANCH  26  27
ENDBRANCH  25  26
ENDBRANCH  24  25
ENDBRANCH   3  24
TORSDOF 16
ENDMDL
MODEL 2
REMARK VINA RESULT:     -11.4      3.007      8.279
REMARK SMILES CC(C)CCOCC[N@@H+]1[C@@H](C(=O)NCCCNC(=O)c2ccc(-c3c4nc(c(-c5c(F)cccc5F)c5ccc([nH]5)c(-c5c(F)cccc5F)c5nc(c(-c6c(F)cccc6F)c6ccc3[nH]6)C=C5)C=C4)cc2)CC[C@H]2CCCC[C@H]21
REMARK SMILES IDX 11 1 12 2 13 3 10 5 9 6 81 7 74 9 76 10 80 11 75 12 77 13
REMARK SMILES IDX 79 14 78 15 8 16 7 17 6 18 5 19 4 20 2 21 1 22 3 23 14 24
REMARK SMILES IDX 15 25 16 26 17 27 18 28 19 30 20 31 21 32 73 33 22 34 72 35
REMARK SMILES IDX 23 36 24 37 25 38 66 39 26 40 71 41 65 42 67 43 27 44 70 45
REMARK SMILES IDX 64 46 63 47 28 49 54 50 37 51 53 52 38 53 41 54 52 55 68 56
REMARK SMILES IDX 39 57 40 58 51 60 69 61 42 62 29 63 30 64 35 65 31 66 32 67
REMARK SMILES IDX 34 68 36 69 33 70 55 71 56 72 61 73 57 74 58 75 60 76 62 77
REMARK SMILES IDX 59 78 43 79 44 80 49 81 45 82 46 83 48 84 50 85 47 86
REMARK H PARENT 13 4 9 8 17 29 67 48 41 59
REMARK Flexibility Score: inf
ROOT
ATOM      1  C   UNL A   1      36.026  22.683  23.694  1.00  0.00     0.278 C 
ATOM      2  O   UNL A   1      36.239  23.345  22.675  1.00  0.00    -0.268 OA
ATOM      3  N   UNL A   1      36.830  21.608  23.933  1.00  0.00    -0.351 N 
ATOM      4  H   UNL A   1      37.487  21.402  23.228  1.00  0.00     0.163 HD
ENDROOT
BRANCH   1   5
ATOM      5  C   UNL A   1      34.872  23.051  24.644  1.00  0.00     0.274 C 
ATOM      6  N   UNL A   1      33.511  22.783  24.030  1.00  0.00    -0.320 N 
ATOM      7  C   UNL A   1      32.433  23.360  24.915  1.00  0.00     0.187 C 
ATOM      8  H   UNL A   1      33.431  23.213  23.109  1.00  0.00     0.349 HD
ATOM      9  C   UNL A   1      35.134  24.463  25.189  1.00  0.00     0.076 C 
ATOM     10  C   UNL A   1      32.686  24.803  25.425  1.00  0.00     0.048 C 
ATOM     11  C   UNL A   1      30.980  23.429  24.380  1.00  0.00     0.065 C 
ATOM     12  C   UNL A   1      34.030  24.901  26.126  1.00  0.00     0.016 C 
ATOM     13  C   UNL A   1      32.477  25.923  24.383  1.00  0.00     0.010 C 
ATOM     14  C   UNL A   1      30.713  24.433  23.255  1.00  0.00     0.006 C 
ATOM     15  C   UNL A   1      31.753  25.529  23.102  1.00  0.00     0.001 C 
BRANCH   6  16
ATOM     16  C   UNL A   1      33.357  21.273  23.935  1.00  0.00     0.291 C 
BRANCH  16  17
ATOM     17  C   UNL A   1      33.032  20.376  25.188  1.00  0.00     0.221 C 
BRANCH  17  18
ATOM     18  O   UNL A   1      33.207  18.960  25.111  1.00  0.00    -0.376 OA
BRANCH  18  19
ATOM     19  C   UNL A   1      32.535  18.288  24.066  1.00  0.00     0.160 C 
BRANCH  19  20
ATOM     20  C   UNL A   1      33.487  17.330  23.336  1.00  0.00     0.031 C 
BRANCH  20  21
ATOM     21  C   UNL A   1      33.963  16.081  24.123  1.00  0.00    -0.015 C 
ATOM     22  C   UNL A   1      35.173  16.334  25.002  1.00  0.00     0.007 C 
ATOM     23  C   UNL A   1      32.844  15.539  25.007  1.00  0.00     0.007 C 
ENDBRANCH  20  21
ENDBRANCH  19  20
ENDBRANCH  18  19
ENDBRANCH  17  18
ENDBRANCH  16  17
ENDBRANCH   6  16
ENDBRANCH   1   5
BRANCH   3  24
ATOM     24  C   UNL A   1      36.849  20.727  25.082  1.00  0.00     0.118 C 
BRANCH  24  25
ATOM     25  C   UNL A   1      37.961  19.701  25.027  1.00  0.00     0.042 C 
BRANCH  25  26
ATOM     26  C   UNL A   1      39.216  20.154  25.754  1.00  0.00     0.118 C 
BRANCH  26  27
ATOM     27  N   UNL A   1      40.213  19.097  25.895  1.00  0.00    -0.352 N 
ATOM     28  C   UNL A   1      41.569  19.178  26.116  1.00  0.00     0.251 C 
ATOM     29  H   UNL A   1      39.860  18.181  25.820  1.00  0.00     0.163 HD
ATOM     30  O   UNL A   1      42.269  18.184  26.031  1.00  0.00    -0.269 OA
BRANCH  28  31
ATOM     31  C   UNL A   1      42.170  20.491  26.427  1.00  0.00     0.039 A 
ATOM     32  C   UNL A   1      42.596  21.309  25.378  1.00  0.00     0.014 A 
ATOM     33  C   UNL A   1      42.275  20.927  27.747  1.00  0.00     0.014 A 
ATOM     34  C   UNL A   1      43.037  22.604  25.656  1.00  0.00     0.010 A 
ATOM     35  C   UNL A   1      42.598  22.250  28.011  1.00  0.00     0.010 A 
ATOM     36  C   UNL A   1      42.988  23.101  26.968  1.00  0.00    -0.014 A 
BRANCH  36  37
ATOM     37  C   UNL A   1      43.346  24.507  27.281  1.00  0.00     0.031 A 
ATOM     38  C   UNL A   1      44.782  24.948  27.208  1.00  0.00     0.074 A 
ATOM     39  C   UNL A   1      42.392  25.363  27.698  1.00  0.00     0.049 A 
ATOM     40  N   UNL A   1      45.311  26.100  27.530  1.00  0.00    -0.248 NA
ATOM     41  C   UNL A   1      45.761  23.949  26.742  1.00  0.00     0.031 C 
ATOM     42  C   UNL A   1      40.971  25.041  27.859  1.00  0.00     0.029 A 
ATOM     43  N   UNL A   1      42.475  26.680  28.073  1.00  0.00    -0.354 N 
ATOM     44  C   UNL A   1      46.676  25.963  27.312  1.00  0.00     0.074 A 
ATOM     45  C   UNL A   1      46.906  24.594  26.904  1.00  0.00     0.031 C 
ATOM     46  C   UNL A   1      40.313  26.140  28.262  1.00  0.00     0.029 A 
ATOM     47  C   UNL A   1      41.269  27.228  28.438  1.00  0.00     0.049 A 
ATOM     48  H   UNL A   1      43.319  27.186  28.078  1.00  0.00     0.167 HD
ATOM     49  C   UNL A   1      47.648  26.899  27.408  1.00  0.00     0.037 A 
ATOM     50  C   UNL A   1      40.970  28.467  28.872  1.00  0.00     0.037 A 
ATOM     51  C   UNL A   1      47.413  28.265  27.794  1.00  0.00     0.049 A 
ATOM     52  C   UNL A   1      42.077  29.480  29.002  1.00  0.00     0.074 A 
ATOM     53  C   UNL A   1      48.323  29.302  27.889  1.00  0.00     0.029 A 
ATOM     54  N   UNL A   1      46.175  28.783  28.146  1.00  0.00    -0.354 N 
ATOM     55  N   UNL A   1      43.354  29.351  28.735  1.00  0.00    -0.248 NA
ATOM     56  C   UNL A   1      41.698  30.812  29.491  1.00  0.00     0.031 C 
ATOM     57  C   UNL A   1      47.645  30.438  28.341  1.00  0.00     0.029 A 
ATOM     58  C   UNL A   1      46.302  30.122  28.474  1.00  0.00     0.049 A 
ATOM     59  H   UNL A   1      45.333  28.274  28.160  1.00  0.00     0.167 HD
ATOM     60  C   UNL A   1      43.922  30.593  28.984  1.00  0.00     0.074 A 
ATOM     61  C   UNL A   1      42.848  31.466  29.408  1.00  0.00     0.031 C 
ATOM     62  C   UNL A   1      45.216  30.980  28.874  1.00  0.00     0.037 A 
BRANCH  49  63
ATOM     63  C   UNL A   1      49.050  26.483  27.070  1.00  0.00     0.057 A 
ATOM     64  C   UNL A   1      49.928  25.997  28.050  1.00  0.00     0.134 A 
ATOM     65  C   UNL A   1      49.515  26.524  25.751  1.00  0.00     0.134 A 
ATOM     66  F   UNL A   1      49.551  25.946  29.336  1.00  0.00    -0.206 F 
ATOM     67  C   UNL A   1      51.224  25.590  27.732  1.00  0.00     0.040 A 
ATOM     68  C   UNL A   1      50.799  26.091  25.416  1.00  0.00     0.040 A 
ATOM     69  F   UNL A   1      48.725  26.973  24.763  1.00  0.00    -0.206 F 
ATOM     70  C   UNL A   1      51.659  25.628  26.409  1.00  0.00     0.006 A 
ENDBRANCH  49  63
BRANCH  50  71
ATOM     71  C   UNL A   1      39.570  28.838  29.202  1.00  0.00     0.057 A 
ATOM     72  C   UNL A   1      39.062  28.659  30.495  1.00  0.00     0.134 A 
ATOM     73  C   UNL A   1      38.691  29.333  28.230  1.00  0.00     0.134 A 
ATOM     74  F   UNL A   1      39.848  28.171  31.466  1.00  0.00    -0.206 F 
ATOM     75  C   UNL A   1      37.726  28.922  30.801  1.00  0.00     0.040 A 
ATOM     76  C   UNL A   1      37.360  29.630  28.530  1.00  0.00     0.040 A 
ATOM     77  F   UNL A   1      39.115  29.538  26.974  1.00  0.00    -0.206 F 
ATOM     78  C   UNL A   1      36.871  29.411  29.816  1.00  0.00     0.006 A 
ENDBRANCH  50  71
BRANCH  62  79
ATOM     79  C   UNL A   1      45.531  32.419  29.161  1.00  0.00     0.057 A 
ATOM     80  C   UNL A   1      45.860  32.865  30.447  1.00  0.00     0.134 A 
ATOM     81  C   UNL A   1      45.542  33.363  28.126  1.00  0.00     0.134 A 
ATOM     82  F   UNL A   1      45.857  32.015  31.484  1.00  0.00    -0.206 F 
ATOM     83  C   UNL A   1      46.159  34.205  30.698  1.00  0.00     0.040 A 
ATOM     84  C   UNL A   1      45.871  34.698  28.359  1.00  0.00     0.040 A 
ATOM     85  F   UNL A   1      45.247  32.999  26.868  1.00  0.00    -0.206 F 
ATOM     86  C   UNL A   1      46.172  35.124  29.651  1.00  0.00     0.006 A 
ENDBRANCH  62  79
ENDBRANCH  36  37
ENDBRANCH  28  31
ENDBRANCH  26  27
ENDBRANCH  25  26
ENDBRANCH  24  25
ENDBRANCH   3  24
TORSDOF 16
ENDMDL
MODEL 3
REMARK VINA RESULT:     -11.2      0.808      1.842
REMARK SMILES CC(C)CCOCC[N@@H+]1[C@@H](C(=O)NCCCNC(=O)c2ccc(-c3c4nc(c(-c5c(F)cccc5F)c5ccc([nH]5)c(-c5c(F)cccc5F)c5nc(c(-c6c(F)cccc6F)c6ccc3[nH]6)C=C5)C=C4)cc2)CC[C@H]2CCCC[C@H]21
REMARK SMILES IDX 11 1 12 2 13 3 10 5 9 6 81 7 74 9 76 10 80 11 75 12 77 13
REMARK SMILES IDX 79 14 78 15 8 16 7 17 6 18 5 19 4 20 2 21 1 22 3 23 14 24
REMARK SMILES IDX 15 25 16 26 17 27 18 28 19 30 20 31 21 32 73 33 22 34 72 35
REMARK SMILES IDX 23 36 24 37 25 38 66 39 26 40 71 41 65 42 67 43 27 44 70 45
REMARK SMILES IDX 64 46 63 47 28 49 54 50 37 51 53 52 38 53 41 54 52 55 68 56
REMARK SMILES IDX 39 57 40 58 51 60 69 61 42 62 29 63 30 64 35 65 31 66 32 67
REMARK SMILES IDX 34 68 36 69 33 70 55 71 56 72 61 73 57 74 58 75 60 76 62 77
REMARK SMILES IDX 59 78 43 79 44 80 49 81 45 82 46 83 48 84 50 85 47 86
REMARK H PARENT 13 4 9 8 17 29 67 48 41 59
REMARK Flexibility Score: inf
ROOT
ATOM      1  C   UNL A   1      31.774  24.446  26.644  1.00  0.00     0.278 C 
ATOM      2  O   UNL A   1      31.222  23.627  27.385  1.00  0.00    -0.268 OA
ATOM      3  N   UNL A   1      31.595  25.770  26.917  1.00  0.00    -0.351 N 
ATOM      4  H   UNL A   1      30.978  25.974  27.656  1.00  0.00     0.163 HD
ENDROOT
BRANCH   1   5
ATOM      5  C   UNL A   1      32.611  23.978  25.440  1.00  0.00     0.274 C 
ATOM      6  N   UNL A   1      31.947  22.846  24.680  1.00  0.00    -0.320 N 
ATOM      7  C   UNL A   1      32.905  22.293  23.653  1.00  0.00     0.187 C 
ATOM      8  H   UNL A   1      31.678  22.088  25.306  1.00  0.00     0.349 HD
ATOM      9  C   UNL A   1      34.053  23.753  25.920  1.00  0.00     0.076 C 
ATOM     10  C   UNL A   1      34.348  22.028  24.159  1.00  0.00     0.048 C 
ATOM     11  C   UNL A   1      32.545  20.975  22.923  1.00  0.00     0.065 C 
ATOM     12  C   UNL A   1      34.938  23.278  24.789  1.00  0.00     0.016 C 
ATOM     13  C   UNL A   1      34.523  20.777  25.046  1.00  0.00     0.010 C 
ATOM     14  C   UNL A   1      32.574  19.696  23.766  1.00  0.00     0.006 C 
ATOM     15  C   UNL A   1      33.363  19.790  25.060  1.00  0.00     0.001 C 
BRANCH   6  16
ATOM     16  C   UNL A   1      30.725  23.433  23.991  1.00  0.00     0.291 C 
BRANCH  16  17
ATOM     17  C   UNL A   1      30.675  24.924  23.482  1.00  0.00     0.221 C 
BRANCH  17  18
ATOM     18  O   UNL A   1      29.798  25.859  24.112  1.00  0.00    -0.376 OA
BRANCH  18  19
ATOM     19  C   UNL A   1      29.640  27.112  23.481  1.00  0.00     0.160 C 
BRANCH  19  20
ATOM     20  C   UNL A   1      30.923  27.512  22.738  1.00  0.00     0.031 C 
BRANCH  20  21
ATOM     21  C   UNL A   1      31.447  28.953  22.971  1.00  0.00    -0.015 C 
ATOM     22  C   UNL A   1      30.774  29.673  24.123  1.00  0.00     0.007 C 
ATOM     23  C   UNL A   1      32.950  28.946  23.234  1.00  0.00     0.007 C 
ENDBRANCH  20  21
ENDBRANCH  19  20
ENDBRANCH  18  19
ENDBRANCH  17  18
ENDBRANCH  16  17
ENDBRANCH   6  16
ENDBRANCH   1   5
BRANCH   3  24
ATOM     24  C   UNL A   1      32.190  26.918  26.265  1.00  0.00     0.118 C 
BRANCH  24  25
ATOM     25  C   UNL A   1      32.287  28.130  27.166  1.00  0.00     0.042 C 
BRANCH  25  26
ATOM     26  C   UNL A   1      33.684  28.727  27.203  1.00  0.00     0.118 C 
BRANCH  26  27
ATOM     27  N   UNL A   1      33.718  30.076  27.758  1.00  0.00    -0.352 N 
ATOM     28  C   UNL A   1      34.720  30.733  28.438  1.00  0.00     0.251 C 
ATOM     29  H   UNL A   1      32.896  30.601  27.625  1.00  0.00     0.163 HD
ATOM     30  O   UNL A   1      34.501  31.803  28.978  1.00  0.00    -0.269 OA
BRANCH  28  31
ATOM     31  C   UNL A   1      36.055  30.108  28.531  1.00  0.00     0.039 A 
ATOM     32  C   UNL A   1      36.955  30.266  27.475  1.00  0.00     0.014 A 
ATOM     33  C   UNL A   1      36.427  29.402  29.674  1.00  0.00     0.014 A 
ATOM     34  C   UNL A   1      38.262  29.796  27.614  1.00  0.00     0.010 A 
ATOM     35  C   UNL A   1      37.755  29.043  29.859  1.00  0.00     0.010 A 
ATOM     36  C   UNL A   1      38.685  29.232  28.828  1.00  0.00    -0.014 A 
BRANCH  36  37
ATOM     37  C   UNL A   1      40.095  28.822  29.046  1.00  0.00     0.031 A 
ATOM     38  C   UNL A   1      41.069  29.790  29.660  1.00  0.00     0.074 A 
ATOM     39  C   UNL A   1      40.511  27.611  28.627  1.00  0.00     0.049 A 
ATOM     40  N   UNL A   1      42.357  29.659  29.848  1.00  0.00    -0.248 NA
ATOM     41  C   UNL A   1      40.531  31.092  30.090  1.00  0.00     0.031 C 
ATOM     42  C   UNL A   1      39.674  26.603  27.971  1.00  0.00     0.029 A 
ATOM     43  N   UNL A   1      41.750  27.024  28.683  1.00  0.00    -0.354 N 
ATOM     44  C   UNL A   1      42.780  30.858  30.409  1.00  0.00     0.074 A 
ATOM     45  C   UNL A   1      41.629  31.732  30.462  1.00  0.00     0.031 C 
ATOM     46  C   UNL A   1      40.414  25.510  27.721  1.00  0.00     0.029 A 
ATOM     47  C   UNL A   1      41.786  25.757  28.150  1.00  0.00     0.049 A 
ATOM     48  H   UNL A   1      42.539  27.467  29.069  1.00  0.00     0.167 HD
ATOM     49  C   UNL A   1      44.007  31.190  30.873  1.00  0.00     0.037 A 
ATOM     50  C   UNL A   1      42.813  24.896  28.017  1.00  0.00     0.037 A 
ATOM     51  C   UNL A   1      45.145  30.310  30.838  1.00  0.00     0.049 A 
ATOM     52  C   UNL A   1      44.175  25.305  28.510  1.00  0.00     0.074 A 
ATOM     53  C   UNL A   1      46.424  30.537  31.314  1.00  0.00     0.029 A 
ATOM     54  N   UNL A   1      45.137  29.032  30.300  1.00  0.00    -0.354 N 
ATOM     55  N   UNL A   1      44.545  26.420  29.093  1.00  0.00    -0.248 NA
ATOM     56  C   UNL A   1      45.261  24.333  28.330  1.00  0.00     0.031 C 
ATOM     57  C   UNL A   1      47.203  29.413  31.023  1.00  0.00     0.029 A 
ATOM     58  C   UNL A   1      46.394  28.464  30.417  1.00  0.00     0.049 A 
ATOM     59  H   UNL A   1      44.354  28.594  29.895  1.00  0.00     0.167 HD
ATOM     60  C   UNL A   1      45.893  26.267  29.385  1.00  0.00     0.074 A 
ATOM     61  C   UNL A   1      46.272  24.946  28.929  1.00  0.00     0.031 C 
ATOM     62  C   UNL A   1      46.746  27.139  29.976  1.00  0.00     0.037 A 
BRANCH  49  63
ATOM     63  C   UNL A   1      44.176  32.554  31.476  1.00  0.00     0.057 A 
ATOM     64  C   UNL A   1      43.991  32.779  32.847  1.00  0.00     0.134 A 
ATOM     65  C   UNL A   1      44.568  33.645  30.691  1.00  0.00     0.134 A 
ATOM     66  F   UNL A   1      43.600  31.781  33.654  1.00  0.00    -0.206 F 
ATOM     67  C   UNL A   1      44.169  34.043  33.411  1.00  0.00     0.040 A 
ATOM     68  C   UNL A   1      44.778  34.907  31.248  1.00  0.00     0.040 A 
ATOM     69  F   UNL A   1      44.766  33.499  29.371  1.00  0.00    -0.206 F 
ATOM     70  C   UNL A   1      44.573  35.110  32.611  1.00  0.00     0.006 A 
ENDBRANCH  49  63
BRANCH  50  71
ATOM     71  C   UNL A   1      42.604  23.557  27.409  1.00  0.00     0.057 A 
ATOM     72  C   UNL A   1      42.727  23.365  26.027  1.00  0.00     0.134 A 
ATOM     73  C   UNL A   1      42.233  22.448  28.180  1.00  0.00     0.134 A 
ATOM     74  F   UNL A   1      43.063  24.391  25.231  1.00  0.00    -0.206 F 
ATOM     75  C   UNL A   1      42.452  22.134  25.430  1.00  0.00     0.040 A 
ATOM     76  C   UNL A   1      41.985  21.203  27.599  1.00  0.00     0.040 A 
ATOM     77  F   UNL A   1      42.107  22.560  29.510  1.00  0.00    -0.206 F 
ATOM     78  C   UNL A   1      42.081  21.047  26.218  1.00  0.00     0.006 A 
ENDBRANCH  50  71
BRANCH  62  79
ATOM     79  C   UNL A   1      48.153  26.673  30.214  1.00  0.00     0.057 A 
ATOM     80  C   UNL A   1      48.511  25.942  31.353  1.00  0.00     0.134 A 
ATOM     81  C   UNL A   1      49.153  26.929  29.267  1.00  0.00     0.134 A 
ATOM     82  F   UNL A   1      47.603  25.675  32.303  1.00  0.00    -0.206 F 
ATOM     83  C   UNL A   1      49.822  25.507  31.557  1.00  0.00     0.040 A 
ATOM     84  C   UNL A   1      50.459  26.471  29.444  1.00  0.00     0.040 A 
ATOM     85  F   UNL A   1      48.874  27.613  28.147  1.00  0.00    -0.206 F 
ATOM     86  C   UNL A   1      50.798  25.765  30.596  1.00  0.00     0.006 A 
ENDBRANCH  62  79
ENDBRANCH  36  37
ENDBRANCH  28  31
ENDBRANCH  26  27
ENDBRANCH  25  26
ENDBRANCH  24  25
ENDBRANCH   3  24
TORSDOF 16
ENDMDL
