MODEL 1
REMARK VINA RESULT:     -10.7      0.000      0.000
REMARK SMILES CN1C(=O)Cc2cc([C@@H](O)CCCCC(=O)NCCCNC(=O)c3ccc(-c4c5nc(c(-c6c(F)cccc6F)c6ccc([nH]6)c(-c6c(F)cccc6F)c6nc(c(-c7c(F)cccc7F)c7ccc4[nH]7)C=C6)C=C5)cc3)ccc21
REMARK SMILES IDX 15 1 16 2 17 3 14 5 13 6 12 7 11 8 9 9 8 10 1 11 2 12 3 13
REMARK SMILES IDX 80 14 4 15 5 16 6 17 79 18 7 19 78 20 10 21 18 23 19 24
REMARK SMILES IDX 20 25 21 26 22 27 23 29 24 30 25 31 77 32 26 33 76 34 27 35
REMARK SMILES IDX 28 36 29 37 70 38 30 39 75 40 69 41 71 42 31 43 74 44 68 45
REMARK SMILES IDX 67 46 32 48 58 49 41 50 57 51 42 52 45 53 56 54 72 55 43 56
REMARK SMILES IDX 44 57 55 59 73 60 46 61 33 62 34 63 39 64 35 65 36 66 38 67
REMARK SMILES IDX 40 68 37 69 59 70 60 71 65 72 61 73 62 74 64 75 66 76 63 77
REMARK SMILES IDX 47 78 48 79 53 80 49 81 50 82 52 83 54 84 51 85
REMARK H PARENT 17 4 10 22 21 28 71 47 45 58
REMARK Flexibility Score: inf
ROOT
ATOM      1  C   UNL A   1      33.558  28.118  22.639  1.00  0.00     0.219 C 
ATOM      2  O   UNL A   1      34.111  28.206  21.541  1.00  0.00    -0.275 OA
ATOM      3  N   UNL A   1      33.747  29.129  23.531  1.00  0.00    -0.356 N 
ATOM      4  H   UNL A   1      34.261  29.893  23.185  1.00  0.00     0.163 HD
ENDROOT
BRANCH   1   5
ATOM      5  C   UNL A   1      32.673  26.930  22.970  1.00  0.00     0.100 C 
BRANCH   5   6
ATOM      6  C   UNL A   1      31.186  27.143  22.682  1.00  0.00     0.010 C 
BRANCH   6   7
ATOM      7  C   UNL A   1      30.298  27.427  23.892  1.00  0.00     0.004 C 
BRANCH   7   8
ATOM      8  C   UNL A   1      30.703  26.725  25.197  1.00  0.00     0.037 C 
BRANCH   8   9
ATOM      9  C   UNL A   1      30.195  25.288  25.330  1.00  0.00     0.144 C 
BRANCH   9  10
ATOM     10  C   UNL A   1      31.344  24.310  25.451  1.00  0.00    -0.019 A 
ATOM     11  C   UNL A   1      34.804  20.449  25.012  1.00  0.00     0.153 C 
ATOM     12  N   UNL A   1      34.675  21.844  25.335  1.00  0.00    -0.315 N 
ATOM     13  C   UNL A   1      35.738  22.689  25.663  1.00  0.00     0.231 C 
ATOM     14  C   UNL A   1      33.459  22.529  25.347  1.00  0.00     0.047 A 
ATOM     15  O   UNL A   1      36.920  22.396  25.733  1.00  0.00    -0.274 OA
ATOM     16  C   UNL A   1      35.148  24.081  25.918  1.00  0.00     0.138 C 
ATOM     17  C   UNL A   1      33.683  23.858  25.700  1.00  0.00    -0.014 A 
ATOM     18  C   UNL A   1      32.197  22.053  25.057  1.00  0.00     0.027 A 
ATOM     19  C   UNL A   1      32.639  24.760  25.769  1.00  0.00     0.012 A 
ATOM     20  C   UNL A   1      31.133  22.954  25.113  1.00  0.00     0.008 A 
ENDBRANCH   9  10
BRANCH   9  21
ATOM     21  O   UNL A   1      29.372  25.213  26.494  1.00  0.00    -0.388 OA
ATOM     22  H   UNL A   1      28.832  24.407  26.456  1.00  0.00     0.211 HD
ENDBRANCH   9  21
ENDBRANCH   8   9
ENDBRANCH   7   8
ENDBRANCH   6   7
ENDBRANCH   5   6
ENDBRANCH   1   5
BRANCH   3  23
ATOM     23  C   UNL A   1      33.311  29.264  24.909  1.00  0.00     0.117 C 
BRANCH  23  24
ATOM     24  C   UNL A   1      34.106  28.343  25.830  1.00  0.00     0.042 C 
BRANCH  24  25
ATOM     25  C   UNL A   1      33.764  28.500  27.300  1.00  0.00     0.118 C 
BRANCH  25  26
ATOM     26  N   UNL A   1      33.700  29.893  27.706  1.00  0.00    -0.352 N 
ATOM     27  C   UNL A   1      34.636  30.668  28.347  1.00  0.00     0.251 C 
ATOM     28  H   UNL A   1      32.856  30.351  27.490  1.00  0.00     0.163 HD
ATOM     29  O   UNL A   1      34.311  31.773  28.773  1.00  0.00    -0.269 OA
BRANCH  27  30
ATOM     30  C   UNL A   1      36.021  30.179  28.549  1.00  0.00     0.039 A 
ATOM     31  C   UNL A   1      36.927  30.273  27.488  1.00  0.00     0.014 A 
ATOM     32  C   UNL A   1      36.428  29.604  29.755  1.00  0.00     0.014 A 
ATOM     33  C   UNL A   1      38.243  29.836  27.654  1.00  0.00     0.010 A 
ATOM     34  C   UNL A   1      37.764  29.275  29.956  1.00  0.00     0.010 A 
ATOM     35  C   UNL A   1      38.682  29.361  28.900  1.00  0.00    -0.014 A 
BRANCH  35  36
ATOM     36  C   UNL A   1      40.084  28.919  29.109  1.00  0.00     0.031 A 
ATOM     37  C   UNL A   1      41.090  29.857  29.721  1.00  0.00     0.074 A 
ATOM     38  C   UNL A   1      40.469  27.698  28.693  1.00  0.00     0.049 A 
ATOM     39  N   UNL A   1      42.368  29.675  29.939  1.00  0.00    -0.248 NA
ATOM     40  C   UNL A   1      40.601  31.190  30.106  1.00  0.00     0.031 C 
ATOM     41  C   UNL A   1      39.604  26.719  28.031  1.00  0.00     0.029 A 
ATOM     42  N   UNL A   1      41.689  27.074  28.758  1.00  0.00    -0.354 N 
ATOM     43  C   UNL A   1      42.835  30.874  30.463  1.00  0.00     0.074 A 
ATOM     44  C   UNL A   1      41.722  31.795  30.468  1.00  0.00     0.031 C 
ATOM     45  C   UNL A   1      40.314  25.609  27.774  1.00  0.00     0.029 A 
ATOM     46  C   UNL A   1      41.690  25.812  28.215  1.00  0.00     0.049 A 
ATOM     47  H   UNL A   1      42.487  27.491  29.154  1.00  0.00     0.167 HD
ATOM     48  C   UNL A   1      44.073  31.173  30.923  1.00  0.00     0.037 A 
ATOM     49  C   UNL A   1      42.690  24.920  28.082  1.00  0.00     0.037 A 
ATOM     50  C   UNL A   1      45.173  30.243  30.935  1.00  0.00     0.049 A 
ATOM     51  C   UNL A   1      44.055  25.266  28.605  1.00  0.00     0.074 A 
ATOM     52  C   UNL A   1      46.446  30.416  31.447  1.00  0.00     0.029 A 
ATOM     53  N   UNL A   1      45.129  28.964  30.396  1.00  0.00    -0.354 N 
ATOM     54  N   UNL A   1      44.465  26.372  29.178  1.00  0.00    -0.248 NA
ATOM     55  C   UNL A   1      45.096  24.237  28.472  1.00  0.00     0.031 C 
ATOM     56  C   UNL A   1      47.191  29.267  31.164  1.00  0.00     0.029 A 
ATOM     57  C   UNL A   1      46.363  28.350  30.533  1.00  0.00     0.049 A 
ATOM     58  H   UNL A   1      44.338  28.554  29.979  1.00  0.00     0.167 HD
ATOM     59  C   UNL A   1      45.802  26.167  29.495  1.00  0.00     0.074 A 
ATOM     60  C   UNL A   1      46.128  24.823  29.062  1.00  0.00     0.031 C 
ATOM     61  C   UNL A   1      46.677  27.013  30.091  1.00  0.00     0.037 A 
BRANCH  48  62
ATOM     62  C   UNL A   1      44.299  32.569  31.437  1.00  0.00     0.057 A 
ATOM     63  C   UNL A   1      44.071  32.918  32.777  1.00  0.00     0.134 A 
ATOM     64  C   UNL A   1      44.747  33.581  30.579  1.00  0.00     0.134 A 
ATOM     65  F   UNL A   1      43.630  32.001  33.653  1.00  0.00    -0.206 F 
ATOM     66  C   UNL A   1      44.232  34.228  33.230  1.00  0.00     0.040 A 
ATOM     67  C   UNL A   1      44.946  34.888  31.030  1.00  0.00     0.040 A 
ATOM     68  F   UNL A   1      44.996  33.319  29.288  1.00  0.00    -0.206 F 
ATOM     69  C   UNL A   1      44.675  35.217  32.355  1.00  0.00     0.006 A 
ENDBRANCH  48  62
BRANCH  49  70
ATOM     70  C   UNL A   1      42.415  23.606  27.447  1.00  0.00     0.057 A 
ATOM     71  C   UNL A   1      42.488  23.443  26.059  1.00  0.00     0.134 A 
ATOM     72  C   UNL A   1      42.119  22.473  28.215  1.00  0.00     0.134 A 
ATOM     73  F   UNL A   1      42.753  24.494  25.269  1.00  0.00    -0.206 F 
ATOM     74  C   UNL A   1      42.268  22.203  25.456  1.00  0.00     0.040 A 
ATOM     75  C   UNL A   1      41.927  21.222  27.628  1.00  0.00     0.040 A 
ATOM     76  F   UNL A   1      42.044  22.562  29.551  1.00  0.00    -0.206 F 
ATOM     77  C   UNL A   1      41.997  21.086  26.243  1.00  0.00     0.006 A 
ENDBRANCH  49  70
BRANCH  61  78
ATOM     78  C   UNL A   1      48.069  26.504  30.334  1.00  0.00     0.057 A 
ATOM     79  C   UNL A   1      48.424  25.853  31.521  1.00  0.00     0.134 A 
ATOM     80  C   UNL A   1      49.056  26.632  29.346  1.00  0.00     0.134 A 
ATOM     81  F   UNL A   1      47.531  25.707  32.512  1.00  0.00    -0.206 F 
ATOM     82  C   UNL A   1      49.718  25.369  31.728  1.00  0.00     0.040 A 
ATOM     83  C   UNL A   1      50.342  26.125  29.530  1.00  0.00     0.040 A 
ATOM     84  F   UNL A   1      48.780  27.236  28.181  1.00  0.00    -0.206 F 
ATOM     85  C   UNL A   1      50.679  25.497  30.728  1.00  0.00     0.006 A 
ENDBRANCH  61  78
ENDBRANCH  35  36
ENDBRANCH  27  30
ENDBRANCH  25  26
ENDBRANCH  24  25
ENDBRANCH  23  24
ENDBRANCH   3  23
TORSDOF 16
ENDMDL
MODEL 2
REMARK VINA RESULT:     -10.7      2.986      7.536
REMARK SMILES CN1C(=O)Cc2cc([C@@H](O)CCCCC(=O)NCCCNC(=O)c3ccc(-c4c5nc(c(-c6c(F)cccc6F)c6ccc([nH]6)c(-c6c(F)cccc6F)c6nc(c(-c7c(F)cccc7F)c7ccc4[nH]7)C=C6)C=C5)cc3)ccc21
REMARK SMILES IDX 15 1 16 2 17 3 14 5 13 6 12 7 11 8 9 9 8 10 1 11 2 12 3 13
REMARK SMILES IDX 80 14 4 15 5 16 6 17 79 18 7 19 78 20 10 21 18 23 19 24
REMARK SMILES IDX 20 25 21 26 22 27 23 29 24 30 25 31 77 32 26 33 76 34 27 35
REMARK SMILES IDX 28 36 29 37 70 38 30 39 75 40 69 41 71 42 31 43 74 44 68 45
REMARK SMILES IDX 67 46 32 48 58 49 41 50 57 51 42 52 45 53 56 54 72 55 43 56
REMARK SMILES IDX 44 57 55 59 73 60 46 61 33 62 34 63 39 64 35 65 36 66 38 67
REMARK SMILES IDX 40 68 37 69 59 70 60 71 65 72 61 73 62 74 64 75 66 76 63 77
REMARK SMILES IDX 47 78 48 79 53 80 49 81 50 82 52 83 54 84 51 85
REMARK H PARENT 17 4 10 22 21 28 71 47 45 58
REMARK Flexibility Score: inf
ROOT
ATOM      1  C   UNL A   1      37.483  23.291  25.841  1.00  0.00     0.219 C 
ATOM      2  O   UNL A   1      38.233  24.138  26.329  1.00  0.00    -0.275 OA
ATOM      3  N   UNL A   1      38.048  22.178  25.296  1.00  0.00    -0.356 N 
ATOM      4  H   UNL A   1      39.024  22.114  25.408  1.00  0.00     0.163 HD
ENDROOT
BRANCH   1   5
ATOM      5  C   UNL A   1      35.977  23.475  25.874  1.00  0.00     0.100 C 
BRANCH   5   6
ATOM      6  C   UNL A   1      35.402  24.237  24.678  1.00  0.00     0.010 C 
BRANCH   6   7
ATOM      7  C   UNL A   1      34.160  25.082  24.951  1.00  0.00     0.004 C 
BRANCH   7   8
ATOM      8  C   UNL A   1      33.365  24.714  26.213  1.00  0.00     0.037 C 
BRANCH   8   9
ATOM      9  C   UNL A   1      32.126  23.854  25.956  1.00  0.00     0.144 C 
BRANCH   9  10
ATOM     10  C   UNL A   1      32.508  22.478  25.457  1.00  0.00    -0.019 A 
ATOM     11  C   UNL A   1      33.535  17.425  24.759  1.00  0.00     0.153 C 
ATOM     12  N   UNL A   1      33.037  18.598  24.094  1.00  0.00    -0.315 N 
ATOM     13  C   UNL A   1      32.581  18.634  22.773  1.00  0.00     0.231 C 
ATOM     14  C   UNL A   1      32.941  19.852  24.698  1.00  0.00     0.047 A 
ATOM     15  O   UNL A   1      32.530  17.705  21.984  1.00  0.00    -0.274 OA
ATOM     16  C   UNL A   1      32.137  20.073  22.487  1.00  0.00     0.138 C 
ATOM     17  C   UNL A   1      32.424  20.766  23.783  1.00  0.00    -0.014 A 
ATOM     18  C   UNL A   1      33.266  20.215  25.990  1.00  0.00     0.027 A 
ATOM     19  C   UNL A   1      32.211  22.084  24.139  1.00  0.00     0.012 A 
ATOM     20  C   UNL A   1      33.048  21.540  26.367  1.00  0.00     0.008 A 
ENDBRANCH   9  10
BRANCH   9  21
ATOM     21  O   UNL A   1      31.402  23.741  27.181  1.00  0.00    -0.388 OA
ATOM     22  H   UNL A   1      30.718  23.058  27.089  1.00  0.00     0.211 HD
ENDBRANCH   9  21
ENDBRANCH   8   9
ENDBRANCH   7   8
ENDBRANCH   6   7
ENDBRANCH   5   6
ENDBRANCH   1   5
BRANCH   3  23
ATOM     23  C   UNL A   1      37.445  21.071  24.578  1.00  0.00     0.117 C 
BRANCH  23  24
ATOM     24  C   UNL A   1      38.188  19.766  24.853  1.00  0.00     0.042 C 
BRANCH  24  25
ATOM     25  C   UNL A   1      39.019  19.788  26.122  1.00  0.00     0.118 C 
BRANCH  25  26
ATOM     26  N   UNL A   1      40.237  19.005  25.998  1.00  0.00    -0.352 N 
ATOM     27  C   UNL A   1      41.549  19.411  26.006  1.00  0.00     0.251 C 
ATOM     28  H   UNL A   1      40.100  18.036  25.891  1.00  0.00     0.163 HD
ATOM     29  O   UNL A   1      42.427  18.611  25.693  1.00  0.00    -0.269 OA
BRANCH  27  30
ATOM     30  C   UNL A   1      41.915  20.802  26.364  1.00  0.00     0.039 A 
ATOM     31  C   UNL A   1      42.070  21.128  27.715  1.00  0.00     0.014 A 
ATOM     32  C   UNL A   1      42.076  21.793  25.392  1.00  0.00     0.014 A 
ATOM     33  C   UNL A   1      42.431  22.427  28.082  1.00  0.00     0.010 A 
ATOM     34  C   UNL A   1      42.543  23.052  25.749  1.00  0.00     0.010 A 
ATOM     35  C   UNL A   1      42.701  23.393  27.100  1.00  0.00    -0.014 A 
BRANCH  35  36
ATOM     36  C   UNL A   1      43.114  24.772  27.465  1.00  0.00     0.031 A 
ATOM     37  C   UNL A   1      44.564  25.171  27.391  1.00  0.00     0.074 A 
ATOM     38  C   UNL A   1      42.198  25.645  27.922  1.00  0.00     0.049 A 
ATOM     39  N   UNL A   1      45.128  26.308  27.714  1.00  0.00    -0.248 NA
ATOM     40  C   UNL A   1      45.510  24.144  26.926  1.00  0.00     0.031 C 
ATOM     41  C   UNL A   1      40.773  25.361  28.098  1.00  0.00     0.029 A 
ATOM     42  N   UNL A   1      42.330  26.949  28.330  1.00  0.00    -0.354 N 
ATOM     43  C   UNL A   1      46.490  26.123  27.512  1.00  0.00     0.074 A 
ATOM     44  C   UNL A   1      46.674  24.749  27.105  1.00  0.00     0.031 C 
ATOM     45  C   UNL A   1      40.157  26.464  28.553  1.00  0.00     0.029 A 
ATOM     46  C   UNL A   1      41.149  27.518  28.740  1.00  0.00     0.049 A 
ATOM     47  H   UNL A   1      43.189  27.429  28.331  1.00  0.00     0.167 HD
ATOM     48  C   UNL A   1      47.495  27.023  27.630  1.00  0.00     0.037 A 
ATOM     49  C   UNL A   1      40.894  28.751  29.218  1.00  0.00     0.037 A 
ATOM     50  C   UNL A   1      47.302  28.397  28.016  1.00  0.00     0.049 A 
ATOM     51  C   UNL A   1      42.019  29.739  29.335  1.00  0.00     0.074 A 
ATOM     52  C   UNL A   1      48.238  29.412  28.093  1.00  0.00     0.029 A 
ATOM     53  N   UNL A   1      46.086  28.944  28.402  1.00  0.00    -0.354 N 
ATOM     54  N   UNL A   1      43.291  29.579  29.058  1.00  0.00    -0.248 NA
ATOM     55  C   UNL A   1      41.674  31.082  29.821  1.00  0.00     0.031 C 
ATOM     56  C   UNL A   1      47.602  30.557  28.584  1.00  0.00     0.029 A 
ATOM     57  C   UNL A   1      46.254  30.273  28.751  1.00  0.00     0.049 A 
ATOM     58  H   UNL A   1      45.230  28.458  28.424  1.00  0.00     0.167 HD
ATOM     59  C   UNL A   1      43.896  30.804  29.314  1.00  0.00     0.074 A 
ATOM     60  C   UNL A   1      42.845  31.700  29.753  1.00  0.00     0.031 C 
ATOM     61  C   UNL A   1      45.200  31.153  29.194  1.00  0.00     0.037 A 
BRANCH  48  62
ATOM     62  C   UNL A   1      48.892  26.538  27.350  1.00  0.00     0.057 A 
ATOM     63  C   UNL A   1      49.727  26.042  28.363  1.00  0.00     0.134 A 
ATOM     64  C   UNL A   1      49.412  26.572  26.051  1.00  0.00     0.134 A 
ATOM     65  F   UNL A   1      49.298  25.990  29.634  1.00  0.00    -0.206 F 
ATOM     66  C   UNL A   1      51.039  25.645  28.101  1.00  0.00     0.040 A 
ATOM     67  C   UNL A   1      50.712  26.145  25.771  1.00  0.00     0.040 A 
ATOM     68  F   UNL A   1      48.669  27.025  25.030  1.00  0.00    -0.206 F 
ATOM     69  C   UNL A   1      51.534  25.693  26.800  1.00  0.00     0.006 A 
ENDBRANCH  48  62
BRANCH  49  70
ATOM     70  C   UNL A   1      39.503  29.115  29.592  1.00  0.00     0.057 A 
ATOM     71  C   UNL A   1      38.585  29.549  28.630  1.00  0.00     0.134 A 
ATOM     72  C   UNL A   1      39.048  28.992  30.911  1.00  0.00     0.134 A 
ATOM     73  F   UNL A   1      38.966  29.701  27.354  1.00  0.00    -0.206 F 
ATOM     74  C   UNL A   1      37.265  29.858  28.966  1.00  0.00     0.040 A 
ATOM     75  C   UNL A   1      37.724  29.267  31.255  1.00  0.00     0.040 A 
ATOM     76  F   UNL A   1      39.877  28.572  31.877  1.00  0.00    -0.206 F 
ATOM     77  C   UNL A   1      36.829  29.705  30.281  1.00  0.00     0.006 A 
ENDBRANCH  49  70
BRANCH  61  78
ATOM     78  C   UNL A   1      45.564  32.574  29.520  1.00  0.00     0.057 A 
ATOM     79  C   UNL A   1      45.983  32.957  30.800  1.00  0.00     0.134 A 
ATOM     80  C   UNL A   1      45.534  33.561  28.526  1.00  0.00     0.134 A 
ATOM     81  F   UNL A   1      46.024  32.064  31.800  1.00  0.00    -0.206 F 
ATOM     82  C   UNL A   1      46.335  34.279  31.085  1.00  0.00     0.040 A 
ATOM     83  C   UNL A   1      45.913  34.877  28.793  1.00  0.00     0.040 A 
ATOM     84  F   UNL A   1      45.153  33.260  27.276  1.00  0.00    -0.206 F 
ATOM     85  C   UNL A   1      46.308  35.241  30.078  1.00  0.00     0.006 A 
ENDBRANCH  61  78
ENDBRANCH  35  36
ENDBRANCH  27  30
ENDBRANCH  25  26
ENDBRANCH  24  25
ENDBRANCH  23  24
ENDBRANCH   3  23
TORSDOF 16
ENDMDL
MODEL 3
REMARK VINA RESULT:     -10.6      2.637      7.561
REMARK SMILES CN1C(=O)Cc2cc([C@@H](O)CCCCC(=O)NCCCNC(=O)c3ccc(-c4c5nc(c(-c6c(F)cccc6F)c6ccc([nH]6)c(-c6c(F)cccc6F)c6nc(c(-c7c(F)cccc7F)c7ccc4[nH]7)C=C6)C=C5)cc3)ccc21
REMARK SMILES IDX 15 1 16 2 17 3 14 5 13 6 12 7 11 8 9 9 8 10 1 11 2 12 3 13
REMARK SMILES IDX 80 14 4 15 5 16 6 17 79 18 7 19 78 20 10 21 18 23 19 24
REMARK SMILES IDX 20 25 21 26 22 27 23 29 24 30 25 31 77 32 26 33 76 34 27 35
REMARK SMILES IDX 28 36 29 37 70 38 30 39 75 40 69 41 71 42 31 43 74 44 68 45
REMARK SMILES IDX 67 46 32 48 58 49 41 50 57 51 42 52 45 53 56 54 72 55 43 56
REMARK SMILES IDX 44 57 55 59 73 60 46 61 33 62 34 63 39 64 35 65 36 66 38 67
REMARK SMILES IDX 40 68 37 69 59 70 60 71 65 72 61 73 62 74 64 75 66 76 63 77
REMARK SMILES IDX 47 78 48 79 53 80 49 81 50 82 52 83 54 84 51 85
REMARK H PARENT 17 4 10 22 21 28 71 47 45 58
REMARK Flexibility Score: inf
ROOT
ATOM      1  C   UNL A   1      37.282  23.215  25.618  1.00  0.00     0.219 C 
ATOM      2  O   UNL A   1      38.003  24.161  25.938  1.00  0.00    -0.275 OA
ATOM      3  N   UNL A   1      37.881  22.088  25.143  1.00  0.00    -0.356 N 
ATOM      4  H   UNL A   1      38.865  22.104  25.166  1.00  0.00     0.163 HD
ENDROOT
BRANCH   1   5
ATOM      5  C   UNL A   1      35.774  23.298  25.778  1.00  0.00     0.100 C 
BRANCH   5   6
ATOM      6  C   UNL A   1      35.124  24.491  25.073  1.00  0.00     0.010 C 
BRANCH   6   7
ATOM      7  C   UNL A   1      33.977  25.171  25.817  1.00  0.00     0.004 C 
BRANCH   7   8
ATOM      8  C   UNL A   1      32.705  24.329  25.996  1.00  0.00     0.037 C 
BRANCH   8   9
ATOM      9  C   UNL A   1      31.927  24.069  24.705  1.00  0.00     0.144 C 
BRANCH   9  10
ATOM     10  C   UNL A   1      31.954  22.602  24.335  1.00  0.00    -0.019 A 
ATOM     11  C   UNL A   1      32.527  17.921  22.135  1.00  0.00     0.153 C 
ATOM     12  N   UNL A   1      32.553  18.607  23.398  1.00  0.00    -0.315 N 
ATOM     13  C   UNL A   1      32.836  18.006  24.628  1.00  0.00     0.231 C 
ATOM     14  C   UNL A   1      32.306  19.972  23.546  1.00  0.00     0.047 A 
ATOM     15  O   UNL A   1      33.099  16.833  24.833  1.00  0.00    -0.274 OA
ATOM     16  C   UNL A   1      32.765  19.104  25.696  1.00  0.00     0.138 C 
ATOM     17  C   UNL A   1      32.407  20.316  24.892  1.00  0.00    -0.014 A 
ATOM     18  C   UNL A   1      32.016  20.908  22.573  1.00  0.00     0.027 A 
ATOM     19  C   UNL A   1      32.224  21.621  25.307  1.00  0.00     0.012 A 
ATOM     20  C   UNL A   1      31.838  22.231  22.976  1.00  0.00     0.008 A 
ENDBRANCH   9  10
BRANCH   9  21
ATOM     21  O   UNL A   1      30.578  24.491  24.905  1.00  0.00    -0.388 OA
ATOM     22  H   UNL A   1      30.565  25.439  25.116  1.00  0.00     0.211 HD
ENDBRANCH   9  21
ENDBRANCH   8   9
ENDBRANCH   7   8
ENDBRANCH   6   7
ENDBRANCH   5   6
ENDBRANCH   1   5
BRANCH   3  23
ATOM     23  C   UNL A   1      37.305  20.867  24.611  1.00  0.00     0.117 C 
BRANCH  23  24
ATOM     24  C   UNL A   1      38.218  19.671  24.865  1.00  0.00     0.042 C 
BRANCH  24  25
ATOM     25  C   UNL A   1      39.158  19.854  26.042  1.00  0.00     0.118 C 
BRANCH  25  26
ATOM     26  N   UNL A   1      40.376  19.075  25.901  1.00  0.00    -0.352 N 
ATOM     27  C   UNL A   1      41.688  19.467  26.000  1.00  0.00     0.251 C 
ATOM     28  H   UNL A   1      40.240  18.120  25.705  1.00  0.00     0.163 HD
ATOM     29  O   UNL A   1      42.575  18.691  25.656  1.00  0.00    -0.269 OA
BRANCH  27  30
ATOM     30  C   UNL A   1      42.045  20.820  26.491  1.00  0.00     0.039 A 
ATOM     31  C   UNL A   1      42.329  21.820  25.555  1.00  0.00     0.014 A 
ATOM     32  C   UNL A   1      42.134  21.107  27.855  1.00  0.00     0.014 A 
ATOM     33  C   UNL A   1      42.652  23.108  25.988  1.00  0.00     0.010 A 
ATOM     34  C   UNL A   1      42.343  22.413  28.283  1.00  0.00     0.010 A 
ATOM     35  C   UNL A   1      42.632  23.424  27.356  1.00  0.00    -0.014 A 
BRANCH  35  36
ATOM     36  C   UNL A   1      42.943  24.794  27.837  1.00  0.00     0.031 A 
ATOM     37  C   UNL A   1      44.373  25.212  28.055  1.00  0.00     0.074 A 
ATOM     38  C   UNL A   1      41.940  25.641  28.136  1.00  0.00     0.049 A 
ATOM     39  N   UNL A   1      44.844  26.344  28.516  1.00  0.00    -0.248 NA
ATOM     40  C   UNL A   1      45.408  24.214  27.749  1.00  0.00     0.031 C 
ATOM     41  C   UNL A   1      40.513  25.334  28.025  1.00  0.00     0.029 A 
ATOM     42  N   UNL A   1      41.968  26.931  28.602  1.00  0.00    -0.354 N 
ATOM     43  C   UNL A   1      46.222  26.182  28.574  1.00  0.00     0.074 A 
ATOM     44  C   UNL A   1      46.506  24.825  28.167  1.00  0.00     0.031 C 
ATOM     45  C   UNL A   1      39.802  26.413  28.387  1.00  0.00     0.029 A 
ATOM     46  C   UNL A   1      40.720  27.472  28.794  1.00  0.00     0.049 A 
ATOM     47  H   UNL A   1      42.802  27.421  28.783  1.00  0.00     0.167 HD
ATOM     48  C   UNL A   1      47.170  27.090  28.911  1.00  0.00     0.037 A 
ATOM     49  C   UNL A   1      40.356  28.685  29.253  1.00  0.00     0.037 A 
ATOM     50  C   UNL A   1      46.881  28.447  29.295  1.00  0.00     0.049 A 
ATOM     51  C   UNL A   1      41.420  29.681  29.615  1.00  0.00     0.074 A 
ATOM     52  C   UNL A   1      47.767  29.470  29.582  1.00  0.00     0.029 A 
ATOM     53  N   UNL A   1      45.604  28.966  29.456  1.00  0.00    -0.354 N 
ATOM     54  N   UNL A   1      42.724  29.546  29.583  1.00  0.00    -0.248 NA
ATOM     55  C   UNL A   1      40.964  31.003  30.067  1.00  0.00     0.031 C 
ATOM     56  C   UNL A   1      47.027  30.590  29.977  1.00  0.00     0.029 A 
ATOM     57  C   UNL A   1      45.678  30.285  29.873  1.00  0.00     0.049 A 
ATOM     58  H   UNL A   1      44.769  28.470  29.299  1.00  0.00     0.167 HD
ATOM     59  C   UNL A   1      43.246  30.768  29.988  1.00  0.00     0.074 A 
ATOM     60  C   UNL A   1      42.115  31.636  30.245  1.00  0.00     0.031 C 
ATOM     61  C   UNL A   1      44.543  31.137  30.133  1.00  0.00     0.037 A 
BRANCH  48  62
ATOM     62  C   UNL A   1      48.602  26.631  28.890  1.00  0.00     0.057 A 
ATOM     63  C   UNL A   1      49.414  26.769  27.754  1.00  0.00     0.134 A 
ATOM     64  C   UNL A   1      49.178  26.038  30.020  1.00  0.00     0.134 A 
ATOM     65  F   UNL A   1      48.925  27.318  26.631  1.00  0.00    -0.206 F 
ATOM     66  C   UNL A   1      50.726  26.290  27.728  1.00  0.00     0.040 A 
ATOM     67  C   UNL A   1      50.500  25.587  30.018  1.00  0.00     0.040 A 
ATOM     68  F   UNL A   1      48.466  25.882  31.146  1.00  0.00    -0.206 F 
ATOM     69  C   UNL A   1      51.273  25.701  28.865  1.00  0.00     0.006 A 
ENDBRANCH  48  62
BRANCH  49  70
ATOM     70  C   UNL A   1      38.913  29.019  29.364  1.00  0.00     0.057 A 
ATOM     71  C   UNL A   1      38.230  28.881  30.577  1.00  0.00     0.134 A 
ATOM     72  C   UNL A   1      38.197  29.527  28.273  1.00  0.00     0.134 A 
ATOM     73  F   UNL A   1      38.858  28.386  31.653  1.00  0.00    -0.206 F 
ATOM     74  C   UNL A   1      36.883  29.228  30.701  1.00  0.00     0.040 A 
ATOM     75  C   UNL A   1      36.859  29.907  28.390  1.00  0.00     0.040 A 
ATOM     76  F   UNL A   1      38.798  29.691  27.086  1.00  0.00    -0.206 F 
ATOM     77  C   UNL A   1      36.197  29.754  29.608  1.00  0.00     0.006 A 
ENDBRANCH  49  70
BRANCH  61  78
ATOM     78  C   UNL A   1      44.812  32.550  30.566  1.00  0.00     0.057 A 
ATOM     79  C   UNL A   1      44.919  33.600  29.647  1.00  0.00     0.134 A 
ATOM     80  C   UNL A   1      44.924  32.866  31.927  1.00  0.00     0.134 A 
ATOM     81  F   UNL A   1      44.832  33.364  28.329  1.00  0.00    -0.206 F 
ATOM     82  C   UNL A   1      45.152  34.913  30.065  1.00  0.00     0.040 A 
ATOM     83  C   UNL A   1      45.126  34.178  32.356  1.00  0.00     0.040 A 
ATOM     84  F   UNL A   1      44.821  31.910  32.861  1.00  0.00    -0.206 F 
ATOM     85  C   UNL A   1      45.249  35.205  31.423  1.00  0.00     0.006 A 
ENDBRANCH  61  78
ENDBRANCH  35  36
ENDBRANCH  27  30
ENDBRANCH  25  26
ENDBRANCH  24  25
ENDBRANCH  23  24
ENDBRANCH   3  23
TORSDOF 16
ENDMDL
