MODEL 1
REMARK VINA RESULT:     -11.8      0.000      0.000
REMARK SMILES O=C(CCc1ccccc1)Nc1ccccc1Oc1ccsc1C(=O)NCCCNC(=O)c1ccc(-c2c3nc(c(-c4c(F)cccc4F)c4ccc([nH]4)c(-c4c(F)cccc4F)c4nc(c(-c5c(F)cccc5F)c5ccc2[nH]5)C=C4)C=C3)cc1
REMARK SMILES IDX 24 1 25 2 26 3 23 5 19 6 20 7 21 8 22 9 18 10 17 11 12 12
REMARK SMILES IDX 13 13 14 14 16 15 15 16 11 17 1 18 2 19 3 21 4 22 5 23 6 24
REMARK SMILES IDX 10 25 7 26 9 27 8 28 27 29 28 30 29 31 30 32 31 33 32 35
REMARK SMILES IDX 33 36 34 37 86 38 35 39 85 40 36 41 37 42 38 43 79 44 39 45
REMARK SMILES IDX 84 46 78 47 80 48 40 49 83 50 77 51 76 52 41 54 67 55 50 56
REMARK SMILES IDX 66 57 51 58 54 59 65 60 81 61 52 62 53 63 64 65 82 66 55 67
REMARK SMILES IDX 42 68 43 69 48 70 44 71 45 72 47 73 49 74 46 75 68 76 69 77
REMARK SMILES IDX 74 78 70 79 71 80 73 81 75 82 72 83 56 84 57 85 62 86 58 87
REMARK SMILES IDX 59 88 61 89 63 90 60 91
REMARK H PARENT 26 4 11 20 30 34 80 53 54 64
REMARK Flexibility Score: inf
ROOT
ATOM      1  C   UNL A   1      32.939  25.878  23.793  1.00  0.00     0.265 C 
ATOM      2  O   UNL A   1      33.112  25.441  22.646  1.00  0.00    -0.268 OA
ATOM      3  N   UNL A   1      32.791  27.252  23.828  1.00  0.00    -0.351 N 
ATOM      4  H   UNL A   1      32.815  27.714  22.960  1.00  0.00     0.163 HD
ENDROOT
BRANCH   1   5
ATOM      5  C   UNL A   1      32.906  24.997  24.980  1.00  0.00     0.135 A 
ATOM      6  C   UNL A   1      33.823  24.288  25.761  1.00  0.00     0.151 A 
ATOM      7  C   UNL A   1      33.228  23.605  26.868  1.00  0.00     0.059 A 
ATOM      8  C   UNL A   1      31.867  23.762  26.907  1.00  0.00     0.069 A 
ATOM      9  S   UNL A   1      31.303  24.734  25.630  1.00  0.00    -0.135 S 
BRANCH   6  10
ATOM     10  O   UNL A   1      35.162  24.384  25.643  1.00  0.00    -0.453 OA
BRANCH  10  11
ATOM     11  C   UNL A   1      36.076  23.346  25.635  1.00  0.00     0.151 A 
ATOM     12  C   UNL A   1      35.965  22.024  25.169  1.00  0.00     0.084 A 
ATOM     13  C   UNL A   1      37.107  21.198  25.191  1.00  0.00     0.030 A 
ATOM     14  C   UNL A   1      38.355  21.684  25.583  1.00  0.00     0.002 A 
ATOM     15  C   UNL A   1      37.339  23.803  26.068  1.00  0.00     0.049 A 
ATOM     16  C   UNL A   1      38.471  22.992  26.024  1.00  0.00     0.004 A 
BRANCH  12  17
ATOM     17  N   UNL A   1      34.794  21.374  24.738  1.00  0.00    -0.323 N 
ATOM     18  O   UNL A   1      34.241  22.505  22.807  1.00  0.00    -0.275 OA
ATOM     19  C   UNL A   1      33.939  21.750  23.727  1.00  0.00     0.224 C 
ATOM     20  H   UNL A   1      34.557  20.548  25.219  1.00  0.00     0.170 HD
BRANCH  19  21
ATOM     21  C   UNL A   1      32.530  21.168  23.847  1.00  0.00     0.105 C 
BRANCH  21  22
ATOM     22  C   UNL A   1      32.198  19.897  23.062  1.00  0.00     0.045 C 
BRANCH  22  23
ATOM     23  C   UNL A   1      32.667  18.596  23.670  1.00  0.00    -0.048 A 
ATOM     24  C   UNL A   1      32.492  18.295  25.032  1.00  0.00     0.004 A 
ATOM     25  C   UNL A   1      33.369  17.688  22.866  1.00  0.00     0.004 A 
ATOM     26  C   UNL A   1      33.153  17.207  25.603  1.00  0.00     0.000 A 
ATOM     27  C   UNL A   1      33.989  16.574  23.431  1.00  0.00     0.000 A 
ATOM     28  C   UNL A   1      33.913  16.355  24.805  1.00  0.00     0.000 A 
ENDBRANCH  22  23
ENDBRANCH  21  22
ENDBRANCH  19  21
ENDBRANCH  12  17
ENDBRANCH  10  11
ENDBRANCH   6  10
ENDBRANCH   1   5
BRANCH   3  29
ATOM     29  C   UNL A   1      32.609  28.078  24.978  1.00  0.00     0.118 C 
BRANCH  29  30
ATOM     30  C   UNL A   1      33.814  28.461  25.802  1.00  0.00     0.042 C 
BRANCH  30  31
ATOM     31  C   UNL A   1      33.557  28.615  27.281  1.00  0.00     0.118 C 
BRANCH  31  32
ATOM     32  N   UNL A   1      33.666  29.988  27.759  1.00  0.00    -0.352 N 
ATOM     33  C   UNL A   1      34.691  30.697  28.337  1.00  0.00     0.251 C 
ATOM     34  H   UNL A   1      32.841  30.513  27.644  1.00  0.00     0.163 HD
ATOM     35  O   UNL A   1      34.457  31.831  28.763  1.00  0.00    -0.269 OA
BRANCH  33  36
ATOM     36  C   UNL A   1      36.051  30.132  28.505  1.00  0.00     0.039 A 
ATOM     37  C   UNL A   1      36.947  30.193  27.430  1.00  0.00     0.014 A 
ATOM     38  C   UNL A   1      36.459  29.518  29.685  1.00  0.00     0.014 A 
ATOM     39  C   UNL A   1      38.256  29.722  27.577  1.00  0.00     0.010 A 
ATOM     40  C   UNL A   1      37.797  29.193  29.882  1.00  0.00     0.010 A 
ATOM     41  C   UNL A   1      38.710  29.269  28.825  1.00  0.00    -0.014 A 
BRANCH  41  42
ATOM     42  C   UNL A   1      40.116  28.837  29.044  1.00  0.00     0.031 A 
ATOM     43  C   UNL A   1      41.113  29.782  29.666  1.00  0.00     0.074 A 
ATOM     44  C   UNL A   1      40.516  27.622  28.617  1.00  0.00     0.049 A 
ATOM     45  N   UNL A   1      42.397  29.619  29.863  1.00  0.00    -0.248 NA
ATOM     46  C   UNL A   1      40.609  31.099  30.090  1.00  0.00     0.031 C 
ATOM     47  C   UNL A   1      39.669  26.636  27.942  1.00  0.00     0.029 A 
ATOM     48  N   UNL A   1      41.744  27.011  28.681  1.00  0.00    -0.354 N 
ATOM     49  C   UNL A   1      42.852  30.816  30.405  1.00  0.00     0.074 A 
ATOM     50  C   UNL A   1      41.724  31.720  30.441  1.00  0.00     0.031 C 
ATOM     51  C   UNL A   1      40.390  25.533  27.690  1.00  0.00     0.029 A 
ATOM     52  C   UNL A   1      41.760  25.748  28.140  1.00  0.00     0.049 A 
ATOM     53  H   UNL A   1      42.539  27.438  29.076  1.00  0.00     0.167 HD
ATOM     54  C   UNL A   1      44.086  31.127  30.864  1.00  0.00     0.037 A 
ATOM     55  C   UNL A   1      42.768  24.863  28.015  1.00  0.00     0.037 A 
ATOM     56  C   UNL A   1      45.198  30.215  30.861  1.00  0.00     0.049 A 
ATOM     57  C   UNL A   1      44.131  25.231  28.534  1.00  0.00     0.074 A 
ATOM     58  C   UNL A   1      46.472  30.406  31.366  1.00  0.00     0.029 A 
ATOM     59  N   UNL A   1      45.167  28.937  30.324  1.00  0.00    -0.354 N 
ATOM     60  N   UNL A   1      44.525  26.338  29.116  1.00  0.00    -0.248 NA
ATOM     61  C   UNL A   1      45.189  24.221  28.385  1.00  0.00     0.031 C 
ATOM     62  C   UNL A   1      47.228  29.262  31.087  1.00  0.00     0.029 A 
ATOM     63  C   UNL A   1      46.408  28.337  30.461  1.00  0.00     0.049 A 
ATOM     64  H   UNL A   1      44.380  28.517  29.906  1.00  0.00     0.167 HD
ATOM     65  C   UNL A   1      45.866  26.149  29.426  1.00  0.00     0.074 A 
ATOM     66  C   UNL A   1      46.211  24.813  28.986  1.00  0.00     0.031 C 
ATOM     67  C   UNL A   1      46.733  27.004  30.021  1.00  0.00     0.037 A 
BRANCH  54  68
ATOM     68  C   UNL A   1      44.295  32.509  31.418  1.00  0.00     0.057 A 
ATOM     69  C   UNL A   1      44.724  33.574  30.612  1.00  0.00     0.134 A 
ATOM     70  C   UNL A   1      44.038  32.787  32.766  1.00  0.00     0.134 A 
ATOM     71  F   UNL A   1      45.000  33.377  29.313  1.00  0.00    -0.206 F 
ATOM     72  C   UNL A   1      44.919  34.854  31.134  1.00  0.00     0.040 A 
ATOM     73  C   UNL A   1      44.200  34.071  33.292  1.00  0.00     0.040 A 
ATOM     74  F   UNL A   1      43.620  31.818  33.594  1.00  0.00    -0.206 F 
ATOM     75  C   UNL A   1      44.650  35.107  32.477  1.00  0.00     0.006 A 
ENDBRANCH  54  68
BRANCH  55  76
ATOM     76  C   UNL A   1      42.523  23.536  27.396  1.00  0.00     0.057 A 
ATOM     77  C   UNL A   1      42.186  22.425  28.178  1.00  0.00     0.134 A 
ATOM     78  C   UNL A   1      42.630  23.339  26.014  1.00  0.00     0.134 A 
ATOM     79  F   UNL A   1      42.086  22.544  29.511  1.00  0.00    -0.206 F 
ATOM     80  C   UNL A   1      41.987  21.163  27.614  1.00  0.00     0.040 A 
ATOM     81  C   UNL A   1      42.405  22.090  25.432  1.00  0.00     0.040 A 
ATOM     82  F   UNL A   1      42.939  24.363  25.205  1.00  0.00    -0.206 F 
ATOM     83  C   UNL A   1      42.092  20.994  26.235  1.00  0.00     0.006 A 
ENDBRANCH  55  76
BRANCH  67  84
ATOM     84  C   UNL A   1      48.130  26.508  30.261  1.00  0.00     0.057 A 
ATOM     85  C   UNL A   1      48.485  25.829  31.434  1.00  0.00     0.134 A 
ATOM     86  C   UNL A   1      49.124  26.684  29.290  1.00  0.00     0.134 A 
ATOM     87  F   UNL A   1      47.583  25.638  32.409  1.00  0.00    -0.206 F 
ATOM     88  C   UNL A   1      49.784  25.365  31.642  1.00  0.00     0.040 A 
ATOM     89  C   UNL A   1      50.419  26.197  29.473  1.00  0.00     0.040 A 
ATOM     90  F   UNL A   1      48.849  27.318  28.139  1.00  0.00    -0.206 F 
ATOM     91  C   UNL A   1      50.753  25.542  30.656  1.00  0.00     0.006 A 
ENDBRANCH  67  84
ENDBRANCH  41  42
ENDBRANCH  33  36
ENDBRANCH  31  32
ENDBRANCH  30  31
ENDBRANCH  29  30
ENDBRANCH   3  29
TORSDOF 16
ENDMDL
MODEL 2
REMARK VINA RESULT:     -11.5      2.132      4.133
REMARK SMILES O=C(CCc1ccccc1)Nc1ccccc1Oc1ccsc1C(=O)NCCCNC(=O)c1ccc(-c2c3nc(c(-c4c(F)cccc4F)c4ccc([nH]4)c(-c4c(F)cccc4F)c4nc(c(-c5c(F)cccc5F)c5ccc2[nH]5)C=C4)C=C3)cc1
REMARK SMILES IDX 24 1 25 2 26 3 23 5 19 6 20 7 21 8 22 9 18 10 17 11 12 12
REMARK SMILES IDX 13 13 14 14 16 15 15 16 11 17 1 18 2 19 3 21 4 22 5 23 6 24
REMARK SMILES IDX 10 25 7 26 9 27 8 28 27 29 28 30 29 31 30 32 31 33 32 35
REMARK SMILES IDX 33 36 34 37 86 38 35 39 85 40 36 41 37 42 38 43 79 44 39 45
REMARK SMILES IDX 84 46 78 47 80 48 40 49 83 50 77 51 76 52 41 54 67 55 50 56
REMARK SMILES IDX 66 57 51 58 54 59 65 60 81 61 52 62 53 63 64 65 82 66 55 67
REMARK SMILES IDX 42 68 43 69 48 70 44 71 45 72 47 73 49 74 46 75 68 76 69 77
REMARK SMILES IDX 74 78 70 79 71 80 73 81 75 82 72 83 56 84 57 85 62 86 58 87
REMARK SMILES IDX 59 88 61 89 63 90 60 91
REMARK H PARENT 26 4 11 20 30 34 80 53 54 64
REMARK Flexibility Score: inf
ROOT
ATOM      1  C   UNL A   1      33.637  28.173  23.530  1.00  0.00     0.265 C 
ATOM      2  O   UNL A   1      34.403  28.934  22.921  1.00  0.00    -0.268 OA
ATOM      3  N   UNL A   1      32.922  28.813  24.524  1.00  0.00    -0.351 N 
ATOM      4  H   UNL A   1      33.079  29.779  24.620  1.00  0.00     0.163 HD
ENDROOT
BRANCH   1   5
ATOM      5  C   UNL A   1      33.527  26.734  23.206  1.00  0.00     0.135 A 
ATOM      6  C   UNL A   1      33.825  25.515  23.822  1.00  0.00     0.151 A 
ATOM      7  C   UNL A   1      33.456  24.374  23.044  1.00  0.00     0.059 A 
ATOM      8  C   UNL A   1      32.916  24.720  21.832  1.00  0.00     0.069 A 
ATOM      9  S   UNL A   1      32.840  26.407  21.630  1.00  0.00    -0.135 S 
BRANCH   6  10
ATOM     10  O   UNL A   1      34.224  25.384  25.102  1.00  0.00    -0.453 OA
BRANCH  10  11
ATOM     11  C   UNL A   1      33.831  24.410  26.002  1.00  0.00     0.151 A 
ATOM     12  C   UNL A   1      32.559  24.066  26.492  1.00  0.00     0.084 A 
ATOM     13  C   UNL A   1      32.436  22.943  27.335  1.00  0.00     0.030 A 
ATOM     14  C   UNL A   1      33.527  22.123  27.626  1.00  0.00     0.002 A 
ATOM     15  C   UNL A   1      34.928  23.591  26.346  1.00  0.00     0.049 A 
ATOM     16  C   UNL A   1      34.779  22.449  27.130  1.00  0.00     0.004 A 
BRANCH  12  17
ATOM     17  N   UNL A   1      31.358  24.773  26.298  1.00  0.00    -0.323 N 
ATOM     18  O   UNL A   1      30.471  23.803  24.405  1.00  0.00    -0.275 OA
ATOM     19  C   UNL A   1      30.511  24.725  25.214  1.00  0.00     0.224 C 
ATOM     20  H   UNL A   1      31.091  25.377  27.028  1.00  0.00     0.170 HD
BRANCH  19  21
ATOM     21  C   UNL A   1      29.613  25.954  25.064  1.00  0.00     0.105 C 
BRANCH  21  22
ATOM     22  C   UNL A   1      28.961  26.218  23.706  1.00  0.00     0.045 C 
BRANCH  22  23
ATOM     23  C   UNL A   1      28.745  27.668  23.341  1.00  0.00    -0.048 A 
ATOM     24  C   UNL A   1      27.504  28.308  23.501  1.00  0.00     0.004 A 
ATOM     25  C   UNL A   1      29.798  28.381  22.752  1.00  0.00     0.004 A 
ATOM     26  C   UNL A   1      27.278  29.559  22.926  1.00  0.00     0.000 A 
ATOM     27  C   UNL A   1      29.582  29.652  22.221  1.00  0.00     0.000 A 
ATOM     28  C   UNL A   1      28.313  30.225  22.274  1.00  0.00     0.000 A 
ENDBRANCH  22  23
ENDBRANCH  21  22
ENDBRANCH  19  21
ENDBRANCH  12  17
ENDBRANCH  10  11
ENDBRANCH   6  10
ENDBRANCH   1   5
BRANCH   3  29
ATOM     29  C   UNL A   1      31.982  28.234  25.430  1.00  0.00     0.118 C 
BRANCH  29  30
ATOM     30  C   UNL A   1      32.321  28.180  26.900  1.00  0.00     0.042 C 
BRANCH  30  31
ATOM     31  C   UNL A   1      33.727  28.601  27.250  1.00  0.00     0.118 C 
BRANCH  31  32
ATOM     32  N   UNL A   1      33.819  29.942  27.813  1.00  0.00    -0.352 N 
ATOM     33  C   UNL A   1      34.836  30.630  28.427  1.00  0.00     0.251 C 
ATOM     34  H   UNL A   1      32.984  30.460  27.736  1.00  0.00     0.163 HD
ATOM     35  O   UNL A   1      34.589  31.731  28.925  1.00  0.00    -0.269 OA
BRANCH  33  36
ATOM     36  C   UNL A   1      36.206  30.077  28.551  1.00  0.00     0.039 A 
ATOM     37  C   UNL A   1      37.072  30.162  27.453  1.00  0.00     0.014 A 
ATOM     38  C   UNL A   1      36.653  29.451  29.711  1.00  0.00     0.014 A 
ATOM     39  C   UNL A   1      38.390  29.703  27.559  1.00  0.00     0.010 A 
ATOM     40  C   UNL A   1      37.998  29.138  29.867  1.00  0.00     0.010 A 
ATOM     41  C   UNL A   1      38.881  29.238  28.788  1.00  0.00    -0.014 A 
BRANCH  41  42
ATOM     42  C   UNL A   1      40.297  28.817  28.963  1.00  0.00     0.031 A 
ATOM     43  C   UNL A   1      41.310  29.779  29.531  1.00  0.00     0.074 A 
ATOM     44  C   UNL A   1      40.689  27.598  28.543  1.00  0.00     0.049 A 
ATOM     45  N   UNL A   1      42.602  29.628  29.684  1.00  0.00    -0.248 NA
ATOM     46  C   UNL A   1      40.814  31.101  29.950  1.00  0.00     0.031 C 
ATOM     47  C   UNL A   1      39.824  26.596  27.916  1.00  0.00     0.029 A 
ATOM     48  N   UNL A   1      41.922  26.995  28.572  1.00  0.00    -0.354 N 
ATOM     49  C   UNL A   1      43.068  30.836  30.188  1.00  0.00     0.074 A 
ATOM     50  C   UNL A   1      41.936  31.734  30.250  1.00  0.00     0.031 C 
ATOM     51  C   UNL A   1      40.542  25.492  27.658  1.00  0.00     0.029 A 
ATOM     52  C   UNL A   1      41.927  25.723  28.054  1.00  0.00     0.049 A 
ATOM     53  H   UNL A   1      42.728  27.433  28.931  1.00  0.00     0.167 HD
ATOM     54  C   UNL A   1      44.317  31.162  30.597  1.00  0.00     0.037 A 
ATOM     55  C   UNL A   1      42.935  24.842  27.907  1.00  0.00     0.037 A 
ATOM     56  C   UNL A   1      45.433  30.256  30.569  1.00  0.00     0.049 A 
ATOM     57  C   UNL A   1      44.314  25.226  28.370  1.00  0.00     0.074 A 
ATOM     58  C   UNL A   1      46.723  30.463  31.024  1.00  0.00     0.029 A 
ATOM     59  N   UNL A   1      45.391  28.969  30.056  1.00  0.00    -0.354 N 
ATOM     60  N   UNL A   1      44.722  26.346  28.917  1.00  0.00    -0.248 NA
ATOM     61  C   UNL A   1      45.372  24.220  28.200  1.00  0.00     0.031 C 
ATOM     62  C   UNL A   1      47.476  29.320  30.738  1.00  0.00     0.029 A 
ATOM     63  C   UNL A   1      46.639  28.379  30.158  1.00  0.00     0.049 A 
ATOM     64  H   UNL A   1      44.592  28.538  29.674  1.00  0.00     0.167 HD
ATOM     65  C   UNL A   1      46.074  26.170  29.182  1.00  0.00     0.074 A 
ATOM     66  C   UNL A   1      46.411  24.828  28.753  1.00  0.00     0.031 C 
ATOM     67  C   UNL A   1      46.957  27.040  29.730  1.00  0.00     0.037 A 
BRANCH  54  68
ATOM     68  C   UNL A   1      44.537  32.555  31.118  1.00  0.00     0.057 A 
ATOM     69  C   UNL A   1      44.374  32.874  32.474  1.00  0.00     0.134 A 
ATOM     70  C   UNL A   1      44.943  33.584  30.261  1.00  0.00     0.134 A 
ATOM     71  F   UNL A   1      43.974  31.939  33.350  1.00  0.00    -0.206 F 
ATOM     72  C   UNL A   1      44.576  34.171  32.950  1.00  0.00     0.040 A 
ATOM     73  C   UNL A   1      45.180  34.878  30.731  1.00  0.00     0.040 A 
ATOM     74  F   UNL A   1      45.125  33.351  28.953  1.00  0.00    -0.206 F 
ATOM     75  C   UNL A   1      44.988  35.176  32.078  1.00  0.00     0.006 A 
ENDBRANCH  54  68
BRANCH  55  76
ATOM     76  C   UNL A   1      42.676  23.502  27.320  1.00  0.00     0.057 A 
ATOM     77  C   UNL A   1      42.818  23.275  25.946  1.00  0.00     0.134 A 
ATOM     78  C   UNL A   1      42.271  22.420  28.111  1.00  0.00     0.134 A 
ATOM     79  F   UNL A   1      43.186  24.276  25.132  1.00  0.00    -0.206 F 
ATOM     80  C   UNL A   1      42.544  22.031  25.376  1.00  0.00     0.040 A 
ATOM     81  C   UNL A   1      42.022  21.163  27.560  1.00  0.00     0.040 A 
ATOM     82  F   UNL A   1      42.126  22.566  29.436  1.00  0.00    -0.206 F 
ATOM     83  C   UNL A   1      42.149  20.968  26.185  1.00  0.00     0.006 A 
ENDBRANCH  55  76
BRANCH  67  84
ATOM     84  C   UNL A   1      48.365  26.557  29.928  1.00  0.00     0.057 A 
ATOM     85  C   UNL A   1      48.758  25.871  31.084  1.00  0.00     0.134 A 
ATOM     86  C   UNL A   1      49.330  26.750  28.931  1.00  0.00     0.134 A 
ATOM     87  F   UNL A   1      47.886  25.663  32.082  1.00  0.00    -0.206 F 
ATOM     88  C   UNL A   1      50.067  25.418  31.253  1.00  0.00     0.040 A 
ATOM     89  C   UNL A   1      50.634  26.275  29.075  1.00  0.00     0.040 A 
ATOM     90  F   UNL A   1      49.017  27.391  27.794  1.00  0.00    -0.206 F 
ATOM     91  C   UNL A   1      51.007  25.614  30.242  1.00  0.00     0.006 A 
ENDBRANCH  67  84
ENDBRANCH  41  42
ENDBRANCH  33  36
ENDBRANCH  31  32
ENDBRANCH  30  31
ENDBRANCH  29  30
ENDBRANCH   3  29
TORSDOF 16
ENDMDL
MODEL 3
REMARK VINA RESULT:     -11.5      3.173      8.807
REMARK SMILES O=C(CCc1ccccc1)Nc1ccccc1Oc1ccsc1C(=O)NCCCNC(=O)c1ccc(-c2c3nc(c(-c4c(F)cccc4F)c4ccc([nH]4)c(-c4c(F)cccc4F)c4nc(c(-c5c(F)cccc5F)c5ccc2[nH]5)C=C4)C=C3)cc1
REMARK SMILES IDX 24 1 25 2 26 3 23 5 19 6 20 7 21 8 22 9 18 10 17 11 12 12
REMARK SMILES IDX 13 13 14 14 16 15 15 16 11 17 1 18 2 19 3 21 4 22 5 23 6 24
REMARK SMILES IDX 10 25 7 26 9 27 8 28 27 29 28 30 29 31 30 32 31 33 32 35
REMARK SMILES IDX 33 36 34 37 86 38 35 39 85 40 36 41 37 42 38 43 79 44 39 45
REMARK SMILES IDX 84 46 78 47 80 48 40 49 83 50 77 51 76 52 41 54 67 55 50 56
REMARK SMILES IDX 66 57 51 58 54 59 65 60 81 61 52 62 53 63 64 65 82 66 55 67
REMARK SMILES IDX 42 68 43 69 48 70 44 71 45 72 47 73 49 74 46 75 68 76 69 77
REMARK SMILES IDX 74 78 70 79 71 80 73 81 75 82 72 83 56 84 57 85 62 86 58 87
REMARK SMILES IDX 59 88 61 89 63 90 60 91
REMARK H PARENT 26 4 11 20 30 34 80 53 54 64
REMARK Flexibility Score: inf
ROOT
ATOM      1  C   UNL A   1      32.527  24.389  24.972  1.00  0.00     0.265 C 
ATOM      2  O   UNL A   1      31.334  24.057  25.016  1.00  0.00    -0.268 OA
ATOM      3  N   UNL A   1      33.330  23.619  25.793  1.00  0.00    -0.351 N 
ATOM      4  H   UNL A   1      32.879  22.899  26.290  1.00  0.00     0.163 HD
ENDROOT
BRANCH   1   5
ATOM      5  C   UNL A   1      33.011  25.499  24.123  1.00  0.00     0.135 A 
ATOM      6  C   UNL A   1      33.496  26.797  24.305  1.00  0.00     0.151 A 
ATOM      7  C   UNL A   1      33.878  27.443  23.089  1.00  0.00     0.059 A 
ATOM      8  C   UNL A   1      33.651  26.659  21.987  1.00  0.00     0.069 A 
ATOM      9  S   UNL A   1      32.993  25.149  22.409  1.00  0.00    -0.135 S 
BRANCH   6  10
ATOM     10  O   UNL A   1      33.788  27.342  25.503  1.00  0.00    -0.453 OA
BRANCH  10  11
ATOM     11  C   UNL A   1      33.490  28.623  25.932  1.00  0.00     0.151 A 
ATOM     12  C   UNL A   1      32.378  29.445  25.678  1.00  0.00     0.084 A 
ATOM     13  C   UNL A   1      32.285  30.686  26.341  1.00  0.00     0.030 A 
ATOM     14  C   UNL A   1      33.222  31.077  27.298  1.00  0.00     0.002 A 
ATOM     15  C   UNL A   1      34.449  29.059  26.872  1.00  0.00     0.049 A 
ATOM     16  C   UNL A   1      34.309  30.260  27.564  1.00  0.00     0.004 A 
BRANCH  12  17
ATOM     17  N   UNL A   1      31.345  29.208  24.753  1.00  0.00    -0.323 N 
ATOM     18  O   UNL A   1      30.372  27.269  25.531  1.00  0.00    -0.275 OA
ATOM     19  C   UNL A   1      30.553  28.089  24.636  1.00  0.00     0.224 C 
ATOM     20  H   UNL A   1      31.167  29.933  24.111  1.00  0.00     0.170 HD
BRANCH  19  21
ATOM     21  C   UNL A   1      29.913  27.914  23.257  1.00  0.00     0.105 C 
BRANCH  21  22
ATOM     22  C   UNL A   1      28.463  28.362  23.065  1.00  0.00     0.045 C 
BRANCH  22  23
ATOM     23  C   UNL A   1      28.260  29.786  22.601  1.00  0.00    -0.048 A 
ATOM     24  C   UNL A   1      28.030  30.112  21.254  1.00  0.00     0.004 A 
ATOM     25  C   UNL A   1      28.379  30.824  23.533  1.00  0.00     0.004 A 
ATOM     26  C   UNL A   1      28.096  31.440  20.830  1.00  0.00     0.000 A 
ATOM     27  C   UNL A   1      28.397  32.154  23.114  1.00  0.00     0.000 A 
ATOM     28  C   UNL A   1      28.294  32.459  21.758  1.00  0.00     0.000 A 
ENDBRANCH  22  23
ENDBRANCH  21  22
ENDBRANCH  19  21
ENDBRANCH  12  17
ENDBRANCH  10  11
ENDBRANCH   6  10
ENDBRANCH   1   5
BRANCH   3  29
ATOM     29  C   UNL A   1      34.735  23.749  26.006  1.00  0.00     0.118 C 
BRANCH  29  30
ATOM     30  C   UNL A   1      35.685  23.008  25.095  1.00  0.00     0.042 C 
BRANCH  30  31
ATOM     31  C   UNL A   1      37.040  23.649  24.923  1.00  0.00     0.118 C 
BRANCH  31  32
ATOM     32  N   UNL A   1      38.151  22.801  25.338  1.00  0.00    -0.352 N 
ATOM     33  C   UNL A   1      39.253  23.025  26.126  1.00  0.00     0.251 C 
ATOM     34  H   UNL A   1      38.100  21.883  24.985  1.00  0.00     0.163 HD
ATOM     35  O   UNL A   1      40.111  22.142  26.206  1.00  0.00    -0.269 OA
BRANCH  33  36
ATOM     36  C   UNL A   1      39.469  24.305  26.843  1.00  0.00     0.039 A 
ATOM     37  C   UNL A   1      38.943  24.455  28.133  1.00  0.00     0.014 A 
ATOM     38  C   UNL A   1      40.153  25.372  26.269  1.00  0.00     0.014 A 
ATOM     39  C   UNL A   1      39.181  25.627  28.858  1.00  0.00     0.010 A 
ATOM     40  C   UNL A   1      40.520  26.469  27.041  1.00  0.00     0.010 A 
ATOM     41  C   UNL A   1      40.021  26.623  28.339  1.00  0.00    -0.014 A 
BRANCH  41  42
ATOM     42  C   UNL A   1      40.365  27.847  29.111  1.00  0.00     0.031 A 
ATOM     43  C   UNL A   1      41.688  27.947  29.826  1.00  0.00     0.074 A 
ATOM     44  C   UNL A   1      39.459  28.838  29.231  1.00  0.00     0.049 A 
ATOM     45  N   UNL A   1      42.135  28.893  30.614  1.00  0.00    -0.248 NA
ATOM     46  C   UNL A   1      42.620  26.818  29.666  1.00  0.00     0.031 C 
ATOM     47  C   UNL A   1      38.117  28.839  28.643  1.00  0.00     0.029 A 
ATOM     48  N   UNL A   1      39.526  30.037  29.897  1.00  0.00    -0.354 N 
ATOM     49  C   UNL A   1      43.379  28.460  31.058  1.00  0.00     0.074 A 
ATOM     50  C   UNL A   1      43.588  27.137  30.511  1.00  0.00     0.031 C 
ATOM     51  C   UNL A   1      37.506  29.996  28.941  1.00  0.00     0.029 A 
ATOM     52  C   UNL A   1      38.389  30.799  29.779  1.00  0.00     0.049 A 
ATOM     53  H   UNL A   1      40.316  30.324  30.411  1.00  0.00     0.167 HD
ATOM     54  C   UNL A   1      44.284  29.114  31.823  1.00  0.00     0.037 A 
ATOM     55  C   UNL A   1      38.088  32.006  30.294  1.00  0.00     0.037 A 
ATOM     56  C   UNL A   1      44.091  30.444  32.336  1.00  0.00     0.049 A 
ATOM     57  C   UNL A   1      39.110  32.715  31.140  1.00  0.00     0.074 A 
ATOM     58  C   UNL A   1      44.972  31.224  33.063  1.00  0.00     0.029 A 
ATOM     59  N   UNL A   1      42.933  31.189  32.176  1.00  0.00    -0.354 N 
ATOM     60  N   UNL A   1      40.314  32.324  31.486  1.00  0.00    -0.248 NA
ATOM     61  C   UNL A   1      38.734  34.036  31.663  1.00  0.00     0.031 C 
ATOM     62  C   UNL A   1      44.328  32.422  33.388  1.00  0.00     0.029 A 
ATOM     63  C   UNL A   1      43.067  32.412  32.813  1.00  0.00     0.049 A 
ATOM     64  H   UNL A   1      42.133  30.894  31.683  1.00  0.00     0.167 HD
ATOM     65  C   UNL A   1      40.847  33.360  32.241  1.00  0.00     0.074 A 
ATOM     66  C   UNL A   1      39.844  34.404  32.286  1.00  0.00     0.031 C 
ATOM     67  C   UNL A   1      42.059  33.441  32.844  1.00  0.00     0.037 A 
BRANCH  54  68
ATOM     68  C   UNL A   1      45.569  28.403  32.142  1.00  0.00     0.057 A 
ATOM     69  C   UNL A   1      45.709  27.598  33.283  1.00  0.00     0.134 A 
ATOM     70  C   UNL A   1      46.673  28.499  31.286  1.00  0.00     0.134 A 
ATOM     71  F   UNL A   1      44.696  27.470  34.153  1.00  0.00    -0.206 F 
ATOM     72  C   UNL A   1      46.907  26.944  33.575  1.00  0.00     0.040 A 
ATOM     73  C   UNL A   1      47.866  27.823  31.551  1.00  0.00     0.040 A 
ATOM     74  F   UNL A   1      46.610  29.246  30.173  1.00  0.00    -0.206 F 
ATOM     75  C   UNL A   1      47.988  27.050  32.703  1.00  0.00     0.006 A 
ENDBRANCH  54  68
BRANCH  55  76
ATOM     76  C   UNL A   1      36.774  32.634  30.004  1.00  0.00     0.057 A 
ATOM     77  C   UNL A   1      35.652  32.363  30.797  1.00  0.00     0.134 A 
ATOM     78  C   UNL A   1      36.600  33.510  28.926  1.00  0.00     0.134 A 
ATOM     79  F   UNL A   1      35.749  31.518  31.835  1.00  0.00    -0.206 F 
ATOM     80  C   UNL A   1      34.403  32.918  30.516  1.00  0.00     0.040 A 
ATOM     81  C   UNL A   1      35.365  34.097  28.649  1.00  0.00     0.040 A 
ATOM     82  F   UNL A   1      37.636  33.822  28.133  1.00  0.00    -0.206 F 
ATOM     83  C   UNL A   1      34.258  33.793  29.441  1.00  0.00     0.006 A 
ENDBRANCH  55  76
BRANCH  67  84
ATOM     84  C   UNL A   1      42.379  34.713  33.576  1.00  0.00     0.057 A 
ATOM     85  C   UNL A   1      43.012  35.792  32.945  1.00  0.00     0.134 A 
ATOM     86  C   UNL A   1      42.016  34.871  34.919  1.00  0.00     0.134 A 
ATOM     87  F   UNL A   1      43.396  35.701  31.663  1.00  0.00    -0.206 F 
ATOM     88  C   UNL A   1      43.296  36.973  33.632  1.00  0.00     0.040 A 
ATOM     89  C   UNL A   1      42.267  36.058  35.608  1.00  0.00     0.040 A 
ATOM     90  F   UNL A   1      41.398  33.880  35.581  1.00  0.00    -0.206 F 
ATOM     91  C   UNL A   1      42.916  37.110  34.966  1.00  0.00     0.006 A 
ENDBRANCH  67  84
ENDBRANCH  41  42
ENDBRANCH  33  36
ENDBRANCH  31  32
ENDBRANCH  30  31
ENDBRANCH  29  30
ENDBRANCH   3  29
TORSDOF 16
ENDMDL
