MODEL 1
REMARK VINA RESULT:     -11.7      0.000      0.000
REMARK SMILES Cc1c(Cl)ccc2c(OCC(=O)NCCCNC(=O)c3ccc(-c4c5nc(c(-c6c(F)cccc6F)c6ccc([nH]6)c(-c6c(F)cccc6F)c6nc(c(-c7c(F)cccc7F)c7ccc4[nH]7)C=C6)C=C5)cc3)ccnc12
REMARK SMILES IDX 15 1 14 2 13 3 11 4 12 5 10 7 9 8 8 9 1 10 2 11 3 12 77 13
REMARK SMILES IDX 4 14 5 15 7 16 76 17 6 18 75 19 74 20 16 21 17 22 18 23
REMARK SMILES IDX 19 25 20 26 21 27 73 28 22 29 72 30 23 31 24 32 25 33 66 34
REMARK SMILES IDX 26 35 71 36 65 37 67 38 27 39 70 40 64 41 63 42 28 44 54 45
REMARK SMILES IDX 37 46 53 47 38 48 41 49 52 50 68 51 39 52 40 53 51 55 69 56
REMARK SMILES IDX 42 57 29 58 30 59 35 60 31 61 32 62 34 63 36 64 33 65 55 66
REMARK SMILES IDX 56 67 61 68 57 69 58 70 60 71 62 72 59 73 43 74 44 75 49 76
REMARK SMILES IDX 45 77 46 78 48 79 50 80 47 81
REMARK H PARENT 13 6 17 24 67 43 41 54
REMARK Flexibility Score: inf
ROOT
ATOM      1  C   UNL A   1      37.767  19.613  24.766  1.00  0.00     0.042 C 
ENDROOT
BRANCH   1   2
ATOM      2  C   UNL A   1      36.410  20.282  24.969  1.00  0.00     0.117 C 
BRANCH   2   3
ATOM      3  N   UNL A   1      35.315  19.332  24.933  1.00  0.00    -0.353 N 
ATOM      4  C   UNL A   1      33.978  19.570  24.815  1.00  0.00     0.257 C 
ATOM      5  O   UNL A   1      33.205  18.610  24.834  1.00  0.00    -0.271 OA
ATOM      6  H   UNL A   1      35.573  18.384  25.005  1.00  0.00     0.163 HD
BRANCH   4   7
ATOM      7  C   UNL A   1      33.469  21.001  24.621  1.00  0.00     0.329 C 
BRANCH   7   8
ATOM      8  O   UNL A   1      33.613  21.881  25.724  1.00  0.00    -0.483 OA
BRANCH   8   9
ATOM      9  C   UNL A   1      32.599  22.763  26.012  1.00  0.00     0.131 A 
ATOM     10  C   UNL A   1      31.191  27.432  26.713  1.00  0.00     0.048 C 
ATOM     11  C   UNL A   1      32.264  26.457  26.290  1.00  0.00    -0.006 A 
ATOM     12  C   UNL A   1      33.548  26.875  25.904  1.00  0.00     0.046 A 
ATOM     13  C   UNL A   1      31.951  25.086  26.315  1.00  0.00     0.078 A 
ATOM     14  Cl  UNL A   1      34.013  28.540  25.851  1.00  0.00    -0.084 Cl
ATOM     15  C   UNL A   1      34.517  25.943  25.542  1.00  0.00     0.022 A 
ATOM     16  C   UNL A   1      32.939  24.137  25.963  1.00  0.00     0.043 A 
ATOM     17  N   UNL A   1      30.713  24.698  26.676  1.00  0.00    -0.256 NA
ATOM     18  C   UNL A   1      34.217  24.586  25.575  1.00  0.00     0.016 A 
ATOM     19  C   UNL A   1      30.412  23.385  26.683  1.00  0.00     0.115 A 
ATOM     20  C   UNL A   1      31.308  22.389  26.361  1.00  0.00     0.067 A 
ENDBRANCH   8   9
ENDBRANCH   7   8
ENDBRANCH   4   7
ENDBRANCH   2   3
ENDBRANCH   1   2
BRANCH   1  21
ATOM     21  C   UNL A   1      38.844  20.085  25.739  1.00  0.00     0.118 C 
BRANCH  21  22
ATOM     22  N   UNL A   1      40.007  19.208  25.765  1.00  0.00    -0.352 N 
ATOM     23  C   UNL A   1      41.318  19.496  26.055  1.00  0.00     0.251 C 
ATOM     24  H   UNL A   1      39.826  18.268  25.539  1.00  0.00     0.163 HD
ATOM     25  O   UNL A   1      42.193  18.660  25.851  1.00  0.00    -0.269 OA
BRANCH  23  26
ATOM     26  C   UNL A   1      41.679  20.820  26.594  1.00  0.00     0.039 A 
ATOM     27  C   UNL A   1      42.115  21.814  25.712  1.00  0.00     0.014 A 
ATOM     28  C   UNL A   1      41.605  21.077  27.967  1.00  0.00     0.014 A 
ATOM     29  C   UNL A   1      42.418  23.085  26.202  1.00  0.00     0.010 A 
ATOM     30  C   UNL A   1      41.844  22.361  28.444  1.00  0.00     0.010 A 
ATOM     31  C   UNL A   1      42.263  23.373  27.567  1.00  0.00    -0.014 A 
BRANCH  31  32
ATOM     32  C   UNL A   1      42.576  24.721  28.094  1.00  0.00     0.031 A 
ATOM     33  C   UNL A   1      43.996  25.087  28.416  1.00  0.00     0.074 A 
ATOM     34  C   UNL A   1      41.584  25.602  28.314  1.00  0.00     0.049 A 
ATOM     35  N   UNL A   1      44.481  26.225  28.846  1.00  0.00    -0.248 NA
ATOM     36  C   UNL A   1      45.003  24.028  28.250  1.00  0.00     0.031 C 
ATOM     37  C   UNL A   1      40.161  25.351  28.082  1.00  0.00     0.029 A 
ATOM     38  N   UNL A   1      41.624  26.891  28.778  1.00  0.00    -0.354 N 
ATOM     39  C   UNL A   1      45.846  26.019  28.996  1.00  0.00     0.074 A 
ATOM     40  C   UNL A   1      46.101  24.630  28.678  1.00  0.00     0.031 C 
ATOM     41  C   UNL A   1      39.467  26.464  28.372  1.00  0.00     0.029 A 
ATOM     42  C   UNL A   1      40.394  27.497  28.826  1.00  0.00     0.049 A 
ATOM     43  H   UNL A   1      42.457  27.340  29.051  1.00  0.00     0.167 HD
ATOM     44  C   UNL A   1      46.806  26.909  29.338  1.00  0.00     0.037 A 
ATOM     45  C   UNL A   1      40.058  28.751  29.180  1.00  0.00     0.037 A 
ATOM     46  C   UNL A   1      46.552  28.289  29.659  1.00  0.00     0.049 A 
ATOM     47  C   UNL A   1      41.137  29.713  29.594  1.00  0.00     0.074 A 
ATOM     48  C   UNL A   1      47.458  29.286  29.976  1.00  0.00     0.029 A 
ATOM     49  N   UNL A   1      45.290  28.862  29.715  1.00  0.00    -0.354 N 
ATOM     50  N   UNL A   1      42.435  29.532  29.648  1.00  0.00    -0.248 NA
ATOM     51  C   UNL A   1      40.699  31.059  29.989  1.00  0.00     0.031 C 
ATOM     52  C   UNL A   1      46.738  30.454  30.262  1.00  0.00     0.029 A 
ATOM     53  C   UNL A   1      45.390  30.194  30.083  1.00  0.00     0.049 A 
ATOM     54  H   UNL A   1      44.448  28.391  29.521  1.00  0.00     0.167 HD
ATOM     55  C   UNL A   1      42.972  30.751  30.040  1.00  0.00     0.074 A 
ATOM     56  C   UNL A   1      41.858  31.663  30.208  1.00  0.00     0.031 C 
ATOM     57  C   UNL A   1      44.270  31.089  30.237  1.00  0.00     0.037 A 
BRANCH  44  58
ATOM     58  C   UNL A   1      48.215  26.395  29.383  1.00  0.00     0.057 A 
ATOM     59  C   UNL A   1      49.055  26.500  28.269  1.00  0.00     0.134 A 
ATOM     60  C   UNL A   1      48.754  25.830  30.548  1.00  0.00     0.134 A 
ATOM     61  F   UNL A   1      48.602  27.028  27.121  1.00  0.00    -0.206 F 
ATOM     62  C   UNL A   1      50.385  26.079  28.316  1.00  0.00     0.040 A 
ATOM     63  C   UNL A   1      50.090  25.431  30.616  1.00  0.00     0.040 A 
ATOM     64  F   UNL A   1      48.008  25.717  31.658  1.00  0.00    -0.206 F 
ATOM     65  C   UNL A   1      50.910  25.555  29.496  1.00  0.00     0.006 A 
ENDBRANCH  44  58
BRANCH  45  66
ATOM     66  C   UNL A   1      38.646  29.198  29.095  1.00  0.00     0.057 A 
ATOM     67  C   UNL A   1      38.093  29.673  27.902  1.00  0.00     0.134 A 
ATOM     68  C   UNL A   1      37.813  29.138  30.218  1.00  0.00     0.134 A 
ATOM     69  F   UNL A   1      38.843  29.755  26.794  1.00  0.00    -0.206 F 
ATOM     70  C   UNL A   1      36.758  30.073  27.827  1.00  0.00     0.040 A 
ATOM     71  C   UNL A   1      36.470  29.515  30.152  1.00  0.00     0.040 A 
ATOM     72  F   UNL A   1      38.284  28.674  31.385  1.00  0.00    -0.206 F 
ATOM     73  C   UNL A   1      35.941  29.987  28.953  1.00  0.00     0.006 A 
ENDBRANCH  45  66
BRANCH  57  74
ATOM     74  C   UNL A   1      44.552  32.515  30.607  1.00  0.00     0.057 A 
ATOM     75  C   UNL A   1      44.749  33.482  29.612  1.00  0.00     0.134 A 
ATOM     76  C   UNL A   1      44.634  32.934  31.942  1.00  0.00     0.134 A 
ATOM     77  F   UNL A   1      44.690  33.146  28.315  1.00  0.00    -0.206 F 
ATOM     78  C   UNL A   1      45.013  34.814  29.931  1.00  0.00     0.040 A 
ATOM     79  C   UNL A   1      44.871  34.270  32.273  1.00  0.00     0.040 A 
ATOM     80  F   UNL A   1      44.439  32.060  32.941  1.00  0.00    -0.206 F 
ATOM     81  C   UNL A   1      45.066  35.212  31.265  1.00  0.00     0.006 A 
ENDBRANCH  57  74
ENDBRANCH  31  32
ENDBRANCH  23  26
ENDBRANCH  21  22
ENDBRANCH   1  21
TORSDOF 12
ENDMDL
MODEL 2
REMARK VINA RESULT:     -11.6      0.724      6.441
REMARK SMILES Cc1c(Cl)ccc2c(OCC(=O)NCCCNC(=O)c3ccc(-c4c5nc(c(-c6c(F)cccc6F)c6ccc([nH]6)c(-c6c(F)cccc6F)c6nc(c(-c7c(F)cccc7F)c7ccc4[nH]7)C=C6)C=C5)cc3)ccnc12
REMARK SMILES IDX 15 1 14 2 13 3 11 4 12 5 10 7 9 8 8 9 1 10 2 11 3 12 77 13
REMARK SMILES IDX 4 14 5 15 7 16 76 17 6 18 75 19 74 20 16 21 17 22 18 23
REMARK SMILES IDX 19 25 20 26 21 27 73 28 22 29 72 30 23 31 24 32 25 33 66 34
REMARK SMILES IDX 26 35 71 36 65 37 67 38 27 39 70 40 64 41 63 42 28 44 54 45
REMARK SMILES IDX 37 46 53 47 38 48 41 49 52 50 68 51 39 52 40 53 51 55 69 56
REMARK SMILES IDX 42 57 29 58 30 59 35 60 31 61 32 62 34 63 36 64 33 65 55 66
REMARK SMILES IDX 56 67 61 68 57 69 58 70 60 71 62 72 59 73 43 74 44 75 49 76
REMARK SMILES IDX 45 77 46 78 48 79 50 80 47 81
REMARK H PARENT 13 6 17 24 67 43 41 54
REMARK Flexibility Score: inf
ROOT
ATOM      1  C   UNL A   1      37.492  19.785  24.993  1.00  0.00     0.042 C 
ENDROOT
BRANCH   1   2
ATOM      2  C   UNL A   1      36.351  20.787  24.845  1.00  0.00     0.117 C 
BRANCH   2   3
ATOM      3  N   UNL A   1      35.777  21.163  26.122  1.00  0.00    -0.353 N 
ATOM      4  C   UNL A   1      34.463  21.274  26.473  1.00  0.00     0.257 C 
ATOM      5  O   UNL A   1      34.188  21.640  27.617  1.00  0.00    -0.271 OA
ATOM      6  H   UNL A   1      36.425  21.368  26.835  1.00  0.00     0.163 HD
BRANCH   4   7
ATOM      7  C   UNL A   1      33.369  20.907  25.466  1.00  0.00     0.329 C 
BRANCH   7   8
ATOM      8  O   UNL A   1      32.789  21.979  24.741  1.00  0.00    -0.483 OA
BRANCH   8   9
ATOM      9  C   UNL A   1      32.001  22.887  25.406  1.00  0.00     0.131 A 
ATOM     10  C   UNL A   1      31.452  27.465  27.146  1.00  0.00     0.048 C 
ATOM     11  C   UNL A   1      32.253  26.484  26.321  1.00  0.00    -0.006 A 
ATOM     12  C   UNL A   1      33.457  26.840  25.692  1.00  0.00     0.046 A 
ATOM     13  C   UNL A   1      31.768  25.168  26.215  1.00  0.00     0.078 A 
ATOM     14  Cl  UNL A   1      34.122  28.434  25.779  1.00  0.00    -0.084 Cl
ATOM     15  C   UNL A   1      34.178  25.900  24.960  1.00  0.00     0.022 A 
ATOM     16  C   UNL A   1      32.506  24.208  25.484  1.00  0.00     0.043 A 
ATOM     17  N   UNL A   1      30.606  24.841  26.812  1.00  0.00    -0.256 NA
ATOM     18  C   UNL A   1      33.709  24.595  24.860  1.00  0.00     0.016 A 
ATOM     19  C   UNL A   1      30.137  23.585  26.695  1.00  0.00     0.115 A 
ATOM     20  C   UNL A   1      30.787  22.582  26.008  1.00  0.00     0.067 A 
ENDBRANCH   8   9
ENDBRANCH   7   8
ENDBRANCH   4   7
ENDBRANCH   2   3
ENDBRANCH   1   2
BRANCH   1  21
ATOM     21  C   UNL A   1      38.744  20.362  25.648  1.00  0.00     0.118 C 
BRANCH  21  22
ATOM     22  N   UNL A   1      39.832  19.397  25.738  1.00  0.00    -0.352 N 
ATOM     23  C   UNL A   1      41.148  19.586  26.078  1.00  0.00     0.251 C 
ATOM     24  H   UNL A   1      39.586  18.469  25.521  1.00  0.00     0.163 HD
ATOM     25  O   UNL A   1      41.961  18.679  25.926  1.00  0.00    -0.269 OA
BRANCH  23  26
ATOM     26  C   UNL A   1      41.592  20.888  26.610  1.00  0.00     0.039 A 
ATOM     27  C   UNL A   1      42.105  21.841  25.724  1.00  0.00     0.014 A 
ATOM     28  C   UNL A   1      41.518  21.163  27.979  1.00  0.00     0.014 A 
ATOM     29  C   UNL A   1      42.487  23.093  26.205  1.00  0.00     0.010 A 
ATOM     30  C   UNL A   1      41.838  22.433  28.447  1.00  0.00     0.010 A 
ATOM     31  C   UNL A   1      42.335  23.406  27.566  1.00  0.00    -0.014 A 
BRANCH  31  32
ATOM     32  C   UNL A   1      42.732  24.734  28.085  1.00  0.00     0.031 A 
ATOM     33  C   UNL A   1      41.694  25.801  28.284  1.00  0.00     0.074 A 
ATOM     34  C   UNL A   1      44.026  24.992  28.346  1.00  0.00     0.049 A 
ATOM     35  N   UNL A   1      41.831  27.011  28.765  1.00  0.00    -0.248 NA
ATOM     36  C   UNL A   1      40.322  25.470  27.869  1.00  0.00     0.031 C 
ATOM     37  C   UNL A   1      45.133  24.054  28.154  1.00  0.00     0.029 A 
ATOM     38  N   UNL A   1      44.627  26.122  28.836  1.00  0.00    -0.354 N 
ATOM     39  C   UNL A   1      40.567  27.581  28.716  1.00  0.00     0.074 A 
ATOM     40  C   UNL A   1      39.690  26.610  28.095  1.00  0.00     0.031 C 
ATOM     41  C   UNL A   1      46.275  24.636  28.555  1.00  0.00     0.029 A 
ATOM     42  C   UNL A   1      45.982  25.991  29.015  1.00  0.00     0.049 A 
ATOM     43  H   UNL A   1      44.134  26.950  29.041  1.00  0.00     0.167 HD
ATOM     44  C   UNL A   1      40.161  28.789  29.172  1.00  0.00     0.037 A 
ATOM     45  C   UNL A   1      46.880  26.863  29.511  1.00  0.00     0.037 A 
ATOM     46  C   UNL A   1      41.034  29.755  29.786  1.00  0.00     0.049 A 
ATOM     47  C   UNL A   1      46.414  28.215  29.975  1.00  0.00     0.074 A 
ATOM     48  C   UNL A   1      40.717  30.991  30.321  1.00  0.00     0.029 A 
ATOM     49  N   UNL A   1      42.404  29.595  29.932  1.00  0.00    -0.354 N 
ATOM     50  N   UNL A   1      45.200  28.710  30.005  1.00  0.00    -0.248 NA
ATOM     51  C   UNL A   1      47.449  29.125  30.485  1.00  0.00     0.031 C 
ATOM     52  C   UNL A   1      41.904  31.595  30.757  1.00  0.00     0.029 A 
ATOM     53  C   UNL A   1      42.952  30.717  30.530  1.00  0.00     0.049 A 
ATOM     54  H   UNL A   1      42.911  28.799  29.652  1.00  0.00     0.167 HD
ATOM     55  C   UNL A   1      45.318  29.971  30.574  1.00  0.00     0.074 A 
ATOM     56  C   UNL A   1      46.723  30.162  30.878  1.00  0.00     0.031 C 
ATOM     57  C   UNL A   1      44.352  30.886  30.832  1.00  0.00     0.037 A 
BRANCH  44  58
ATOM     58  C   UNL A   1      38.706  29.116  29.009  1.00  0.00     0.057 A 
ATOM     59  C   UNL A   1      37.818  29.002  30.084  1.00  0.00     0.134 A 
ATOM     60  C   UNL A   1      38.190  29.585  27.792  1.00  0.00     0.134 A 
ATOM     61  F   UNL A   1      38.244  28.556  31.276  1.00  0.00    -0.206 F 
ATOM     62  C   UNL A   1      36.475  29.358  29.961  1.00  0.00     0.040 A 
ATOM     63  C   UNL A   1      36.855  29.972  27.664  1.00  0.00     0.040 A 
ATOM     64  F   UNL A   1      38.992  29.737  26.726  1.00  0.00    -0.206 F 
ATOM     65  C   UNL A   1      35.992  29.858  28.752  1.00  0.00     0.006 A 
ENDBRANCH  44  58
BRANCH  45  66
ATOM     66  C   UNL A   1      48.300  26.466  29.660  1.00  0.00     0.057 A 
ATOM     67  C   UNL A   1      48.774  25.838  30.815  1.00  0.00     0.134 A 
ATOM     68  C   UNL A   1      49.215  26.695  28.626  1.00  0.00     0.134 A 
ATOM     69  F   UNL A   1      47.945  25.593  31.841  1.00  0.00    -0.206 F 
ATOM     70  C   UNL A   1      50.109  25.451  30.939  1.00  0.00     0.040 A 
ATOM     71  C   UNL A   1      50.549  26.296  28.727  1.00  0.00     0.040 A 
ATOM     72  F   UNL A   1      48.815  27.279  27.486  1.00  0.00    -0.206 F 
ATOM     73  C   UNL A   1      50.999  25.673  29.890  1.00  0.00     0.006 A 
ENDBRANCH  45  66
BRANCH  57  74
ATOM     74  C   UNL A   1      44.779  32.151  31.515  1.00  0.00     0.057 A 
ATOM     75  C   UNL A   1      45.162  33.270  30.762  1.00  0.00     0.134 A 
ATOM     76  C   UNL A   1      44.817  32.266  32.910  1.00  0.00     0.134 A 
ATOM     77  F   UNL A   1      45.153  33.225  29.422  1.00  0.00    -0.206 F 
ATOM     78  C   UNL A   1      45.563  34.459  31.374  1.00  0.00     0.040 A 
ATOM     79  C   UNL A   1      45.192  33.459  33.533  1.00  0.00     0.040 A 
ATOM     80  F   UNL A   1      44.447  31.237  33.687  1.00  0.00    -0.206 F 
ATOM     81  C   UNL A   1      45.570  34.557  32.764  1.00  0.00     0.006 A 
ENDBRANCH  57  74
ENDBRANCH  31  32
ENDBRANCH  23  26
ENDBRANCH  21  22
ENDBRANCH   1  21
TORSDOF 12
ENDMDL
MODEL 3
REMARK VINA RESULT:     -11.5      1.270      1.763
REMARK SMILES Cc1c(Cl)ccc2c(OCC(=O)NCCCNC(=O)c3ccc(-c4c5nc(c(-c6c(F)cccc6F)c6ccc([nH]6)c(-c6c(F)cccc6F)c6nc(c(-c7c(F)cccc7F)c7ccc4[nH]7)C=C6)C=C5)cc3)ccnc12
REMARK SMILES IDX 15 1 14 2 13 3 11 4 12 5 10 7 9 8 8 9 1 10 2 11 3 12 77 13
REMARK SMILES IDX 4 14 5 15 7 16 76 17 6 18 75 19 74 20 16 21 17 22 18 23
REMARK SMILES IDX 19 25 20 26 21 27 73 28 22 29 72 30 23 31 24 32 25 33 66 34
REMARK SMILES IDX 26 35 71 36 65 37 67 38 27 39 70 40 64 41 63 42 28 44 54 45
REMARK SMILES IDX 37 46 53 47 38 48 41 49 52 50 68 51 39 52 40 53 51 55 69 56
REMARK SMILES IDX 42 57 29 58 30 59 35 60 31 61 32 62 34 63 36 64 33 65 55 66
REMARK SMILES IDX 56 67 61 68 57 69 58 70 60 71 62 72 59 73 43 74 44 75 49 76
REMARK SMILES IDX 45 77 46 78 48 79 50 80 47 81
REMARK H PARENT 13 6 17 24 67 43 41 54
REMARK Flexibility Score: inf
ROOT
ATOM      1  C   UNL A   1      37.806  19.406  24.999  1.00  0.00     0.042 C 
ENDROOT
BRANCH   1   2
ATOM      2  C   UNL A   1      36.546  20.267  25.001  1.00  0.00     0.117 C 
BRANCH   2   3
ATOM      3  N   UNL A   1      36.790  21.601  25.515  1.00  0.00    -0.353 N 
ATOM      4  C   UNL A   1      36.593  22.804  24.904  1.00  0.00     0.257 C 
ATOM      5  O   UNL A   1      36.896  23.831  25.515  1.00  0.00    -0.271 OA
ATOM      6  H   UNL A   1      37.148  21.644  26.431  1.00  0.00     0.163 HD
BRANCH   4   7
ATOM      7  C   UNL A   1      35.969  22.860  23.506  1.00  0.00     0.329 C 
BRANCH   7   8
ATOM      8  O   UNL A   1      35.150  23.982  23.220  1.00  0.00    -0.483 OA
BRANCH   8   9
ATOM      9  C   UNL A   1      33.801  23.904  23.468  1.00  0.00     0.131 A 
ATOM     10  C   UNL A   1      29.903  25.585  25.971  1.00  0.00     0.048 C 
ATOM     11  C   UNL A   1      31.362  25.728  25.603  1.00  0.00    -0.006 A 
ATOM     12  C   UNL A   1      32.176  26.736  26.145  1.00  0.00     0.046 A 
ATOM     13  C   UNL A   1      31.905  24.793  24.704  1.00  0.00     0.078 A 
ATOM     14  Cl  UNL A   1      31.584  27.920  27.258  1.00  0.00    -0.084 Cl
ATOM     15  C   UNL A   1      33.522  26.821  25.798  1.00  0.00     0.022 A 
ATOM     16  C   UNL A   1      33.276  24.869  24.364  1.00  0.00     0.043 A 
ATOM     17  N   UNL A   1      31.112  23.838  24.183  1.00  0.00    -0.256 NA
ATOM     18  C   UNL A   1      34.068  25.893  24.918  1.00  0.00     0.016 A 
ATOM     19  C   UNL A   1      31.634  22.955  23.311  1.00  0.00     0.115 A 
ATOM     20  C   UNL A   1      32.956  22.947  22.922  1.00  0.00     0.067 A 
ENDBRANCH   8   9
ENDBRANCH   7   8
ENDBRANCH   4   7
ENDBRANCH   2   3
ENDBRANCH   1   2
BRANCH   1  21
ATOM     21  C   UNL A   1      38.991  20.037  25.723  1.00  0.00     0.118 C 
BRANCH  21  22
ATOM     22  N   UNL A   1      40.150  19.155  25.788  1.00  0.00    -0.352 N 
ATOM     23  C   UNL A   1      41.460  19.446  26.078  1.00  0.00     0.251 C 
ATOM     24  H   UNL A   1      39.965  18.208  25.594  1.00  0.00     0.163 HD
ATOM     25  O   UNL A   1      42.331  18.598  25.910  1.00  0.00    -0.269 OA
BRANCH  23  26
ATOM     26  C   UNL A   1      41.824  20.786  26.575  1.00  0.00     0.039 A 
ATOM     27  C   UNL A   1      42.218  21.763  25.656  1.00  0.00     0.014 A 
ATOM     28  C   UNL A   1      41.794  21.073  27.943  1.00  0.00     0.014 A 
ATOM     29  C   UNL A   1      42.523  23.048  26.105  1.00  0.00     0.010 A 
ATOM     30  C   UNL A   1      42.036  22.371  28.382  1.00  0.00     0.010 A 
ATOM     31  C   UNL A   1      42.412  23.367  27.468  1.00  0.00    -0.014 A 
BRANCH  31  32
ATOM     32  C   UNL A   1      42.728  24.729  27.954  1.00  0.00     0.031 A 
ATOM     33  C   UNL A   1      44.157  25.134  28.172  1.00  0.00     0.074 A 
ATOM     34  C   UNL A   1      41.731  25.591  28.229  1.00  0.00     0.049 A 
ATOM     35  N   UNL A   1      44.643  26.289  28.551  1.00  0.00    -0.248 NA
ATOM     36  C   UNL A   1      45.175  24.096  27.951  1.00  0.00     0.031 C 
ATOM     37  C   UNL A   1      40.302  25.303  28.099  1.00  0.00     0.029 A 
ATOM     38  N   UNL A   1      41.772  26.888  28.670  1.00  0.00    -0.354 N 
ATOM     39  C   UNL A   1      46.019  26.117  28.609  1.00  0.00     0.074 A 
ATOM     40  C   UNL A   1      46.285  24.729  28.294  1.00  0.00     0.031 C 
ATOM     41  C   UNL A   1      39.603  26.404  28.420  1.00  0.00     0.029 A 
ATOM     42  C   UNL A   1      40.534  27.465  28.794  1.00  0.00     0.049 A 
ATOM     43  H   UNL A   1      42.611  27.360  28.879  1.00  0.00     0.167 HD
ATOM     44  C   UNL A   1      46.979  27.035  28.872  1.00  0.00     0.037 A 
ATOM     45  C   UNL A   1      40.192  28.717  29.153  1.00  0.00     0.037 A 
ATOM     46  C   UNL A   1      46.714  28.414  29.189  1.00  0.00     0.049 A 
ATOM     47  C   UNL A   1      41.274  29.710  29.478  1.00  0.00     0.074 A 
ATOM     48  C   UNL A   1      47.615  29.436  29.429  1.00  0.00     0.029 A 
ATOM     49  N   UNL A   1      45.445  28.958  29.325  1.00  0.00    -0.354 N 
ATOM     50  N   UNL A   1      42.576  29.560  29.445  1.00  0.00    -0.248 NA
ATOM     51  C   UNL A   1      40.832  31.051  29.883  1.00  0.00     0.031 C 
ATOM     52  C   UNL A   1      46.888  30.591  29.747  1.00  0.00     0.029 A 
ATOM     53  C   UNL A   1      45.537  30.297  29.666  1.00  0.00     0.049 A 
ATOM     54  H   UNL A   1      44.603  28.464  29.196  1.00  0.00     0.167 HD
ATOM     55  C   UNL A   1      43.109  30.797  29.782  1.00  0.00     0.074 A 
ATOM     56  C   UNL A   1      41.988  31.686  30.013  1.00  0.00     0.031 C 
ATOM     57  C   UNL A   1      44.409  31.169  29.884  1.00  0.00     0.037 A 
BRANCH  44  58
ATOM     58  C   UNL A   1      48.399  26.555  28.826  1.00  0.00     0.057 A 
ATOM     59  C   UNL A   1      49.156  26.657  27.654  1.00  0.00     0.134 A 
ATOM     60  C   UNL A   1      49.032  26.025  29.961  1.00  0.00     0.134 A 
ATOM     61  F   UNL A   1      48.612  27.151  26.532  1.00  0.00    -0.206 F 
ATOM     62  C   UNL A   1      50.496  26.268  27.615  1.00  0.00     0.040 A 
ATOM     63  C   UNL A   1      50.379  25.658  29.942  1.00  0.00     0.040 A 
ATOM     64  F   UNL A   1      48.369  25.917  31.122  1.00  0.00    -0.206 F 
ATOM     65  C   UNL A   1      51.115  25.779  28.765  1.00  0.00     0.006 A 
ENDBRANCH  44  58
BRANCH  45  66
ATOM     66  C   UNL A   1      38.768  29.129  29.159  1.00  0.00     0.057 A 
ATOM     67  C   UNL A   1      38.130  29.597  28.007  1.00  0.00     0.134 A 
ATOM     68  C   UNL A   1      38.008  29.042  30.331  1.00  0.00     0.134 A 
ATOM     69  F   UNL A   1      38.807  29.705  26.854  1.00  0.00    -0.206 F 
ATOM     70  C   UNL A   1      36.783  29.965  28.018  1.00  0.00     0.040 A 
ATOM     71  C   UNL A   1      36.655  29.387  30.352  1.00  0.00     0.040 A 
ATOM     72  F   UNL A   1      38.562  28.583  31.463  1.00  0.00    -0.206 F 
ATOM     73  C   UNL A   1      36.041  29.852  29.192  1.00  0.00     0.006 A 
ENDBRANCH  45  66
BRANCH  57  74
ATOM     74  C   UNL A   1      44.681  32.606  30.214  1.00  0.00     0.057 A 
ATOM     75  C   UNL A   1      44.835  33.012  31.546  1.00  0.00     0.134 A 
ATOM     76  C   UNL A   1      44.788  33.589  29.221  1.00  0.00     0.134 A 
ATOM     77  F   UNL A   1      44.738  32.123  32.545  1.00  0.00    -0.206 F 
ATOM     78  C   UNL A   1      45.088  34.343  31.879  1.00  0.00     0.040 A 
ATOM     79  C   UNL A   1      45.068  34.920  29.541  1.00  0.00     0.040 A 
ATOM     80  F   UNL A   1      44.668  33.262  27.926  1.00  0.00    -0.206 F 
ATOM     81  C   UNL A   1      45.214  35.299  30.873  1.00  0.00     0.006 A 
ENDBRANCH  57  74
ENDBRANCH  31  32
ENDBRANCH  23  26
ENDBRANCH  21  22
ENDBRANCH   1  21
TORSDOF 12
ENDMDL
