MODEL 1
REMARK VINA RESULT:     -11.6      0.000      0.000
REMARK SMILES O=C(Cn1c(SCCOc2ccccc2Cl)nc2ccccc21)NCCCNC(=O)c1ccc(-c2c3nc(c(-c4c(F)cccc4F)c4ccc([nH]4)c(-c4c(F)cccc4F)c4nc(c(-c5c(F)cccc5F)c5ccc2[nH]5)C=C4)C=C3)cc1
REMARK SMILES IDX 1 1 2 2 24 3 3 5 4 6 5 7 23 8 17 9 18 10 22 11 19 12 21 13
REMARK SMILES IDX 20 14 6 15 7 16 8 17 9 18 10 19 11 20 15 21 12 22 14 23
REMARK SMILES IDX 16 24 13 25 25 26 26 27 27 28 28 29 29 30 30 32 31 33 32 34
REMARK SMILES IDX 84 35 33 36 83 37 34 38 35 39 36 40 77 41 37 42 82 43 76 44
REMARK SMILES IDX 78 45 38 46 81 47 75 48 74 49 39 51 65 52 48 53 64 54 49 55
REMARK SMILES IDX 52 56 63 57 79 58 50 59 51 60 62 62 80 63 53 64 40 65 41 66
REMARK SMILES IDX 46 67 42 68 43 69 45 70 47 71 44 72 66 73 67 74 72 75 68 76
REMARK SMILES IDX 69 77 71 78 73 79 70 80 54 81 55 82 60 83 56 84 57 85 59 86
REMARK SMILES IDX 61 87 58 88
REMARK H PARENT 24 4 28 31 78 50 52 61
REMARK Flexibility Score: inf
ROOT
ATOM      1  O   UNL A   1      34.697  23.172  26.997  1.00  0.00    -0.273 OA
ATOM      2  C   UNL A   1      34.769  23.545  25.823  1.00  0.00     0.240 C 
ATOM      3  N   UNL A   1      35.132  22.701  24.807  1.00  0.00    -0.354 N 
ATOM      4  H   UNL A   1      34.984  22.996  23.880  1.00  0.00     0.163 HD
ENDROOT
BRANCH   2   5
ATOM      5  C   UNL A   1      34.422  24.953  25.428  1.00  0.00     0.224 C 
BRANCH   5   6
ATOM      6  N   UNL A   1      33.183  25.528  25.938  1.00  0.00    -0.309 N 
ATOM      7  C   UNL A   1      31.915  25.015  26.113  1.00  0.00     0.169 A 
ATOM      8  C   UNL A   1      33.129  26.868  26.326  1.00  0.00     0.069 A 
ATOM      9  N   UNL A   1      31.164  25.854  26.798  1.00  0.00    -0.222 NA
ATOM     10  C   UNL A   1      31.864  27.022  26.875  1.00  0.00     0.090 A 
ATOM     11  C   UNL A   1      34.032  27.937  26.224  1.00  0.00     0.028 A 
ATOM     12  C   UNL A   1      31.463  28.274  27.367  1.00  0.00     0.030 A 
ATOM     13  C   UNL A   1      33.600  29.190  26.677  1.00  0.00     0.002 A 
ATOM     14  C   UNL A   1      32.338  29.359  27.247  1.00  0.00     0.002 A 
BRANCH   7  15
ATOM     15  S   UNL A   1      31.224  23.483  25.676  1.00  0.00    -0.084 SA
BRANCH  15  16
ATOM     16  C   UNL A   1      31.543  23.052  23.946  1.00  0.00     0.119 C 
BRANCH  16  17
ATOM     17  C   UNL A   1      32.005  24.025  22.854  1.00  0.00     0.241 C 
BRANCH  17  18
ATOM     18  O   UNL A   1      31.117  25.075  22.502  1.00  0.00    -0.491 OA
BRANCH  18  19
ATOM     19  C   UNL A   1      31.425  26.349  22.912  1.00  0.00     0.137 A 
ATOM     20  C   UNL A   1      32.642  26.985  22.641  1.00  0.00     0.048 A 
ATOM     21  C   UNL A   1      30.394  27.090  23.507  1.00  0.00     0.083 A 
ATOM     22  C   UNL A   1      32.770  28.363  22.810  1.00  0.00     0.004 A 
ATOM     23  C   UNL A   1      30.536  28.465  23.709  1.00  0.00     0.024 A 
ATOM     24  Cl  UNL A   1      28.894  26.351  23.954  1.00  0.00    -0.080 Cl
ATOM     25  C   UNL A   1      31.712  29.106  23.323  1.00  0.00     0.002 A 
ENDBRANCH  18  19
ENDBRANCH  17  18
ENDBRANCH  16  17
ENDBRANCH  15  16
ENDBRANCH   7  15
ENDBRANCH   5   6
ENDBRANCH   2   5
BRANCH   3  26
ATOM     26  C   UNL A   1      35.723  21.401  25.027  1.00  0.00     0.117 C 
BRANCH  26  27
ATOM     27  C   UNL A   1      37.179  21.362  24.611  1.00  0.00     0.042 C 
BRANCH  27  28
ATOM     28  C   UNL A   1      38.089  22.196  25.519  1.00  0.00     0.118 C 
BRANCH  28  29
ATOM     29  N   UNL A   1      39.131  21.439  26.186  1.00  0.00    -0.352 N 
ATOM     30  C   UNL A   1      40.098  21.754  27.094  1.00  0.00     0.251 C 
ATOM     31  H   UNL A   1      39.142  20.490  25.926  1.00  0.00     0.163 HD
ATOM     32  O   UNL A   1      40.692  20.808  27.614  1.00  0.00    -0.269 OA
BRANCH  30  33
ATOM     33  C   UNL A   1      40.528  23.136  27.423  1.00  0.00     0.039 A 
ATOM     34  C   UNL A   1      41.710  23.480  28.080  1.00  0.00     0.014 A 
ATOM     35  C   UNL A   1      39.596  24.146  27.128  1.00  0.00     0.014 A 
ATOM     36  C   UNL A   1      41.895  24.765  28.561  1.00  0.00     0.010 A 
ATOM     37  C   UNL A   1      39.789  25.442  27.576  1.00  0.00     0.010 A 
ATOM     38  C   UNL A   1      40.909  25.726  28.347  1.00  0.00    -0.014 A 
BRANCH  38  39
ATOM     39  C   UNL A   1      41.150  27.067  28.854  1.00  0.00     0.031 A 
ATOM     40  C   UNL A   1      42.392  27.690  28.321  1.00  0.00     0.074 A 
ATOM     41  C   UNL A   1      40.264  27.702  29.647  1.00  0.00     0.049 A 
ATOM     42  N   UNL A   1      43.441  28.066  28.976  1.00  0.00    -0.248 NA
ATOM     43  C   UNL A   1      42.547  27.758  26.858  1.00  0.00     0.031 C 
ATOM     44  C   UNL A   1      38.918  27.257  30.022  1.00  0.00     0.029 A 
ATOM     45  N   UNL A   1      40.345  28.937  30.216  1.00  0.00    -0.354 N 
ATOM     46  C   UNL A   1      44.307  28.608  28.027  1.00  0.00     0.074 A 
ATOM     47  C   UNL A   1      43.785  28.236  26.741  1.00  0.00     0.031 C 
ATOM     48  C   UNL A   1      38.234  28.295  30.553  1.00  0.00     0.029 A 
ATOM     49  C   UNL A   1      39.133  29.428  30.683  1.00  0.00     0.049 A 
ATOM     50  H   UNL A   1      41.190  29.437  30.288  1.00  0.00     0.167 HD
ATOM     51  C   UNL A   1      45.233  29.541  28.378  1.00  0.00     0.037 A 
ATOM     52  C   UNL A   1      38.876  30.692  31.102  1.00  0.00     0.037 A 
ATOM     53  C   UNL A   1      45.476  29.515  29.798  1.00  0.00     0.049 A 
ATOM     54  C   UNL A   1      40.174  31.330  31.411  1.00  0.00     0.074 A 
ATOM     55  C   UNL A   1      46.029  28.626  30.695  1.00  0.00     0.029 A 
ATOM     56  N   UNL A   1      44.786  30.437  30.541  1.00  0.00    -0.354 N 
ATOM     57  N   UNL A   1      40.925  30.990  32.418  1.00  0.00    -0.248 NA
ATOM     58  C   UNL A   1      40.848  32.072  30.355  1.00  0.00     0.031 C 
ATOM     59  C   UNL A   1      45.314  28.829  31.914  1.00  0.00     0.029 A 
ATOM     60  C   UNL A   1      44.394  29.859  31.716  1.00  0.00     0.049 A 
ATOM     61  H   UNL A   1      44.602  31.365  30.271  1.00  0.00     0.167 HD
ATOM     62  C   UNL A   1      42.221  31.071  31.934  1.00  0.00     0.074 A 
ATOM     63  C   UNL A   1      42.119  31.870  30.716  1.00  0.00     0.031 C 
ATOM     64  C   UNL A   1      43.190  30.238  32.417  1.00  0.00     0.037 A 
BRANCH  51  65
ATOM     65  C   UNL A   1      45.542  30.776  27.550  1.00  0.00     0.057 A 
ATOM     66  C   UNL A   1      44.654  31.853  27.355  1.00  0.00     0.134 A 
ATOM     67  C   UNL A   1      46.888  31.057  27.236  1.00  0.00     0.134 A 
ATOM     68  F   UNL A   1      43.347  31.775  27.625  1.00  0.00    -0.206 F 
ATOM     69  C   UNL A   1      45.077  33.125  26.957  1.00  0.00     0.040 A 
ATOM     70  C   UNL A   1      47.327  32.339  26.883  1.00  0.00     0.040 A 
ATOM     71  F   UNL A   1      47.836  30.116  27.361  1.00  0.00    -0.206 F 
ATOM     72  C   UNL A   1      46.422  33.384  26.762  1.00  0.00     0.006 A 
ENDBRANCH  51  65
BRANCH  52  73
ATOM     73  C   UNL A   1      37.623  31.469  31.006  1.00  0.00     0.057 A 
ATOM     74  C   UNL A   1      36.773  31.612  32.117  1.00  0.00     0.134 A 
ATOM     75  C   UNL A   1      37.090  31.857  29.768  1.00  0.00     0.134 A 
ATOM     76  F   UNL A   1      37.154  31.196  33.333  1.00  0.00    -0.206 F 
ATOM     77  C   UNL A   1      35.468  32.101  32.004  1.00  0.00     0.040 A 
ATOM     78  C   UNL A   1      35.783  32.345  29.640  1.00  0.00     0.040 A 
ATOM     79  F   UNL A   1      37.807  31.713  28.645  1.00  0.00    -0.206 F 
ATOM     80  C   UNL A   1      34.963  32.459  30.760  1.00  0.00     0.006 A 
ENDBRANCH  52  73
BRANCH  64  81
ATOM     81  C   UNL A   1      42.872  29.497  33.685  1.00  0.00     0.057 A 
ATOM     82  C   UNL A   1      42.300  28.225  33.593  1.00  0.00     0.134 A 
ATOM     83  C   UNL A   1      43.027  30.033  34.973  1.00  0.00     0.134 A 
ATOM     84  F   UNL A   1      42.068  27.675  32.391  1.00  0.00    -0.206 F 
ATOM     85  C   UNL A   1      41.920  27.506  34.727  1.00  0.00     0.040 A 
ATOM     86  C   UNL A   1      42.682  29.309  36.118  1.00  0.00     0.040 A 
ATOM     87  F   UNL A   1      43.475  31.281  35.155  1.00  0.00    -0.206 F 
ATOM     88  C   UNL A   1      42.125  28.041  35.996  1.00  0.00     0.006 A 
ENDBRANCH  64  81
ENDBRANCH  38  39
ENDBRANCH  30  33
ENDBRANCH  28  29
ENDBRANCH  27  28
ENDBRANCH  26  27
ENDBRANCH   3  26
TORSDOF 16
ENDMDL
MODEL 2
REMARK VINA RESULT:     -11.5      3.099      7.172
REMARK SMILES O=C(Cn1c(SCCOc2ccccc2Cl)nc2ccccc21)NCCCNC(=O)c1ccc(-c2c3nc(c(-c4c(F)cccc4F)c4ccc([nH]4)c(-c4c(F)cccc4F)c4nc(c(-c5c(F)cccc5F)c5ccc2[nH]5)C=C4)C=C3)cc1
REMARK SMILES IDX 1 1 2 2 24 3 3 5 4 6 5 7 23 8 17 9 18 10 22 11 19 12 21 13
REMARK SMILES IDX 20 14 6 15 7 16 8 17 9 18 10 19 11 20 15 21 12 22 14 23
REMARK SMILES IDX 16 24 13 25 25 26 26 27 27 28 28 29 29 30 30 32 31 33 32 34
REMARK SMILES IDX 84 35 33 36 83 37 34 38 35 39 36 40 77 41 37 42 82 43 76 44
REMARK SMILES IDX 78 45 38 46 81 47 75 48 74 49 39 51 65 52 48 53 64 54 49 55
REMARK SMILES IDX 52 56 63 57 79 58 50 59 51 60 62 62 80 63 53 64 40 65 41 66
REMARK SMILES IDX 46 67 42 68 43 69 45 70 47 71 44 72 66 73 67 74 72 75 68 76
REMARK SMILES IDX 69 77 71 78 73 79 70 80 54 81 55 82 60 83 56 84 57 85 59 86
REMARK SMILES IDX 61 87 58 88
REMARK H PARENT 24 4 28 31 78 50 52 61
REMARK Flexibility Score: inf
ROOT
ATOM      1  O   UNL A   1      33.863  27.686  23.779  1.00  0.00    -0.273 OA
ATOM      2  C   UNL A   1      33.592  27.365  24.939  1.00  0.00     0.240 C 
ATOM      3  N   UNL A   1      33.182  28.276  25.875  1.00  0.00    -0.354 N 
ATOM      4  H   UNL A   1      32.796  27.940  26.716  1.00  0.00     0.163 HD
ENDROOT
BRANCH   2   5
ATOM      5  C   UNL A   1      33.661  25.932  25.388  1.00  0.00     0.224 C 
BRANCH   5   6
ATOM      6  N   UNL A   1      34.134  24.932  24.438  1.00  0.00    -0.309 N 
ATOM      7  C   UNL A   1      33.644  24.484  23.229  1.00  0.00     0.169 A 
ATOM      8  C   UNL A   1      35.280  24.183  24.707  1.00  0.00     0.069 A 
ATOM      9  N   UNL A   1      34.524  23.705  22.631  1.00  0.00    -0.222 NA
ATOM     10  C   UNL A   1      35.500  23.451  23.549  1.00  0.00     0.090 A 
ATOM     11  C   UNL A   1      36.106  24.058  25.835  1.00  0.00     0.028 A 
ATOM     12  C   UNL A   1      36.588  22.567  23.476  1.00  0.00     0.030 A 
ATOM     13  C   UNL A   1      37.161  23.139  25.763  1.00  0.00     0.002 A 
ATOM     14  C   UNL A   1      37.405  22.408  24.600  1.00  0.00     0.002 A 
BRANCH   7  15
ATOM     15  S   UNL A   1      32.172  24.841  22.381  1.00  0.00    -0.084 SA
BRANCH  15  16
ATOM     16  C   UNL A   1      30.705  24.277  23.279  1.00  0.00     0.119 C 
BRANCH  16  17
ATOM     17  C   UNL A   1      30.580  24.164  24.804  1.00  0.00     0.241 C 
BRANCH  17  18
ATOM     18  O   UNL A   1      30.721  22.872  25.374  1.00  0.00    -0.491 OA
BRANCH  18  19
ATOM     19  C   UNL A   1      31.920  22.549  25.959  1.00  0.00     0.137 A 
ATOM     20  C   UNL A   1      32.321  22.997  27.223  1.00  0.00     0.048 A 
ATOM     21  C   UNL A   1      32.711  21.596  25.299  1.00  0.00     0.083 A 
ATOM     22  C   UNL A   1      33.391  22.391  27.879  1.00  0.00     0.004 A 
ATOM     23  C   UNL A   1      33.806  21.016  25.944  1.00  0.00     0.024 A 
ATOM     24  Cl  UNL A   1      32.330  21.062  23.698  1.00  0.00    -0.080 Cl
ATOM     25  C   UNL A   1      34.120  21.388  27.251  1.00  0.00     0.002 A 
ENDBRANCH  18  19
ENDBRANCH  17  18
ENDBRANCH  16  17
ENDBRANCH  15  16
ENDBRANCH   7  15
ENDBRANCH   5   6
ENDBRANCH   2   5
BRANCH   3  26
ATOM     26  C   UNL A   1      33.288  29.706  25.692  1.00  0.00     0.117 C 
BRANCH  26  27
ATOM     27  C   UNL A   1      33.909  30.387  26.895  1.00  0.00     0.042 C 
BRANCH  27  28
ATOM     28  C   UNL A   1      34.995  29.546  27.572  1.00  0.00     0.118 C 
BRANCH  28  29
ATOM     29  N   UNL A   1      35.177  29.820  28.984  1.00  0.00    -0.352 N 
ATOM     30  C   UNL A   1      36.253  29.809  29.821  1.00  0.00     0.251 C 
ATOM     31  H   UNL A   1      34.340  30.068  29.437  1.00  0.00     0.163 HD
ATOM     32  O   UNL A   1      36.085  30.303  30.938  1.00  0.00    -0.269 OA
BRANCH  30  33
ATOM     33  C   UNL A   1      37.558  29.177  29.508  1.00  0.00     0.039 A 
ATOM     34  C   UNL A   1      38.158  28.153  30.244  1.00  0.00     0.014 A 
ATOM     35  C   UNL A   1      38.268  29.751  28.439  1.00  0.00     0.014 A 
ATOM     36  C   UNL A   1      39.480  27.811  30.018  1.00  0.00     0.010 A 
ATOM     37  C   UNL A   1      39.581  29.391  28.185  1.00  0.00     0.010 A 
ATOM     38  C   UNL A   1      40.198  28.468  29.020  1.00  0.00    -0.014 A 
BRANCH  38  39
ATOM     39  C   UNL A   1      41.579  28.067  28.806  1.00  0.00     0.031 A 
ATOM     40  C   UNL A   1      41.717  26.782  28.069  1.00  0.00     0.074 A 
ATOM     41  C   UNL A   1      42.615  28.854  29.156  1.00  0.00     0.049 A 
ATOM     42  N   UNL A   1      42.250  25.679  28.482  1.00  0.00    -0.248 NA
ATOM     43  C   UNL A   1      41.037  26.665  26.768  1.00  0.00     0.031 C 
ATOM     44  C   UNL A   1      42.563  30.229  29.665  1.00  0.00     0.029 A 
ATOM     45  N   UNL A   1      43.952  28.622  29.043  1.00  0.00    -0.354 N 
ATOM     46  C   UNL A   1      42.154  24.788  27.412  1.00  0.00     0.074 A 
ATOM     47  C   UNL A   1      41.255  25.386  26.464  1.00  0.00     0.031 C 
ATOM     48  C   UNL A   1      43.796  30.780  29.595  1.00  0.00     0.029 A 
ATOM     49  C   UNL A   1      44.740  29.759  29.173  1.00  0.00     0.049 A 
ATOM     50  H   UNL A   1      44.327  27.726  28.883  1.00  0.00     0.167 HD
ATOM     51  C   UNL A   1      43.031  23.755  27.282  1.00  0.00     0.037 A 
ATOM     52  C   UNL A   1      46.065  29.864  28.906  1.00  0.00     0.037 A 
ATOM     53  C   UNL A   1      43.683  23.474  28.535  1.00  0.00     0.049 A 
ATOM     54  C   UNL A   1      46.626  28.495  28.895  1.00  0.00     0.074 A 
ATOM     55  C   UNL A   1      43.299  22.994  29.770  1.00  0.00     0.029 A 
ATOM     56  N   UNL A   1      44.921  24.037  28.707  1.00  0.00    -0.354 N 
ATOM     57  N   UNL A   1      46.747  27.756  29.959  1.00  0.00    -0.248 NA
ATOM     58  C   UNL A   1      46.670  27.777  27.630  1.00  0.00     0.031 C 
ATOM     59  C   UNL A   1      44.154  23.646  30.710  1.00  0.00     0.029 A 
ATOM     60  C   UNL A   1      45.046  24.453  30.003  1.00  0.00     0.049 A 
ATOM     61  H   UNL A   1      45.609  24.127  28.009  1.00  0.00     0.167 HD
ATOM     62  C   UNL A   1      46.437  26.474  29.534  1.00  0.00     0.074 A 
ATOM     63  C   UNL A   1      46.536  26.526  28.078  1.00  0.00     0.031 C 
ATOM     64  C   UNL A   1      45.850  25.587  30.392  1.00  0.00     0.037 A 
BRANCH  51  65
ATOM     65  C   UNL A   1      43.654  23.339  25.961  1.00  0.00     0.057 A 
ATOM     66  C   UNL A   1      44.552  24.128  25.215  1.00  0.00     0.134 A 
ATOM     67  C   UNL A   1      43.633  21.975  25.607  1.00  0.00     0.134 A 
ATOM     68  F   UNL A   1      44.723  25.437  25.431  1.00  0.00    -0.206 F 
ATOM     69  C   UNL A   1      45.415  23.595  24.252  1.00  0.00     0.040 A 
ATOM     70  C   UNL A   1      44.525  21.423  24.678  1.00  0.00     0.040 A 
ATOM     71  F   UNL A   1      42.811  21.114  26.227  1.00  0.00    -0.206 F 
ATOM     72  C   UNL A   1      45.434  22.232  24.011  1.00  0.00     0.006 A 
ENDBRANCH  51  65
BRANCH  52  73
ATOM     73  C   UNL A   1      46.825  31.028  28.405  1.00  0.00     0.057 A 
ATOM     74  C   UNL A   1      46.622  31.518  27.102  1.00  0.00     0.134 A 
ATOM     75  C   UNL A   1      47.953  31.517  29.079  1.00  0.00     0.134 A 
ATOM     76  F   UNL A   1      45.621  31.055  26.341  1.00  0.00    -0.206 F 
ATOM     77  C   UNL A   1      47.495  32.430  26.501  1.00  0.00     0.040 A 
ATOM     78  C   UNL A   1      48.837  32.429  28.487  1.00  0.00     0.040 A 
ATOM     79  F   UNL A   1      48.256  31.073  30.307  1.00  0.00    -0.206 F 
ATOM     80  C   UNL A   1      48.615  32.881  27.189  1.00  0.00     0.006 A 
ENDBRANCH  52  73
BRANCH  64  81
ATOM     81  C   UNL A   1      45.872  25.945  31.852  1.00  0.00     0.057 A 
ATOM     82  C   UNL A   1      47.008  25.629  32.602  1.00  0.00     0.134 A 
ATOM     83  C   UNL A   1      44.786  26.503  32.544  1.00  0.00     0.134 A 
ATOM     84  F   UNL A   1      48.062  25.041  32.016  1.00  0.00    -0.206 F 
ATOM     85  C   UNL A   1      47.073  25.874  33.974  1.00  0.00     0.040 A 
ATOM     86  C   UNL A   1      44.852  26.785  33.912  1.00  0.00     0.040 A 
ATOM     87  F   UNL A   1      43.624  26.748  31.928  1.00  0.00    -0.206 F 
ATOM     88  C   UNL A   1      45.999  26.468  34.632  1.00  0.00     0.006 A 
ENDBRANCH  64  81
ENDBRANCH  38  39
ENDBRANCH  30  33
ENDBRANCH  28  29
ENDBRANCH  27  28
ENDBRANCH  26  27
ENDBRANCH   3  26
TORSDOF 16
ENDMDL
MODEL 3
REMARK VINA RESULT:     -11.3      2.771      7.703
REMARK SMILES O=C(Cn1c(SCCOc2ccccc2Cl)nc2ccccc21)NCCCNC(=O)c1ccc(-c2c3nc(c(-c4c(F)cccc4F)c4ccc([nH]4)c(-c4c(F)cccc4F)c4nc(c(-c5c(F)cccc5F)c5ccc2[nH]5)C=C4)C=C3)cc1
REMARK SMILES IDX 1 1 2 2 24 3 3 5 4 6 5 7 23 8 17 9 18 10 22 11 19 12 21 13
REMARK SMILES IDX 20 14 6 15 7 16 8 17 9 18 10 19 11 20 15 21 12 22 14 23
REMARK SMILES IDX 16 24 13 25 25 26 26 27 27 28 28 29 29 30 30 32 31 33 32 34
REMARK SMILES IDX 84 35 33 36 83 37 34 38 35 39 36 40 77 41 37 42 82 43 76 44
REMARK SMILES IDX 78 45 38 46 81 47 75 48 74 49 39 51 65 52 48 53 64 54 49 55
REMARK SMILES IDX 52 56 63 57 79 58 50 59 51 60 62 62 80 63 53 64 40 65 41 66
REMARK SMILES IDX 46 67 42 68 43 69 45 70 47 71 44 72 66 73 67 74 72 75 68 76
REMARK SMILES IDX 69 77 71 78 73 79 70 80 54 81 55 82 60 83 56 84 57 85 59 86
REMARK SMILES IDX 61 87 58 88
REMARK H PARENT 24 4 28 31 78 50 52 61
REMARK Flexibility Score: inf
ROOT
ATOM      1  O   UNL A   1      32.181  27.742  26.451  1.00  0.00    -0.273 OA
ATOM      2  C   UNL A   1      32.347  28.542  25.527  1.00  0.00     0.240 C 
ATOM      3  N   UNL A   1      32.847  29.801  25.730  1.00  0.00    -0.354 N 
ATOM      4  H   UNL A   1      33.139  30.319  24.946  1.00  0.00     0.163 HD
ENDROOT
BRANCH   2   5
ATOM      5  C   UNL A   1      32.043  28.167  24.104  1.00  0.00     0.224 C 
BRANCH   5   6
ATOM      6  N   UNL A   1      30.687  27.743  23.776  1.00  0.00    -0.309 N 
ATOM      7  C   UNL A   1      30.111  26.503  23.599  1.00  0.00     0.169 A 
ATOM      8  C   UNL A   1      29.688  28.686  23.532  1.00  0.00     0.069 A 
ATOM      9  N   UNL A   1      28.800  26.608  23.509  1.00  0.00    -0.222 NA
ATOM     10  C   UNL A   1      28.527  27.939  23.394  1.00  0.00     0.090 A 
ATOM     11  C   UNL A   1      29.696  30.083  23.393  1.00  0.00     0.028 A 
ATOM     12  C   UNL A   1      27.309  28.582  23.126  1.00  0.00     0.030 A 
ATOM     13  C   UNL A   1      28.480  30.706  23.081  1.00  0.00     0.002 A 
ATOM     14  C   UNL A   1      27.302  29.971  22.955  1.00  0.00     0.002 A 
BRANCH   7  15
ATOM     15  S   UNL A   1      30.799  24.909  23.570  1.00  0.00    -0.084 SA
BRANCH  15  16
ATOM     16  C   UNL A   1      32.295  24.821  22.555  1.00  0.00     0.119 C 
BRANCH  16  17
ATOM     17  C   UNL A   1      33.408  23.774  22.694  1.00  0.00     0.241 C 
BRANCH  17  18
ATOM     18  O   UNL A   1      34.728  24.252  22.902  1.00  0.00    -0.491 OA
BRANCH  18  19
ATOM     19  C   UNL A   1      35.514  23.604  23.822  1.00  0.00     0.137 A 
ATOM     20  C   UNL A   1      36.408  22.576  23.503  1.00  0.00     0.048 A 
ATOM     21  C   UNL A   1      35.515  24.118  25.128  1.00  0.00     0.083 A 
ATOM     22  C   UNL A   1      37.386  22.183  24.414  1.00  0.00     0.004 A 
ATOM     23  C   UNL A   1      36.473  23.696  26.052  1.00  0.00     0.024 A 
ATOM     24  Cl  UNL A   1      34.380  25.326  25.622  1.00  0.00    -0.080 Cl
ATOM     25  C   UNL A   1      37.433  22.756  25.680  1.00  0.00     0.002 A 
ENDBRANCH  18  19
ENDBRANCH  17  18
ENDBRANCH  16  17
ENDBRANCH  15  16
ENDBRANCH   7  15
ENDBRANCH   5   6
ENDBRANCH   2   5
BRANCH   3  26
ATOM     26  C   UNL A   1      32.965  30.408  27.036  1.00  0.00     0.117 C 
BRANCH  26  27
ATOM     27  C   UNL A   1      34.412  30.558  27.463  1.00  0.00     0.042 C 
BRANCH  27  28
ATOM     28  C   UNL A   1      34.746  31.958  27.985  1.00  0.00     0.118 C 
BRANCH  28  29
ATOM     29  N   UNL A   1      34.774  32.072  29.431  1.00  0.00    -0.352 N 
ATOM     30  C   UNL A   1      35.662  31.693  30.394  1.00  0.00     0.251 C 
ATOM     31  H   UNL A   1      33.978  32.520  29.796  1.00  0.00     0.163 HD
ATOM     32  O   UNL A   1      35.465  32.138  31.527  1.00  0.00    -0.269 OA
BRANCH  30  33
ATOM     33  C   UNL A   1      36.774  30.734  30.186  1.00  0.00     0.039 A 
ATOM     34  C   UNL A   1      36.674  29.346  30.289  1.00  0.00     0.014 A 
ATOM     35  C   UNL A   1      38.039  31.309  29.972  1.00  0.00     0.014 A 
ATOM     36  C   UNL A   1      37.814  28.562  30.327  1.00  0.00     0.010 A 
ATOM     37  C   UNL A   1      39.182  30.529  29.974  1.00  0.00     0.010 A 
ATOM     38  C   UNL A   1      39.066  29.167  30.217  1.00  0.00    -0.014 A 
BRANCH  38  39
ATOM     39  C   UNL A   1      40.237  28.306  30.244  1.00  0.00     0.031 A 
ATOM     40  C   UNL A   1      40.889  28.231  31.579  1.00  0.00     0.074 A 
ATOM     41  C   UNL A   1      40.611  27.573  29.177  1.00  0.00     0.049 A 
ATOM     42  N   UNL A   1      42.084  28.601  31.905  1.00  0.00    -0.248 NA
ATOM     43  C   UNL A   1      40.052  27.842  32.726  1.00  0.00     0.031 C 
ATOM     44  C   UNL A   1      39.892  27.406  27.909  1.00  0.00     0.029 A 
ATOM     45  N   UNL A   1      41.679  26.741  29.032  1.00  0.00    -0.354 N 
ATOM     46  C   UNL A   1      42.219  28.299  33.261  1.00  0.00     0.074 A 
ATOM     47  C   UNL A   1      40.898  28.003  33.744  1.00  0.00     0.031 C 
ATOM     48  C   UNL A   1      40.418  26.361  27.230  1.00  0.00     0.029 A 
ATOM     49  C   UNL A   1      41.588  25.882  27.944  1.00  0.00     0.049 A 
ATOM     50  H   UNL A   1      42.449  26.748  29.647  1.00  0.00     0.167 HD
ATOM     51  C   UNL A   1      43.442  28.062  33.806  1.00  0.00     0.037 A 
ATOM     52  C   UNL A   1      42.392  24.823  27.676  1.00  0.00     0.037 A 
ATOM     53  C   UNL A   1      44.488  28.594  32.970  1.00  0.00     0.049 A 
ATOM     54  C   UNL A   1      43.633  24.997  28.461  1.00  0.00     0.074 A 
ATOM     55  C   UNL A   1      44.905  29.848  32.577  1.00  0.00     0.029 A 
ATOM     56  N   UNL A   1      45.088  27.703  32.119  1.00  0.00    -0.354 N 
ATOM     57  N   UNL A   1      44.519  25.920  28.217  1.00  0.00    -0.248 NA
ATOM     58  C   UNL A   1      43.699  24.408  29.790  1.00  0.00     0.031 C 
ATOM     59  C   UNL A   1      45.423  29.677  31.258  1.00  0.00     0.029 A 
ATOM     60  C   UNL A   1      45.340  28.324  30.928  1.00  0.00     0.049 A 
ATOM     61  H   UNL A   1      45.303  26.766  32.332  1.00  0.00     0.167 HD
ATOM     62  C   UNL A   1      44.947  26.336  29.468  1.00  0.00     0.074 A 
ATOM     63  C   UNL A   1      44.517  25.283  30.383  1.00  0.00     0.031 C 
ATOM     64  C   UNL A   1      45.347  27.627  29.663  1.00  0.00     0.037 A 
BRANCH  51  65
ATOM     65  C   UNL A   1      43.720  26.950  34.802  1.00  0.00     0.057 A 
ATOM     66  C   UNL A   1      43.837  27.132  36.195  1.00  0.00     0.134 A 
ATOM     67  C   UNL A   1      43.511  25.615  34.397  1.00  0.00     0.134 A 
ATOM     68  F   UNL A   1      44.012  28.332  36.759  1.00  0.00    -0.206 F 
ATOM     69  C   UNL A   1      43.680  26.090  37.114  1.00  0.00     0.040 A 
ATOM     70  C   UNL A   1      43.306  24.574  35.311  1.00  0.00     0.040 A 
ATOM     71  F   UNL A   1      43.399  25.298  33.098  1.00  0.00    -0.206 F 
ATOM     72  C   UNL A   1      43.371  24.814  36.677  1.00  0.00     0.006 A 
ENDBRANCH  51  65
BRANCH  52  73
ATOM     73  C   UNL A   1      42.061  23.550  27.002  1.00  0.00     0.057 A 
ATOM     74  C   UNL A   1      40.928  22.806  27.377  1.00  0.00     0.134 A 
ATOM     75  C   UNL A   1      42.982  22.896  26.172  1.00  0.00     0.134 A 
ATOM     76  F   UNL A   1      40.027  23.308  28.233  1.00  0.00    -0.206 F 
ATOM     77  C   UNL A   1      40.728  21.486  26.961  1.00  0.00     0.040 A 
ATOM     78  C   UNL A   1      42.795  21.572  25.750  1.00  0.00     0.040 A 
ATOM     79  F   UNL A   1      44.115  23.507  25.800  1.00  0.00    -0.206 F 
ATOM     80  C   UNL A   1      41.669  20.859  26.154  1.00  0.00     0.006 A 
ENDBRANCH  52  73
BRANCH  64  81
ATOM     81  C   UNL A   1      45.613  28.446  28.430  1.00  0.00     0.057 A 
ATOM     82  C   UNL A   1      46.916  28.499  27.930  1.00  0.00     0.134 A 
ATOM     83  C   UNL A   1      44.651  29.240  27.788  1.00  0.00     0.134 A 
ATOM     84  F   UNL A   1      47.899  27.810  28.531  1.00  0.00    -0.206 F 
ATOM     85  C   UNL A   1      47.249  29.289  26.829  1.00  0.00     0.040 A 
ATOM     86  C   UNL A   1      44.964  30.008  26.662  1.00  0.00     0.040 A 
ATOM     87  F   UNL A   1      43.400  29.328  28.255  1.00  0.00    -0.206 F 
ATOM     88  C   UNL A   1      46.268  30.035  26.180  1.00  0.00     0.006 A 
ENDBRANCH  64  81
ENDBRANCH  38  39
ENDBRANCH  30  33
ENDBRANCH  28  29
ENDBRANCH  27  28
ENDBRANCH  26  27
ENDBRANCH   3  26
TORSDOF 16
ENDMDL
