MODEL 1
REMARK VINA RESULT:     -10.3      0.000      0.000
REMARK SMILES C[C@@H](CO)CS[C@@H](C)C[C@@](C)([NH3+])C(=O)NCCCNC(=O)c1ccc(-c2c3nc(c(-c4c(F)cccc4F)c4ccc([nH]4)c(-c4c(F)cccc4F)c4nc(c(-c5c(F)cccc5F)c5ccc2[nH]5)C=C4)C=C3)cc1
REMARK SMILES IDX 10 1 11 2 9 3 7 4 8 5 6 6 5 7 2 8 1 9 3 10 4 11 12 13 13 17
REMARK SMILES IDX 14 18 15 19 16 21 17 22 18 23 19 24 20 25 21 27 22 28 23 29
REMARK SMILES IDX 75 30 24 31 74 32 25 33 26 34 27 35 68 36 28 37 73 38 67 39
REMARK SMILES IDX 69 40 29 41 72 42 66 43 65 44 30 46 56 47 39 48 55 49 40 50
REMARK SMILES IDX 43 51 54 52 70 53 41 54 42 55 53 57 71 58 44 59 31 60 32 61
REMARK SMILES IDX 37 62 33 63 34 64 36 65 38 66 35 67 57 68 58 69 63 70 59 71
REMARK SMILES IDX 60 72 62 73 64 74 61 75 45 76 46 77 51 78 47 79 48 80 50 81
REMARK SMILES IDX 52 82 49 83
REMARK H PARENT 4 12 12 14 12 15 12 16 15 20 19 26 69 45 43 56
REMARK Flexibility Score: inf
ROOT
ATOM      1  C   UNL A   1      32.976  27.984  25.735  1.00  0.00     0.172 C 
ATOM      2  C   UNL A   1      33.525  26.581  26.052  1.00  0.00     0.090 C 
ENDROOT
BRANCH   1   3
ATOM      3  C   UNL A   1      32.227  27.912  24.361  1.00  0.00     0.093 C 
BRANCH   3   4
ATOM      4  C   UNL A   1      30.689  27.788  24.253  1.00  0.00     0.050 C 
ATOM      5  C   UNL A   1      30.255  26.345  24.550  1.00  0.00     0.019 C 
BRANCH   4   6
ATOM      6  S   UNL A   1      29.833  28.402  22.745  1.00  0.00    -0.158 SA
BRANCH   6   7
ATOM      7  C   UNL A   1      29.018  29.991  23.217  1.00  0.00     0.075 C 
BRANCH   7   8
ATOM      8  C   UNL A   1      28.993  31.171  22.214  1.00  0.00     0.021 C 
ATOM      9  C   UNL A   1      28.032  30.970  21.044  1.00  0.00     0.011 C 
BRANCH   8  10
ATOM     10  C   UNL A   1      28.611  32.475  22.932  1.00  0.00     0.160 C 
BRANCH  10  11
ATOM     11  O   UNL A   1      28.041  33.419  22.034  1.00  0.00    -0.396 OA
ATOM     12  H   UNL A   1      28.232  34.317  22.346  1.00  0.00     0.210 HD
ENDBRANCH  10  11
ENDBRANCH   8  10
ENDBRANCH   7   8
ENDBRANCH   6   7
ENDBRANCH   4   6
ENDBRANCH   3   4
ENDBRANCH   1   3
BRANCH   1  13
ATOM     13  N   UNL A   1      34.110  28.918  25.479  1.00  0.00    -0.345 N 
ATOM     14  H   UNL A   1      33.831  29.867  25.727  1.00  0.00     0.345 HD
ATOM     15  H   UNL A   1      34.363  28.886  24.491  1.00  0.00     0.345 HD
ATOM     16  H   UNL A   1      34.912  28.642  26.045  1.00  0.00     0.345 HD
ENDBRANCH   1  13
BRANCH   1  17
ATOM     17  C   UNL A   1      32.166  28.565  26.942  1.00  0.00     0.281 C 
ATOM     18  O   UNL A   1      31.589  27.882  27.785  1.00  0.00    -0.268 OA
ATOM     19  N   UNL A   1      31.948  29.907  27.081  1.00  0.00    -0.351 N 
ATOM     20  H   UNL A   1      32.130  30.282  27.972  1.00  0.00     0.163 HD
BRANCH  19  21
ATOM     21  C   UNL A   1      31.483  30.848  26.079  1.00  0.00     0.118 C 
BRANCH  21  22
ATOM     22  C   UNL A   1      31.308  32.250  26.669  1.00  0.00     0.042 C 
BRANCH  22  23
ATOM     23  C   UNL A   1      32.570  32.832  27.306  1.00  0.00     0.118 C 
BRANCH  23  24
ATOM     24  N   UNL A   1      32.437  34.247  27.627  1.00  0.00    -0.352 N 
ATOM     25  C   UNL A   1      33.071  35.006  28.575  1.00  0.00     0.251 C 
ATOM     26  H   UNL A   1      31.787  34.738  27.074  1.00  0.00     0.163 HD
ATOM     27  O   UNL A   1      32.652  36.138  28.830  1.00  0.00    -0.269 OA
BRANCH  25  28
ATOM     28  C   UNL A   1      34.234  34.475  29.312  1.00  0.00     0.039 A 
ATOM     29  C   UNL A   1      34.033  33.884  30.561  1.00  0.00     0.014 A 
ATOM     30  C   UNL A   1      35.525  34.579  28.787  1.00  0.00     0.014 A 
ATOM     31  C   UNL A   1      35.114  33.329  31.248  1.00  0.00     0.010 A 
ATOM     32  C   UNL A   1      36.587  33.956  29.434  1.00  0.00     0.010 A 
ATOM     33  C   UNL A   1      36.394  33.322  30.671  1.00  0.00    -0.014 A 
BRANCH  33  34
ATOM     34  C   UNL A   1      37.538  32.648  31.337  1.00  0.00     0.031 A 
ATOM     35  C   UNL A   1      38.229  31.489  30.672  1.00  0.00     0.074 A 
ATOM     36  C   UNL A   1      37.909  33.036  32.574  1.00  0.00     0.049 A 
ATOM     37  N   UNL A   1      39.186  30.724  31.131  1.00  0.00    -0.248 NA
ATOM     38  C   UNL A   1      37.766  31.123  29.324  1.00  0.00     0.031 C 
ATOM     39  C   UNL A   1      37.286  34.113  33.347  1.00  0.00     0.029 A 
ATOM     40  N   UNL A   1      38.890  32.557  33.406  1.00  0.00    -0.354 N 
ATOM     41  C   UNL A   1      39.426  29.779  30.140  1.00  0.00     0.074 A 
ATOM     42  C   UNL A   1      38.483  30.037  29.075  1.00  0.00     0.031 C 
ATOM     43  C   UNL A   1      37.911  34.224  34.530  1.00  0.00     0.029 A 
ATOM     44  C   UNL A   1      38.947  33.201  34.620  1.00  0.00     0.049 A 
ATOM     45  H   UNL A   1      39.495  31.821  33.159  1.00  0.00     0.167 HD
ATOM     46  C   UNL A   1      40.361  28.801  30.113  1.00  0.00     0.037 A 
ATOM     47  C   UNL A   1      39.735  32.982  35.689  1.00  0.00     0.037 A 
ATOM     48  C   UNL A   1      41.319  28.567  31.162  1.00  0.00     0.049 A 
ATOM     49  C   UNL A   1      40.763  31.886  35.631  1.00  0.00     0.074 A 
ATOM     50  C   UNL A   1      42.351  27.645  31.195  1.00  0.00     0.029 A 
ATOM     51  N   UNL A   1      41.361  29.258  32.363  1.00  0.00    -0.354 N 
ATOM     52  N   UNL A   1      41.029  31.052  34.655  1.00  0.00    -0.248 NA
ATOM     53  C   UNL A   1      41.606  31.703  36.821  1.00  0.00     0.031 C 
ATOM     54  C   UNL A   1      42.986  27.744  32.435  1.00  0.00     0.029 A 
ATOM     55  C   UNL A   1      42.384  28.764  33.155  1.00  0.00     0.049 A 
ATOM     56  H   UNL A   1      40.753  29.990  32.615  1.00  0.00     0.167 HD
ATOM     57  C   UNL A   1      42.085  30.269  35.100  1.00  0.00     0.074 A 
ATOM     58  C   UNL A   1      42.424  30.737  36.428  1.00  0.00     0.031 C 
ATOM     59  C   UNL A   1      42.717  29.251  34.468  1.00  0.00     0.037 A 
BRANCH  46  60
ATOM     60  C   UNL A   1      40.405  27.908  28.906  1.00  0.00     0.057 A 
ATOM     61  C   UNL A   1      39.643  26.735  28.827  1.00  0.00     0.134 A 
ATOM     62  C   UNL A   1      41.168  28.260  27.786  1.00  0.00     0.134 A 
ATOM     63  F   UNL A   1      38.898  26.336  29.869  1.00  0.00    -0.206 F 
ATOM     64  C   UNL A   1      39.654  25.934  27.684  1.00  0.00     0.040 A 
ATOM     65  C   UNL A   1      41.164  27.481  26.627  1.00  0.00     0.040 A 
ATOM     66  F   UNL A   1      41.914  29.374  27.791  1.00  0.00    -0.206 F 
ATOM     67  C   UNL A   1      40.410  26.312  26.576  1.00  0.00     0.006 A 
ENDBRANCH  46  60
BRANCH  47  68
ATOM     68  C   UNL A   1      39.592  33.819  36.910  1.00  0.00     0.057 A 
ATOM     69  C   UNL A   1      38.771  33.419  37.970  1.00  0.00     0.134 A 
ATOM     70  C   UNL A   1      40.246  35.051  37.031  1.00  0.00     0.134 A 
ATOM     71  F   UNL A   1      38.103  32.258  37.906  1.00  0.00    -0.206 F 
ATOM     72  C   UNL A   1      38.579  34.225  39.093  1.00  0.00     0.040 A 
ATOM     73  C   UNL A   1      40.087  35.854  38.162  1.00  0.00     0.040 A 
ATOM     74  F   UNL A   1      41.055  35.489  36.056  1.00  0.00    -0.206 F 
ATOM     75  C   UNL A   1      39.243  35.447  39.193  1.00  0.00     0.006 A 
ENDBRANCH  47  68
BRANCH  59  76
ATOM     76  C   UNL A   1      43.867  28.603  35.184  1.00  0.00     0.057 A 
ATOM     77  C   UNL A   1      45.180  29.073  35.055  1.00  0.00     0.134 A 
ATOM     78  C   UNL A   1      43.649  27.520  36.046  1.00  0.00     0.134 A 
ATOM     79  F   UNL A   1      45.458  30.097  34.234  1.00  0.00    -0.206 F 
ATOM     80  C   UNL A   1      46.239  28.473  35.739  1.00  0.00     0.040 A 
ATOM     81  C   UNL A   1      44.695  26.932  36.759  1.00  0.00     0.040 A 
ATOM     82  F   UNL A   1      42.413  27.028  36.223  1.00  0.00    -0.206 F 
ATOM     83  C   UNL A   1      45.996  27.405  36.600  1.00  0.00     0.006 A 
ENDBRANCH  59  76
ENDBRANCH  33  34
ENDBRANCH  25  28
ENDBRANCH  23  24
ENDBRANCH  22  23
ENDBRANCH  21  22
ENDBRANCH  19  21
ENDBRANCH   1  17
TORSDOF 18
ENDMDL
MODEL 2
REMARK VINA RESULT:     -10.2      6.598     11.563
REMARK SMILES C[C@@H](CO)CS[C@@H](C)C[C@@](C)([NH3+])C(=O)NCCCNC(=O)c1ccc(-c2c3nc(c(-c4c(F)cccc4F)c4ccc([nH]4)c(-c4c(F)cccc4F)c4nc(c(-c5c(F)cccc5F)c5ccc2[nH]5)C=C4)C=C3)cc1
REMARK SMILES IDX 10 1 11 2 9 3 7 4 8 5 6 6 5 7 2 8 1 9 3 10 4 11 12 13 13 17
REMARK SMILES IDX 14 18 15 19 16 21 17 22 18 23 19 24 20 25 21 27 22 28 23 29
REMARK SMILES IDX 75 30 24 31 74 32 25 33 26 34 27 35 68 36 28 37 73 38 67 39
REMARK SMILES IDX 69 40 29 41 72 42 66 43 65 44 30 46 56 47 39 48 55 49 40 50
REMARK SMILES IDX 43 51 54 52 70 53 41 54 42 55 53 57 71 58 44 59 31 60 32 61
REMARK SMILES IDX 37 62 33 63 34 64 36 65 38 66 35 67 57 68 58 69 63 70 59 71
REMARK SMILES IDX 60 72 62 73 64 74 61 75 45 76 46 77 51 78 47 79 48 80 50 81
REMARK SMILES IDX 52 82 49 83
REMARK H PARENT 4 12 12 14 12 15 12 16 15 20 19 26 69 45 43 56
REMARK Flexibility Score: inf
ROOT
ATOM      1  C   UNL A   1      35.043  23.423  24.739  1.00  0.00     0.172 C 
ATOM      2  C   UNL A   1      34.602  24.812  24.243  1.00  0.00     0.090 C 
ENDROOT
BRANCH   1   3
ATOM      3  C   UNL A   1      33.755  22.578  25.019  1.00  0.00     0.093 C 
BRANCH   3   4
ATOM      4  C   UNL A   1      33.273  21.451  24.076  1.00  0.00     0.050 C 
ATOM      5  C   UNL A   1      32.300  22.018  23.032  1.00  0.00     0.019 C 
BRANCH   4   6
ATOM      6  S   UNL A   1      32.591  19.898  24.791  1.00  0.00    -0.158 SA
BRANCH   6   7
ATOM      7  C   UNL A   1      32.708  18.617  23.466  1.00  0.00     0.075 C 
BRANCH   7   8
ATOM      8  C   UNL A   1      33.277  17.216  23.797  1.00  0.00     0.021 C 
ATOM      9  C   UNL A   1      34.774  17.211  24.101  1.00  0.00     0.011 C 
BRANCH   8  10
ATOM     10  C   UNL A   1      32.539  16.610  25.001  1.00  0.00     0.160 C 
BRANCH  10  11
ATOM     11  O   UNL A   1      33.292  16.746  26.199  1.00  0.00    -0.396 OA
ATOM     12  H   UNL A   1      34.144  17.164  25.998  1.00  0.00     0.210 HD
ENDBRANCH  10  11
ENDBRANCH   8  10
ENDBRANCH   7   8
ENDBRANCH   6   7
ENDBRANCH   4   6
ENDBRANCH   3   4
ENDBRANCH   1   3
BRANCH   1  13
ATOM     13  N   UNL A   1      35.689  23.552  26.077  1.00  0.00    -0.345 N 
ATOM     14  H   UNL A   1      35.120  23.075  26.776  1.00  0.00     0.345 HD
ATOM     15  H   UNL A   1      35.770  24.539  26.323  1.00  0.00     0.345 HD
ATOM     16  H   UNL A   1      36.617  23.131  26.048  1.00  0.00     0.345 HD
ENDBRANCH   1  13
BRANCH   1  17
ATOM     17  C   UNL A   1      36.102  22.785  23.779  1.00  0.00     0.281 C 
ATOM     18  O   UNL A   1      36.157  22.992  22.569  1.00  0.00    -0.268 OA
ATOM     19  N   UNL A   1      36.990  21.843  24.214  1.00  0.00    -0.351 N 
ATOM     20  H   UNL A   1      37.930  21.988  23.961  1.00  0.00     0.163 HD
BRANCH  19  21
ATOM     21  C   UNL A   1      36.724  20.656  25.006  1.00  0.00     0.118 C 
BRANCH  21  22
ATOM     22  C   UNL A   1      37.909  19.688  24.978  1.00  0.00     0.042 C 
BRANCH  22  23
ATOM     23  C   UNL A   1      39.119  20.144  25.793  1.00  0.00     0.118 C 
BRANCH  23  24
ATOM     24  N   UNL A   1      40.134  19.105  25.923  1.00  0.00    -0.352 N 
ATOM     25  C   UNL A   1      41.489  19.204  26.094  1.00  0.00     0.251 C 
ATOM     26  H   UNL A   1      39.790  18.184  25.882  1.00  0.00     0.163 HD
ATOM     27  O   UNL A   1      42.195  18.201  25.959  1.00  0.00    -0.269 OA
BRANCH  25  28
ATOM     28  C   UNL A   1      42.116  20.501  26.414  1.00  0.00     0.039 A 
ATOM     29  C   UNL A   1      42.606  21.292  25.372  1.00  0.00     0.014 A 
ATOM     30  C   UNL A   1      42.245  20.929  27.737  1.00  0.00     0.014 A 
ATOM     31  C   UNL A   1      43.154  22.546  25.652  1.00  0.00     0.010 A 
ATOM     32  C   UNL A   1      42.716  22.210  28.008  1.00  0.00     0.010 A 
ATOM     33  C   UNL A   1      43.175  23.034  26.968  1.00  0.00    -0.014 A 
BRANCH  33  34
ATOM     34  C   UNL A   1      43.659  24.404  27.276  1.00  0.00     0.031 A 
ATOM     35  C   UNL A   1      42.689  25.478  27.688  1.00  0.00     0.074 A 
ATOM     36  C   UNL A   1      44.965  24.698  27.116  1.00  0.00     0.049 A 
ATOM     37  N   UNL A   1      42.911  26.748  27.915  1.00  0.00    -0.248 NA
ATOM     38  C   UNL A   1      41.281  25.079  27.838  1.00  0.00     0.031 C 
ATOM     39  C   UNL A   1      45.998  23.758  26.673  1.00  0.00     0.029 A 
ATOM     40  N   UNL A   1      45.646  25.878  27.292  1.00  0.00    -0.354 N 
ATOM     41  C   UNL A   1      41.672  27.301  28.216  1.00  0.00     0.074 A 
ATOM     42  C   UNL A   1      40.695  26.240  28.096  1.00  0.00     0.031 C 
ATOM     43  C   UNL A   1      47.180  24.392  26.630  1.00  0.00     0.029 A 
ATOM     44  C   UNL A   1      46.986  25.791  26.997  1.00  0.00     0.049 A 
ATOM     45  H   UNL A   1      45.215  26.708  27.599  1.00  0.00     0.167 HD
ATOM     46  C   UNL A   1      41.378  28.571  28.579  1.00  0.00     0.037 A 
ATOM     47  C   UNL A   1      47.946  26.734  27.008  1.00  0.00     0.037 A 
ATOM     48  C   UNL A   1      42.357  29.617  28.727  1.00  0.00     0.049 A 
ATOM     49  C   UNL A   1      47.590  28.138  27.413  1.00  0.00     0.074 A 
ATOM     50  C   UNL A   1      42.167  30.918  29.158  1.00  0.00     0.029 A 
ATOM     51  N   UNL A   1      43.708  29.482  28.444  1.00  0.00    -0.354 N 
ATOM     52  N   UNL A   1      46.427  28.627  27.770  1.00  0.00    -0.248 NA
ATOM     53  C   UNL A   1      48.682  29.123  27.423  1.00  0.00     0.031 C 
ATOM     54  C   UNL A   1      43.393  31.585  29.090  1.00  0.00     0.029 A 
ATOM     55  C   UNL A   1      44.358  30.684  28.668  1.00  0.00     0.049 A 
ATOM     56  H   UNL A   1      44.140  28.655  28.132  1.00  0.00     0.167 HD
ATOM     57  C   UNL A   1      46.652  29.962  28.075  1.00  0.00     0.074 A 
ATOM     58  C   UNL A   1      48.066  30.205  27.877  1.00  0.00     0.031 C 
ATOM     59  C   UNL A   1      45.768  30.906  28.479  1.00  0.00     0.037 A 
BRANCH  46  60
ATOM     60  C   UNL A   1      39.941  28.907  28.852  1.00  0.00     0.057 A 
ATOM     61  C   UNL A   1      39.051  29.238  27.821  1.00  0.00     0.134 A 
ATOM     62  C   UNL A   1      39.426  28.837  30.152  1.00  0.00     0.134 A 
ATOM     63  F   UNL A   1      39.482  29.332  26.554  1.00  0.00    -0.206 F 
ATOM     64  C   UNL A   1      37.705  29.505  28.077  1.00  0.00     0.040 A 
ATOM     65  C   UNL A   1      38.076  29.074  30.416  1.00  0.00     0.040 A 
ATOM     66  F   UNL A   1      40.221  28.518  31.184  1.00  0.00    -0.206 F 
ATOM     67  C   UNL A   1      37.212  29.414  29.377  1.00  0.00     0.006 A 
ENDBRANCH  46  60
BRANCH  47  68
ATOM     68  C   UNL A   1      49.341  26.389  26.630  1.00  0.00     0.057 A 
ATOM     69  C   UNL A   1      50.248  25.896  27.576  1.00  0.00     0.134 A 
ATOM     70  C   UNL A   1      49.811  26.573  25.324  1.00  0.00     0.134 A 
ATOM     71  F   UNL A   1      49.863  25.714  28.848  1.00  0.00    -0.206 F 
ATOM     72  C   UNL A   1      51.577  25.628  27.247  1.00  0.00     0.040 A 
ATOM     73  C   UNL A   1      51.131  26.281  24.974  1.00  0.00     0.040 A 
ATOM     74  F   UNL A   1      48.993  27.034  24.367  1.00  0.00    -0.206 F 
ATOM     75  C   UNL A   1      52.021  25.817  25.940  1.00  0.00     0.006 A 
ENDBRANCH  47  68
BRANCH  59  76
ATOM     76  C   UNL A   1      46.308  32.274  28.777  1.00  0.00     0.057 A 
ATOM     77  C   UNL A   1      46.352  33.281  27.804  1.00  0.00     0.134 A 
ATOM     78  C   UNL A   1      46.752  32.599  30.066  1.00  0.00     0.134 A 
ATOM     79  F   UNL A   1      45.955  33.031  26.548  1.00  0.00    -0.206 F 
ATOM     80  C   UNL A   1      46.840  34.556  28.098  1.00  0.00     0.040 A 
ATOM     81  C   UNL A   1      47.213  33.878  30.378  1.00  0.00     0.040 A 
ATOM     82  F   UNL A   1      46.727  31.683  31.046  1.00  0.00    -0.206 F 
ATOM     83  C   UNL A   1      47.265  34.859  29.390  1.00  0.00     0.006 A 
ENDBRANCH  59  76
ENDBRANCH  33  34
ENDBRANCH  25  28
ENDBRANCH  23  24
ENDBRANCH  22  23
ENDBRANCH  21  22
ENDBRANCH  19  21
ENDBRANCH   1  17
TORSDOF 18
ENDMDL
MODEL 3
REMARK VINA RESULT:     -10.2      5.942     10.347
REMARK SMILES C[C@@H](CO)CS[C@@H](C)C[C@@](C)([NH3+])C(=O)NCCCNC(=O)c1ccc(-c2c3nc(c(-c4c(F)cccc4F)c4ccc([nH]4)c(-c4c(F)cccc4F)c4nc(c(-c5c(F)cccc5F)c5ccc2[nH]5)C=C4)C=C3)cc1
REMARK SMILES IDX 10 1 11 2 9 3 7 4 8 5 6 6 5 7 2 8 1 9 3 10 4 11 12 13 13 17
REMARK SMILES IDX 14 18 15 19 16 21 17 22 18 23 19 24 20 25 21 27 22 28 23 29
REMARK SMILES IDX 75 30 24 31 74 32 25 33 26 34 27 35 68 36 28 37 73 38 67 39
REMARK SMILES IDX 69 40 29 41 72 42 66 43 65 44 30 46 56 47 39 48 55 49 40 50
REMARK SMILES IDX 43 51 54 52 70 53 41 54 42 55 53 57 71 58 44 59 31 60 32 61
REMARK SMILES IDX 37 62 33 63 34 64 36 65 38 66 35 67 57 68 58 69 63 70 59 71
REMARK SMILES IDX 60 72 62 73 64 74 61 75 45 76 46 77 51 78 47 79 48 80 50 81
REMARK SMILES IDX 52 82 49 83
REMARK H PARENT 4 12 12 14 12 15 12 16 15 20 19 26 69 45 43 56
REMARK Flexibility Score: inf
ROOT
ATOM      1  C   UNL A   1      35.335  23.331  25.128  1.00  0.00     0.172 C 
ATOM      2  C   UNL A   1      34.967  24.800  24.849  1.00  0.00     0.090 C 
ENDROOT
BRANCH   1   3
ATOM      3  C   UNL A   1      34.008  22.538  25.375  1.00  0.00     0.093 C 
BRANCH   3   4
ATOM      4  C   UNL A   1      33.411  21.560  24.335  1.00  0.00     0.050 C 
ATOM      5  C   UNL A   1      32.768  22.346  23.183  1.00  0.00     0.019 C 
BRANCH   4   6
ATOM      6  S   UNL A   1      32.278  20.222  24.892  1.00  0.00    -0.158 SA
BRANCH   6   7
ATOM      7  C   UNL A   1      33.229  18.644  24.761  1.00  0.00     0.075 C 
BRANCH   7   8
ATOM      8  C   UNL A   1      32.830  17.592  23.697  1.00  0.00     0.021 C 
ATOM      9  C   UNL A   1      32.388  18.194  22.364  1.00  0.00     0.011 C 
BRANCH   8  10
ATOM     10  C   UNL A   1      34.001  16.634  23.427  1.00  0.00     0.160 C 
BRANCH  10  11
ATOM     11  O   UNL A   1      33.970  15.511  24.298  1.00  0.00    -0.396 OA
ATOM     12  H   UNL A   1      34.253  15.782  25.185  1.00  0.00     0.210 HD
ENDBRANCH  10  11
ENDBRANCH   8  10
ENDBRANCH   7   8
ENDBRANCH   6   7
ENDBRANCH   4   6
ENDBRANCH   3   4
ENDBRANCH   1   3
BRANCH   1  13
ATOM     13  N   UNL A   1      36.060  23.236  26.428  1.00  0.00    -0.345 N 
ATOM     14  H   UNL A   1      35.388  23.250  27.194  1.00  0.00     0.345 HD
ATOM     15  H   UNL A   1      36.698  24.027  26.520  1.00  0.00     0.345 HD
ATOM     16  H   UNL A   1      36.590  22.366  26.457  1.00  0.00     0.345 HD
ENDBRANCH   1  13
BRANCH   1  17
ATOM     17  C   UNL A   1      36.292  22.765  24.026  1.00  0.00     0.281 C 
ATOM     18  O   UNL A   1      36.319  23.156  22.861  1.00  0.00    -0.268 OA
ATOM     19  N   UNL A   1      37.106  21.694  24.264  1.00  0.00    -0.351 N 
ATOM     20  H   UNL A   1      38.044  21.796  23.986  1.00  0.00     0.163 HD
BRANCH  19  21
ATOM     21  C   UNL A   1      36.762  20.424  24.876  1.00  0.00     0.118 C 
BRANCH  21  22
ATOM     22  C   UNL A   1      37.984  19.509  24.990  1.00  0.00     0.042 C 
BRANCH  22  23
ATOM     23  C   UNL A   1      39.155  20.108  25.768  1.00  0.00     0.118 C 
BRANCH  23  24
ATOM     24  N   UNL A   1      40.301  19.210  25.841  1.00  0.00    -0.352 N 
ATOM     25  C   UNL A   1      41.619  19.474  26.102  1.00  0.00     0.251 C 
ATOM     26  H   UNL A   1      40.094  18.262  25.675  1.00  0.00     0.163 HD
ATOM     27  O   UNL A   1      42.467  18.600  25.898  1.00  0.00    -0.269 OA
BRANCH  25  28
ATOM     28  C   UNL A   1      42.039  20.796  26.604  1.00  0.00     0.039 A 
ATOM     29  C   UNL A   1      42.548  21.733  25.701  1.00  0.00     0.014 A 
ATOM     30  C   UNL A   1      41.957  21.109  27.963  1.00  0.00     0.014 A 
ATOM     31  C   UNL A   1      42.900  23.008  26.148  1.00  0.00     0.010 A 
ATOM     32  C   UNL A   1      42.232  22.403  28.394  1.00  0.00     0.010 A 
ATOM     33  C   UNL A   1      42.705  23.367  27.491  1.00  0.00    -0.014 A 
BRANCH  33  34
ATOM     34  C   UNL A   1      42.977  24.748  27.968  1.00  0.00     0.031 A 
ATOM     35  C   UNL A   1      44.374  25.159  28.349  1.00  0.00     0.074 A 
ATOM     36  C   UNL A   1      41.953  25.610  28.126  1.00  0.00     0.049 A 
ATOM     37  N   UNL A   1      44.792  26.287  28.863  1.00  0.00    -0.248 NA
ATOM     38  C   UNL A   1      45.437  24.161  28.151  1.00  0.00     0.031 C 
ATOM     39  C   UNL A   1      40.546  25.316  27.841  1.00  0.00     0.029 A 
ATOM     40  N   UNL A   1      41.934  26.905  28.581  1.00  0.00    -0.354 N 
ATOM     41  C   UNL A   1      46.157  26.130  29.066  1.00  0.00     0.074 A 
ATOM     42  C   UNL A   1      46.491  24.781  28.665  1.00  0.00     0.031 C 
ATOM     43  C   UNL A   1      39.807  26.404  28.109  1.00  0.00     0.029 A 
ATOM     44  C   UNL A   1      40.675  27.456  28.627  1.00  0.00     0.049 A 
ATOM     45  H   UNL A   1      42.745  27.394  28.849  1.00  0.00     0.167 HD
ATOM     46  C   UNL A   1      47.054  27.033  29.525  1.00  0.00     0.037 A 
ATOM     47  C   UNL A   1      40.265  28.666  29.051  1.00  0.00     0.037 A 
ATOM     48  C   UNL A   1      46.724  28.386  29.895  1.00  0.00     0.049 A 
ATOM     49  C   UNL A   1      41.284  29.649  29.559  1.00  0.00     0.074 A 
ATOM     50  C   UNL A   1      47.575  29.397  30.304  1.00  0.00     0.029 A 
ATOM     51  N   UNL A   1      45.442  28.913  29.902  1.00  0.00    -0.354 N 
ATOM     52  N   UNL A   1      42.583  29.510  29.671  1.00  0.00    -0.248 NA
ATOM     53  C   UNL A   1      40.782  30.960  29.994  1.00  0.00     0.031 C 
ATOM     54  C   UNL A   1      46.803  30.522  30.607  1.00  0.00     0.029 A 
ATOM     55  C   UNL A   1      45.476  30.228  30.334  1.00  0.00     0.049 A 
ATOM     56  H   UNL A   1      44.629  28.424  29.639  1.00  0.00     0.167 HD
ATOM     57  C   UNL A   1      43.054  30.721  30.159  1.00  0.00     0.074 A 
ATOM     58  C   UNL A   1      41.905  31.590  30.306  1.00  0.00     0.031 C 
ATOM     59  C   UNL A   1      44.324  31.083  30.462  1.00  0.00     0.037 A 
BRANCH  46  60
ATOM     60  C   UNL A   1      48.486  26.598  29.649  1.00  0.00     0.057 A 
ATOM     61  C   UNL A   1      49.416  26.818  28.625  1.00  0.00     0.134 A 
ATOM     62  C   UNL A   1      48.953  26.011  30.831  1.00  0.00     0.134 A 
ATOM     63  F   UNL A   1      49.031  27.368  27.463  1.00  0.00    -0.206 F 
ATOM     64  C   UNL A   1      50.756  26.452  28.765  1.00  0.00     0.040 A 
ATOM     65  C   UNL A   1      50.296  25.666  30.994  1.00  0.00     0.040 A 
ATOM     66  F   UNL A   1      48.117  25.779  31.854  1.00  0.00    -0.206 F 
ATOM     67  C   UNL A   1      51.201  25.883  29.957  1.00  0.00     0.006 A 
ENDBRANCH  46  60
BRANCH  47  68
ATOM     68  C   UNL A   1      38.824  29.025  29.012  1.00  0.00     0.057 A 
ATOM     69  C   UNL A   1      38.231  29.518  27.843  1.00  0.00     0.134 A 
ATOM     70  C   UNL A   1      38.013  28.918  30.149  1.00  0.00     0.134 A 
ATOM     71  F   UNL A   1      38.959  29.661  26.727  1.00  0.00    -0.206 F 
ATOM     72  C   UNL A   1      36.894  29.918  27.812  1.00  0.00     0.040 A 
ATOM     73  C   UNL A   1      36.667  29.287  30.124  1.00  0.00     0.040 A 
ATOM     74  F   UNL A   1      38.516  28.445  31.299  1.00  0.00    -0.206 F 
ATOM     75  C   UNL A   1      36.106  29.799  28.956  1.00  0.00     0.006 A 
ENDBRANCH  47  68
BRANCH  59  76
ATOM     76  C   UNL A   1      44.546  32.489  30.940  1.00  0.00     0.057 A 
ATOM     77  C   UNL A   1      44.555  32.815  32.302  1.00  0.00     0.134 A 
ATOM     78  C   UNL A   1      44.794  33.520  30.025  1.00  0.00     0.134 A 
ATOM     79  F   UNL A   1      44.309  31.876  33.228  1.00  0.00    -0.206 F 
ATOM     80  C   UNL A   1      44.779  34.124  32.736  1.00  0.00     0.040 A 
ATOM     81  C   UNL A   1      45.050  34.825  30.448  1.00  0.00     0.040 A 
ATOM     82  F   UNL A   1      44.810  33.273  28.707  1.00  0.00    -0.206 F 
ATOM     83  C   UNL A   1      45.035  35.131  31.807  1.00  0.00     0.006 A 
ENDBRANCH  59  76
ENDBRANCH  33  34
ENDBRANCH  25  28
ENDBRANCH  23  24
ENDBRANCH  22  23
ENDBRANCH  21  22
ENDBRANCH  19  21
ENDBRANCH   1  17
TORSDOF 18
ENDMDL
