MODEL 1
REMARK VINA RESULT:     -13.0      0.000      0.000
REMARK SMILES Cn1cc(-c2ccn(Cc3ccc(C(=O)NCCCNC(=O)c4ccc(-c5c6nc(c(-c7c(F)cccc7F)c7ccc([nH]7)c(-c7c(F)cccc7F)c7nc(c(-c8c(F)cccc8F)c8ccc5[nH]8)C=C7)C=C6)cc4)cc3)n2)cn1
REMARK SMILES IDX 17 1 16 2 14 3 15 4 13 6 10 7 11 8 78 9 12 10 77 11 9 12
REMARK SMILES IDX 8 13 5 14 6 15 79 16 7 17 4 18 1 19 2 20 3 21 81 22 80 23
REMARK SMILES IDX 18 24 19 25 20 26 21 27 22 29 23 30 24 31 76 32 25 33 75 34
REMARK SMILES IDX 26 35 27 36 28 37 69 38 29 39 74 40 68 41 70 42 30 43 73 44
REMARK SMILES IDX 67 45 66 46 31 48 57 49 40 50 56 51 41 52 44 53 55 54 71 55
REMARK SMILES IDX 42 56 43 57 54 59 72 60 45 61 32 62 33 63 38 64 34 65 35 66
REMARK SMILES IDX 37 67 39 68 36 69 58 70 59 71 64 72 60 73 61 74 63 75 65 76
REMARK SMILES IDX 62 77 46 78 47 79 52 80 48 81 49 82 51 83 53 84 50 85
REMARK H PARENT 16 5 20 28 70 47 44 58
REMARK Flexibility Score: inf
ROOT
ATOM      1  C   UNL A   1      36.720  20.625  24.741  1.00  0.00     0.118 C 
ENDROOT
BRANCH   1   2
ATOM      2  N   UNL A   1      35.367  20.161  25.037  1.00  0.00    -0.352 N 
ATOM      3  C   UNL A   1      34.153  20.801  24.938  1.00  0.00     0.251 C 
ATOM      4  O   UNL A   1      33.127  20.150  25.132  1.00  0.00    -0.269 OA
ATOM      5  H   UNL A   1      35.315  19.233  25.362  1.00  0.00     0.163 HD
BRANCH   3   6
ATOM      6  C   UNL A   1      34.043  22.235  24.551  1.00  0.00     0.039 A 
ATOM      7  C   UNL A   1      33.656  24.966  23.962  1.00  0.00    -0.026 A 
ATOM      8  C   UNL A   1      34.085  24.569  25.236  1.00  0.00     0.006 A 
ATOM      9  C   UNL A   1      33.515  23.992  22.970  1.00  0.00     0.006 A 
ATOM     10  C   UNL A   1      34.277  23.211  25.528  1.00  0.00     0.014 A 
ATOM     11  C   UNL A   1      33.730  22.650  23.259  1.00  0.00     0.014 A 
BRANCH   7  12
ATOM     12  C   UNL A   1      33.362  26.406  23.627  1.00  0.00     0.179 C 
BRANCH  12  13
ATOM     13  N   UNL A   1      31.930  26.709  23.556  1.00  0.00    -0.268 N 
ATOM     14  C   UNL A   1      30.169  27.837  23.206  1.00  0.00     0.095 A 
ATOM     15  C   UNL A   1      29.782  26.750  24.016  1.00  0.00     0.050 A 
ATOM     16  N   UNL A   1      31.477  27.824  22.935  1.00  0.00    -0.172 NA
ATOM     17  C   UNL A   1      30.938  26.032  24.217  1.00  0.00     0.110 A 
BRANCH  14  18
ATOM     18  C   UNL A   1      29.256  28.861  22.731  1.00  0.00     0.040 A 
ATOM     19  C   UNL A   1      28.095  31.859  21.125  1.00  0.00     0.173 C 
ATOM     20  N   UNL A   1      28.332  30.622  21.830  1.00  0.00    -0.275 N 
ATOM     21  C   UNL A   1      29.526  29.977  21.974  1.00  0.00     0.118 A 
ATOM     22  N   UNL A   1      27.307  30.005  22.453  1.00  0.00    -0.181 NA
ATOM     23  C   UNL A   1      27.875  28.918  22.988  1.00  0.00     0.145 A 
ENDBRANCH  14  18
ENDBRANCH  12  13
ENDBRANCH   7  12
ENDBRANCH   3   6
ENDBRANCH   1   2
BRANCH   1  24
ATOM     24  C   UNL A   1      37.774  19.531  24.974  1.00  0.00     0.042 C 
BRANCH  24  25
ATOM     25  C   UNL A   1      39.084  20.095  25.475  1.00  0.00     0.118 C 
BRANCH  25  26
ATOM     26  N   UNL A   1      40.097  19.063  25.735  1.00  0.00    -0.352 N 
ATOM     27  C   UNL A   1      41.446  19.225  26.033  1.00  0.00     0.251 C 
ATOM     28  H   UNL A   1      39.777  18.132  25.693  1.00  0.00     0.163 HD
ATOM     29  O   UNL A   1      42.240  18.313  25.903  1.00  0.00    -0.269 OA
BRANCH  27  30
ATOM     30  C   UNL A   1      41.884  20.541  26.529  1.00  0.00     0.039 A 
ATOM     31  C   UNL A   1      42.583  21.477  25.761  1.00  0.00     0.014 A 
ATOM     32  C   UNL A   1      41.492  20.847  27.819  1.00  0.00     0.014 A 
ATOM     33  C   UNL A   1      42.847  22.723  26.328  1.00  0.00     0.010 A 
ATOM     34  C   UNL A   1      41.383  22.149  28.172  1.00  0.00     0.010 A 
ATOM     35  C   UNL A   1      42.242  23.032  27.552  1.00  0.00    -0.014 A 
BRANCH  35  36
ATOM     36  C   UNL A   1      42.431  24.271  28.282  1.00  0.00     0.031 A 
ATOM     37  C   UNL A   1      41.328  25.241  28.122  1.00  0.00     0.074 A 
ATOM     38  C   UNL A   1      43.359  24.353  29.266  1.00  0.00     0.049 A 
ATOM     39  N   UNL A   1      41.363  26.385  27.528  1.00  0.00    -0.248 NA
ATOM     40  C   UNL A   1      39.974  24.816  28.520  1.00  0.00     0.031 C 
ATOM     41  C   UNL A   1      44.271  23.313  29.777  1.00  0.00     0.029 A 
ATOM     42  N   UNL A   1      43.599  25.388  30.112  1.00  0.00    -0.354 N 
ATOM     43  C   UNL A   1      40.087  26.923  27.665  1.00  0.00     0.074 A 
ATOM     44  C   UNL A   1      39.240  25.835  28.069  1.00  0.00     0.031 C 
ATOM     45  C   UNL A   1      44.784  23.697  30.969  1.00  0.00     0.029 A 
ATOM     46  C   UNL A   1      44.377  25.063  31.223  1.00  0.00     0.049 A 
ATOM     47  H   UNL A   1      43.250  26.295  29.954  1.00  0.00     0.167 HD
ATOM     48  C   UNL A   1      39.892  28.271  27.680  1.00  0.00     0.037 A 
ATOM     49  C   UNL A   1      44.604  25.879  32.284  1.00  0.00     0.037 A 
ATOM     50  C   UNL A   1      41.077  28.958  27.220  1.00  0.00     0.049 A 
ATOM     51  C   UNL A   1      44.284  27.262  31.834  1.00  0.00     0.074 A 
ATOM     52  C   UNL A   1      41.795  28.964  26.040  1.00  0.00     0.029 A 
ATOM     53  N   UNL A   1      41.929  29.466  28.175  1.00  0.00    -0.354 N 
ATOM     54  N   UNL A   1      44.967  27.894  30.915  1.00  0.00    -0.248 NA
ATOM     55  C   UNL A   1      42.911  27.715  32.013  1.00  0.00     0.031 C 
ATOM     56  C   UNL A   1      43.162  28.982  26.445  1.00  0.00     0.029 A 
ATOM     57  C   UNL A   1      43.201  29.078  27.837  1.00  0.00     0.049 A 
ATOM     58  H   UNL A   1      41.672  30.007  28.956  1.00  0.00     0.167 HD
ATOM     59  C   UNL A   1      44.011  28.521  30.125  1.00  0.00     0.074 A 
ATOM     60  C   UNL A   1      42.762  28.410  30.880  1.00  0.00     0.031 C 
ATOM     61  C   UNL A   1      44.240  28.797  28.805  1.00  0.00     0.037 A 
BRANCH  48  62
ATOM     62  C   UNL A   1      38.806  28.987  28.450  1.00  0.00     0.057 A 
ATOM     63  C   UNL A   1      38.682  28.736  29.829  1.00  0.00     0.134 A 
ATOM     64  C   UNL A   1      37.719  29.677  27.875  1.00  0.00     0.134 A 
ATOM     65  F   UNL A   1      39.653  28.103  30.506  1.00  0.00    -0.206 F 
ATOM     66  C   UNL A   1      37.525  29.048  30.553  1.00  0.00     0.040 A 
ATOM     67  C   UNL A   1      36.580  30.039  28.600  1.00  0.00     0.040 A 
ATOM     68  F   UNL A   1      37.645  29.960  26.571  1.00  0.00    -0.206 F 
ATOM     69  C   UNL A   1      36.462  29.690  29.934  1.00  0.00     0.006 A 
ENDBRANCH  48  62
BRANCH  49  70
ATOM     70  C   UNL A   1      44.710  25.499  33.714  1.00  0.00     0.057 A 
ATOM     71  C   UNL A   1      43.574  25.275  34.504  1.00  0.00     0.134 A 
ATOM     72  C   UNL A   1      45.934  25.084  34.272  1.00  0.00     0.134 A 
ATOM     73  F   UNL A   1      42.354  25.591  34.044  1.00  0.00    -0.206 F 
ATOM     74  C   UNL A   1      43.648  24.663  35.765  1.00  0.00     0.040 A 
ATOM     75  C   UNL A   1      46.024  24.477  35.529  1.00  0.00     0.040 A 
ATOM     76  F   UNL A   1      47.077  25.175  33.574  1.00  0.00    -0.206 F 
ATOM     77  C   UNL A   1      44.876  24.252  36.277  1.00  0.00     0.006 A 
ENDBRANCH  49  70
BRANCH  61  78
ATOM     78  C   UNL A   1      45.625  28.564  28.252  1.00  0.00     0.057 A 
ATOM     79  C   UNL A   1      46.032  27.380  27.617  1.00  0.00     0.134 A 
ATOM     80  C   UNL A   1      46.513  29.642  28.189  1.00  0.00     0.134 A 
ATOM     81  F   UNL A   1      45.218  26.324  27.532  1.00  0.00    -0.206 F 
ATOM     82  C   UNL A   1      47.272  27.263  26.979  1.00  0.00     0.040 A 
ATOM     83  C   UNL A   1      47.742  29.551  27.529  1.00  0.00     0.040 A 
ATOM     84  F   UNL A   1      46.173  30.827  28.719  1.00  0.00    -0.206 F 
ATOM     85  C   UNL A   1      48.129  28.356  26.927  1.00  0.00     0.006 A 
ENDBRANCH  61  78
ENDBRANCH  35  36
ENDBRANCH  27  30
ENDBRANCH  25  26
ENDBRANCH  24  25
ENDBRANCH   1  24
TORSDOF 13
ENDMDL
MODEL 2
REMARK VINA RESULT:     -12.6      4.420      9.736
REMARK SMILES Cn1cc(-c2ccn(Cc3ccc(C(=O)NCCCNC(=O)c4ccc(-c5c6nc(c(-c7c(F)cccc7F)c7ccc([nH]7)c(-c7c(F)cccc7F)c7nc(c(-c8c(F)cccc8F)c8ccc5[nH]8)C=C7)C=C6)cc4)cc3)n2)cn1
REMARK SMILES IDX 17 1 16 2 14 3 15 4 13 6 10 7 11 8 78 9 12 10 77 11 9 12
REMARK SMILES IDX 8 13 5 14 6 15 79 16 7 17 4 18 1 19 2 20 3 21 81 22 80 23
REMARK SMILES IDX 18 24 19 25 20 26 21 27 22 29 23 30 24 31 76 32 25 33 75 34
REMARK SMILES IDX 26 35 27 36 28 37 69 38 29 39 74 40 68 41 70 42 30 43 73 44
REMARK SMILES IDX 67 45 66 46 31 48 57 49 40 50 56 51 41 52 44 53 55 54 71 55
REMARK SMILES IDX 42 56 43 57 54 59 72 60 45 61 32 62 33 63 38 64 34 65 35 66
REMARK SMILES IDX 37 67 39 68 36 69 58 70 59 71 64 72 60 73 61 74 63 75 65 76
REMARK SMILES IDX 62 77 46 78 47 79 52 80 48 81 49 82 51 83 53 84 50 85
REMARK H PARENT 16 5 20 28 70 47 44 58
REMARK Flexibility Score: inf
ROOT
ATOM      1  C   UNL A   1      31.545  30.425  26.055  1.00  0.00     0.118 C 
ENDROOT
BRANCH   1   2
ATOM      2  N   UNL A   1      31.170  30.117  24.678  1.00  0.00    -0.352 N 
ATOM      3  C   UNL A   1      31.118  28.918  24.004  1.00  0.00     0.251 C 
ATOM      4  O   UNL A   1      30.646  28.902  22.868  1.00  0.00    -0.269 OA
ATOM      5  H   UNL A   1      30.908  30.900  24.141  1.00  0.00     0.163 HD
BRANCH   3   6
ATOM      6  C   UNL A   1      31.564  27.641  24.625  1.00  0.00     0.039 A 
ATOM      7  C   UNL A   1      32.462  25.148  25.591  1.00  0.00    -0.026 A 
ATOM      8  C   UNL A   1      33.367  26.060  25.033  1.00  0.00     0.006 A 
ATOM      9  C   UNL A   1      31.128  25.537  25.742  1.00  0.00     0.006 A 
ATOM     10  C   UNL A   1      32.920  27.299  24.553  1.00  0.00     0.014 A 
ATOM     11  C   UNL A   1      30.695  26.776  25.286  1.00  0.00     0.014 A 
BRANCH   7  12
ATOM     12  C   UNL A   1      32.885  23.775  26.049  1.00  0.00     0.179 C 
BRANCH  12  13
ATOM     13  N   UNL A   1      32.600  22.721  25.072  1.00  0.00    -0.268 N 
ATOM     14  C   UNL A   1      32.567  20.778  24.222  1.00  0.00     0.095 A 
ATOM     15  C   UNL A   1      32.293  21.671  23.167  1.00  0.00     0.050 A 
ATOM     16  N   UNL A   1      32.767  21.412  25.380  1.00  0.00    -0.172 NA
ATOM     17  C   UNL A   1      32.310  22.918  23.747  1.00  0.00     0.110 A 
BRANCH  14  18
ATOM     18  C   UNL A   1      32.636  19.336  24.068  1.00  0.00     0.040 A 
ATOM     19  C   UNL A   1      33.012  15.869  24.935  1.00  0.00     0.173 C 
ATOM     20  N   UNL A   1      32.835  17.182  24.362  1.00  0.00    -0.275 N 
ATOM     21  C   UNL A   1      32.813  18.371  25.032  1.00  0.00     0.118 A 
ATOM     22  N   UNL A   1      32.695  17.311  23.028  1.00  0.00    -0.181 NA
ATOM     23  C   UNL A   1      32.555  18.632  22.855  1.00  0.00     0.145 A 
ENDBRANCH  14  18
ENDBRANCH  12  13
ENDBRANCH   7  12
ENDBRANCH   3   6
ENDBRANCH   1   2
BRANCH   1  24
ATOM     24  C   UNL A   1      31.348  31.911  26.394  1.00  0.00     0.042 C 
BRANCH  24  25
ATOM     25  C   UNL A   1      32.464  32.454  27.257  1.00  0.00     0.118 C 
BRANCH  25  26
ATOM     26  N   UNL A   1      32.315  33.884  27.563  1.00  0.00    -0.352 N 
ATOM     27  C   UNL A   1      32.989  34.644  28.513  1.00  0.00     0.251 C 
ATOM     28  H   UNL A   1      31.647  34.368  27.023  1.00  0.00     0.163 HD
ATOM     29  O   UNL A   1      32.557  35.715  28.895  1.00  0.00    -0.269 OA
BRANCH  27  30
ATOM     30  C   UNL A   1      34.261  34.115  29.034  1.00  0.00     0.039 A 
ATOM     31  C   UNL A   1      34.415  33.549  30.304  1.00  0.00     0.014 A 
ATOM     32  C   UNL A   1      35.320  34.140  28.147  1.00  0.00     0.014 A 
ATOM     33  C   UNL A   1      35.653  32.998  30.630  1.00  0.00     0.010 A 
ATOM     34  C   UNL A   1      36.330  33.255  28.317  1.00  0.00     0.010 A 
ATOM     35  C   UNL A   1      36.608  32.874  29.613  1.00  0.00    -0.014 A 
BRANCH  35  36
ATOM     36  C   UNL A   1      37.946  32.345  29.792  1.00  0.00     0.031 A 
ATOM     37  C   UNL A   1      38.114  30.955  29.319  1.00  0.00     0.074 A 
ATOM     38  C   UNL A   1      38.985  33.177  30.044  1.00  0.00     0.049 A 
ATOM     39  N   UNL A   1      38.343  29.903  30.028  1.00  0.00    -0.248 NA
ATOM     40  C   UNL A   1      37.822  30.668  27.904  1.00  0.00     0.031 C 
ATOM     41  C   UNL A   1      38.996  34.647  30.161  1.00  0.00     0.029 A 
ATOM     42  N   UNL A   1      40.305  32.872  30.136  1.00  0.00    -0.354 N 
ATOM     43  C   UNL A   1      38.440  28.849  29.125  1.00  0.00     0.074 A 
ATOM     44  C   UNL A   1      37.890  29.336  27.889  1.00  0.00     0.031 C 
ATOM     45  C   UNL A   1      40.266  35.105  30.076  1.00  0.00     0.029 A 
ATOM     46  C   UNL A   1      41.163  33.969  30.071  1.00  0.00     0.049 A 
ATOM     47  H   UNL A   1      40.630  31.948  30.239  1.00  0.00     0.167 HD
ATOM     48  C   UNL A   1      39.197  27.752  29.404  1.00  0.00     0.037 A 
ATOM     49  C   UNL A   1      42.515  33.900  29.969  1.00  0.00     0.037 A 
ATOM     50  C   UNL A   1      39.553  27.728  30.805  1.00  0.00     0.049 A 
ATOM     51  C   UNL A   1      42.905  32.529  30.402  1.00  0.00     0.074 A 
ATOM     52  C   UNL A   1      38.837  27.671  31.984  1.00  0.00     0.029 A 
ATOM     53  N   UNL A   1      40.802  28.193  31.151  1.00  0.00    -0.354 N 
ATOM     54  N   UNL A   1      42.749  32.090  31.624  1.00  0.00    -0.248 NA
ATOM     55  C   UNL A   1      42.958  31.500  29.372  1.00  0.00     0.031 C 
ATOM     56  C   UNL A   1      39.507  28.572  32.863  1.00  0.00     0.029 A 
ATOM     57  C   UNL A   1      40.639  29.056  32.206  1.00  0.00     0.049 A 
ATOM     58  H   UNL A   1      41.654  27.949  30.722  1.00  0.00     0.167 HD
ATOM     59  C   UNL A   1      42.270  30.794  31.481  1.00  0.00     0.074 A 
ATOM     60  C   UNL A   1      42.463  30.471  30.067  1.00  0.00     0.031 C 
ATOM     61  C   UNL A   1      41.480  30.212  32.435  1.00  0.00     0.037 A 
BRANCH  48  62
ATOM     62  C   UNL A   1      39.931  26.915  28.382  1.00  0.00     0.057 A 
ATOM     63  C   UNL A   1      40.813  27.559  27.494  1.00  0.00     0.134 A 
ATOM     64  C   UNL A   1      39.616  25.584  28.041  1.00  0.00     0.134 A 
ATOM     65  F   UNL A   1      41.210  28.822  27.710  1.00  0.00    -0.206 F 
ATOM     66  C   UNL A   1      41.257  26.965  26.307  1.00  0.00     0.040 A 
ATOM     67  C   UNL A   1      40.095  24.963  26.884  1.00  0.00     0.040 A 
ATOM     68  F   UNL A   1      38.760  24.836  28.744  1.00  0.00    -0.206 F 
ATOM     69  C   UNL A   1      40.885  25.665  25.991  1.00  0.00     0.006 A 
ENDBRANCH  48  62
BRANCH  49  70
ATOM     70  C   UNL A   1      43.413  34.787  29.190  1.00  0.00     0.057 A 
ATOM     71  C   UNL A   1      44.726  35.054  29.603  1.00  0.00     0.134 A 
ATOM     72  C   UNL A   1      43.094  35.179  27.876  1.00  0.00     0.134 A 
ATOM     73  F   UNL A   1      45.145  34.676  30.820  1.00  0.00    -0.206 F 
ATOM     74  C   UNL A   1      45.667  35.662  28.757  1.00  0.00     0.040 A 
ATOM     75  C   UNL A   1      44.020  35.790  27.024  1.00  0.00     0.040 A 
ATOM     76  F   UNL A   1      41.893  34.903  27.346  1.00  0.00    -0.206 F 
ATOM     77  C   UNL A   1      45.318  36.023  27.459  1.00  0.00     0.006 A 
ENDBRANCH  49  70
BRANCH  61  78
ATOM     78  C   UNL A   1      41.274  30.941  33.739  1.00  0.00     0.057 A 
ATOM     79  C   UNL A   1      40.198  31.806  33.998  1.00  0.00     0.134 A 
ATOM     80  C   UNL A   1      42.082  30.608  34.831  1.00  0.00     0.134 A 
ATOM     81  F   UNL A   1      39.309  32.108  33.048  1.00  0.00    -0.206 F 
ATOM     82  C   UNL A   1      39.957  32.338  35.270  1.00  0.00     0.040 A 
ATOM     83  C   UNL A   1      41.835  31.105  36.114  1.00  0.00     0.040 A 
ATOM     84  F   UNL A   1      43.094  29.740  34.680  1.00  0.00    -0.206 F 
ATOM     85  C   UNL A   1      40.774  31.980  36.336  1.00  0.00     0.006 A 
ENDBRANCH  61  78
ENDBRANCH  35  36
ENDBRANCH  27  30
ENDBRANCH  25  26
ENDBRANCH  24  25
ENDBRANCH   1  24
TORSDOF 13
ENDMDL
MODEL 3
REMARK VINA RESULT:     -12.4      1.596      2.202
REMARK SMILES Cn1cc(-c2ccn(Cc3ccc(C(=O)NCCCNC(=O)c4ccc(-c5c6nc(c(-c7c(F)cccc7F)c7ccc([nH]7)c(-c7c(F)cccc7F)c7nc(c(-c8c(F)cccc8F)c8ccc5[nH]8)C=C7)C=C6)cc4)cc3)n2)cn1
REMARK SMILES IDX 17 1 16 2 14 3 15 4 13 6 10 7 11 8 78 9 12 10 77 11 9 12
REMARK SMILES IDX 8 13 5 14 6 15 79 16 7 17 4 18 1 19 2 20 3 21 81 22 80 23
REMARK SMILES IDX 18 24 19 25 20 26 21 27 22 29 23 30 24 31 76 32 25 33 75 34
REMARK SMILES IDX 26 35 27 36 28 37 69 38 29 39 74 40 68 41 70 42 30 43 73 44
REMARK SMILES IDX 67 45 66 46 31 48 57 49 40 50 56 51 41 52 44 53 55 54 71 55
REMARK SMILES IDX 42 56 43 57 54 59 72 60 45 61 32 62 33 63 38 64 34 65 35 66
REMARK SMILES IDX 37 67 39 68 36 69 58 70 59 71 64 72 60 73 61 74 63 75 65 76
REMARK SMILES IDX 62 77 46 78 47 79 52 80 48 81 49 82 51 83 53 84 50 85
REMARK H PARENT 16 5 20 28 70 47 44 58
REMARK Flexibility Score: inf
ROOT
ATOM      1  C   UNL A   1      36.244  20.345  24.997  1.00  0.00     0.118 C 
ENDROOT
BRANCH   1   2
ATOM      2  N   UNL A   1      35.321  19.215  25.039  1.00  0.00    -0.352 N 
ATOM      3  C   UNL A   1      33.963  19.150  24.818  1.00  0.00     0.251 C 
ATOM      4  O   UNL A   1      33.424  18.045  24.791  1.00  0.00    -0.269 OA
ATOM      5  H   UNL A   1      35.740  18.352  25.263  1.00  0.00     0.163 HD
BRANCH   3   6
ATOM      6  C   UNL A   1      33.146  20.367  24.557  1.00  0.00     0.039 A 
ATOM      7  C   UNL A   1      31.773  22.753  23.940  1.00  0.00    -0.026 A 
ATOM      8  C   UNL A   1      32.062  21.819  22.934  1.00  0.00     0.006 A 
ATOM      9  C   UNL A   1      32.096  22.433  25.261  1.00  0.00     0.006 A 
ATOM     10  C   UNL A   1      32.745  20.634  23.242  1.00  0.00     0.014 A 
ATOM     11  C   UNL A   1      32.752  21.245  25.564  1.00  0.00     0.014 A 
BRANCH   7  12
ATOM     12  C   UNL A   1      31.111  24.074  23.643  1.00  0.00     0.179 C 
BRANCH  12  13
ATOM     13  N   UNL A   1      31.973  25.230  23.902  1.00  0.00    -0.268 N 
ATOM     14  C   UNL A   1      32.522  27.173  24.552  1.00  0.00     0.095 A 
ATOM     15  C   UNL A   1      33.551  26.743  23.692  1.00  0.00     0.050 A 
ATOM     16  N   UNL A   1      31.552  26.262  24.673  1.00  0.00    -0.172 NA
ATOM     17  C   UNL A   1      33.176  25.480  23.296  1.00  0.00     0.110 A 
BRANCH  14  18
ATOM     18  C   UNL A   1      32.507  28.461  25.221  1.00  0.00     0.040 A 
ATOM     19  C   UNL A   1      33.462  31.112  27.451  1.00  0.00     0.173 C 
ATOM     20  N   UNL A   1      32.901  30.194  26.489  1.00  0.00    -0.275 N 
ATOM     21  C   UNL A   1      33.376  28.957  26.164  1.00  0.00     0.118 A 
ATOM     22  N   UNL A   1      31.775  30.531  25.827  1.00  0.00    -0.181 NA
ATOM     23  C   UNL A   1      31.548  29.472  25.039  1.00  0.00     0.145 A 
ENDBRANCH  14  18
ENDBRANCH  12  13
ENDBRANCH   7  12
ENDBRANCH   3   6
ENDBRANCH   1   2
BRANCH   1  24
ATOM     24  C   UNL A   1      37.663  19.922  24.585  1.00  0.00     0.042 C 
BRANCH  24  25
ATOM     25  C   UNL A   1      38.682  20.208  25.664  1.00  0.00     0.118 C 
BRANCH  25  26
ATOM     26  N   UNL A   1      39.713  19.167  25.778  1.00  0.00    -0.352 N 
ATOM     27  C   UNL A   1      41.085  19.317  25.943  1.00  0.00     0.251 C 
ATOM     28  H   UNL A   1      39.387  18.238  25.730  1.00  0.00     0.163 HD
ATOM     29  O   UNL A   1      41.859  18.412  25.696  1.00  0.00    -0.269 OA
BRANCH  27  30
ATOM     30  C   UNL A   1      41.576  20.612  26.446  1.00  0.00     0.039 A 
ATOM     31  C   UNL A   1      42.272  21.543  25.669  1.00  0.00     0.014 A 
ATOM     32  C   UNL A   1      41.238  20.905  27.754  1.00  0.00     0.014 A 
ATOM     33  C   UNL A   1      42.590  22.771  26.247  1.00  0.00     0.010 A 
ATOM     34  C   UNL A   1      41.177  22.203  28.132  1.00  0.00     0.010 A 
ATOM     35  C   UNL A   1      42.037  23.075  27.498  1.00  0.00    -0.014 A 
BRANCH  35  36
ATOM     36  C   UNL A   1      42.286  24.294  28.241  1.00  0.00     0.031 A 
ATOM     37  C   UNL A   1      41.185  25.278  28.173  1.00  0.00     0.074 A 
ATOM     38  C   UNL A   1      43.275  24.345  29.165  1.00  0.00     0.049 A 
ATOM     39  N   UNL A   1      41.194  26.435  27.603  1.00  0.00    -0.248 NA
ATOM     40  C   UNL A   1      39.855  24.857  28.646  1.00  0.00     0.031 C 
ATOM     41  C   UNL A   1      44.206  23.286  29.595  1.00  0.00     0.029 A 
ATOM     42  N   UNL A   1      43.579  25.358  30.017  1.00  0.00    -0.354 N 
ATOM     43  C   UNL A   1      39.936  26.982  27.833  1.00  0.00     0.074 A 
ATOM     44  C   UNL A   1      39.104  25.893  28.266  1.00  0.00     0.031 C 
ATOM     45  C   UNL A   1      44.797  23.638  30.760  1.00  0.00     0.029 A 
ATOM     46  C   UNL A   1      44.422  25.002  31.069  1.00  0.00     0.049 A 
ATOM     47  H   UNL A   1      43.231  26.272  29.902  1.00  0.00     0.167 HD
ATOM     48  C   UNL A   1      39.757  28.331  27.890  1.00  0.00     0.037 A 
ATOM     49  C   UNL A   1      44.724  25.790  32.131  1.00  0.00     0.037 A 
ATOM     50  C   UNL A   1      40.918  29.017  27.371  1.00  0.00     0.049 A 
ATOM     51  C   UNL A   1      44.391  27.187  31.734  1.00  0.00     0.074 A 
ATOM     52  C   UNL A   1      41.560  29.043  26.148  1.00  0.00     0.029 A 
ATOM     53  N   UNL A   1      41.834  29.495  28.281  1.00  0.00    -0.354 N 
ATOM     54  N   UNL A   1      45.022  27.833  30.787  1.00  0.00    -0.248 NA
ATOM     55  C   UNL A   1      43.038  27.648  32.009  1.00  0.00     0.031 C 
ATOM     56  C   UNL A   1      42.950  29.039  26.465  1.00  0.00     0.029 A 
ATOM     57  C   UNL A   1      43.078  29.103  27.854  1.00  0.00     0.049 A 
ATOM     58  H   UNL A   1      41.633  30.021  29.088  1.00  0.00     0.167 HD
ATOM     59  C   UNL A   1      44.025  28.487  30.073  1.00  0.00     0.074 A 
ATOM     60  C   UNL A   1      42.825  28.370  30.904  1.00  0.00     0.031 C 
ATOM     61  C   UNL A   1      44.172  28.790  28.748  1.00  0.00     0.037 A 
BRANCH  48  62
ATOM     62  C   UNL A   1      38.729  29.039  28.742  1.00  0.00     0.057 A 
ATOM     63  C   UNL A   1      38.729  28.804  30.130  1.00  0.00     0.134 A 
ATOM     64  C   UNL A   1      37.586  29.705  28.256  1.00  0.00     0.134 A 
ATOM     65  F   UNL A   1      39.765  28.194  30.727  1.00  0.00    -0.206 F 
ATOM     66  C   UNL A   1      37.634  29.106  30.948  1.00  0.00     0.040 A 
ATOM     67  C   UNL A   1      36.508  30.058  29.073  1.00  0.00     0.040 A 
ATOM     68  F   UNL A   1      37.395  29.971  26.960  1.00  0.00    -0.206 F 
ATOM     69  C   UNL A   1      36.510  29.724  30.416  1.00  0.00     0.006 A 
ENDBRANCH  48  62
BRANCH  49  70
ATOM     70  C   UNL A   1      44.917  25.377  33.544  1.00  0.00     0.057 A 
ATOM     71  C   UNL A   1      45.836  26.024  34.382  1.00  0.00     0.134 A 
ATOM     72  C   UNL A   1      44.008  24.513  34.182  1.00  0.00     0.134 A 
ATOM     73  F   UNL A   1      46.713  26.904  33.878  1.00  0.00    -0.206 F 
ATOM     74  C   UNL A   1      45.842  25.832  35.773  1.00  0.00     0.040 A 
ATOM     75  C   UNL A   1      44.006  24.309  35.567  1.00  0.00     0.040 A 
ATOM     76  F   UNL A   1      43.034  23.902  33.491  1.00  0.00    -0.206 F 
ATOM     77  C   UNL A   1      44.918  24.979  36.370  1.00  0.00     0.006 A 
ENDBRANCH  49  70
BRANCH  61  78
ATOM     78  C   UNL A   1      45.517  28.557  28.104  1.00  0.00     0.057 A 
ATOM     79  C   UNL A   1      45.873  27.381  27.424  1.00  0.00     0.134 A 
ATOM     80  C   UNL A   1      46.408  29.630  28.000  1.00  0.00     0.134 A 
ATOM     81  F   UNL A   1      45.047  26.332  27.375  1.00  0.00    -0.206 F 
ATOM     82  C   UNL A   1      47.069  27.266  26.706  1.00  0.00     0.040 A 
ATOM     83  C   UNL A   1      47.591  29.541  27.261  1.00  0.00     0.040 A 
ATOM     84  F   UNL A   1      46.113  30.808  28.570  1.00  0.00    -0.206 F 
ATOM     85  C   UNL A   1      47.929  28.354  26.617  1.00  0.00     0.006 A 
ENDBRANCH  61  78
ENDBRANCH  35  36
ENDBRANCH  27  30
ENDBRANCH  25  26
ENDBRANCH  24  25
ENDBRANCH   1  24
TORSDOF 13
ENDMDL
