MODEL 1
REMARK VINA RESULT:     -13.0      0.000      0.000
REMARK SMILES Cc1cc(C(=O)NCCCNC(=O)c2ccc(-c3c4nc(c(-c5c(F)cccc5F)c5ccc([nH]5)c(-c5c(F)cccc5F)c5nc(c(-c6c(F)cccc6F)c6ccc3[nH]6)C=C5)C=C4)cc2)nc(N2CCN(c3ccccc3Cl)CC2)n1
REMARK SMILES IDX 9 1 8 2 7 3 5 4 6 5 4 7 1 8 2 9 3 10 83 11 69 12 68 13 70 14
REMARK SMILES IDX 71 15 82 16 72 17 81 18 73 19 74 20 75 21 79 22 76 23 78 24
REMARK SMILES IDX 80 25 77 26 10 27 11 28 12 29 13 31 14 32 15 33 67 34 16 35
REMARK SMILES IDX 66 36 17 37 18 38 19 39 60 40 20 41 65 42 59 43 61 44 21 45
REMARK SMILES IDX 64 46 58 47 57 48 22 50 48 51 31 52 47 53 32 54 35 55 46 56
REMARK SMILES IDX 62 57 33 58 34 59 45 61 63 62 36 63 23 64 24 65 29 66 25 67
REMARK SMILES IDX 26 68 28 69 30 70 27 71 49 72 50 73 55 74 51 75 52 76 54 77
REMARK SMILES IDX 56 78 53 79 37 80 38 81 43 82 39 83 40 84 42 85 44 86 41 87
REMARK H PARENT 7 6 11 30 61 49 35 60
REMARK Flexibility Score: inf
ROOT
ATOM      1  C   UNL A   1      38.136  19.850  24.888  1.00  0.00     0.042 C 
ENDROOT
BRANCH   1   2
ATOM      2  C   UNL A   1      36.878  20.694  25.075  1.00  0.00     0.118 C 
BRANCH   2   3
ATOM      3  N   UNL A   1      36.809  21.706  24.045  1.00  0.00    -0.351 N 
ATOM      4  C   UNL A   1      35.912  22.712  23.787  1.00  0.00     0.270 C 
ATOM      5  O   UNL A   1      36.110  23.352  22.751  1.00  0.00    -0.268 OA
ATOM      6  H   UNL A   1      37.553  21.665  23.401  1.00  0.00     0.163 HD
BRANCH   4   7
ATOM      7  C   UNL A   1      34.786  23.091  24.703  1.00  0.00     0.133 A 
ATOM      8  C   UNL A   1      33.004  22.429  27.911  1.00  0.00     0.067 C 
ATOM      9  C   UNL A   1      33.443  23.039  26.613  1.00  0.00     0.044 A 
ATOM     10  C   UNL A   1      34.401  22.418  25.836  1.00  0.00     0.058 A 
ATOM     11  N   UNL A   1      32.840  24.187  26.240  1.00  0.00    -0.218 NA
ATOM     12  C   UNL A   1      33.178  24.700  25.051  1.00  0.00     0.226 A 
ATOM     13  N   UNL A   1      34.152  24.200  24.296  1.00  0.00    -0.208 NA
BRANCH  12  14
ATOM     14  N   UNL A   1      32.495  25.753  24.511  1.00  0.00    -0.337 N 
ATOM     15  C   UNL A   1      31.963  26.821  25.348  1.00  0.00     0.141 C 
ATOM     16  C   UNL A   1      31.699  25.398  23.326  1.00  0.00     0.141 C 
ATOM     17  C   UNL A   1      31.729  28.085  24.476  1.00  0.00     0.138 C 
ATOM     18  C   UNL A   1      31.425  26.642  22.464  1.00  0.00     0.138 C 
ATOM     19  N   UNL A   1      30.917  27.736  23.303  1.00  0.00    -0.367 N 
BRANCH  19  20
ATOM     20  C   UNL A   1      29.851  28.506  22.894  1.00  0.00     0.056 A 
ATOM     21  C   UNL A   1      30.084  29.718  22.229  1.00  0.00     0.027 A 
ATOM     22  C   UNL A   1      28.508  28.140  23.127  1.00  0.00     0.064 A 
ATOM     23  C   UNL A   1      29.028  30.533  21.807  1.00  0.00     0.002 A 
ATOM     24  C   UNL A   1      27.451  28.957  22.712  1.00  0.00     0.023 A 
ATOM     25  Cl  UNL A   1      28.087  26.705  24.006  1.00  0.00    -0.082 Cl
ATOM     26  C   UNL A   1      27.712  30.154  22.052  1.00  0.00     0.002 A 
ENDBRANCH  19  20
ENDBRANCH  12  14
ENDBRANCH   4   7
ENDBRANCH   2   3
ENDBRANCH   1   2
BRANCH   1  27
ATOM     27  C   UNL A   1      39.209  20.184  25.921  1.00  0.00     0.118 C 
BRANCH  27  28
ATOM     28  N   UNL A   1      40.216  19.133  26.002  1.00  0.00    -0.352 N 
ATOM     29  C   UNL A   1      41.582  19.233  26.084  1.00  0.00     0.251 C 
ATOM     30  H   UNL A   1      39.863  18.214  25.997  1.00  0.00     0.163 HD
ATOM     31  O   UNL A   1      42.284  18.252  25.872  1.00  0.00    -0.269 OA
BRANCH  29  32
ATOM     32  C   UNL A   1      42.200  20.530  26.421  1.00  0.00     0.039 A 
ATOM     33  C   UNL A   1      42.701  21.334  25.395  1.00  0.00     0.014 A 
ATOM     34  C   UNL A   1      42.292  20.943  27.752  1.00  0.00     0.014 A 
ATOM     35  C   UNL A   1      43.234  22.587  25.699  1.00  0.00     0.010 A 
ATOM     36  C   UNL A   1      42.750  22.221  28.047  1.00  0.00     0.010 A 
ATOM     37  C   UNL A   1      43.226  23.054  27.024  1.00  0.00    -0.014 A 
BRANCH  37  38
ATOM     38  C   UNL A   1      43.703  24.415  27.374  1.00  0.00     0.031 A 
ATOM     39  C   UNL A   1      42.719  25.467  27.801  1.00  0.00     0.074 A 
ATOM     40  C   UNL A   1      45.004  24.726  27.210  1.00  0.00     0.049 A 
ATOM     41  N   UNL A   1      42.912  26.743  28.012  1.00  0.00    -0.248 NA
ATOM     42  C   UNL A   1      41.325  25.030  27.985  1.00  0.00     0.031 C 
ATOM     43  C   UNL A   1      46.046  23.799  26.764  1.00  0.00     0.029 A 
ATOM     44  N   UNL A   1      45.666  25.916  27.378  1.00  0.00    -0.354 N 
ATOM     45  C   UNL A   1      41.665  27.263  28.334  1.00  0.00     0.074 A 
ATOM     46  C   UNL A   1      40.714  26.177  28.240  1.00  0.00     0.031 C 
ATOM     47  C   UNL A   1      47.218  24.452  26.707  1.00  0.00     0.029 A 
ATOM     48  C   UNL A   1      47.002  25.850  27.061  1.00  0.00     0.049 A 
ATOM     49  H   UNL A   1      45.227  26.737  27.695  1.00  0.00     0.167 HD
ATOM     50  C   UNL A   1      41.346  28.530  28.693  1.00  0.00     0.037 A 
ATOM     51  C   UNL A   1      47.940  26.816  27.036  1.00  0.00     0.037 A 
ATOM     52  C   UNL A   1      42.302  29.600  28.802  1.00  0.00     0.049 A 
ATOM     53  C   UNL A   1      47.555  28.220  27.413  1.00  0.00     0.074 A 
ATOM     54  C   UNL A   1      42.092  30.904  29.213  1.00  0.00     0.029 A 
ATOM     55  N   UNL A   1      43.649  29.489  28.491  1.00  0.00    -0.354 N 
ATOM     56  N   UNL A   1      46.385  28.687  27.776  1.00  0.00    -0.248 NA
ATOM     57  C   UNL A   1      48.620  29.232  27.378  1.00  0.00     0.031 C 
ATOM     58  C   UNL A   1      43.300  31.597  29.100  1.00  0.00     0.029 A 
ATOM     59  C   UNL A   1      44.278  30.710  28.676  1.00  0.00     0.049 A 
ATOM     60  H   UNL A   1      44.094  28.666  28.185  1.00  0.00     0.167 HD
ATOM     61  C   UNL A   1      46.580  30.035  28.046  1.00  0.00     0.074 A 
ATOM     62  C   UNL A   1      47.982  30.309  27.812  1.00  0.00     0.031 C 
ATOM     63  C   UNL A   1      45.679  30.963  28.453  1.00  0.00     0.037 A 
BRANCH  50  64
ATOM     64  C   UNL A   1      39.904  28.826  28.990  1.00  0.00     0.057 A 
ATOM     65  C   UNL A   1      39.003  29.208  27.987  1.00  0.00     0.134 A 
ATOM     66  C   UNL A   1      39.401  28.693  30.290  1.00  0.00     0.134 A 
ATOM     67  F   UNL A   1      39.422  29.365  26.720  1.00  0.00    -0.206 F 
ATOM     68  C   UNL A   1      37.663  29.475  28.270  1.00  0.00     0.040 A 
ATOM     69  C   UNL A   1      38.056  28.928  30.581  1.00  0.00     0.040 A 
ATOM     70  F   UNL A   1      40.205  28.323  31.299  1.00  0.00    -0.206 F 
ATOM     71  C   UNL A   1      37.184  29.328  29.570  1.00  0.00     0.006 A 
ENDBRANCH  50  64
BRANCH  51  72
ATOM     72  C   UNL A   1      49.336  26.488  26.650  1.00  0.00     0.057 A 
ATOM     73  C   UNL A   1      50.257  26.024  27.596  1.00  0.00     0.134 A 
ATOM     74  C   UNL A   1      49.788  26.635  25.332  1.00  0.00     0.134 A 
ATOM     75  F   UNL A   1      49.890  25.877  28.877  1.00  0.00    -0.206 F 
ATOM     76  C   UNL A   1      51.579  25.740  27.254  1.00  0.00     0.040 A 
ATOM     77  C   UNL A   1      51.100  26.329  24.969  1.00  0.00     0.040 A 
ATOM     78  F   UNL A   1      48.953  27.064  24.374  1.00  0.00    -0.206 F 
ATOM     79  C   UNL A   1      52.003  25.888  25.934  1.00  0.00     0.006 A 
ENDBRANCH  51  72
BRANCH  63  80
ATOM     80  C   UNL A   1      46.185  32.349  28.721  1.00  0.00     0.057 A 
ATOM     81  C   UNL A   1      46.650  32.740  29.982  1.00  0.00     0.134 A 
ATOM     82  C   UNL A   1      46.268  33.286  27.682  1.00  0.00     0.134 A 
ATOM     83  F   UNL A   1      46.585  31.896  31.022  1.00  0.00    -0.206 F 
ATOM     84  C   UNL A   1      47.166  34.018  30.204  1.00  0.00     0.040 A 
ATOM     85  C   UNL A   1      46.808  34.556  27.884  1.00  0.00     0.040 A 
ATOM     86  F   UNL A   1      45.847  32.972  26.447  1.00  0.00    -0.206 F 
ATOM     87  C   UNL A   1      47.256  34.926  29.150  1.00  0.00     0.006 A 
ENDBRANCH  63  80
ENDBRANCH  37  38
ENDBRANCH  29  32
ENDBRANCH  27  28
ENDBRANCH   1  27
TORSDOF 12
ENDMDL
MODEL 2
REMARK VINA RESULT:     -13.0      5.438     10.677
REMARK SMILES Cc1cc(C(=O)NCCCNC(=O)c2ccc(-c3c4nc(c(-c5c(F)cccc5F)c5ccc([nH]5)c(-c5c(F)cccc5F)c5nc(c(-c6c(F)cccc6F)c6ccc3[nH]6)C=C5)C=C4)cc2)nc(N2CCN(c3ccccc3Cl)CC2)n1
REMARK SMILES IDX 9 1 8 2 7 3 5 4 6 5 4 7 1 8 2 9 3 10 83 11 69 12 68 13 70 14
REMARK SMILES IDX 71 15 82 16 72 17 81 18 73 19 74 20 75 21 79 22 76 23 78 24
REMARK SMILES IDX 80 25 77 26 10 27 11 28 12 29 13 31 14 32 15 33 67 34 16 35
REMARK SMILES IDX 66 36 17 37 18 38 19 39 60 40 20 41 65 42 59 43 61 44 21 45
REMARK SMILES IDX 64 46 58 47 57 48 22 50 48 51 31 52 47 53 32 54 35 55 46 56
REMARK SMILES IDX 62 57 33 58 34 59 45 61 63 62 36 63 23 64 24 65 29 66 25 67
REMARK SMILES IDX 26 68 28 69 30 70 27 71 49 72 50 73 55 74 51 75 52 76 54 77
REMARK SMILES IDX 56 78 53 79 37 80 38 81 43 82 39 83 40 84 42 85 44 86 41 87
REMARK H PARENT 7 6 11 30 61 49 35 60
REMARK Flexibility Score: inf
ROOT
ATOM      1  C   UNL A   1      31.556  31.812  26.550  1.00  0.00     0.042 C 
ENDROOT
BRANCH   1   2
ATOM      2  C   UNL A   1      31.765  30.317  26.321  1.00  0.00     0.118 C 
BRANCH   2   3
ATOM      3  N   UNL A   1      32.601  30.110  25.160  1.00  0.00    -0.351 N 
ATOM      4  C   UNL A   1      32.653  29.116  24.217  1.00  0.00     0.270 C 
ATOM      5  O   UNL A   1      33.567  29.208  23.393  1.00  0.00    -0.268 OA
ATOM      6  H   UNL A   1      33.264  30.825  25.019  1.00  0.00     0.163 HD
BRANCH   4   7
ATOM      7  C   UNL A   1      31.651  28.004  24.110  1.00  0.00     0.133 A 
ATOM      8  C   UNL A   1      28.079  27.045  23.643  1.00  0.00     0.067 C 
ATOM      9  C   UNL A   1      29.570  26.993  23.796  1.00  0.00     0.044 A 
ATOM     10  C   UNL A   1      30.287  28.143  24.058  1.00  0.00     0.058 A 
ATOM     11  N   UNL A   1      30.154  25.781  23.698  1.00  0.00    -0.218 NA
ATOM     12  C   UNL A   1      31.475  25.718  23.903  1.00  0.00     0.226 A 
ATOM     13  N   UNL A   1      32.235  26.797  24.071  1.00  0.00    -0.208 NA
BRANCH  12  14
ATOM     14  N   UNL A   1      32.123  24.520  24.002  1.00  0.00    -0.337 N 
ATOM     15  C   UNL A   1      32.694  23.867  22.830  1.00  0.00     0.141 C 
ATOM     16  C   UNL A   1      31.570  23.631  25.036  1.00  0.00     0.141 C 
ATOM     17  C   UNL A   1      33.781  22.856  23.289  1.00  0.00     0.138 C 
ATOM     18  C   UNL A   1      32.618  22.597  25.480  1.00  0.00     0.138 C 
ATOM     19  N   UNL A   1      33.224  21.955  24.306  1.00  0.00    -0.367 N 
BRANCH  19  20
ATOM     20  C   UNL A   1      33.426  20.593  24.268  1.00  0.00     0.056 A 
ATOM     21  C   UNL A   1      32.427  19.756  23.749  1.00  0.00     0.027 A 
ATOM     22  C   UNL A   1      34.604  19.980  24.746  1.00  0.00     0.064 A 
ATOM     23  C   UNL A   1      32.590  18.368  23.702  1.00  0.00     0.002 A 
ATOM     24  C   UNL A   1      34.766  18.591  24.707  1.00  0.00     0.023 A 
ATOM     25  Cl  UNL A   1      35.881  20.894  25.481  1.00  0.00    -0.082 Cl
ATOM     26  C   UNL A   1      33.758  17.786  24.184  1.00  0.00     0.002 A 
ENDBRANCH  19  20
ENDBRANCH  12  14
ENDBRANCH   4   7
ENDBRANCH   2   3
ENDBRANCH   1   2
BRANCH   1  27
ATOM     27  C   UNL A   1      32.751  32.458  27.247  1.00  0.00     0.118 C 
BRANCH  27  28
ATOM     28  N   UNL A   1      32.504  33.866  27.531  1.00  0.00    -0.352 N 
ATOM     29  C   UNL A   1      33.045  34.671  28.501  1.00  0.00     0.251 C 
ATOM     30  H   UNL A   1      31.852  34.305  26.938  1.00  0.00     0.163 HD
ATOM     31  O   UNL A   1      32.526  35.749  28.765  1.00  0.00    -0.269 OA
BRANCH  29  32
ATOM     32  C   UNL A   1      34.249  34.228  29.230  1.00  0.00     0.039 A 
ATOM     33  C   UNL A   1      34.103  33.590  30.464  1.00  0.00     0.014 A 
ATOM     34  C   UNL A   1      35.520  34.455  28.698  1.00  0.00     0.014 A 
ATOM     35  C   UNL A   1      35.232  33.117  31.133  1.00  0.00     0.010 A 
ATOM     36  C   UNL A   1      36.635  33.915  29.324  1.00  0.00     0.010 A 
ATOM     37  C   UNL A   1      36.502  33.241  30.547  1.00  0.00    -0.014 A 
BRANCH  37  38
ATOM     38  C   UNL A   1      37.714  32.672  31.186  1.00  0.00     0.031 A 
ATOM     39  C   UNL A   1      38.386  31.471  30.583  1.00  0.00     0.074 A 
ATOM     40  C   UNL A   1      38.147  33.177  32.358  1.00  0.00     0.049 A 
ATOM     41  N   UNL A   1      39.363  30.744  31.058  1.00  0.00    -0.248 NA
ATOM     42  C   UNL A   1      37.867  31.008  29.285  1.00  0.00     0.031 C 
ATOM     43  C   UNL A   1      37.554  34.317  33.060  1.00  0.00     0.029 A 
ATOM     44  N   UNL A   1      39.173  32.779  33.178  1.00  0.00    -0.354 N 
ATOM     45  C   UNL A   1      39.562  29.729  30.130  1.00  0.00     0.074 A 
ATOM     46  C   UNL A   1      38.571  29.904  29.091  1.00  0.00     0.031 C 
ATOM     47  C   UNL A   1      38.235  34.534  34.197  1.00  0.00     0.029 A 
ATOM     48  C   UNL A   1      39.276  33.522  34.330  1.00  0.00     0.049 A 
ATOM     49  H   UNL A   1      39.779  32.034  32.961  1.00  0.00     0.167 HD
ATOM     50  C   UNL A   1      40.499  28.752  30.137  1.00  0.00     0.037 A 
ATOM     51  C   UNL A   1      40.102  33.385  35.385  1.00  0.00     0.037 A 
ATOM     52  C   UNL A   1      41.493  28.597  31.166  1.00  0.00     0.049 A 
ATOM     53  C   UNL A   1      41.116  32.274  35.381  1.00  0.00     0.074 A 
ATOM     54  C   UNL A   1      42.523  27.675  31.238  1.00  0.00     0.029 A 
ATOM     55  N   UNL A   1      41.576  29.381  32.307  1.00  0.00    -0.354 N 
ATOM     56  N   UNL A   1      41.336  31.359  34.468  1.00  0.00    -0.248 NA
ATOM     57  C   UNL A   1      41.998  32.177  36.552  1.00  0.00     0.031 C 
ATOM     58  C   UNL A   1      43.195  27.867  32.448  1.00  0.00     0.029 A 
ATOM     59  C   UNL A   1      42.624  28.947  33.102  1.00  0.00     0.049 A 
ATOM     60  H   UNL A   1      40.980  30.134  32.521  1.00  0.00     0.167 HD
ATOM     61  C   UNL A   1      42.401  30.602  34.937  1.00  0.00     0.074 A 
ATOM     62  C   UNL A   1      42.787  31.169  36.212  1.00  0.00     0.031 C 
ATOM     63  C   UNL A   1      43.006  29.533  34.362  1.00  0.00     0.037 A 
BRANCH  50  64
ATOM     64  C   UNL A   1      40.490  27.772  28.998  1.00  0.00     0.057 A 
ATOM     65  C   UNL A   1      39.679  26.629  29.009  1.00  0.00     0.134 A 
ATOM     66  C   UNL A   1      41.276  27.992  27.860  1.00  0.00     0.134 A 
ATOM     67  F   UNL A   1      38.908  26.352  30.073  1.00  0.00    -0.206 F 
ATOM     68  C   UNL A   1      39.671  25.728  27.944  1.00  0.00     0.040 A 
ATOM     69  C   UNL A   1      41.255  27.114  26.776  1.00  0.00     0.040 A 
ATOM     70  F   UNL A   1      42.072  29.070  27.779  1.00  0.00    -0.206 F 
ATOM     71  C   UNL A   1      40.456  25.973  26.819  1.00  0.00     0.006 A 
ENDBRANCH  50  64
BRANCH  51  72
ATOM     72  C   UNL A   1      40.012  34.328  36.528  1.00  0.00     0.057 A 
ATOM     73  C   UNL A   1      39.244  34.024  37.657  1.00  0.00     0.134 A 
ATOM     74  C   UNL A   1      40.683  35.558  36.520  1.00  0.00     0.134 A 
ATOM     75  F   UNL A   1      38.565  32.868  37.718  1.00  0.00    -0.206 F 
ATOM     76  C   UNL A   1      39.126  34.913  38.725  1.00  0.00     0.040 A 
ATOM     77  C   UNL A   1      40.597  36.446  37.593  1.00  0.00     0.040 A 
ATOM     78  F   UNL A   1      41.446  35.907  35.473  1.00  0.00    -0.206 F 
ATOM     79  C   UNL A   1      39.809  36.128  38.697  1.00  0.00     0.006 A 
ENDBRANCH  51  72
BRANCH  63  80
ATOM     80  C   UNL A   1      44.181  28.934  35.078  1.00  0.00     0.057 A 
ATOM     81  C   UNL A   1      44.032  27.923  36.035  1.00  0.00     0.134 A 
ATOM     82  C   UNL A   1      45.485  29.332  34.753  1.00  0.00     0.134 A 
ATOM     83  F   UNL A   1      42.810  27.507  36.400  1.00  0.00    -0.206 F 
ATOM     84  C   UNL A   1      45.138  27.339  36.655  1.00  0.00     0.040 A 
ATOM     85  C   UNL A   1      46.599  28.736  35.344  1.00  0.00     0.040 A 
ATOM     86  F   UNL A   1      45.697  30.289  33.838  1.00  0.00    -0.206 F 
ATOM     87  C   UNL A   1      46.426  27.738  36.302  1.00  0.00     0.006 A 
ENDBRANCH  63  80
ENDBRANCH  37  38
ENDBRANCH  29  32
ENDBRANCH  27  28
ENDBRANCH   1  27
TORSDOF 12
ENDMDL
MODEL 3
REMARK VINA RESULT:     -13.0      1.635      6.256
REMARK SMILES Cc1cc(C(=O)NCCCNC(=O)c2ccc(-c3c4nc(c(-c5c(F)cccc5F)c5ccc([nH]5)c(-c5c(F)cccc5F)c5nc(c(-c6c(F)cccc6F)c6ccc3[nH]6)C=C5)C=C4)cc2)nc(N2CCN(c3ccccc3Cl)CC2)n1
REMARK SMILES IDX 9 1 8 2 7 3 5 4 6 5 4 7 1 8 2 9 3 10 83 11 69 12 68 13 70 14
REMARK SMILES IDX 71 15 82 16 72 17 81 18 73 19 74 20 75 21 79 22 76 23 78 24
REMARK SMILES IDX 80 25 77 26 10 27 11 28 12 29 13 31 14 32 15 33 67 34 16 35
REMARK SMILES IDX 66 36 17 37 18 38 19 39 60 40 20 41 65 42 59 43 61 44 21 45
REMARK SMILES IDX 64 46 58 47 57 48 22 50 48 51 31 52 47 53 32 54 35 55 46 56
REMARK SMILES IDX 62 57 33 58 34 59 45 61 63 62 36 63 23 64 24 65 29 66 25 67
REMARK SMILES IDX 26 68 28 69 30 70 27 71 49 72 50 73 55 74 51 75 52 76 54 77
REMARK SMILES IDX 56 78 53 79 37 80 38 81 43 82 39 83 40 84 42 85 44 86 41 87
REMARK H PARENT 7 6 11 30 61 49 35 60
REMARK Flexibility Score: inf
ROOT
ATOM      1  C   UNL A   1      38.278  19.784  24.876  1.00  0.00     0.042 C 
ENDROOT
BRANCH   1   2
ATOM      2  C   UNL A   1      36.988  20.592  24.985  1.00  0.00     0.118 C 
BRANCH   2   3
ATOM      3  N   UNL A   1      36.978  21.639  23.990  1.00  0.00    -0.351 N 
ATOM      4  C   UNL A   1      36.121  22.682  23.744  1.00  0.00     0.270 C 
ATOM      5  O   UNL A   1      36.367  23.350  22.736  1.00  0.00    -0.268 OA
ATOM      6  H   UNL A   1      37.738  21.596  23.364  1.00  0.00     0.163 HD
BRANCH   4   7
ATOM      7  C   UNL A   1      34.984  23.066  24.644  1.00  0.00     0.133 A 
ATOM      8  C   UNL A   1      33.180  22.444  27.847  1.00  0.00     0.067 C 
ATOM      9  C   UNL A   1      33.625  23.036  26.543  1.00  0.00     0.044 A 
ATOM     10  C   UNL A   1      34.594  22.410  25.785  1.00  0.00     0.058 A 
ATOM     11  N   UNL A   1      33.015  24.171  26.145  1.00  0.00    -0.218 NA
ATOM     12  C   UNL A   1      33.358  24.666  24.950  1.00  0.00     0.226 A 
ATOM     13  N   UNL A   1      34.344  24.163  24.212  1.00  0.00    -0.208 NA
BRANCH  12  14
ATOM     14  N   UNL A   1      32.671  25.704  24.386  1.00  0.00    -0.337 N 
ATOM     15  C   UNL A   1      32.284  26.872  25.169  1.00  0.00     0.141 C 
ATOM     16  C   UNL A   1      31.734  25.290  23.330  1.00  0.00     0.141 C 
ATOM     17  C   UNL A   1      32.016  28.063  24.208  1.00  0.00     0.138 C 
ATOM     18  C   UNL A   1      31.426  26.464  22.387  1.00  0.00     0.138 C 
ATOM     19  N   UNL A   1      31.065  27.657  23.166  1.00  0.00    -0.367 N 
BRANCH  19  20
ATOM     20  C   UNL A   1      29.998  28.447  22.799  1.00  0.00     0.056 A 
ATOM     21  C   UNL A   1      30.226  29.651  22.117  1.00  0.00     0.027 A 
ATOM     22  C   UNL A   1      28.659  28.109  23.091  1.00  0.00     0.064 A 
ATOM     23  C   UNL A   1      29.170  30.485  21.737  1.00  0.00     0.002 A 
ATOM     24  C   UNL A   1      27.602  28.946  22.718  1.00  0.00     0.023 A 
ATOM     25  Cl  UNL A   1      28.247  26.687  23.996  1.00  0.00    -0.082 Cl
ATOM     26  C   UNL A   1      27.859  30.133  22.040  1.00  0.00     0.002 A 
ENDBRANCH  19  20
ENDBRANCH  12  14
ENDBRANCH   4   7
ENDBRANCH   2   3
ENDBRANCH   1   2
BRANCH   1  27
ATOM     27  C   UNL A   1      39.259  20.115  25.997  1.00  0.00     0.118 C 
BRANCH  27  28
ATOM     28  N   UNL A   1      40.424  19.239  25.962  1.00  0.00    -0.352 N 
ATOM     29  C   UNL A   1      41.757  19.551  26.045  1.00  0.00     0.251 C 
ATOM     30  H   UNL A   1      40.223  18.280  25.865  1.00  0.00     0.163 HD
ATOM     31  O   UNL A   1      42.603  18.724  25.728  1.00  0.00    -0.269 OA
BRANCH  29  32
ATOM     32  C   UNL A   1      42.166  20.890  26.511  1.00  0.00     0.039 A 
ATOM     33  C   UNL A   1      42.506  21.865  25.570  1.00  0.00     0.014 A 
ATOM     34  C   UNL A   1      42.222  21.176  27.877  1.00  0.00     0.014 A 
ATOM     35  C   UNL A   1      42.838  23.150  25.999  1.00  0.00     0.010 A 
ATOM     36  C   UNL A   1      42.475  22.474  28.299  1.00  0.00     0.010 A 
ATOM     37  C   UNL A   1      42.786  23.474  27.365  1.00  0.00    -0.014 A 
BRANCH  37  38
ATOM     38  C   UNL A   1      43.045  24.851  27.851  1.00  0.00     0.031 A 
ATOM     39  C   UNL A   1      44.431  25.247  28.275  1.00  0.00     0.074 A 
ATOM     40  C   UNL A   1      42.016  25.708  28.002  1.00  0.00     0.049 A 
ATOM     41  N   UNL A   1      44.836  26.347  28.855  1.00  0.00    -0.248 NA
ATOM     42  C   UNL A   1      45.499  24.261  28.043  1.00  0.00     0.031 C 
ATOM     43  C   UNL A   1      40.621  25.424  27.661  1.00  0.00     0.029 A 
ATOM     44  N   UNL A   1      41.983  26.984  28.505  1.00  0.00    -0.354 N 
ATOM     45  C   UNL A   1      46.197  26.177  29.075  1.00  0.00     0.074 A 
ATOM     46  C   UNL A   1      46.539  24.850  28.613  1.00  0.00     0.031 C 
ATOM     47  C   UNL A   1      39.871  26.499  27.952  1.00  0.00     0.029 A 
ATOM     48  C   UNL A   1      40.720  27.525  28.546  1.00  0.00     0.049 A 
ATOM     49  H   UNL A   1      42.786  27.466  28.807  1.00  0.00     0.167 HD
ATOM     50  C   UNL A   1      47.084  27.057  29.598  1.00  0.00     0.037 A 
ATOM     51  C   UNL A   1      40.293  28.708  29.029  1.00  0.00     0.037 A 
ATOM     52  C   UNL A   1      46.738  28.383  30.036  1.00  0.00     0.049 A 
ATOM     53  C   UNL A   1      41.294  29.656  29.630  1.00  0.00     0.074 A 
ATOM     54  C   UNL A   1      47.571  29.373  30.528  1.00  0.00     0.029 A 
ATOM     55  N   UNL A   1      45.452  28.902  30.043  1.00  0.00    -0.354 N 
ATOM     56  N   UNL A   1      42.588  29.510  29.774  1.00  0.00    -0.248 NA
ATOM     57  C   UNL A   1      40.775  30.936  30.133  1.00  0.00     0.031 C 
ATOM     58  C   UNL A   1      46.782  30.471  30.882  1.00  0.00     0.029 A 
ATOM     59  C   UNL A   1      45.464  30.189  30.556  1.00  0.00     0.049 A 
ATOM     60  H   UNL A   1      44.648  28.427  29.731  1.00  0.00     0.167 HD
ATOM     61  C   UNL A   1      43.043  30.688  30.351  1.00  0.00     0.074 A 
ATOM     62  C   UNL A   1      41.887  31.542  30.524  1.00  0.00     0.031 C 
ATOM     63  C   UNL A   1      44.306  31.032  30.706  1.00  0.00     0.037 A 
BRANCH  50  64
ATOM     64  C   UNL A   1      48.513  26.611  29.726  1.00  0.00     0.057 A 
ATOM     65  C   UNL A   1      49.471  26.902  28.746  1.00  0.00     0.134 A 
ATOM     66  C   UNL A   1      48.944  25.915  30.862  1.00  0.00     0.134 A 
ATOM     67  F   UNL A   1      49.123  27.558  27.627  1.00  0.00    -0.206 F 
ATOM     68  C   UNL A   1      50.798  26.490  28.876  1.00  0.00     0.040 A 
ATOM     69  C   UNL A   1      50.275  25.524  31.018  1.00  0.00     0.040 A 
ATOM     70  F   UNL A   1      48.082  25.609  31.844  1.00  0.00    -0.206 F 
ATOM     71  C   UNL A   1      51.205  25.805  30.020  1.00  0.00     0.006 A 
ENDBRANCH  50  64
BRANCH  51  72
ATOM     72  C   UNL A   1      38.854  29.065  28.958  1.00  0.00     0.057 A 
ATOM     73  C   UNL A   1      38.023  28.945  30.078  1.00  0.00     0.134 A 
ATOM     74  C   UNL A   1      38.270  29.529  27.772  1.00  0.00     0.134 A 
ATOM     75  F   UNL A   1      38.520  28.492  31.239  1.00  0.00    -0.206 F 
ATOM     76  C   UNL A   1      36.663  29.249  30.018  1.00  0.00     0.040 A 
ATOM     77  C   UNL A   1      36.916  29.863  27.704  1.00  0.00     0.040 A 
ATOM     78  F   UNL A   1      39.012  29.679  26.665  1.00  0.00    -0.206 F 
ATOM     79  C   UNL A   1      36.106  29.714  28.827  1.00  0.00     0.006 A 
ENDBRANCH  51  72
BRANCH  63  80
ATOM     80  C   UNL A   1      44.517  32.407  31.268  1.00  0.00     0.057 A 
ATOM     81  C   UNL A   1      44.751  33.518  30.449  1.00  0.00     0.134 A 
ATOM     82  C   UNL A   1      44.418  32.630  32.649  1.00  0.00     0.134 A 
ATOM     83  F   UNL A   1      44.870  33.370  29.121  1.00  0.00    -0.206 F 
ATOM     84  C   UNL A   1      44.894  34.799  30.983  1.00  0.00     0.040 A 
ATOM     85  C   UNL A   1      44.530  33.910  33.192  1.00  0.00     0.040 A 
ATOM     86  F   UNL A   1      44.186  31.610  33.489  1.00  0.00    -0.206 F 
ATOM     87  C   UNL A   1      44.772  34.999  32.358  1.00  0.00     0.006 A 
ENDBRANCH  63  80
ENDBRANCH  37  38
ENDBRANCH  29  32
ENDBRANCH  27  28
ENDBRANCH   1  27
TORSDOF 12
ENDMDL
