MODEL 1
REMARK VINA RESULT:     -12.5      0.000      0.000
REMARK SMILES CC(=O)Nc1cccc(C(=O)N2CCCC[C@@H]2C(=O)NCCCNC(=O)c2ccc(-c3c4nc(c(-c5c(F)cccc5F)c5ccc([nH]5)c(-c5c(F)cccc5F)c5nc(c(-c6c(F)cccc6F)c6ccc3[nH]6)C=C5)C=C4)cc2)c1
REMARK SMILES IDX 21 1 20 2 18 3 19 4 17 6 12 7 13 8 14 9 16 10 15 11 10 12
REMARK SMILES IDX 11 13 9 14 5 15 6 16 81 17 7 18 8 19 4 20 1 21 2 22 3 23
REMARK SMILES IDX 22 25 23 26 24 27 25 28 26 30 27 31 28 32 80 33 29 34 79 35
REMARK SMILES IDX 30 36 31 37 32 38 73 39 33 40 78 41 72 42 74 43 34 44 77 45
REMARK SMILES IDX 71 46 70 47 35 49 61 50 44 51 60 52 45 53 48 54 59 55 75 56
REMARK SMILES IDX 46 57 47 58 58 60 76 61 49 62 36 63 37 64 42 65 38 66 39 67
REMARK SMILES IDX 41 68 43 69 40 70 62 71 63 72 68 73 64 74 65 75 67 76 69 77
REMARK SMILES IDX 66 78 50 79 51 80 56 81 52 82 53 83 55 84 57 85 54 86
REMARK H PARENT 20 5 4 24 24 29 74 48 48 59
REMARK Flexibility Score: inf
ROOT
ATOM      1  C   UNL A   1      31.873  29.703  25.700  1.00  0.00     0.117 C 
ENDROOT
BRANCH   1   2
ATOM      2  N   UNL A   1      32.796  29.725  24.578  1.00  0.00    -0.354 N 
ATOM      3  C   UNL A   1      33.331  28.694  23.871  1.00  0.00     0.242 C 
ATOM      4  O   UNL A   1      34.260  28.952  23.100  1.00  0.00    -0.273 OA
ATOM      5  H   UNL A   1      33.075  30.623  24.284  1.00  0.00     0.163 HD
BRANCH   3   6
ATOM      6  C   UNL A   1      32.899  27.234  24.119  1.00  0.00     0.174 C 
ATOM      7  N   UNL A   1      31.494  26.886  23.770  1.00  0.00    -0.327 N 
ATOM      8  C   UNL A   1      31.017  25.598  24.267  1.00  0.00     0.120 C 
ATOM      9  C   UNL A   1      31.222  25.440  25.761  1.00  0.00     0.022 C 
ATOM     10  C   UNL A   1      33.203  26.958  25.615  1.00  0.00     0.035 C 
ATOM     11  C   UNL A   1      32.692  25.613  26.110  1.00  0.00     0.004 C 
BRANCH   7  12
ATOM     12  C   UNL A   1      30.694  27.463  22.770  1.00  0.00     0.254 C 
ATOM     13  O   UNL A   1      30.978  27.352  21.576  1.00  0.00    -0.269 OA
BRANCH  12  14
ATOM     14  C   UNL A   1      29.489  28.264  23.089  1.00  0.00     0.042 A 
ATOM     15  C   UNL A   1      28.437  30.430  23.380  1.00  0.00     0.041 A 
ATOM     16  C   UNL A   1      27.196  29.795  23.510  1.00  0.00     0.026 A 
ATOM     17  C   UNL A   1      29.575  29.653  23.179  1.00  0.00     0.040 A 
ATOM     18  C   UNL A   1      27.092  28.407  23.373  1.00  0.00     0.003 A 
ATOM     19  C   UNL A   1      28.237  27.642  23.152  1.00  0.00     0.014 A 
BRANCH  15  20
ATOM     20  N   UNL A   1      28.482  31.827  23.504  1.00  0.00    -0.326 N 
ATOM     21  C   UNL A   1      28.058  32.513  21.140  1.00  0.00     0.114 C 
ATOM     22  C   UNL A   1      28.479  32.814  22.557  1.00  0.00     0.221 C 
ATOM     23  O   UNL A   1      28.762  33.966  22.891  1.00  0.00    -0.275 OA
ATOM     24  H   UNL A   1      28.522  32.154  24.431  1.00  0.00     0.169 HD
ENDBRANCH  15  20
ENDBRANCH  12  14
ENDBRANCH   7  12
ENDBRANCH   3   6
ENDBRANCH   1   2
BRANCH   1  25
ATOM     25  C   UNL A   1      31.522  31.111  26.151  1.00  0.00     0.042 C 
BRANCH  25  26
ATOM     26  C   UNL A   1      32.521  31.695  27.138  1.00  0.00     0.118 C 
BRANCH  26  27
ATOM     27  N   UNL A   1      32.280  33.106  27.406  1.00  0.00    -0.352 N 
ATOM     28  C   UNL A   1      32.997  33.982  28.178  1.00  0.00     0.251 C 
ATOM     29  H   UNL A   1      31.484  33.486  26.967  1.00  0.00     0.163 HD
ATOM     30  O   UNL A   1      32.530  35.086  28.452  1.00  0.00    -0.269 OA
BRANCH  28  31
ATOM     31  C   UNL A   1      34.321  33.590  28.698  1.00  0.00     0.039 A 
ATOM     32  C   UNL A   1      34.401  32.938  29.929  1.00  0.00     0.014 A 
ATOM     33  C   UNL A   1      35.482  33.860  27.967  1.00  0.00     0.014 A 
ATOM     34  C   UNL A   1      35.639  32.499  30.397  1.00  0.00     0.010 A 
ATOM     35  C   UNL A   1      36.700  33.341  28.389  1.00  0.00     0.010 A 
ATOM     36  C   UNL A   1      36.793  32.662  29.613  1.00  0.00    -0.014 A 
BRANCH  36  37
ATOM     37  C   UNL A   1      38.107  32.133  30.056  1.00  0.00     0.031 A 
ATOM     38  C   UNL A   1      38.622  30.832  29.502  1.00  0.00     0.074 A 
ATOM     39  C   UNL A   1      38.800  32.788  31.009  1.00  0.00     0.049 A 
ATOM     40  N   UNL A   1      39.708  30.174  29.816  1.00  0.00    -0.248 NA
ATOM     41  C   UNL A   1      37.793  30.167  28.482  1.00  0.00     0.031 C 
ATOM     42  C   UNL A   1      38.376  34.025  31.668  1.00  0.00     0.029 A 
ATOM     43  N   UNL A   1      40.004  32.495  31.601  1.00  0.00    -0.354 N 
ATOM     44  C   UNL A   1      39.680  29.012  29.055  1.00  0.00     0.074 A 
ATOM     45  C   UNL A   1      38.450  29.030  28.296  1.00  0.00     0.031 C 
ATOM     46  C   UNL A   1      39.311  34.393  32.559  1.00  0.00     0.029 A 
ATOM     47  C   UNL A   1      40.380  33.400  32.565  1.00  0.00     0.049 A 
ATOM     48  H   UNL A   1      40.546  31.710  31.358  1.00  0.00     0.167 HD
ATOM     49  C   UNL A   1      40.607  28.029  28.982  1.00  0.00     0.037 A 
ATOM     50  C   UNL A   1      41.457  33.418  33.372  1.00  0.00     0.037 A 
ATOM     51  C   UNL A   1      41.851  28.038  29.704  1.00  0.00     0.049 A 
ATOM     52  C   UNL A   1      42.480  32.321  33.251  1.00  0.00     0.074 A 
ATOM     53  C   UNL A   1      42.898  27.137  29.622  1.00  0.00     0.029 A 
ATOM     54  N   UNL A   1      42.213  28.992  30.642  1.00  0.00    -0.354 N 
ATOM     55  N   UNL A   1      42.486  31.280  32.454  1.00  0.00    -0.248 NA
ATOM     56  C   UNL A   1      43.651  32.404  34.137  1.00  0.00     0.031 C 
ATOM     57  C   UNL A   1      43.871  27.514  30.552  1.00  0.00     0.029 A 
ATOM     58  C   UNL A   1      43.456  28.683  31.171  1.00  0.00     0.049 A 
ATOM     59  H   UNL A   1      41.670  29.773  30.895  1.00  0.00     0.167 HD
ATOM     60  C   UNL A   1      43.671  30.605  32.720  1.00  0.00     0.074 A 
ATOM     61  C   UNL A   1      44.365  31.364  33.737  1.00  0.00     0.031 C 
ATOM     62  C   UNL A   1      44.140  29.457  32.173  1.00  0.00     0.037 A 
BRANCH  49  63
ATOM     63  C   UNL A   1      40.323  26.857  28.088  1.00  0.00     0.057 A 
ATOM     64  C   UNL A   1      40.884  26.746  26.810  1.00  0.00     0.134 A 
ATOM     65  C   UNL A   1      39.543  25.789  28.547  1.00  0.00     0.134 A 
ATOM     66  F   UNL A   1      41.633  27.739  26.306  1.00  0.00    -0.206 F 
ATOM     67  C   UNL A   1      40.669  25.619  26.015  1.00  0.00     0.040 A 
ATOM     68  C   UNL A   1      39.342  24.645  27.773  1.00  0.00     0.040 A 
ATOM     69  F   UNL A   1      38.980  25.829  29.765  1.00  0.00    -0.206 F 
ATOM     70  C   UNL A   1      39.905  24.559  26.501  1.00  0.00     0.006 A 
ENDBRANCH  49  63
BRANCH  50  71
ATOM     71  C   UNL A   1      41.634  34.507  34.367  1.00  0.00     0.057 A 
ATOM     72  C   UNL A   1      41.170  34.373  35.682  1.00  0.00     0.134 A 
ATOM     73  C   UNL A   1      42.230  35.725  34.019  1.00  0.00     0.134 A 
ATOM     74  F   UNL A   1      40.573  33.236  36.074  1.00  0.00    -0.206 F 
ATOM     75  C   UNL A   1      41.259  35.419  36.602  1.00  0.00     0.040 A 
ATOM     76  C   UNL A   1      42.353  36.770  34.936  1.00  0.00     0.040 A 
ATOM     77  F   UNL A   1      42.705  35.917  32.779  1.00  0.00    -0.206 F 
ATOM     78  C   UNL A   1      41.855  36.622  36.229  1.00  0.00     0.006 A 
ENDBRANCH  50  71
BRANCH  62  79
ATOM     79  C   UNL A   1      45.485  28.976  32.632  1.00  0.00     0.057 A 
ATOM     80  C   UNL A   1      45.628  28.082  33.701  1.00  0.00     0.134 A 
ATOM     81  C   UNL A   1      46.649  29.382  31.967  1.00  0.00     0.134 A 
ATOM     82  F   UNL A   1      44.553  27.665  34.387  1.00  0.00    -0.206 F 
ATOM     83  C   UNL A   1      46.884  27.631  34.109  1.00  0.00     0.040 A 
ATOM     84  C   UNL A   1      47.907  28.912  32.346  1.00  0.00     0.040 A 
ATOM     85  F   UNL A   1      46.581  30.227  30.927  1.00  0.00    -0.206 F 
ATOM     86  C   UNL A   1      48.027  28.040  33.425  1.00  0.00     0.006 A 
ENDBRANCH  62  79
ENDBRANCH  36  37
ENDBRANCH  28  31
ENDBRANCH  26  27
ENDBRANCH  25  26
ENDBRANCH   1  25
TORSDOF 13
ENDMDL
MODEL 2
REMARK VINA RESULT:     -12.5      4.750      9.674
REMARK SMILES CC(=O)Nc1cccc(C(=O)N2CCCC[C@@H]2C(=O)NCCCNC(=O)c2ccc(-c3c4nc(c(-c5c(F)cccc5F)c5ccc([nH]5)c(-c5c(F)cccc5F)c5nc(c(-c6c(F)cccc6F)c6ccc3[nH]6)C=C5)C=C4)cc2)c1
REMARK SMILES IDX 21 1 20 2 18 3 19 4 17 6 12 7 13 8 14 9 16 10 15 11 10 12
REMARK SMILES IDX 11 13 9 14 5 15 6 16 81 17 7 18 8 19 4 20 1 21 2 22 3 23
REMARK SMILES IDX 22 25 23 26 24 27 25 28 26 30 27 31 28 32 80 33 29 34 79 35
REMARK SMILES IDX 30 36 31 37 32 38 73 39 33 40 78 41 72 42 74 43 34 44 77 45
REMARK SMILES IDX 71 46 70 47 35 49 61 50 44 51 60 52 45 53 48 54 59 55 75 56
REMARK SMILES IDX 46 57 47 58 58 60 76 61 49 62 36 63 37 64 42 65 38 66 39 67
REMARK SMILES IDX 41 68 43 69 40 70 62 71 63 72 68 73 64 74 65 75 67 76 69 77
REMARK SMILES IDX 66 78 50 79 51 80 56 81 52 82 53 83 55 84 57 85 54 86
REMARK H PARENT 20 5 4 24 24 29 74 48 48 59
REMARK Flexibility Score: inf
ROOT
ATOM      1  C   UNL A   1      37.471  22.288  24.759  1.00  0.00     0.117 C 
ENDROOT
BRANCH   1   2
ATOM      2  N   UNL A   1      36.688  22.588  23.574  1.00  0.00    -0.354 N 
ATOM      3  C   UNL A   1      35.527  23.288  23.452  1.00  0.00     0.242 C 
ATOM      4  O   UNL A   1      34.934  23.226  22.371  1.00  0.00    -0.273 OA
ATOM      5  H   UNL A   1      37.052  22.232  22.730  1.00  0.00     0.163 HD
BRANCH   3   6
ATOM      6  C   UNL A   1      34.894  24.018  24.654  1.00  0.00     0.174 C 
ATOM      7  N   UNL A   1      34.076  23.189  25.582  1.00  0.00    -0.327 N 
ATOM      8  C   UNL A   1      33.258  23.928  26.540  1.00  0.00     0.120 C 
ATOM      9  C   UNL A   1      32.374  24.963  25.872  1.00  0.00     0.022 C 
ATOM     10  C   UNL A   1      34.068  25.182  24.046  1.00  0.00     0.035 C 
ATOM     11  C   UNL A   1      33.221  25.933  25.062  1.00  0.00     0.004 C 
BRANCH   7  12
ATOM     12  C   UNL A   1      34.236  21.824  25.874  1.00  0.00     0.254 C 
ATOM     13  O   UNL A   1      34.793  21.450  26.908  1.00  0.00    -0.269 OA
BRANCH  12  14
ATOM     14  C   UNL A   1      33.778  20.761  24.949  1.00  0.00     0.042 A 
ATOM     15  C   UNL A   1      33.839  18.443  24.239  1.00  0.00     0.041 A 
ATOM     16  C   UNL A   1      32.801  18.705  23.338  1.00  0.00     0.026 A 
ATOM     17  C   UNL A   1      34.324  19.480  25.032  1.00  0.00     0.040 A 
ATOM     18  C   UNL A   1      32.214  19.973  23.283  1.00  0.00     0.003 A 
ATOM     19  C   UNL A   1      32.696  20.999  24.096  1.00  0.00     0.014 A 
BRANCH  15  20
ATOM     20  N   UNL A   1      34.376  17.146  24.271  1.00  0.00    -0.326 N 
ATOM     21  C   UNL A   1      32.708  15.990  25.726  1.00  0.00     0.114 C 
ATOM     22  C   UNL A   1      34.036  16.050  25.015  1.00  0.00     0.221 C 
ATOM     23  O   UNL A   1      34.802  15.084  25.043  1.00  0.00    -0.275 OA
ATOM     24  H   UNL A   1      35.127  17.000  23.651  1.00  0.00     0.169 HD
ENDBRANCH  15  20
ENDBRANCH  12  14
ENDBRANCH   7  12
ENDBRANCH   3   6
ENDBRANCH   1   2
BRANCH   1  25
ATOM     25  C   UNL A   1      38.054  20.885  24.692  1.00  0.00     0.042 C 
BRANCH  25  26
ATOM     26  C   UNL A   1      38.586  20.389  26.027  1.00  0.00     0.118 C 
BRANCH  26  27
ATOM     27  N   UNL A   1      39.673  19.433  25.872  1.00  0.00    -0.352 N 
ATOM     28  C   UNL A   1      41.024  19.620  26.004  1.00  0.00     0.251 C 
ATOM     29  H   UNL A   1      39.397  18.517  25.638  1.00  0.00     0.163 HD
ATOM     30  O   UNL A   1      41.806  18.745  25.637  1.00  0.00    -0.269 OA
BRANCH  28  31
ATOM     31  C   UNL A   1      41.541  20.882  26.568  1.00  0.00     0.039 A 
ATOM     32  C   UNL A   1      41.964  21.890  25.701  1.00  0.00     0.014 A 
ATOM     33  C   UNL A   1      41.600  21.073  27.952  1.00  0.00     0.014 A 
ATOM     34  C   UNL A   1      42.387  23.113  26.220  1.00  0.00     0.010 A 
ATOM     35  C   UNL A   1      41.931  22.322  28.463  1.00  0.00     0.010 A 
ATOM     36  C   UNL A   1      42.336  23.353  27.603  1.00  0.00    -0.014 A 
BRANCH  36  37
ATOM     37  C   UNL A   1      42.707  24.674  28.171  1.00  0.00     0.031 A 
ATOM     38  C   UNL A   1      41.648  25.719  28.400  1.00  0.00     0.074 A 
ATOM     39  C   UNL A   1      44.002  24.955  28.411  1.00  0.00     0.049 A 
ATOM     40  N   UNL A   1      41.783  26.951  28.819  1.00  0.00    -0.248 NA
ATOM     41  C   UNL A   1      40.259  25.341  28.090  1.00  0.00     0.031 C 
ATOM     42  C   UNL A   1      45.127  24.046  28.170  1.00  0.00     0.029 A 
ATOM     43  N   UNL A   1      44.596  26.093  28.897  1.00  0.00    -0.354 N 
ATOM     44  C   UNL A   1      40.507  27.499  28.798  1.00  0.00     0.074 A 
ATOM     45  C   UNL A   1      39.615  26.483  28.284  1.00  0.00     0.031 C 
ATOM     46  C   UNL A   1      46.269  24.655  28.526  1.00  0.00     0.029 A 
ATOM     47  C   UNL A   1      45.966  26.008  28.979  1.00  0.00     0.049 A 
ATOM     48  H   UNL A   1      44.089  26.894  29.162  1.00  0.00     0.167 HD
ATOM     49  C   UNL A   1      40.112  28.733  29.191  1.00  0.00     0.037 A 
ATOM     50  C   UNL A   1      46.875  26.924  29.364  1.00  0.00     0.037 A 
ATOM     51  C   UNL A   1      40.996  29.724  29.744  1.00  0.00     0.049 A 
ATOM     52  C   UNL A   1      46.402  28.279  29.815  1.00  0.00     0.074 A 
ATOM     53  C   UNL A   1      40.675  30.966  30.263  1.00  0.00     0.029 A 
ATOM     54  N   UNL A   1      42.371  29.587  29.849  1.00  0.00    -0.354 N 
ATOM     55  N   UNL A   1      45.179  28.748  29.883  1.00  0.00    -0.248 NA
ATOM     56  C   UNL A   1      47.434  29.232  30.250  1.00  0.00     0.031 C 
ATOM     57  C   UNL A   1      41.863  31.605  30.629  1.00  0.00     0.029 A 
ATOM     58  C   UNL A   1      42.918  30.737  30.393  1.00  0.00     0.049 A 
ATOM     59  H   UNL A   1      42.883  28.791  29.576  1.00  0.00     0.167 HD
ATOM     60  C   UNL A   1      45.293  30.034  30.397  1.00  0.00     0.074 A 
ATOM     61  C   UNL A   1      46.701  30.264  30.640  1.00  0.00     0.031 C 
ATOM     62  C   UNL A   1      44.320  30.945  30.642  1.00  0.00     0.037 A 
BRANCH  49  63
ATOM     63  C   UNL A   1      38.661  29.089  29.045  1.00  0.00     0.057 A 
ATOM     64  C   UNL A   1      37.770  29.027  30.124  1.00  0.00     0.134 A 
ATOM     65  C   UNL A   1      38.170  29.577  27.828  1.00  0.00     0.134 A 
ATOM     66  F   UNL A   1      38.174  28.559  31.315  1.00  0.00    -0.206 F 
ATOM     67  C   UNL A   1      36.439  29.427  29.993  1.00  0.00     0.040 A 
ATOM     68  C   UNL A   1      36.849  30.005  27.691  1.00  0.00     0.040 A 
ATOM     69  F   UNL A   1      38.973  29.667  26.756  1.00  0.00    -0.206 F 
ATOM     70  C   UNL A   1      35.978  29.928  28.777  1.00  0.00     0.006 A 
ENDBRANCH  49  63
BRANCH  50  71
ATOM     71  C   UNL A   1      48.325  26.600  29.343  1.00  0.00     0.057 A 
ATOM     72  C   UNL A   1      49.123  26.911  28.236  1.00  0.00     0.134 A 
ATOM     73  C   UNL A   1      48.939  25.934  30.410  1.00  0.00     0.134 A 
ATOM     74  F   UNL A   1      48.591  27.534  27.173  1.00  0.00    -0.206 F 
ATOM     75  C   UNL A   1      50.468  26.540  28.173  1.00  0.00     0.040 A 
ATOM     76  C   UNL A   1      50.289  25.582  30.375  1.00  0.00     0.040 A 
ATOM     77  F   UNL A   1      48.235  25.615  31.506  1.00  0.00    -0.206 F 
ATOM     78  C   UNL A   1      51.055  25.874  29.248  1.00  0.00     0.006 A 
ENDBRANCH  50  71
BRANCH  62  79
ATOM     79  C   UNL A   1      44.738  32.255  31.241  1.00  0.00     0.057 A 
ATOM     80  C   UNL A   1      44.846  32.437  32.626  1.00  0.00     0.134 A 
ATOM     81  C   UNL A   1      45.079  33.336  30.419  1.00  0.00     0.134 A 
ATOM     82  F   UNL A   1      44.523  31.444  33.469  1.00  0.00    -0.206 F 
ATOM     83  C   UNL A   1      45.251  33.655  33.171  1.00  0.00     0.040 A 
ATOM     84  C   UNL A   1      45.515  34.549  30.951  1.00  0.00     0.040 A 
ATOM     85  F   UNL A   1      45.009  33.225  29.083  1.00  0.00    -0.206 F 
ATOM     86  C   UNL A   1      45.594  34.714  32.332  1.00  0.00     0.006 A 
ENDBRANCH  62  79
ENDBRANCH  36  37
ENDBRANCH  28  31
ENDBRANCH  26  27
ENDBRANCH  25  26
ENDBRANCH   1  25
TORSDOF 13
ENDMDL
MODEL 3
REMARK VINA RESULT:     -12.5      3.819      8.569
REMARK SMILES CC(=O)Nc1cccc(C(=O)N2CCCC[C@@H]2C(=O)NCCCNC(=O)c2ccc(-c3c4nc(c(-c5c(F)cccc5F)c5ccc([nH]5)c(-c5c(F)cccc5F)c5nc(c(-c6c(F)cccc6F)c6ccc3[nH]6)C=C5)C=C4)cc2)c1
REMARK SMILES IDX 21 1 20 2 18 3 19 4 17 6 12 7 13 8 14 9 16 10 15 11 10 12
REMARK SMILES IDX 11 13 9 14 5 15 6 16 81 17 7 18 8 19 4 20 1 21 2 22 3 23
REMARK SMILES IDX 22 25 23 26 24 27 25 28 26 30 27 31 28 32 80 33 29 34 79 35
REMARK SMILES IDX 30 36 31 37 32 38 73 39 33 40 78 41 72 42 74 43 34 44 77 45
REMARK SMILES IDX 71 46 70 47 35 49 61 50 44 51 60 52 45 53 48 54 59 55 75 56
REMARK SMILES IDX 46 57 47 58 58 60 76 61 49 62 36 63 37 64 42 65 38 66 39 67
REMARK SMILES IDX 41 68 43 69 40 70 62 71 63 72 68 73 64 74 65 75 67 76 69 77
REMARK SMILES IDX 66 78 50 79 51 80 56 81 52 82 53 83 55 84 57 85 54 86
REMARK H PARENT 20 5 4 24 24 29 74 48 48 59
REMARK Flexibility Score: inf
ROOT
ATOM      1  C   UNL A   1      36.562  20.565  25.001  1.00  0.00     0.117 C 
ENDROOT
BRANCH   1   2
ATOM      2  N   UNL A   1      36.878  21.905  25.466  1.00  0.00    -0.354 N 
ATOM      3  C   UNL A   1      36.047  22.937  25.776  1.00  0.00     0.242 C 
ATOM      4  O   UNL A   1      36.556  24.050  25.941  1.00  0.00    -0.273 OA
ATOM      5  H   UNL A   1      37.839  22.094  25.575  1.00  0.00     0.163 HD
BRANCH   3   6
ATOM      6  C   UNL A   1      34.514  22.766  25.782  1.00  0.00     0.174 C 
ATOM      7  N   UNL A   1      33.727  23.779  25.025  1.00  0.00    -0.327 N 
ATOM      8  C   UNL A   1      32.287  23.776  25.270  1.00  0.00     0.120 C 
ATOM      9  C   UNL A   1      31.949  23.871  26.745  1.00  0.00     0.022 C 
ATOM     10  C   UNL A   1      34.106  22.725  27.278  1.00  0.00     0.035 C 
ATOM     11  C   UNL A   1      32.602  22.729  27.508  1.00  0.00     0.004 C 
BRANCH   7  12
ATOM     12  C   UNL A   1      34.129  24.495  23.886  1.00  0.00     0.254 C 
ATOM     13  O   UNL A   1      34.782  23.960  22.988  1.00  0.00    -0.269 OA
BRANCH  12  14
ATOM     14  C   UNL A   1      33.824  25.935  23.711  1.00  0.00     0.042 A 
ATOM     15  C   UNL A   1      33.797  28.188  24.609  1.00  0.00     0.041 A 
ATOM     16  C   UNL A   1      33.426  28.672  23.349  1.00  0.00     0.026 A 
ATOM     17  C   UNL A   1      33.983  26.818  24.779  1.00  0.00     0.040 A 
ATOM     18  C   UNL A   1      33.311  27.800  22.261  1.00  0.00     0.003 A 
ATOM     19  C   UNL A   1      33.520  26.433  22.440  1.00  0.00     0.014 A 
BRANCH  15  20
ATOM     20  N   UNL A   1      33.921  29.108  25.662  1.00  0.00    -0.326 N 
ATOM     21  C   UNL A   1      31.736  28.778  26.824  1.00  0.00     0.114 C 
ATOM     22  C   UNL A   1      33.013  29.543  26.588  1.00  0.00     0.221 C 
ATOM     23  O   UNL A   1      33.282  30.532  27.272  1.00  0.00    -0.275 OA
ATOM     24  H   UNL A   1      34.815  29.510  25.750  1.00  0.00     0.169 HD
ENDBRANCH  15  20
ENDBRANCH  12  14
ENDBRANCH   7  12
ENDBRANCH   3   6
ENDBRANCH   1   2
BRANCH   1  25
ATOM     25  C   UNL A   1      37.816  19.715  24.885  1.00  0.00     0.042 C 
BRANCH  25  26
ATOM     26  C   UNL A   1      38.975  20.232  25.723  1.00  0.00     0.118 C 
BRANCH  26  27
ATOM     27  N   UNL A   1      40.075  19.281  25.799  1.00  0.00    -0.352 N 
ATOM     28  C   UNL A   1      41.397  19.498  26.089  1.00  0.00     0.251 C 
ATOM     29  H   UNL A   1      39.834  18.344  25.614  1.00  0.00     0.163 HD
ATOM     30  O   UNL A   1      42.222  18.605  25.907  1.00  0.00    -0.269 OA
BRANCH  28  31
ATOM     31  C   UNL A   1      41.832  20.812  26.600  1.00  0.00     0.039 A 
ATOM     32  C   UNL A   1      42.319  21.762  25.701  1.00  0.00     0.014 A 
ATOM     33  C   UNL A   1      41.752  21.108  27.964  1.00  0.00     0.014 A 
ATOM     34  C   UNL A   1      42.665  23.033  26.162  1.00  0.00     0.010 A 
ATOM     35  C   UNL A   1      42.008  22.401  28.406  1.00  0.00     0.010 A 
ATOM     36  C   UNL A   1      42.475  23.375  27.511  1.00  0.00    -0.014 A 
BRANCH  36  37
ATOM     37  C   UNL A   1      42.763  24.744  28.007  1.00  0.00     0.031 A 
ATOM     38  C   UNL A   1      44.165  25.122  28.404  1.00  0.00     0.074 A 
ATOM     39  C   UNL A   1      41.752  25.620  28.166  1.00  0.00     0.049 A 
ATOM     40  N   UNL A   1      44.602  26.240  28.923  1.00  0.00    -0.248 NA
ATOM     41  C   UNL A   1      45.209  24.099  28.222  1.00  0.00     0.031 C 
ATOM     42  C   UNL A   1      40.342  25.350  27.875  1.00  0.00     0.029 A 
ATOM     43  N   UNL A   1      41.752  26.913  28.627  1.00  0.00    -0.354 N 
ATOM     44  C   UNL A   1      45.958  26.047  29.153  1.00  0.00     0.074 A 
ATOM     45  C   UNL A   1      46.267  24.691  28.757  1.00  0.00     0.031 C 
ATOM     46  C   UNL A   1      39.618  26.448  28.148  1.00  0.00     0.029 A 
ATOM     47  C   UNL A   1      40.503  27.484  28.670  1.00  0.00     0.049 A 
ATOM     48  H   UNL A   1      42.571  27.387  28.901  1.00  0.00     0.167 HD
ATOM     49  C   UNL A   1      46.867  26.929  29.630  1.00  0.00     0.037 A 
ATOM     50  C   UNL A   1      40.113  28.700  29.096  1.00  0.00     0.037 A 
ATOM     51  C   UNL A   1      46.563  28.291  29.978  1.00  0.00     0.049 A 
ATOM     52  C   UNL A   1      41.151  29.664  29.602  1.00  0.00     0.074 A 
ATOM     53  C   UNL A   1      47.434  29.289  30.377  1.00  0.00     0.029 A 
ATOM     54  N   UNL A   1      45.293  28.844  29.971  1.00  0.00    -0.354 N 
ATOM     55  N   UNL A   1      42.446  29.499  29.719  1.00  0.00    -0.248 NA
ATOM     56  C   UNL A   1      40.675  30.988  30.030  1.00  0.00     0.031 C 
ATOM     57  C   UNL A   1      46.683  30.432  30.667  1.00  0.00     0.029 A 
ATOM     58  C   UNL A   1      45.352  30.163  30.392  1.00  0.00     0.049 A 
ATOM     59  H   UNL A   1      44.470  28.371  29.707  1.00  0.00     0.167 HD
ATOM     60  C   UNL A   1      42.941  30.704  30.202  1.00  0.00     0.074 A 
ATOM     61  C   UNL A   1      41.810  31.596  30.338  1.00  0.00     0.031 C 
ATOM     62  C   UNL A   1      44.218  31.042  30.508  1.00  0.00     0.037 A 
BRANCH  49  63
ATOM     63  C   UNL A   1      48.282  26.459  29.804  1.00  0.00     0.057 A 
ATOM     64  C   UNL A   1      48.717  25.837  30.981  1.00  0.00     0.134 A 
ATOM     65  C   UNL A   1      49.197  26.558  28.749  1.00  0.00     0.134 A 
ATOM     66  F   UNL A   1      47.894  25.719  32.034  1.00  0.00    -0.206 F 
ATOM     67  C   UNL A   1      50.016  25.342  31.106  1.00  0.00     0.040 A 
ATOM     68  C   UNL A   1      50.490  26.044  28.851  1.00  0.00     0.040 A 
ATOM     69  F   UNL A   1      48.842  27.139  27.592  1.00  0.00    -0.206 F 
ATOM     70  C   UNL A   1      50.903  25.434  30.035  1.00  0.00     0.006 A 
ENDBRANCH  49  63
BRANCH  50  71
ATOM     71  C   UNL A   1      38.678  29.084  29.067  1.00  0.00     0.057 A 
ATOM     72  C   UNL A   1      38.087  29.601  27.908  1.00  0.00     0.134 A 
ATOM     73  C   UNL A   1      37.873  28.984  30.209  1.00  0.00     0.134 A 
ATOM     74  F   UNL A   1      38.809  29.738  26.786  1.00  0.00    -0.206 F 
ATOM     75  C   UNL A   1      36.761  30.038  27.893  1.00  0.00     0.040 A 
ATOM     76  C   UNL A   1      36.537  29.390  30.201  1.00  0.00     0.040 A 
ATOM     77  F   UNL A   1      38.373  28.489  31.350  1.00  0.00    -0.206 F 
ATOM     78  C   UNL A   1      35.982  29.931  29.044  1.00  0.00     0.006 A 
ENDBRANCH  50  71
BRANCH  62  79
ATOM     79  C   UNL A   1      44.465  32.444  30.979  1.00  0.00     0.057 A 
ATOM     80  C   UNL A   1      44.473  32.781  32.339  1.00  0.00     0.134 A 
ATOM     81  C   UNL A   1      44.740  33.464  30.059  1.00  0.00     0.134 A 
ATOM     82  F   UNL A   1      44.204  31.852  33.270  1.00  0.00    -0.206 F 
ATOM     83  C   UNL A   1      44.718  34.086  32.765  1.00  0.00     0.040 A 
ATOM     84  C   UNL A   1      45.018  34.767  30.474  1.00  0.00     0.040 A 
ATOM     85  F   UNL A   1      44.760  33.207  28.742  1.00  0.00    -0.206 F 
ATOM     86  C   UNL A   1      44.999  35.082  31.831  1.00  0.00     0.006 A 
ENDBRANCH  62  79
ENDBRANCH  36  37
ENDBRANCH  28  31
ENDBRANCH  26  27
ENDBRANCH  25  26
ENDBRANCH   1  25
TORSDOF 13
ENDMDL
