MODEL 1
REMARK VINA RESULT:     -10.5      0.000      0.000
REMARK SMILES CC[C@H]1CC[C@](O)([C@H](F)C(=O)NCCCNC(=O)c2ccc(-c3c4nc(c(-c5c(F)cccc5F)c5ccc([nH]5)c(-c5c(F)cccc5F)c5nc(c(-c6c(F)cccc6F)c6ccc3[nH]6)C=C5)C=C4)cc2)CC1
REMARK SMILES IDX 14 1 13 2 12 3 10 4 11 5 8 7 9 8 6 9 3 10 4 11 74 12 5 13
REMARK SMILES IDX 73 14 2 15 1 16 7 17 15 19 16 20 17 21 18 23 19 24 20 25
REMARK SMILES IDX 72 26 21 27 71 28 22 29 23 30 24 31 65 32 25 33 70 34 64 35
REMARK SMILES IDX 66 36 26 37 69 38 63 39 62 40 27 42 53 43 36 44 52 45 37 46
REMARK SMILES IDX 40 47 51 48 67 49 38 50 39 51 50 53 68 54 41 55 28 56 29 57
REMARK SMILES IDX 34 58 30 59 31 60 33 61 35 62 32 63 54 64 55 65 60 66 56 67
REMARK SMILES IDX 57 68 59 69 61 70 58 71 42 72 43 73 48 74 44 75 45 76 47 77
REMARK SMILES IDX 49 78 46 79
REMARK H PARENT 12 6 7 18 16 22 66 41 40 52
REMARK Flexibility Score: inf
ROOT
ATOM      1  C   UNL A   1      41.101  19.985  26.285  1.00  0.00     0.042 C 
ENDROOT
BRANCH   1   2
ATOM      2  C   UNL A   1      42.589  19.761  26.451  1.00  0.00     0.117 C 
BRANCH   2   3
ATOM      3  N   UNL A   1      43.188  19.151  25.283  1.00  0.00    -0.353 N 
ATOM      4  C   UNL A   1      44.290  19.560  24.597  1.00  0.00     0.257 C 
ATOM      5  O   UNL A   1      44.660  18.867  23.645  1.00  0.00    -0.272 OA
ATOM      6  H   UNL A   1      42.745  18.340  24.942  1.00  0.00     0.163 HD
BRANCH   4   7
ATOM      7  C   UNL A   1      45.071  20.796  25.027  1.00  0.00     0.286 C 
ATOM      8  F   UNL A   1      46.423  20.567  25.055  1.00  0.00    -0.234 F 
BRANCH   7   9
ATOM      9  C   UNL A   1      44.772  22.106  24.230  1.00  0.00     0.105 C 
ATOM     10  C   UNL A   1      44.986  24.544  25.995  1.00  0.00    -0.011 C 
ATOM     11  C   UNL A   1      46.217  23.719  25.592  1.00  0.00     0.006 C 
ATOM     12  C   UNL A   1      43.752  23.628  26.037  1.00  0.00     0.006 C 
ATOM     13  C   UNL A   1      46.028  23.006  24.254  1.00  0.00     0.039 C 
ATOM     14  C   UNL A   1      43.539  22.895  24.717  1.00  0.00     0.039 C 
BRANCH  10  15
ATOM     15  C   UNL A   1      44.718  25.769  25.092  1.00  0.00    -0.000 C 
ATOM     16  C   UNL A   1      45.842  26.792  25.073  1.00  0.00     0.004 C 
ENDBRANCH  10  15
BRANCH   9  17
ATOM     17  O   UNL A   1      44.527  21.790  22.842  1.00  0.00    -0.386 OA
ATOM     18  H   UNL A   1      43.932  22.454  22.461  1.00  0.00     0.211 HD
ENDBRANCH   9  17
ENDBRANCH   7   9
ENDBRANCH   4   7
ENDBRANCH   2   3
ENDBRANCH   1   2
BRANCH   1  19
ATOM     19  C   UNL A   1      40.650  21.400  26.597  1.00  0.00     0.118 C 
BRANCH  19  20
ATOM     20  N   UNL A   1      39.332  21.717  26.065  1.00  0.00    -0.352 N 
ATOM     21  C   UNL A   1      38.630  22.898  26.128  1.00  0.00     0.251 C 
ATOM     22  H   UNL A   1      38.878  20.982  25.592  1.00  0.00     0.163 HD
ATOM     23  O   UNL A   1      37.462  22.949  25.753  1.00  0.00    -0.269 OA
BRANCH  21  24
ATOM     24  C   UNL A   1      39.283  24.098  26.689  1.00  0.00     0.039 A 
ATOM     25  C   UNL A   1      39.965  24.964  25.832  1.00  0.00     0.014 A 
ATOM     26  C   UNL A   1      39.172  24.392  28.049  1.00  0.00     0.014 A 
ATOM     27  C   UNL A   1      40.459  26.171  26.329  1.00  0.00     0.010 A 
ATOM     28  C   UNL A   1      39.562  25.641  28.514  1.00  0.00     0.010 A 
ATOM     29  C   UNL A   1      40.218  26.541  27.662  1.00  0.00    -0.014 A 
BRANCH  29  30
ATOM     30  C   UNL A   1      40.656  27.854  28.198  1.00  0.00     0.031 A 
ATOM     31  C   UNL A   1      42.122  28.129  28.394  1.00  0.00     0.074 A 
ATOM     32  C   UNL A   1      39.739  28.763  28.582  1.00  0.00     0.049 A 
ATOM     33  N   UNL A   1      42.704  29.170  28.933  1.00  0.00    -0.248 NA
ATOM     34  C   UNL A   1      43.057  27.077  27.964  1.00  0.00     0.031 C 
ATOM     35  C   UNL A   1      38.286  28.591  28.500  1.00  0.00     0.029 A 
ATOM     36  N   UNL A   1      39.894  30.012  29.129  1.00  0.00    -0.354 N 
ATOM     37  C   UNL A   1      44.064  28.885  28.927  1.00  0.00     0.074 A 
ATOM     38  C   UNL A   1      44.217  27.553  28.390  1.00  0.00     0.031 C 
ATOM     39  C   UNL A   1      37.685  29.703  28.953  1.00  0.00     0.029 A 
ATOM     40  C   UNL A   1      38.706  30.650  29.393  1.00  0.00     0.049 A 
ATOM     41  H   UNL A   1      40.773  30.413  29.315  1.00  0.00     0.167 HD
ATOM     42  C   UNL A   1      45.095  29.676  29.306  1.00  0.00     0.037 A 
ATOM     43  C   UNL A   1      38.467  31.859  29.933  1.00  0.00     0.037 A 
ATOM     44  C   UNL A   1      44.941  31.016  29.802  1.00  0.00     0.049 A 
ATOM     45  C   UNL A   1      39.630  32.725  30.333  1.00  0.00     0.074 A 
ATOM     46  C   UNL A   1      45.925  31.926  30.146  1.00  0.00     0.029 A 
ATOM     47  N   UNL A   1      43.723  31.639  30.024  1.00  0.00    -0.354 N 
ATOM     48  N   UNL A   1      40.915  32.473  30.251  1.00  0.00    -0.248 NA
ATOM     49  C   UNL A   1      39.312  34.046  30.893  1.00  0.00     0.031 C 
ATOM     50  C   UNL A   1      45.301  33.086  30.614  1.00  0.00     0.029 A 
ATOM     51  C   UNL A   1      43.929  32.916  30.518  1.00  0.00     0.049 A 
ATOM     52  H   UNL A   1      42.841  31.233  29.855  1.00  0.00     0.167 HD
ATOM     53  C   UNL A   1      41.556  33.610  30.723  1.00  0.00     0.074 A 
ATOM     54  C   UNL A   1      40.520  34.558  31.075  1.00  0.00     0.031 C 
ATOM     55  C   UNL A   1      42.884  33.849  30.853  1.00  0.00     0.037 A 
BRANCH  42  56
ATOM     56  C   UNL A   1      46.479  29.109  29.184  1.00  0.00     0.057 A 
ATOM     57  C   UNL A   1      47.213  29.198  27.994  1.00  0.00     0.134 A 
ATOM     58  C   UNL A   1      47.096  28.484  30.276  1.00  0.00     0.134 A 
ATOM     59  F   UNL A   1      46.676  29.770  26.906  1.00  0.00    -0.206 F 
ATOM     60  C   UNL A   1      48.498  28.662  27.884  1.00  0.00     0.040 A 
ATOM     61  C   UNL A   1      48.391  27.970  30.187  1.00  0.00     0.040 A 
ATOM     62  F   UNL A   1      46.451  28.368  31.447  1.00  0.00    -0.206 F 
ATOM     63  C   UNL A   1      49.092  28.052  28.986  1.00  0.00     0.006 A 
ENDBRANCH  42  56
BRANCH  43  64
ATOM     64  C   UNL A   1      37.072  32.338  30.103  1.00  0.00     0.057 A 
ATOM     65  C   UNL A   1      36.338  32.026  31.253  1.00  0.00     0.134 A 
ATOM     66  C   UNL A   1      36.437  33.110  29.123  1.00  0.00     0.134 A 
ATOM     67  F   UNL A   1      36.885  31.275  32.220  1.00  0.00    -0.206 F 
ATOM     68  C   UNL A   1      35.017  32.447  31.415  1.00  0.00     0.040 A 
ATOM     69  C   UNL A   1      35.125  33.559  29.282  1.00  0.00     0.040 A 
ATOM     70  F   UNL A   1      37.089  33.450  28.001  1.00  0.00    -0.206 F 
ATOM     71  C   UNL A   1      34.408  33.220  30.428  1.00  0.00     0.006 A 
ENDBRANCH  43  64
BRANCH  55  72
ATOM     72  C   UNL A   1      43.291  35.199  31.365  1.00  0.00     0.057 A 
ATOM     73  C   UNL A   1      43.389  35.472  32.735  1.00  0.00     0.134 A 
ATOM     74  C   UNL A   1      43.631  36.224  30.473  1.00  0.00     0.134 A 
ATOM     75  F   UNL A   1      43.065  34.536  33.640  1.00  0.00    -0.206 F 
ATOM     76  C   UNL A   1      43.790  36.725  33.200  1.00  0.00     0.040 A 
ATOM     77  C   UNL A   1      44.059  37.472  30.925  1.00  0.00     0.040 A 
ATOM     78  F   UNL A   1      43.569  36.023  29.148  1.00  0.00    -0.206 F 
ATOM     79  C   UNL A   1      44.133  37.727  32.293  1.00  0.00     0.006 A 
ENDBRANCH  55  72
ENDBRANCH  29  30
ENDBRANCH  21  24
ENDBRANCH  19  20
ENDBRANCH   1  19
TORSDOF 13
ENDMDL
MODEL 2
REMARK VINA RESULT:     -10.4      3.649     10.967
REMARK SMILES CC[C@H]1CC[C@](O)([C@H](F)C(=O)NCCCNC(=O)c2ccc(-c3c4nc(c(-c5c(F)cccc5F)c5ccc([nH]5)c(-c5c(F)cccc5F)c5nc(c(-c6c(F)cccc6F)c6ccc3[nH]6)C=C5)C=C4)cc2)CC1
REMARK SMILES IDX 14 1 13 2 12 3 10 4 11 5 8 7 9 8 6 9 3 10 4 11 74 12 5 13
REMARK SMILES IDX 73 14 2 15 1 16 7 17 15 19 16 20 17 21 18 23 19 24 20 25
REMARK SMILES IDX 72 26 21 27 71 28 22 29 23 30 24 31 65 32 25 33 70 34 64 35
REMARK SMILES IDX 66 36 26 37 69 38 63 39 62 40 27 42 53 43 36 44 52 45 37 46
REMARK SMILES IDX 40 47 51 48 67 49 38 50 39 51 50 53 68 54 41 55 28 56 29 57
REMARK SMILES IDX 34 58 30 59 31 60 33 61 35 62 32 63 54 64 55 65 60 66 56 67
REMARK SMILES IDX 57 68 59 69 61 70 58 71 42 72 43 73 48 74 44 75 45 76 47 77
REMARK SMILES IDX 49 78 46 79
REMARK H PARENT 12 6 7 18 16 22 66 41 40 52
REMARK Flexibility Score: inf
ROOT
ATOM      1  C   UNL A   1      33.615  33.744  28.345  1.00  0.00     0.042 C 
ENDROOT
BRANCH   1   2
ATOM      2  C   UNL A   1      33.986  34.874  29.281  1.00  0.00     0.117 C 
BRANCH   2   3
ATOM      3  N   UNL A   1      32.918  35.202  30.201  1.00  0.00    -0.353 N 
ATOM      4  C   UNL A   1      32.982  35.305  31.556  1.00  0.00     0.257 C 
ATOM      5  O   UNL A   1      31.954  35.639  32.153  1.00  0.00    -0.272 OA
ATOM      6  H   UNL A   1      32.036  35.373  29.797  1.00  0.00     0.163 HD
BRANCH   4   7
ATOM      7  C   UNL A   1      34.291  35.072  32.303  1.00  0.00     0.286 C 
ATOM      8  F   UNL A   1      34.554  36.072  33.203  1.00  0.00    -0.234 F 
BRANCH   7   9
ATOM      9  C   UNL A   1      34.445  33.680  32.996  1.00  0.00     0.105 C 
ATOM     10  C   UNL A   1      37.300  32.709  32.894  1.00  0.00    -0.011 C 
ATOM     11  C   UNL A   1      36.876  33.904  33.761  1.00  0.00     0.006 C 
ATOM     12  C   UNL A   1      36.377  32.617  31.668  1.00  0.00     0.006 C 
ATOM     13  C   UNL A   1      35.413  33.820  34.192  1.00  0.00     0.039 C 
ATOM     14  C   UNL A   1      34.907  32.539  32.065  1.00  0.00     0.039 C 
BRANCH  10  15
ATOM     15  C   UNL A   1      37.336  31.359  33.645  1.00  0.00    -0.000 C 
ATOM     16  C   UNL A   1      38.494  30.454  33.255  1.00  0.00     0.004 C 
ENDBRANCH  10  15
BRANCH   9  17
ATOM     17  O   UNL A   1      33.177  33.263  33.547  1.00  0.00    -0.386 OA
ATOM     18  H   UNL A   1      33.215  33.312  34.515  1.00  0.00     0.211 HD
ENDBRANCH   9  17
ENDBRANCH   7   9
ENDBRANCH   4   7
ENDBRANCH   2   3
ENDBRANCH   1   2
BRANCH   1  19
ATOM     19  C   UNL A   1      34.587  32.578  28.367  1.00  0.00     0.118 C 
BRANCH  19  20
ATOM     20  N   UNL A   1      33.957  31.295  28.087  1.00  0.00    -0.352 N 
ATOM     21  C   UNL A   1      34.528  30.049  27.989  1.00  0.00     0.251 C 
ATOM     22  H   UNL A   1      32.982  31.323  27.949  1.00  0.00     0.163 HD
ATOM     23  O   UNL A   1      33.869  29.090  27.600  1.00  0.00    -0.269 OA
BRANCH  21  24
ATOM     24  C   UNL A   1      35.958  29.881  28.322  1.00  0.00     0.039 A 
ATOM     25  C   UNL A   1      36.313  29.447  29.600  1.00  0.00     0.014 A 
ATOM     26  C   UNL A   1      36.939  30.100  27.353  1.00  0.00     0.014 A 
ATOM     27  C   UNL A   1      37.648  29.148  29.877  1.00  0.00     0.010 A 
ATOM     28  C   UNL A   1      38.244  29.694  27.595  1.00  0.00     0.010 A 
ATOM     29  C   UNL A   1      38.616  29.222  28.862  1.00  0.00    -0.014 A 
BRANCH  29  30
ATOM     30  C   UNL A   1      40.027  28.829  29.101  1.00  0.00     0.031 A 
ATOM     31  C   UNL A   1      40.974  29.804  29.746  1.00  0.00     0.074 A 
ATOM     32  C   UNL A   1      40.475  27.635  28.668  1.00  0.00     0.049 A 
ATOM     33  N   UNL A   1      42.261  29.692  29.957  1.00  0.00    -0.248 NA
ATOM     34  C   UNL A   1      40.408  31.093  30.175  1.00  0.00     0.031 C 
ATOM     35  C   UNL A   1      39.671  26.627  27.973  1.00  0.00     0.029 A 
ATOM     36  N   UNL A   1      41.724  27.070  28.739  1.00  0.00    -0.354 N 
ATOM     37  C   UNL A   1      42.656  30.900  30.519  1.00  0.00     0.074 A 
ATOM     38  C   UNL A   1      41.490  31.752  30.558  1.00  0.00     0.031 C 
ATOM     39  C   UNL A   1      40.439  25.558  27.708  1.00  0.00     0.029 A 
ATOM     40  C   UNL A   1      41.796  25.819  28.177  1.00  0.00     0.049 A 
ATOM     41  H   UNL A   1      42.495  27.520  29.154  1.00  0.00     0.167 HD
ATOM     42  C   UNL A   1      43.875  31.255  30.987  1.00  0.00     0.037 A 
ATOM     43  C   UNL A   1      42.840  24.979  28.050  1.00  0.00     0.037 A 
ATOM     44  C   UNL A   1      45.023  30.390  30.983  1.00  0.00     0.049 A 
ATOM     45  C   UNL A   1      44.182  25.391  28.592  1.00  0.00     0.074 A 
ATOM     46  C   UNL A   1      46.285  30.629  31.499  1.00  0.00     0.029 A 
ATOM     47  N   UNL A   1      45.047  29.117  30.434  1.00  0.00    -0.354 N 
ATOM     48  N   UNL A   1      44.524  26.508  29.189  1.00  0.00    -0.248 NA
ATOM     49  C   UNL A   1      45.279  24.425  28.450  1.00  0.00     0.031 C 
ATOM     50  C   UNL A   1      47.084  29.514  31.226  1.00  0.00     0.029 A 
ATOM     51  C   UNL A   1      46.308  28.564  30.583  1.00  0.00     0.049 A 
ATOM     52  H   UNL A   1      44.282  28.672  30.003  1.00  0.00     0.167 HD
ATOM     53  C   UNL A   1      45.866  26.368  29.516  1.00  0.00     0.074 A 
ATOM     54  C   UNL A   1      46.271  25.053  29.065  1.00  0.00     0.031 C 
ATOM     55  C   UNL A   1      46.689  27.249  30.135  1.00  0.00     0.037 A 
BRANCH  42  56
ATOM     56  C   UNL A   1      44.019  32.637  31.555  1.00  0.00     0.057 A 
ATOM     57  C   UNL A   1      44.395  33.729  30.760  1.00  0.00     0.134 A 
ATOM     58  C   UNL A   1      43.758  32.886  32.908  1.00  0.00     0.134 A 
ATOM     59  F   UNL A   1      44.674  33.557  29.459  1.00  0.00    -0.206 F 
ATOM     60  C   UNL A   1      44.535  35.010  31.295  1.00  0.00     0.040 A 
ATOM     61  C   UNL A   1      43.866  34.168  33.449  1.00  0.00     0.040 A 
ATOM     62  F   UNL A   1      43.390  31.887  33.725  1.00  0.00    -0.206 F 
ATOM     63  C   UNL A   1      44.262  35.233  32.643  1.00  0.00     0.006 A 
ENDBRANCH  42  56
BRANCH  43  64
ATOM     64  C   UNL A   1      42.657  23.653  27.409  1.00  0.00     0.057 A 
ATOM     65  C   UNL A   1      42.351  22.520  28.171  1.00  0.00     0.134 A 
ATOM     66  C   UNL A   1      42.789  23.482  26.025  1.00  0.00     0.134 A 
ATOM     67  F   UNL A   1      42.228  22.616  29.504  1.00  0.00    -0.206 F 
ATOM     68  C   UNL A   1      42.201  21.262  27.585  1.00  0.00     0.040 A 
ATOM     69  C   UNL A   1      42.617  22.235  25.423  1.00  0.00     0.040 A 
ATOM     70  F   UNL A   1      43.074  24.530  25.238  1.00  0.00    -0.206 F 
ATOM     71  C   UNL A   1      42.330  21.118  26.206  1.00  0.00     0.006 A 
ENDBRANCH  43  64
BRANCH  55  72
ATOM     72  C   UNL A   1      48.099  26.806  30.392  1.00  0.00     0.057 A 
ATOM     73  C   UNL A   1      48.444  26.050  31.519  1.00  0.00     0.134 A 
ATOM     74  C   UNL A   1      49.116  27.105  29.475  1.00  0.00     0.134 A 
ATOM     75  F   UNL A   1      47.519  25.742  32.440  1.00  0.00    -0.206 F 
ATOM     76  C   UNL A   1      49.755  25.624  31.736  1.00  0.00     0.040 A 
ATOM     77  C   UNL A   1      50.424  26.663  29.668  1.00  0.00     0.040 A 
ATOM     78  F   UNL A   1      48.849  27.817  28.370  1.00  0.00    -0.206 F 
ATOM     79  C   UNL A   1      50.748  25.925  30.804  1.00  0.00     0.006 A 
ENDBRANCH  55  72
ENDBRANCH  29  30
ENDBRANCH  21  24
ENDBRANCH  19  20
ENDBRANCH   1  19
TORSDOF 13
ENDMDL
MODEL 3
REMARK VINA RESULT:     -10.4      0.755      1.602
REMARK SMILES CC[C@H]1CC[C@](O)([C@H](F)C(=O)NCCCNC(=O)c2ccc(-c3c4nc(c(-c5c(F)cccc5F)c5ccc([nH]5)c(-c5c(F)cccc5F)c5nc(c(-c6c(F)cccc6F)c6ccc3[nH]6)C=C5)C=C4)cc2)CC1
REMARK SMILES IDX 14 1 13 2 12 3 10 4 11 5 8 7 9 8 6 9 3 10 4 11 74 12 5 13
REMARK SMILES IDX 73 14 2 15 1 16 7 17 15 19 16 20 17 21 18 23 19 24 20 25
REMARK SMILES IDX 72 26 21 27 71 28 22 29 23 30 24 31 65 32 25 33 70 34 64 35
REMARK SMILES IDX 66 36 26 37 69 38 63 39 62 40 27 42 53 43 36 44 52 45 37 46
REMARK SMILES IDX 40 47 51 48 67 49 38 50 39 51 50 53 68 54 41 55 28 56 29 57
REMARK SMILES IDX 34 58 30 59 31 60 33 61 35 62 32 63 54 64 55 65 60 66 56 67
REMARK SMILES IDX 57 68 59 69 61 70 58 71 42 72 43 73 48 74 44 75 45 76 47 77
REMARK SMILES IDX 49 78 46 79
REMARK H PARENT 12 6 7 18 16 22 66 41 40 52
REMARK Flexibility Score: inf
ROOT
ATOM      1  C   UNL A   1      41.002  20.083  26.217  1.00  0.00     0.042 C 
ENDROOT
BRANCH   1   2
ATOM      2  C   UNL A   1      42.481  19.831  26.426  1.00  0.00     0.117 C 
BRANCH   2   3
ATOM      3  N   UNL A   1      43.114  19.265  25.254  1.00  0.00    -0.353 N 
ATOM      4  C   UNL A   1      44.218  19.717  24.599  1.00  0.00     0.257 C 
ATOM      5  O   UNL A   1      44.621  19.056  23.637  1.00  0.00    -0.272 OA
ATOM      6  H   UNL A   1      42.696  18.453  24.885  1.00  0.00     0.163 HD
BRANCH   4   7
ATOM      7  C   UNL A   1      44.962  20.959  25.073  1.00  0.00     0.286 C 
ATOM      8  F   UNL A   1      46.319  20.763  25.113  1.00  0.00    -0.234 F 
BRANCH   7   9
ATOM      9  C   UNL A   1      44.641  22.284  24.308  1.00  0.00     0.105 C 
ATOM     10  C   UNL A   1      44.686  24.666  26.160  1.00  0.00    -0.011 C 
ATOM     11  C   UNL A   1      45.965  23.904  25.780  1.00  0.00     0.006 C 
ATOM     12  C   UNL A   1      43.490  23.700  26.123  1.00  0.00     0.006 C 
ATOM     13  C   UNL A   1      45.857  23.231  24.413  1.00  0.00     0.039 C 
ATOM     14  C   UNL A   1      43.358  23.006  24.772  1.00  0.00     0.039 C 
BRANCH  10  15
ATOM     15  C   UNL A   1      44.404  25.909  25.289  1.00  0.00    -0.000 C 
ATOM     16  C   UNL A   1      45.546  26.911  25.235  1.00  0.00     0.004 C 
ENDBRANCH  10  15
BRANCH   9  17
ATOM     17  O   UNL A   1      44.462  22.006  22.902  1.00  0.00    -0.386 OA
ATOM     18  H   UNL A   1      43.909  22.697  22.505  1.00  0.00     0.211 HD
ENDBRANCH   9  17
ENDBRANCH   7   9
ENDBRANCH   4   7
ENDBRANCH   2   3
ENDBRANCH   1   2
BRANCH   1  19
ATOM     19  C   UNL A   1      40.554  21.483  26.596  1.00  0.00     0.118 C 
BRANCH  19  20
ATOM     20  N   UNL A   1      39.333  21.901  25.921  1.00  0.00    -0.352 N 
ATOM     21  C   UNL A   1      38.686  23.114  25.965  1.00  0.00     0.251 C 
ATOM     22  H   UNL A   1      38.909  21.218  25.352  1.00  0.00     0.163 HD
ATOM     23  O   UNL A   1      37.581  23.250  25.449  1.00  0.00    -0.269 OA
BRANCH  21  24
ATOM     24  C   UNL A   1      39.320  24.245  26.674  1.00  0.00     0.039 A 
ATOM     25  C   UNL A   1      40.104  25.146  25.953  1.00  0.00     0.014 A 
ATOM     26  C   UNL A   1      39.090  24.441  28.037  1.00  0.00     0.014 A 
ATOM     27  C   UNL A   1      40.585  26.294  26.584  1.00  0.00     0.010 A 
ATOM     28  C   UNL A   1      39.471  25.637  28.631  1.00  0.00     0.010 A 
ATOM     29  C   UNL A   1      40.231  26.573  27.915  1.00  0.00    -0.014 A 
BRANCH  29  30
ATOM     30  C   UNL A   1      40.655  27.826  28.588  1.00  0.00     0.031 A 
ATOM     31  C   UNL A   1      42.088  27.997  29.011  1.00  0.00     0.074 A 
ATOM     32  C   UNL A   1      39.741  28.768  28.890  1.00  0.00     0.049 A 
ATOM     33  N   UNL A   1      42.640  28.969  29.692  1.00  0.00    -0.248 NA
ATOM     34  C   UNL A   1      43.018  26.913  28.657  1.00  0.00     0.031 C 
ATOM     35  C   UNL A   1      38.310  28.693  28.589  1.00  0.00     0.029 A 
ATOM     36  N   UNL A   1      39.881  29.974  29.530  1.00  0.00    -0.354 N 
ATOM     37  C   UNL A   1      43.968  28.601  29.865  1.00  0.00     0.074 A 
ATOM     38  C   UNL A   1      44.126  27.292  29.275  1.00  0.00     0.031 C 
ATOM     39  C   UNL A   1      37.710  29.815  29.017  1.00  0.00     0.029 A 
ATOM     40  C   UNL A   1      38.703  30.671  29.658  1.00  0.00     0.049 A 
ATOM     41  H   UNL A   1      40.744  30.309  29.865  1.00  0.00     0.167 HD
ATOM     42  C   UNL A   1      44.973  29.304  30.437  1.00  0.00     0.037 A 
ATOM     43  C   UNL A   1      38.454  31.862  30.231  1.00  0.00     0.037 A 
ATOM     44  C   UNL A   1      44.820  30.624  30.988  1.00  0.00     0.049 A 
ATOM     45  C   UNL A   1      39.590  32.632  30.848  1.00  0.00     0.074 A 
ATOM     46  C   UNL A   1      45.790  31.451  31.525  1.00  0.00     0.029 A 
ATOM     47  N   UNL A   1      43.618  31.309  31.068  1.00  0.00    -0.354 N 
ATOM     48  N   UNL A   1      40.857  32.304  30.938  1.00  0.00    -0.248 NA
ATOM     49  C   UNL A   1      39.264  33.938  31.436  1.00  0.00     0.031 C 
ATOM     50  C   UNL A   1      45.167  32.621  31.969  1.00  0.00     0.029 A 
ATOM     51  C   UNL A   1      43.817  32.543  31.665  1.00  0.00     0.049 A 
ATOM     52  H   UNL A   1      42.750  30.969  30.749  1.00  0.00     0.167 HD
ATOM     53  C   UNL A   1      41.481  33.372  31.566  1.00  0.00     0.074 A 
ATOM     54  C   UNL A   1      40.458  34.364  31.822  1.00  0.00     0.031 C 
ATOM     55  C   UNL A   1      42.787  33.520  31.902  1.00  0.00     0.037 A 
BRANCH  42  56
ATOM     56  C   UNL A   1      46.327  28.659  30.483  1.00  0.00     0.057 A 
ATOM     57  C   UNL A   1      47.249  28.799  29.436  1.00  0.00     0.134 A 
ATOM     58  C   UNL A   1      46.724  27.906  31.595  1.00  0.00     0.134 A 
ATOM     59  F   UNL A   1      46.926  29.494  28.335  1.00  0.00    -0.206 F 
ATOM     60  C   UNL A   1      48.504  28.189  29.480  1.00  0.00     0.040 A 
ATOM     61  C   UNL A   1      47.988  27.316  31.664  1.00  0.00     0.040 A 
ATOM     62  F   UNL A   1      45.893  27.736  32.634  1.00  0.00    -0.206 F 
ATOM     63  C   UNL A   1      48.879  27.451  30.601  1.00  0.00     0.006 A 
ENDBRANCH  42  56
BRANCH  43  64
ATOM     64  C   UNL A   1      37.077  32.418  30.226  1.00  0.00     0.057 A 
ATOM     65  C   UNL A   1      36.662  33.308  29.228  1.00  0.00     0.134 A 
ATOM     66  C   UNL A   1      36.146  32.082  31.216  1.00  0.00     0.134 A 
ATOM     67  F   UNL A   1      37.514  33.682  28.261  1.00  0.00    -0.206 F 
ATOM     68  C   UNL A   1      35.380  33.858  29.224  1.00  0.00     0.040 A 
ATOM     69  C   UNL A   1      34.852  32.606  31.211  1.00  0.00     0.040 A 
ATOM     70  F   UNL A   1      36.478  31.229  32.196  1.00  0.00    -0.206 F 
ATOM     71  C   UNL A   1      34.469  33.503  30.216  1.00  0.00     0.006 A 
ENDBRANCH  43  64
BRANCH  55  72
ATOM     72  C   UNL A   1      43.186  34.813  32.550  1.00  0.00     0.057 A 
ATOM     73  C   UNL A   1      43.597  35.921  31.799  1.00  0.00     0.134 A 
ATOM     74  C   UNL A   1      43.117  34.961  33.941  1.00  0.00     0.134 A 
ATOM     75  F   UNL A   1      43.697  35.838  30.464  1.00  0.00    -0.206 F 
ATOM     76  C   UNL A   1      43.945  37.125  32.411  1.00  0.00     0.040 A 
ATOM     77  C   UNL A   1      43.437  36.168  34.562  1.00  0.00     0.040 A 
ATOM     78  F   UNL A   1      42.721  33.941  34.717  1.00  0.00    -0.206 F 
ATOM     79  C   UNL A   1      43.858  37.253  33.796  1.00  0.00     0.006 A 
ENDBRANCH  55  72
ENDBRANCH  29  30
ENDBRANCH  21  24
ENDBRANCH  19  20
ENDBRANCH   1  19
TORSDOF 13
ENDMDL
