MODEL 1
REMARK VINA RESULT:     -12.4      0.000      0.000
REMARK SMILES O=C(NCCCNC(=O)c1coc(-c2csc(-c3ccc(Cl)cn3)n2)c1)c1ccc(-c2c3nc(c(-c4c(F)cccc4F)c4ccc([nH]4)c(-c4c(F)cccc4F)c4nc(c(-c5c(F)cccc5F)c5ccc2[nH]5)C=C4)C=C3)cc1
REMARK SMILES IDX 5 1 4 2 3 3 1 4 2 5 27 7 28 8 80 9 29 10 79 11 30 12 31 13
REMARK SMILES IDX 32 14 73 15 33 16 78 17 72 18 74 19 34 20 77 21 71 22 70 23
REMARK SMILES IDX 35 25 61 26 44 27 60 28 45 29 48 30 59 31 75 32 46 33 47 34
REMARK SMILES IDX 58 36 76 37 49 38 36 39 37 40 42 41 38 42 39 43 41 44 43 45
REMARK SMILES IDX 40 46 62 47 63 48 68 49 64 50 65 51 67 52 69 53 66 54 50 55
REMARK SMILES IDX 51 56 56 57 52 58 53 59 55 60 57 61 54 62 6 63 7 64 8 65
REMARK SMILES IDX 9 67 10 68 11 69 26 70 12 71 13 72 14 73 15 74 25 75 16 76
REMARK SMILES IDX 17 77 18 78 19 79 24 80 20 81 23 82 21 83 22 84
REMARK H PARENT 3 6 74 24 48 35 7 66
REMARK Flexibility Score: inf
ROOT
ATOM      1  C   UNL A   1      37.635  19.731  24.787  1.00  0.00     0.042 C 
ENDROOT
BRANCH   1   2
ATOM      2  C   UNL A   1      38.795  20.263  25.633  1.00  0.00     0.118 C 
BRANCH   2   3
ATOM      3  N   UNL A   1      39.889  19.314  25.737  1.00  0.00    -0.352 N 
ATOM      4  O   UNL A   1      41.985  18.569  25.977  1.00  0.00    -0.269 OA
ATOM      5  C   UNL A   1      41.201  19.509  26.083  1.00  0.00     0.251 C 
ATOM      6  H   UNL A   1      39.652  18.383  25.525  1.00  0.00     0.163 HD
BRANCH   5   7
ATOM      7  C   UNL A   1      41.701  20.818  26.565  1.00  0.00     0.039 A 
ATOM      8  C   UNL A   1      42.222  21.786  25.701  1.00  0.00     0.014 A 
ATOM      9  C   UNL A   1      41.519  21.124  27.920  1.00  0.00     0.014 A 
ATOM     10  C   UNL A   1      42.587  23.043  26.197  1.00  0.00     0.010 A 
ATOM     11  C   UNL A   1      41.869  22.383  28.413  1.00  0.00     0.010 A 
ATOM     12  C   UNL A   1      42.407  23.351  27.553  1.00  0.00    -0.014 A 
BRANCH  12  13
ATOM     13  C   UNL A   1      42.705  24.709  28.066  1.00  0.00     0.031 A 
ATOM     14  C   UNL A   1      44.095  25.086  28.480  1.00  0.00     0.074 A 
ATOM     15  C   UNL A   1      41.701  25.596  28.201  1.00  0.00     0.049 A 
ATOM     16  N   UNL A   1      44.535  26.235  28.927  1.00  0.00    -0.248 NA
ATOM     17  C   UNL A   1      45.124  24.041  28.382  1.00  0.00     0.031 C 
ATOM     18  C   UNL A   1      40.299  25.344  27.868  1.00  0.00     0.029 A 
ATOM     19  N   UNL A   1      41.710  26.885  28.669  1.00  0.00    -0.354 N 
ATOM     20  C   UNL A   1      45.890  26.054  29.165  1.00  0.00     0.074 A 
ATOM     21  C   UNL A   1      46.198  24.679  28.827  1.00  0.00     0.031 C 
ATOM     22  C   UNL A   1      39.581  26.446  28.142  1.00  0.00     0.029 A 
ATOM     23  C   UNL A   1      40.470  27.473  28.677  1.00  0.00     0.049 A 
ATOM     24  H   UNL A   1      42.527  27.344  28.970  1.00  0.00     0.167 HD
ATOM     25  C   UNL A   1      46.796  26.956  29.610  1.00  0.00     0.037 A 
ATOM     26  C   UNL A   1      40.092  28.699  29.080  1.00  0.00     0.037 A 
ATOM     27  C   UNL A   1      46.505  28.331  29.914  1.00  0.00     0.049 A 
ATOM     28  C   UNL A   1      41.105  29.653  29.634  1.00  0.00     0.074 A 
ATOM     29  C   UNL A   1      47.384  29.359  30.206  1.00  0.00     0.029 A 
ATOM     30  N   UNL A   1      45.228  28.862  29.991  1.00  0.00    -0.354 N 
ATOM     31  N   UNL A   1      42.400  29.502  29.749  1.00  0.00    -0.248 NA
ATOM     32  C   UNL A   1      40.600  30.944  30.126  1.00  0.00     0.031 C 
ATOM     33  C   UNL A   1      46.636  30.510  30.490  1.00  0.00     0.029 A 
ATOM     34  C   UNL A   1      45.293  30.192  30.371  1.00  0.00     0.049 A 
ATOM     35  H   UNL A   1      44.398  28.367  29.801  1.00  0.00     0.167 HD
ATOM     36  C   UNL A   1      42.869  30.679  30.313  1.00  0.00     0.074 A 
ATOM     37  C   UNL A   1      41.718  31.532  30.532  1.00  0.00     0.031 C 
ATOM     38  C   UNL A   1      44.144  31.023  30.608  1.00  0.00     0.037 A 
BRANCH  25  39
ATOM     39  C   UNL A   1      48.201  26.480  29.777  1.00  0.00     0.057 A 
ATOM     40  C   UNL A   1      48.632  25.899  30.974  1.00  0.00     0.134 A 
ATOM     41  C   UNL A   1      49.121  26.580  28.727  1.00  0.00     0.134 A 
ATOM     42  F   UNL A   1      47.794  25.786  32.015  1.00  0.00    -0.206 F 
ATOM     43  C   UNL A   1      49.938  25.431  31.124  1.00  0.00     0.040 A 
ATOM     44  C   UNL A   1      50.430  26.116  28.865  1.00  0.00     0.040 A 
ATOM     45  F   UNL A   1      48.765  27.138  27.560  1.00  0.00    -0.206 F 
ATOM     46  C   UNL A   1      50.840  25.539  30.066  1.00  0.00     0.006 A 
ENDBRANCH  25  39
BRANCH  26  47
ATOM     47  C   UNL A   1      38.671  29.092  28.981  1.00  0.00     0.057 A 
ATOM     48  C   UNL A   1      38.145  29.585  27.784  1.00  0.00     0.134 A 
ATOM     49  C   UNL A   1      37.811  28.975  30.077  1.00  0.00     0.134 A 
ATOM     50  F   UNL A   1      38.933  29.726  26.707  1.00  0.00    -0.206 F 
ATOM     51  C   UNL A   1      36.804  29.950  27.678  1.00  0.00     0.040 A 
ATOM     52  C   UNL A   1      36.466  29.334  29.985  1.00  0.00     0.040 A 
ATOM     53  F   UNL A   1      38.270  28.515  31.250  1.00  0.00    -0.206 F 
ATOM     54  C   UNL A   1      35.960  29.823  28.781  1.00  0.00     0.006 A 
ENDBRANCH  26  47
BRANCH  38  55
ATOM     55  C   UNL A   1      44.359  32.375  31.204  1.00  0.00     0.057 A 
ATOM     56  C   UNL A   1      44.390  32.556  32.591  1.00  0.00     0.134 A 
ATOM     57  C   UNL A   1      44.545  33.500  30.392  1.00  0.00     0.134 A 
ATOM     58  F   UNL A   1      44.204  31.515  33.416  1.00  0.00    -0.206 F 
ATOM     59  C   UNL A   1      44.597  33.816  33.153  1.00  0.00     0.040 A 
ATOM     60  C   UNL A   1      44.757  34.764  30.943  1.00  0.00     0.040 A 
ATOM     61  F   UNL A   1      44.517  33.386  29.056  1.00  0.00    -0.206 F 
ATOM     62  C   UNL A   1      44.783  34.924  32.328  1.00  0.00     0.006 A 
ENDBRANCH  38  55
ENDBRANCH  12  13
ENDBRANCH   5   7
ENDBRANCH   2   3
ENDBRANCH   1   2
BRANCH   1  63
ATOM     63  C   UNL A   1      36.288  20.415  25.044  1.00  0.00     0.118 C 
BRANCH  63  64
ATOM     64  N   UNL A   1      35.173  19.499  24.900  1.00  0.00    -0.352 N 
ATOM     65  C   UNL A   1      33.829  19.732  25.046  1.00  0.00     0.254 C 
ATOM     66  H   UNL A   1      35.416  18.574  24.666  1.00  0.00     0.163 HD
ATOM     67  O   UNL A   1      33.081  18.773  25.216  1.00  0.00    -0.269 OA
BRANCH  65  68
ATOM     68  C   UNL A   1      33.330  21.089  25.008  1.00  0.00     0.078 A 
ATOM     69  C   UNL A   1      33.041  21.895  26.089  1.00  0.00     0.209 A 
ATOM     70  C   UNL A   1      33.160  21.922  23.866  1.00  0.00     0.066 A 
ATOM     71  O   UNL A   1      32.690  23.142  25.686  1.00  0.00    -0.462 OA
ATOM     72  C   UNL A   1      32.767  23.164  24.323  1.00  0.00     0.153 A 
BRANCH  72  73
ATOM     73  C   UNL A   1      32.504  24.356  23.470  1.00  0.00     0.117 A 
ATOM     74  C   UNL A   1      32.891  24.423  22.149  1.00  0.00     0.099 A 
ATOM     75  N   UNL A   1      31.843  25.470  23.955  1.00  0.00    -0.231 NA
ATOM     76  S   UNL A   1      32.354  25.899  21.465  1.00  0.00    -0.120 S 
ATOM     77  C   UNL A   1      31.678  26.353  22.987  1.00  0.00     0.142 A 
BRANCH  77  78
ATOM     78  C   UNL A   1      31.024  27.659  23.154  1.00  0.00     0.099 A 
ATOM     79  C   UNL A   1      31.335  28.469  24.246  1.00  0.00     0.033 A 
ATOM     80  N   UNL A   1      30.101  28.013  22.221  1.00  0.00    -0.252 NA
ATOM     81  C   UNL A   1      30.684  29.695  24.388  1.00  0.00     0.024 A 
ATOM     82  C   UNL A   1      29.472  29.202  22.396  1.00  0.00     0.132 A 
ATOM     83  C   UNL A   1      29.732  30.066  23.448  1.00  0.00     0.059 A 
ATOM     84  Cl  UNL A   1      28.896  31.558  23.593  1.00  0.00    -0.083 Cl
ENDBRANCH  77  78
ENDBRANCH  72  73
ENDBRANCH  65  68
ENDBRANCH  63  64
ENDBRANCH   1  63
TORSDOF 12
ENDMDL
MODEL 2
REMARK VINA RESULT:     -12.3      4.662      9.474
REMARK SMILES O=C(NCCCNC(=O)c1coc(-c2csc(-c3ccc(Cl)cn3)n2)c1)c1ccc(-c2c3nc(c(-c4c(F)cccc4F)c4ccc([nH]4)c(-c4c(F)cccc4F)c4nc(c(-c5c(F)cccc5F)c5ccc2[nH]5)C=C4)C=C3)cc1
REMARK SMILES IDX 5 1 4 2 3 3 1 4 2 5 27 7 28 8 80 9 29 10 79 11 30 12 31 13
REMARK SMILES IDX 32 14 73 15 33 16 78 17 72 18 74 19 34 20 77 21 71 22 70 23
REMARK SMILES IDX 35 25 61 26 44 27 60 28 45 29 48 30 59 31 75 32 46 33 47 34
REMARK SMILES IDX 58 36 76 37 49 38 36 39 37 40 42 41 38 42 39 43 41 44 43 45
REMARK SMILES IDX 40 46 62 47 63 48 68 49 64 50 65 51 67 52 69 53 66 54 50 55
REMARK SMILES IDX 51 56 56 57 52 58 53 59 55 60 57 61 54 62 6 63 7 64 8 65
REMARK SMILES IDX 9 67 10 68 11 69 26 70 12 71 13 72 14 73 15 74 25 75 16 76
REMARK SMILES IDX 17 77 18 78 19 79 24 80 20 81 23 82 21 83 22 84
REMARK H PARENT 3 6 74 24 48 35 7 66
REMARK Flexibility Score: inf
ROOT
ATOM      1  C   UNL A   1      31.383  31.905  26.513  1.00  0.00     0.042 C 
ENDROOT
BRANCH   1   2
ATOM      2  C   UNL A   1      32.633  32.442  27.216  1.00  0.00     0.118 C 
BRANCH   2   3
ATOM      3  N   UNL A   1      32.506  33.839  27.589  1.00  0.00    -0.352 N 
ATOM      4  O   UNL A   1      32.798  35.715  28.773  1.00  0.00    -0.269 OA
ATOM      5  C   UNL A   1      33.167  34.565  28.545  1.00  0.00     0.251 C 
ATOM      6  H   UNL A   1      31.839  34.347  27.072  1.00  0.00     0.163 HD
BRANCH   5   7
ATOM      7  C   UNL A   1      34.296  33.999  29.320  1.00  0.00     0.039 A 
ATOM      8  C   UNL A   1      34.105  33.138  30.404  1.00  0.00     0.014 A 
ATOM      9  C   UNL A   1      35.593  34.250  28.853  1.00  0.00     0.014 A 
ATOM     10  C   UNL A   1      35.209  32.555  31.038  1.00  0.00     0.010 A 
ATOM     11  C   UNL A   1      36.694  33.657  29.475  1.00  0.00     0.010 A 
ATOM     12  C   UNL A   1      36.509  32.805  30.572  1.00  0.00    -0.014 A 
BRANCH  12  13
ATOM     13  C   UNL A   1      37.674  32.119  31.179  1.00  0.00     0.031 A 
ATOM     14  C   UNL A   1      38.341  30.974  30.479  1.00  0.00     0.074 A 
ATOM     15  C   UNL A   1      38.105  32.505  32.394  1.00  0.00     0.049 A 
ATOM     16  N   UNL A   1      39.384  30.278  30.855  1.00  0.00    -0.248 NA
ATOM     17  C   UNL A   1      37.765  30.555  29.193  1.00  0.00     0.031 C 
ATOM     18  C   UNL A   1      37.523  33.581  33.195  1.00  0.00     0.029 A 
ATOM     19  N   UNL A   1      39.128  32.022  33.169  1.00  0.00    -0.354 N 
ATOM     20  C   UNL A   1      39.590  29.337  29.856  1.00  0.00     0.074 A 
ATOM     21  C   UNL A   1      38.555  29.542  28.863  1.00  0.00     0.031 C 
ATOM     22  C   UNL A   1      38.200  33.679  34.353  1.00  0.00     0.029 A 
ATOM     23  C   UNL A   1      39.252  32.667  34.375  1.00  0.00     0.049 A 
ATOM     24  H   UNL A   1      39.717  31.285  32.888  1.00  0.00     0.167 HD
ATOM     25  C   UNL A   1      40.563  28.400  29.768  1.00  0.00     0.037 A 
ATOM     26  C   UNL A   1      40.112  32.459  35.388  1.00  0.00     0.037 A 
ATOM     27  C   UNL A   1      41.615  28.215  30.731  1.00  0.00     0.049 A 
ATOM     28  C   UNL A   1      41.134  31.368  35.293  1.00  0.00     0.074 A 
ATOM     29  C   UNL A   1      42.737  27.409  30.645  1.00  0.00     0.029 A 
ATOM     30  N   UNL A   1      41.655  28.827  31.972  1.00  0.00    -0.354 N 
ATOM     31  N   UNL A   1      41.384  30.561  34.294  1.00  0.00    -0.248 NA
ATOM     32  C   UNL A   1      41.985  31.152  36.473  1.00  0.00     0.031 C 
ATOM     33  C   UNL A   1      43.444  27.512  31.851  1.00  0.00     0.029 A 
ATOM     34  C   UNL A   1      42.758  28.382  32.681  1.00  0.00     0.049 A 
ATOM     35  H   UNL A   1      40.998  29.481  32.301  1.00  0.00     0.167 HD
ATOM     36  C   UNL A   1      42.427  29.750  34.715  1.00  0.00     0.074 A 
ATOM     37  C   UNL A   1      42.756  30.151  36.068  1.00  0.00     0.031 C 
ATOM     38  C   UNL A   1      43.062  28.770  34.032  1.00  0.00     0.037 A 
BRANCH  25  39
ATOM     39  C   UNL A   1      40.542  27.511  28.568  1.00  0.00     0.057 A 
ATOM     40  C   UNL A   1      39.767  26.347  28.543  1.00  0.00     0.134 A 
ATOM     41  C   UNL A   1      41.280  27.833  27.424  1.00  0.00     0.134 A 
ATOM     42  F   UNL A   1      39.047  25.987  29.616  1.00  0.00    -0.206 F 
ATOM     43  C   UNL A   1      39.726  25.528  27.414  1.00  0.00     0.040 A 
ATOM     44  C   UNL A   1      41.248  27.022  26.289  1.00  0.00     0.040 A 
ATOM     45  F   UNL A   1      42.049  28.932  27.397  1.00  0.00    -0.206 F 
ATOM     46  C   UNL A   1      40.468  25.866  26.283  1.00  0.00     0.006 A 
ENDBRANCH  25  39
BRANCH  26  47
ATOM     47  C   UNL A   1      40.034  33.307  36.595  1.00  0.00     0.057 A 
ATOM     48  C   UNL A   1      39.169  32.982  37.644  1.00  0.00     0.134 A 
ATOM     49  C   UNL A   1      40.826  34.451  36.727  1.00  0.00     0.134 A 
ATOM     50  F   UNL A   1      38.382  31.899  37.560  1.00  0.00    -0.206 F 
ATOM     51  C   UNL A   1      39.095  33.771  38.791  1.00  0.00     0.040 A 
ATOM     52  C   UNL A   1      40.762  35.248  37.870  1.00  0.00     0.040 A 
ATOM     53  F   UNL A   1      41.664  34.809  35.744  1.00  0.00    -0.206 F 
ATOM     54  C   UNL A   1      39.895  34.908  38.907  1.00  0.00     0.006 A 
ENDBRANCH  26  47
BRANCH  38  55
ATOM     55  C   UNL A   1      44.171  28.061  34.739  1.00  0.00     0.057 A 
ATOM     56  C   UNL A   1      45.474  28.570  34.730  1.00  0.00     0.134 A 
ATOM     57  C   UNL A   1      43.936  26.874  35.441  1.00  0.00     0.134 A 
ATOM     58  F   UNL A   1      45.759  29.698  34.061  1.00  0.00    -0.206 F 
ATOM     59  C   UNL A   1      46.512  27.916  35.395  1.00  0.00     0.040 A 
ATOM     60  C   UNL A   1      44.965  26.214  36.113  1.00  0.00     0.040 A 
ATOM     61  F   UNL A   1      42.708  26.337  35.478  1.00  0.00    -0.206 F 
ATOM     62  C   UNL A   1      46.258  26.735  36.090  1.00  0.00     0.006 A 
ENDBRANCH  38  55
ENDBRANCH  12  13
ENDBRANCH   5   7
ENDBRANCH   2   3
ENDBRANCH   1   2
BRANCH   1  63
ATOM     63  C   UNL A   1      31.592  30.598  25.742  1.00  0.00     0.118 C 
BRANCH  63  64
ATOM     64  N   UNL A   1      30.676  30.470  24.624  1.00  0.00    -0.352 N 
ATOM     65  C   UNL A   1      30.613  29.500  23.656  1.00  0.00     0.254 C 
ATOM     66  H   UNL A   1      30.002  31.183  24.549  1.00  0.00     0.163 HD
ATOM     67  O   UNL A   1      29.999  29.743  22.620  1.00  0.00    -0.269 OA
BRANCH  65  68
ATOM     68  C   UNL A   1      31.275  28.232  23.868  1.00  0.00     0.078 A 
ATOM     69  C   UNL A   1      32.620  27.966  23.723  1.00  0.00     0.209 A 
ATOM     70  C   UNL A   1      30.713  27.036  24.398  1.00  0.00     0.066 A 
ATOM     71  O   UNL A   1      32.909  26.696  24.103  1.00  0.00    -0.462 OA
ATOM     72  C   UNL A   1      31.742  26.123  24.523  1.00  0.00     0.153 A 
BRANCH  72  73
ATOM     73  C   UNL A   1      31.613  24.743  25.067  1.00  0.00     0.117 A 
ATOM     74  C   UNL A   1      30.641  24.393  25.979  1.00  0.00     0.099 A 
ATOM     75  N   UNL A   1      32.461  23.723  24.677  1.00  0.00    -0.231 NA
ATOM     76  S   UNL A   1      30.743  22.716  26.315  1.00  0.00    -0.120 S 
ATOM     77  C   UNL A   1      32.094  22.589  25.248  1.00  0.00     0.142 A 
BRANCH  77  78
ATOM     78  C   UNL A   1      32.783  21.303  25.066  1.00  0.00     0.099 A 
ATOM     79  C   UNL A   1      34.175  21.253  24.992  1.00  0.00     0.033 A 
ATOM     80  N   UNL A   1      32.005  20.196  24.947  1.00  0.00    -0.252 NA
ATOM     81  C   UNL A   1      34.800  20.021  24.798  1.00  0.00     0.024 A 
ATOM     82  C   UNL A   1      32.640  19.015  24.742  1.00  0.00     0.132 A 
ATOM     83  C   UNL A   1      34.018  18.881  24.666  1.00  0.00     0.059 A 
ATOM     84  Cl  UNL A   1      34.744  17.347  24.412  1.00  0.00    -0.083 Cl
ENDBRANCH  77  78
ENDBRANCH  72  73
ENDBRANCH  65  68
ENDBRANCH  63  64
ENDBRANCH   1  63
TORSDOF 12
ENDMDL
MODEL 3
REMARK VINA RESULT:     -12.3      4.441      9.571
REMARK SMILES O=C(NCCCNC(=O)c1coc(-c2csc(-c3ccc(Cl)cn3)n2)c1)c1ccc(-c2c3nc(c(-c4c(F)cccc4F)c4ccc([nH]4)c(-c4c(F)cccc4F)c4nc(c(-c5c(F)cccc5F)c5ccc2[nH]5)C=C4)C=C3)cc1
REMARK SMILES IDX 5 1 4 2 3 3 1 4 2 5 27 7 28 8 80 9 29 10 79 11 30 12 31 13
REMARK SMILES IDX 32 14 73 15 33 16 78 17 72 18 74 19 34 20 77 21 71 22 70 23
REMARK SMILES IDX 35 25 61 26 44 27 60 28 45 29 48 30 59 31 75 32 46 33 47 34
REMARK SMILES IDX 58 36 76 37 49 38 36 39 37 40 42 41 38 42 39 43 41 44 43 45
REMARK SMILES IDX 40 46 62 47 63 48 68 49 64 50 65 51 67 52 69 53 66 54 50 55
REMARK SMILES IDX 51 56 56 57 52 58 53 59 55 60 57 61 54 62 6 63 7 64 8 65
REMARK SMILES IDX 9 67 10 68 11 69 26 70 12 71 13 72 14 73 15 74 25 75 16 76
REMARK SMILES IDX 17 77 18 78 19 79 24 80 20 81 23 82 21 83 22 84
REMARK H PARENT 3 6 74 24 48 35 7 66
REMARK Flexibility Score: inf
ROOT
ATOM      1  C   UNL A   1      31.281  31.972  26.479  1.00  0.00     0.042 C 
ENDROOT
BRANCH   1   2
ATOM      2  C   UNL A   1      32.561  32.442  27.177  1.00  0.00     0.118 C 
BRANCH   2   3
ATOM      3  N   UNL A   1      32.491  33.832  27.592  1.00  0.00    -0.352 N 
ATOM      4  O   UNL A   1      32.883  35.663  28.815  1.00  0.00    -0.269 OA
ATOM      5  C   UNL A   1      33.207  34.510  28.543  1.00  0.00     0.251 C 
ATOM      6  H   UNL A   1      31.822  34.374  27.114  1.00  0.00     0.163 HD
BRANCH   5   7
ATOM      7  C   UNL A   1      34.345  33.888  29.260  1.00  0.00     0.039 A 
ATOM      8  C   UNL A   1      34.166  32.966  30.297  1.00  0.00     0.014 A 
ATOM      9  C   UNL A   1      35.636  34.153  28.784  1.00  0.00     0.014 A 
ATOM     10  C   UNL A   1      35.275  32.336  30.872  1.00  0.00     0.010 A 
ATOM     11  C   UNL A   1      36.742  33.513  29.348  1.00  0.00     0.010 A 
ATOM     12  C   UNL A   1      36.568  32.600  30.397  1.00  0.00    -0.014 A 
BRANCH  12  13
ATOM     13  C   UNL A   1      37.737  31.868  30.939  1.00  0.00     0.031 A 
ATOM     14  C   UNL A   1      38.328  32.238  32.265  1.00  0.00     0.074 A 
ATOM     15  C   UNL A   1      38.297  30.888  30.205  1.00  0.00     0.049 A 
ATOM     16  N   UNL A   1      39.334  31.689  32.898  1.00  0.00    -0.248 NA
ATOM     17  C   UNL A   1      37.715  33.372  32.972  1.00  0.00     0.031 C 
ATOM     18  C   UNL A   1      37.840  30.453  28.886  1.00  0.00     0.029 A 
ATOM     19  N   UNL A   1      39.383  30.092  30.466  1.00  0.00    -0.354 N 
ATOM     20  C   UNL A   1      39.477  32.407  34.076  1.00  0.00     0.074 A 
ATOM     21  C   UNL A   1      38.464  33.443  34.065  1.00  0.00     0.031 C 
ATOM     22  C   UNL A   1      38.641  29.465  28.450  1.00  0.00     0.029 A 
ATOM     23  C   UNL A   1      39.668  29.208  29.455  1.00  0.00     0.049 A 
ATOM     24  H   UNL A   1      39.906  30.148  31.298  1.00  0.00     0.167 HD
ATOM     25  C   UNL A   1      40.362  32.210  35.082  1.00  0.00     0.037 A 
ATOM     26  C   UNL A   1      40.654  28.299  29.347  1.00  0.00     0.037 A 
ATOM     27  C   UNL A   1      41.346  31.163  35.116  1.00  0.00     0.049 A 
ATOM     28  C   UNL A   1      41.662  28.151  30.445  1.00  0.00     0.074 A 
ATOM     29  C   UNL A   1      42.169  30.780  36.162  1.00  0.00     0.029 A 
ATOM     30  N   UNL A   1      41.659  30.347  34.042  1.00  0.00    -0.354 N 
ATOM     31  N   UNL A   1      41.716  28.764  31.600  1.00  0.00    -0.248 NA
ATOM     32  C   UNL A   1      42.754  27.193  30.218  1.00  0.00     0.031 C 
ATOM     33  C   UNL A   1      43.003  29.749  35.709  1.00  0.00     0.029 A 
ATOM     34  C   UNL A   1      42.694  29.494  34.383  1.00  0.00     0.049 A 
ATOM     35  H   UNL A   1      41.210  30.370  33.166  1.00  0.00     0.167 HD
ATOM     36  C   UNL A   1      42.835  28.260  32.244  1.00  0.00     0.074 A 
ATOM     37  C   UNL A   1      43.443  27.299  31.346  1.00  0.00     0.031 C 
ATOM     38  C   UNL A   1      43.305  28.560  33.477  1.00  0.00     0.037 A 
BRANCH  25  39
ATOM     39  C   UNL A   1      40.288  33.147  36.242  1.00  0.00     0.057 A 
ATOM     40  C   UNL A   1      39.393  32.928  37.294  1.00  0.00     0.134 A 
ATOM     41  C   UNL A   1      41.135  34.258  36.321  1.00  0.00     0.134 A 
ATOM     42  F   UNL A   1      38.553  31.883  37.266  1.00  0.00    -0.206 F 
ATOM     43  C   UNL A   1      39.340  33.788  38.392  1.00  0.00     0.040 A 
ATOM     44  C   UNL A   1      41.091  35.126  37.413  1.00  0.00     0.040 A 
ATOM     45  F   UNL A   1      42.006  34.521  35.336  1.00  0.00    -0.206 F 
ATOM     46  C   UNL A   1      40.192  34.890  38.452  1.00  0.00     0.006 A 
ENDBRANCH  25  39
BRANCH  26  47
ATOM     47  C   UNL A   1      40.740  27.458  28.136  1.00  0.00     0.057 A 
ATOM     48  C   UNL A   1      41.461  27.884  27.017  1.00  0.00     0.134 A 
ATOM     49  C   UNL A   1      40.109  26.211  28.076  1.00  0.00     0.134 A 
ATOM     50  F   UNL A   1      42.074  29.077  27.022  1.00  0.00    -0.206 F 
ATOM     51  C   UNL A   1      41.555  27.093  25.872  1.00  0.00     0.040 A 
ATOM     52  C   UNL A   1      40.197  25.410  26.938  1.00  0.00     0.040 A 
ATOM     53  F   UNL A   1      39.398  25.763  29.120  1.00  0.00    -0.206 F 
ATOM     54  C   UNL A   1      40.922  25.851  25.832  1.00  0.00     0.006 A 
ENDBRANCH  26  47
BRANCH  38  55
ATOM     55  C   UNL A   1      44.539  27.845  33.923  1.00  0.00     0.057 A 
ATOM     56  C   UNL A   1      45.805  28.416  33.752  1.00  0.00     0.134 A 
ATOM     57  C   UNL A   1      44.464  26.588  34.534  1.00  0.00     0.134 A 
ATOM     58  F   UNL A   1      45.937  29.613  33.160  1.00  0.00    -0.206 F 
ATOM     59  C   UNL A   1      46.960  27.755  34.172  1.00  0.00     0.040 A 
ATOM     60  C   UNL A   1      45.612  25.921  34.961  1.00  0.00     0.040 A 
ATOM     61  F   UNL A   1      43.277  25.991  34.716  1.00  0.00    -0.206 F 
ATOM     62  C   UNL A   1      46.864  26.505  34.780  1.00  0.00     0.006 A 
ENDBRANCH  38  55
ENDBRANCH  12  13
ENDBRANCH   5   7
ENDBRANCH   2   3
ENDBRANCH   1   2
BRANCH   1  63
ATOM     63  C   UNL A   1      31.433  30.687  25.659  1.00  0.00     0.118 C 
BRANCH  63  64
ATOM     64  N   UNL A   1      30.472  30.614  24.574  1.00  0.00    -0.352 N 
ATOM     65  C   UNL A   1      30.361  29.686  23.570  1.00  0.00     0.254 C 
ATOM     66  H   UNL A   1      29.802  31.335  24.556  1.00  0.00     0.163 HD
ATOM     67  O   UNL A   1      29.708  29.977  22.571  1.00  0.00    -0.269 OA
BRANCH  65  68
ATOM     68  C   UNL A   1      31.018  28.405  23.702  1.00  0.00     0.078 A 
ATOM     69  C   UNL A   1      32.288  28.078  23.275  1.00  0.00     0.209 A 
ATOM     70  C   UNL A   1      30.558  27.261  24.413  1.00  0.00     0.066 A 
ATOM     71  O   UNL A   1      32.620  26.818  23.654  1.00  0.00    -0.462 OA
ATOM     72  C   UNL A   1      31.563  26.315  24.357  1.00  0.00     0.153 A 
BRANCH  72  73
ATOM     73  C   UNL A   1      31.521  24.971  24.995  1.00  0.00     0.117 A 
ATOM     74  C   UNL A   1      30.661  24.664  26.027  1.00  0.00     0.099 A 
ATOM     75  N   UNL A   1      32.344  23.939  24.579  1.00  0.00    -0.231 NA
ATOM     76  S   UNL A   1      30.833  23.014  26.452  1.00  0.00    -0.120 S 
ATOM     77  C   UNL A   1      32.064  22.839  25.255  1.00  0.00     0.142 A 
BRANCH  77  78
ATOM     78  C   UNL A   1      32.756  21.554  25.078  1.00  0.00     0.099 A 
ATOM     79  C   UNL A   1      34.149  21.505  25.020  1.00  0.00     0.033 A 
ATOM     80  N   UNL A   1      31.980  20.446  24.947  1.00  0.00    -0.252 NA
ATOM     81  C   UNL A   1      34.777  20.273  24.831  1.00  0.00     0.024 A 
ATOM     82  C   UNL A   1      32.619  19.266  24.747  1.00  0.00     0.132 A 
ATOM     83  C   UNL A   1      33.997  19.133  24.688  1.00  0.00     0.059 A 
ATOM     84  Cl  UNL A   1      34.728  17.601  24.439  1.00  0.00    -0.083 Cl
ENDBRANCH  77  78
ENDBRANCH  72  73
ENDBRANCH  65  68
ENDBRANCH  63  64
ENDBRANCH   1  63
TORSDOF 12
ENDMDL
