MODEL 1
REMARK VINA RESULT:     -12.3      0.000      0.000
REMARK SMILES Cc1ccccc1C[C@H](C[C@@H]1Cc2ccccc21)C(=O)NCCCNC(=O)c1ccc(-c2c3nc(c(-c4c(F)cccc4F)c4ccc([nH]4)c(-c4c(F)cccc4F)c4nc(c(-c5c(F)cccc5F)c5ccc2[nH]5)C=C4)C=C3)cc1
REMARK SMILES IDX 23 1 22 2 21 3 19 4 20 5 9 7 8 8 7 9 1 10 2 11 3 12 4 13
REMARK SMILES IDX 6 14 5 15 10 16 11 17 12 18 18 19 13 20 17 21 14 22 16 23
REMARK SMILES IDX 15 24 24 25 25 26 26 27 27 29 28 30 29 31 81 32 30 33 80 34
REMARK SMILES IDX 31 35 32 36 33 37 74 38 34 39 79 40 73 41 75 42 35 43 78 44
REMARK SMILES IDX 72 45 71 46 36 48 62 49 45 50 61 51 46 52 49 53 60 54 76 55
REMARK SMILES IDX 47 56 48 57 59 59 77 60 50 61 37 62 38 63 43 64 39 65 40 66
REMARK SMILES IDX 42 67 44 68 41 69 63 70 64 71 69 72 65 73 66 74 68 75 70 76
REMARK SMILES IDX 67 77 51 78 52 79 57 80 53 81 54 82 56 83 58 84 55 85
REMARK H PARENT 21 6 25 28 75 47 49 58
REMARK Flexibility Score: inf
ROOT
ATOM      1  C   UNL A   1      32.060  30.841  26.531  1.00  0.00     0.042 C 
ENDROOT
BRANCH   1   2
ATOM      2  C   UNL A   1      32.380  30.075  25.268  1.00  0.00     0.117 C 
BRANCH   2   3
ATOM      3  N   UNL A   1      31.258  29.888  24.372  1.00  0.00    -0.356 N 
ATOM      4  C   UNL A   1      30.526  28.796  24.041  1.00  0.00     0.223 C 
ATOM      5  O   UNL A   1      29.456  29.009  23.458  1.00  0.00    -0.275 OA
ATOM      6  H   UNL A   1      30.971  30.712  23.916  1.00  0.00     0.163 HD
BRANCH   4   7
ATOM      7  C   UNL A   1      30.964  27.351  24.292  1.00  0.00     0.083 C 
BRANCH   7   8
ATOM      8  C   UNL A   1      30.644  26.374  23.125  1.00  0.00     0.049 C 
BRANCH   8   9
ATOM      9  C   UNL A   1      31.436  25.086  22.996  1.00  0.00    -0.044 A 
ATOM     10  C   UNL A   1      33.528  26.214  21.988  1.00  0.00     0.044 C 
ATOM     11  C   UNL A   1      32.728  25.014  22.420  1.00  0.00    -0.048 A 
ATOM     12  C   UNL A   1      33.288  23.748  22.143  1.00  0.00     0.004 A 
ATOM     13  C   UNL A   1      32.621  22.571  22.475  1.00  0.00     0.000 A 
ATOM     14  C   UNL A   1      30.819  23.881  23.400  1.00  0.00     0.004 A 
ATOM     15  C   UNL A   1      31.397  22.638  23.131  1.00  0.00     0.000 A 
ENDBRANCH   8   9
ENDBRANCH   7   8
BRANCH   7  16
ATOM     16  C   UNL A   1      30.678  26.813  25.705  1.00  0.00     0.022 C 
BRANCH  16  17
ATOM     17  C   UNL A   1      31.958  26.571  26.525  1.00  0.00     0.025 C 
ATOM     18  C   UNL A   1      33.327  26.943  25.834  1.00  0.00     0.044 C 
ATOM     19  C   UNL A   1      32.457  25.138  26.467  1.00  0.00    -0.041 A 
ATOM     20  C   UNL A   1      33.623  25.469  25.826  1.00  0.00    -0.044 A 
ATOM     21  C   UNL A   1      32.168  23.840  26.825  1.00  0.00     0.004 A 
ATOM     22  C   UNL A   1      34.549  24.516  25.464  1.00  0.00     0.004 A 
ATOM     23  C   UNL A   1      33.089  22.851  26.477  1.00  0.00     0.000 A 
ATOM     24  C   UNL A   1      34.270  23.186  25.791  1.00  0.00     0.000 A 
ENDBRANCH  16  17
ENDBRANCH   7  16
ENDBRANCH   4   7
ENDBRANCH   2   3
ENDBRANCH   1   2
BRANCH   1  25
ATOM     25  C   UNL A   1      33.076  30.588  27.623  1.00  0.00     0.118 C 
BRANCH  25  26
ATOM     26  N   UNL A   1      34.030  31.662  27.893  1.00  0.00    -0.352 N 
ATOM     27  C   UNL A   1      35.363  31.571  28.320  1.00  0.00     0.251 C 
ATOM     28  H   UNL A   1      33.690  32.574  27.756  1.00  0.00     0.163 HD
ATOM     29  O   UNL A   1      36.031  32.559  28.471  1.00  0.00    -0.269 OA
BRANCH  27  30
ATOM     30  C   UNL A   1      35.980  30.213  28.428  1.00  0.00     0.039 A 
ATOM     31  C   UNL A   1      36.182  29.696  29.713  1.00  0.00     0.014 A 
ATOM     32  C   UNL A   1      36.694  29.706  27.359  1.00  0.00     0.014 A 
ATOM     33  C   UNL A   1      37.334  28.954  29.965  1.00  0.00     0.010 A 
ATOM     34  C   UNL A   1      37.933  29.177  27.641  1.00  0.00     0.010 A 
ATOM     35  C   UNL A   1      38.283  28.845  28.955  1.00  0.00    -0.014 A 
BRANCH  35  36
ATOM     36  C   UNL A   1      39.688  28.508  29.167  1.00  0.00     0.031 A 
ATOM     37  C   UNL A   1      40.201  27.194  28.709  1.00  0.00     0.074 A 
ATOM     38  C   UNL A   1      40.556  29.453  29.603  1.00  0.00     0.049 A 
ATOM     39  N   UNL A   1      41.342  26.703  29.051  1.00  0.00    -0.248 NA
ATOM     40  C   UNL A   1      39.451  26.306  27.825  1.00  0.00     0.031 C 
ATOM     41  C   UNL A   1      42.016  29.427  29.502  1.00  0.00     0.029 A 
ATOM     42  N   UNL A   1      40.293  30.572  30.410  1.00  0.00    -0.354 N 
ATOM     43  C   UNL A   1      41.596  25.618  28.245  1.00  0.00     0.074 A 
ATOM     44  C   UNL A   1      40.380  25.404  27.504  1.00  0.00     0.031 C 
ATOM     45  C   UNL A   1      42.534  30.253  30.423  1.00  0.00     0.029 A 
ATOM     46  C   UNL A   1      41.432  30.725  31.237  1.00  0.00     0.049 A 
ATOM     47  H   UNL A   1      39.484  31.133  30.401  1.00  0.00     0.167 HD
ATOM     48  C   UNL A   1      42.850  25.088  28.222  1.00  0.00     0.037 A 
ATOM     49  C   UNL A   1      41.356  30.590  32.593  1.00  0.00     0.037 A 
ATOM     50  C   UNL A   1      43.716  25.750  29.190  1.00  0.00     0.049 A 
ATOM     51  C   UNL A   1      42.225  29.487  33.156  1.00  0.00     0.074 A 
ATOM     52  C   UNL A   1      44.659  26.759  29.086  1.00  0.00     0.029 A 
ATOM     53  N   UNL A   1      43.432  25.617  30.542  1.00  0.00    -0.354 N 
ATOM     54  N   UNL A   1      42.751  28.533  32.437  1.00  0.00    -0.248 NA
ATOM     55  C   UNL A   1      42.562  29.356  34.572  1.00  0.00     0.031 C 
ATOM     56  C   UNL A   1      44.922  27.253  30.389  1.00  0.00     0.029 A 
ATOM     57  C   UNL A   1      44.152  26.531  31.284  1.00  0.00     0.049 A 
ATOM     58  H   UNL A   1      42.805  24.959  30.921  1.00  0.00     0.167 HD
ATOM     59  C   UNL A   1      43.446  27.665  33.244  1.00  0.00     0.074 A 
ATOM     60  C   UNL A   1      43.319  28.244  34.568  1.00  0.00     0.031 C 
ATOM     61  C   UNL A   1      44.044  26.543  32.736  1.00  0.00     0.037 A 
BRANCH  48  62
ATOM     62  C   UNL A   1      43.336  24.143  27.154  1.00  0.00     0.057 A 
ATOM     63  C   UNL A   1      43.921  24.629  25.969  1.00  0.00     0.134 A 
ATOM     64  C   UNL A   1      43.217  22.744  27.212  1.00  0.00     0.134 A 
ATOM     65  F   UNL A   1      44.188  25.930  25.796  1.00  0.00    -0.206 F 
ATOM     66  C   UNL A   1      44.258  23.803  24.890  1.00  0.00     0.040 A 
ATOM     67  C   UNL A   1      43.493  21.910  26.118  1.00  0.00     0.040 A 
ATOM     68  F   UNL A   1      42.879  22.117  28.345  1.00  0.00    -0.206 F 
ATOM     69  C   UNL A   1      44.007  22.441  24.946  1.00  0.00     0.006 A 
ENDBRANCH  48  62
BRANCH  49  70
ATOM     70  C   UNL A   1      40.056  31.053  33.142  1.00  0.00     0.057 A 
ATOM     71  C   UNL A   1      39.851  32.440  33.269  1.00  0.00     0.134 A 
ATOM     72  C   UNL A   1      38.919  30.241  33.114  1.00  0.00     0.134 A 
ATOM     73  F   UNL A   1      40.902  33.274  33.305  1.00  0.00    -0.206 F 
ATOM     74  C   UNL A   1      38.574  33.004  33.230  1.00  0.00     0.040 A 
ATOM     75  C   UNL A   1      37.634  30.797  33.090  1.00  0.00     0.040 A 
ATOM     76  F   UNL A   1      39.033  28.914  32.966  1.00  0.00    -0.206 F 
ATOM     77  C   UNL A   1      37.461  32.181  33.100  1.00  0.00     0.006 A 
ENDBRANCH  49  70
BRANCH  61  78
ATOM     78  C   UNL A   1      44.634  25.367  33.495  1.00  0.00     0.057 A 
ATOM     79  C   UNL A   1      45.986  24.999  33.491  1.00  0.00     0.134 A 
ATOM     80  C   UNL A   1      43.833  24.637  34.413  1.00  0.00     0.134 A 
ATOM     81  F   UNL A   1      46.894  25.647  32.753  1.00  0.00    -0.206 F 
ATOM     82  C   UNL A   1      46.493  23.972  34.304  1.00  0.00     0.040 A 
ATOM     83  C   UNL A   1      44.340  23.656  35.272  1.00  0.00     0.040 A 
ATOM     84  F   UNL A   1      42.517  24.859  34.544  1.00  0.00    -0.206 F 
ATOM     85  C   UNL A   1      45.676  23.310  35.211  1.00  0.00     0.006 A 
ENDBRANCH  61  78
ENDBRANCH  35  36
ENDBRANCH  27  30
ENDBRANCH  25  26
ENDBRANCH   1  25
TORSDOF 14
ENDMDL
MODEL 2
REMARK VINA RESULT:     -12.2      0.961      2.344
REMARK SMILES Cc1ccccc1C[C@H](C[C@@H]1Cc2ccccc21)C(=O)NCCCNC(=O)c1ccc(-c2c3nc(c(-c4c(F)cccc4F)c4ccc([nH]4)c(-c4c(F)cccc4F)c4nc(c(-c5c(F)cccc5F)c5ccc2[nH]5)C=C4)C=C3)cc1
REMARK SMILES IDX 23 1 22 2 21 3 19 4 20 5 9 7 8 8 7 9 1 10 2 11 3 12 4 13
REMARK SMILES IDX 6 14 5 15 10 16 11 17 12 18 18 19 13 20 17 21 14 22 16 23
REMARK SMILES IDX 15 24 24 25 25 26 26 27 27 29 28 30 29 31 81 32 30 33 80 34
REMARK SMILES IDX 31 35 32 36 33 37 74 38 34 39 79 40 73 41 75 42 35 43 78 44
REMARK SMILES IDX 72 45 71 46 36 48 62 49 45 50 61 51 46 52 49 53 60 54 76 55
REMARK SMILES IDX 47 56 48 57 59 59 77 60 50 61 37 62 38 63 43 64 39 65 40 66
REMARK SMILES IDX 42 67 44 68 41 69 63 70 64 71 69 72 65 73 66 74 68 75 70 76
REMARK SMILES IDX 67 77 51 78 52 79 57 80 53 81 54 82 56 83 58 84 55 85
REMARK H PARENT 21 6 25 28 75 47 49 58
REMARK Flexibility Score: inf
ROOT
ATOM      1  C   UNL A   1      32.138  30.793  26.587  1.00  0.00     0.042 C 
ENDROOT
BRANCH   1   2
ATOM      2  C   UNL A   1      31.990  29.705  25.547  1.00  0.00     0.117 C 
BRANCH   2   3
ATOM      3  N   UNL A   1      32.907  29.806  24.431  1.00  0.00    -0.356 N 
ATOM      4  C   UNL A   1      33.400  28.884  23.568  1.00  0.00     0.223 C 
ATOM      5  O   UNL A   1      33.949  29.324  22.550  1.00  0.00    -0.275 OA
ATOM      6  H   UNL A   1      33.235  30.720  24.268  1.00  0.00     0.163 HD
BRANCH   4   7
ATOM      7  C   UNL A   1      33.368  27.372  23.804  1.00  0.00     0.083 C 
BRANCH   7   8
ATOM      8  C   UNL A   1      33.761  26.941  25.245  1.00  0.00     0.049 C 
BRANCH   8   9
ATOM      9  C   UNL A   1      33.391  25.552  25.733  1.00  0.00    -0.044 A 
ATOM     10  C   UNL A   1      30.932  26.148  26.246  1.00  0.00     0.044 C 
ATOM     11  C   UNL A   1      32.114  25.216  26.244  1.00  0.00    -0.048 A 
ATOM     12  C   UNL A   1      31.933  23.966  26.875  1.00  0.00     0.004 A 
ATOM     13  C   UNL A   1      32.969  23.037  26.956  1.00  0.00     0.000 A 
ATOM     14  C   UNL A   1      34.398  24.563  25.751  1.00  0.00     0.004 A 
ATOM     15  C   UNL A   1      34.195  23.325  26.366  1.00  0.00     0.000 A 
ENDBRANCH   8   9
ENDBRANCH   7   8
BRANCH   7  16
ATOM     16  C   UNL A   1      33.962  26.518  22.670  1.00  0.00     0.022 C 
BRANCH  16  17
ATOM     17  C   UNL A   1      32.901  25.684  21.929  1.00  0.00     0.025 C 
ATOM     18  C   UNL A   1      31.410  25.826  22.426  1.00  0.00     0.044 C 
ATOM     19  C   UNL A   1      32.801  24.251  22.418  1.00  0.00    -0.041 A 
ATOM     20  C   UNL A   1      31.520  24.400  22.887  1.00  0.00    -0.044 A 
ATOM     21  C   UNL A   1      33.467  23.048  22.496  1.00  0.00     0.004 A 
ATOM     22  C   UNL A   1      30.847  23.367  23.501  1.00  0.00     0.004 A 
ATOM     23  C   UNL A   1      32.810  21.980  23.109  1.00  0.00     0.000 A 
ATOM     24  C   UNL A   1      31.509  22.142  23.618  1.00  0.00     0.000 A 
ENDBRANCH  16  17
ENDBRANCH   7  16
ENDBRANCH   4   7
ENDBRANCH   2   3
ENDBRANCH   1   2
BRANCH   1  25
ATOM     25  C   UNL A   1      33.295  30.529  27.526  1.00  0.00     0.118 C 
BRANCH  25  26
ATOM     26  N   UNL A   1      34.229  31.631  27.743  1.00  0.00    -0.352 N 
ATOM     27  C   UNL A   1      35.583  31.583  28.105  1.00  0.00     0.251 C 
ATOM     28  H   UNL A   1      33.856  32.533  27.617  1.00  0.00     0.163 HD
ATOM     29  O   UNL A   1      36.228  32.592  28.217  1.00  0.00    -0.269 OA
BRANCH  27  30
ATOM     30  C   UNL A   1      36.245  30.244  28.189  1.00  0.00     0.039 A 
ATOM     31  C   UNL A   1      36.288  29.625  29.444  1.00  0.00     0.014 A 
ATOM     32  C   UNL A   1      37.128  29.860  27.198  1.00  0.00     0.014 A 
ATOM     33  C   UNL A   1      37.428  28.906  29.799  1.00  0.00     0.010 A 
ATOM     34  C   UNL A   1      38.338  29.356  27.613  1.00  0.00     0.010 A 
ATOM     35  C   UNL A   1      38.514  28.922  28.932  1.00  0.00    -0.014 A 
BRANCH  35  36
ATOM     36  C   UNL A   1      39.891  28.619  29.318  1.00  0.00     0.031 A 
ATOM     37  C   UNL A   1      40.548  27.402  28.784  1.00  0.00     0.074 A 
ATOM     38  C   UNL A   1      40.622  29.534  30.000  1.00  0.00     0.049 A 
ATOM     39  N   UNL A   1      41.654  26.919  29.236  1.00  0.00    -0.248 NA
ATOM     40  C   UNL A   1      39.996  26.610  27.688  1.00  0.00     0.031 C 
ATOM     41  C   UNL A   1      42.079  29.584  30.128  1.00  0.00     0.029 A 
ATOM     42  N   UNL A   1      40.171  30.523  30.890  1.00  0.00    -0.354 N 
ATOM     43  C   UNL A   1      42.093  25.964  28.351  1.00  0.00     0.074 A 
ATOM     44  C   UNL A   1      41.018  25.800  27.406  1.00  0.00     0.031 C 
ATOM     45  C   UNL A   1      42.400  30.300  31.215  1.00  0.00     0.029 A 
ATOM     46  C   UNL A   1      41.161  30.612  31.899  1.00  0.00     0.049 A 
ATOM     47  H   UNL A   1      39.339  31.045  30.826  1.00  0.00     0.167 HD
ATOM     48  C   UNL A   1      43.367  25.496  28.458  1.00  0.00     0.037 A 
ATOM     49  C   UNL A   1      40.891  30.293  33.198  1.00  0.00     0.037 A 
ATOM     50  C   UNL A   1      44.035  26.058  29.625  1.00  0.00     0.049 A 
ATOM     51  C   UNL A   1      41.733  29.162  33.747  1.00  0.00     0.074 A 
ATOM     52  C   UNL A   1      44.917  27.112  29.799  1.00  0.00     0.029 A 
ATOM     53  N   UNL A   1      43.560  25.733  30.889  1.00  0.00    -0.354 N 
ATOM     54  N   UNL A   1      42.420  28.337  33.005  1.00  0.00    -0.248 NA
ATOM     55  C   UNL A   1      41.861  28.857  35.170  1.00  0.00     0.031 C 
ATOM     56  C   UNL A   1      44.950  27.437  31.179  1.00  0.00     0.029 A 
ATOM     57  C   UNL A   1      44.101  26.569  31.843  1.00  0.00     0.049 A 
ATOM     58  H   UNL A   1      42.926  25.004  31.078  1.00  0.00     0.167 HD
ATOM     59  C   UNL A   1      43.039  27.399  33.795  1.00  0.00     0.074 A 
ATOM     60  C   UNL A   1      42.679  27.789  35.145  1.00  0.00     0.031 C 
ATOM     61  C   UNL A   1      43.776  26.382  33.250  1.00  0.00     0.037 A 
BRANCH  48  62
ATOM     62  C   UNL A   1      44.066  24.724  27.369  1.00  0.00     0.057 A 
ATOM     63  C   UNL A   1      44.819  25.387  26.381  1.00  0.00     0.134 A 
ATOM     64  C   UNL A   1      44.001  23.329  27.211  1.00  0.00     0.134 A 
ATOM     65  F   UNL A   1      45.053  26.704  26.438  1.00  0.00    -0.206 F 
ATOM     66  C   UNL A   1      45.368  24.732  25.272  1.00  0.00     0.040 A 
ATOM     67  C   UNL A   1      44.493  22.667  26.077  1.00  0.00     0.040 A 
ATOM     68  F   UNL A   1      43.507  22.539  28.172  1.00  0.00    -0.206 F 
ATOM     69  C   UNL A   1      45.172  23.372  25.095  1.00  0.00     0.006 A 
ENDBRANCH  48  62
BRANCH  49  70
ATOM     70  C   UNL A   1      39.497  30.621  33.590  1.00  0.00     0.057 A 
ATOM     71  C   UNL A   1      39.204  31.959  33.917  1.00  0.00     0.134 A 
ATOM     72  C   UNL A   1      38.423  29.804  33.231  1.00  0.00     0.134 A 
ATOM     73  F   UNL A   1      40.191  32.796  34.275  1.00  0.00    -0.206 F 
ATOM     74  C   UNL A   1      37.923  32.493  33.761  1.00  0.00     0.040 A 
ATOM     75  C   UNL A   1      37.132  30.327  33.085  1.00  0.00     0.040 A 
ATOM     76  F   UNL A   1      38.628  28.527  32.877  1.00  0.00    -0.206 F 
ATOM     77  C   UNL A   1      36.889  31.682  33.303  1.00  0.00     0.006 A 
ENDBRANCH  49  70
BRANCH  61  78
ATOM     78  C   UNL A   1      44.318  25.140  33.938  1.00  0.00     0.057 A 
ATOM     79  C   UNL A   1      43.543  24.185  34.609  1.00  0.00     0.134 A 
ATOM     80  C   UNL A   1      45.687  24.788  33.798  1.00  0.00     0.134 A 
ATOM     81  F   UNL A   1      42.219  24.317  34.746  1.00  0.00    -0.206 F 
ATOM     82  C   UNL A   1      44.087  22.997  35.126  1.00  0.00     0.040 A 
ATOM     83  C   UNL A   1      46.224  23.580  34.254  1.00  0.00     0.040 A 
ATOM     84  F   UNL A   1      46.570  25.589  33.185  1.00  0.00    -0.206 F 
ATOM     85  C   UNL A   1      45.424  22.681  34.933  1.00  0.00     0.006 A 
ENDBRANCH  61  78
ENDBRANCH  35  36
ENDBRANCH  27  30
ENDBRANCH  25  26
ENDBRANCH   1  25
TORSDOF 14
ENDMDL
MODEL 3
REMARK VINA RESULT:     -12.2      0.815      1.807
REMARK SMILES Cc1ccccc1C[C@H](C[C@@H]1Cc2ccccc21)C(=O)NCCCNC(=O)c1ccc(-c2c3nc(c(-c4c(F)cccc4F)c4ccc([nH]4)c(-c4c(F)cccc4F)c4nc(c(-c5c(F)cccc5F)c5ccc2[nH]5)C=C4)C=C3)cc1
REMARK SMILES IDX 23 1 22 2 21 3 19 4 20 5 9 7 8 8 7 9 1 10 2 11 3 12 4 13
REMARK SMILES IDX 6 14 5 15 10 16 11 17 12 18 18 19 13 20 17 21 14 22 16 23
REMARK SMILES IDX 15 24 24 25 25 26 26 27 27 29 28 30 29 31 81 32 30 33 80 34
REMARK SMILES IDX 31 35 32 36 33 37 74 38 34 39 79 40 73 41 75 42 35 43 78 44
REMARK SMILES IDX 72 45 71 46 36 48 62 49 45 50 61 51 46 52 49 53 60 54 76 55
REMARK SMILES IDX 47 56 48 57 59 59 77 60 50 61 37 62 38 63 43 64 39 65 40 66
REMARK SMILES IDX 42 67 44 68 41 69 63 70 64 71 69 72 65 73 66 74 68 75 70 76
REMARK SMILES IDX 67 77 51 78 52 79 57 80 53 81 54 82 56 83 58 84 55 85
REMARK H PARENT 21 6 25 28 75 47 49 58
REMARK Flexibility Score: inf
ROOT
ATOM      1  C   UNL A   1      32.158  30.875  26.490  1.00  0.00     0.042 C 
ENDROOT
BRANCH   1   2
ATOM      2  C   UNL A   1      31.638  29.635  25.799  1.00  0.00     0.117 C 
BRANCH   2   3
ATOM      3  N   UNL A   1      31.404  29.787  24.378  1.00  0.00    -0.356 N 
ATOM      4  C   UNL A   1      31.245  28.886  23.377  1.00  0.00     0.223 C 
ATOM      5  O   UNL A   1      30.785  29.323  22.315  1.00  0.00    -0.275 OA
ATOM      6  H   UNL A   1      31.350  30.724  24.082  1.00  0.00     0.163 HD
BRANCH   4   7
ATOM      7  C   UNL A   1      31.644  27.412  23.468  1.00  0.00     0.083 C 
BRANCH   7   8
ATOM      8  C   UNL A   1      33.144  27.136  23.169  1.00  0.00     0.049 C 
BRANCH   8   9
ATOM      9  C   UNL A   1      33.790  25.873  23.709  1.00  0.00    -0.044 A 
ATOM     10  C   UNL A   1      34.018  26.758  26.123  1.00  0.00     0.044 C 
ATOM     11  C   UNL A   1      34.241  25.733  25.045  1.00  0.00    -0.048 A 
ATOM     12  C   UNL A   1      35.024  24.610  25.392  1.00  0.00     0.004 A 
ATOM     13  C   UNL A   1      35.315  23.613  24.463  1.00  0.00     0.000 A 
ATOM     14  C   UNL A   1      34.026  24.809  22.811  1.00  0.00     0.004 A 
ATOM     15  C   UNL A   1      34.790  23.698  23.178  1.00  0.00     0.000 A 
ENDBRANCH   8   9
ENDBRANCH   7   8
BRANCH   7  16
ATOM     16  C   UNL A   1      30.648  26.422  22.836  1.00  0.00     0.022 C 
BRANCH  16  17
ATOM     17  C   UNL A   1      29.891  25.585  23.883  1.00  0.00     0.025 C 
ATOM     18  C   UNL A   1      30.005  26.051  25.387  1.00  0.00     0.044 C 
ATOM     19  C   UNL A   1      30.643  24.347  24.336  1.00  0.00    -0.041 A 
ATOM     20  C   UNL A   1      30.776  24.784  25.629  1.00  0.00    -0.044 A 
ATOM     21  C   UNL A   1      31.123  23.121  23.930  1.00  0.00     0.004 A 
ATOM     22  C   UNL A   1      31.435  24.040  26.583  1.00  0.00     0.004 A 
ATOM     23  C   UNL A   1      31.792  22.342  24.874  1.00  0.00     0.000 A 
ATOM     24  C   UNL A   1      31.956  22.803  26.192  1.00  0.00     0.000 A 
ENDBRANCH  16  17
ENDBRANCH   7  16
ENDBRANCH   4   7
ENDBRANCH   2   3
ENDBRANCH   1   2
BRANCH   1  25
ATOM     25  C   UNL A   1      33.149  30.545  27.583  1.00  0.00     0.118 C 
BRANCH  25  26
ATOM     26  N   UNL A   1      34.044  31.620  28.005  1.00  0.00    -0.352 N 
ATOM     27  C   UNL A   1      35.338  31.534  28.539  1.00  0.00     0.251 C 
ATOM     28  H   UNL A   1      33.689  32.532  27.900  1.00  0.00     0.163 HD
ATOM     29  O   UNL A   1      35.961  32.526  28.812  1.00  0.00    -0.269 OA
BRANCH  27  30
ATOM     30  C   UNL A   1      35.986  30.187  28.608  1.00  0.00     0.039 A 
ATOM     31  C   UNL A   1      36.271  29.674  29.879  1.00  0.00     0.014 A 
ATOM     32  C   UNL A   1      36.647  29.694  27.500  1.00  0.00     0.014 A 
ATOM     33  C   UNL A   1      37.450  28.953  30.063  1.00  0.00     0.010 A 
ATOM     34  C   UNL A   1      37.909  29.189  27.709  1.00  0.00     0.010 A 
ATOM     35  C   UNL A   1      38.340  28.862  29.000  1.00  0.00    -0.014 A 
BRANCH  35  36
ATOM     36  C   UNL A   1      39.761  28.551  29.130  1.00  0.00     0.031 A 
ATOM     37  C   UNL A   1      40.261  27.223  28.699  1.00  0.00     0.074 A 
ATOM     38  C   UNL A   1      40.643  29.526  29.460  1.00  0.00     0.049 A 
ATOM     39  N   UNL A   1      41.430  26.762  28.984  1.00  0.00    -0.248 NA
ATOM     40  C   UNL A   1      39.465  26.286  27.911  1.00  0.00     0.031 C 
ATOM     41  C   UNL A   1      42.093  29.512  29.261  1.00  0.00     0.029 A 
ATOM     42  N   UNL A   1      40.419  30.679  30.231  1.00  0.00    -0.354 N 
ATOM     43  C   UNL A   1      41.644  25.643  28.215  1.00  0.00     0.074 A 
ATOM     44  C   UNL A   1      40.383  25.380  27.569  1.00  0.00     0.031 C 
ATOM     45  C   UNL A   1      42.661  30.386  30.105  1.00  0.00     0.029 A 
ATOM     46  C   UNL A   1      41.611  30.884  30.970  1.00  0.00     0.049 A 
ATOM     47  H   UNL A   1      39.604  31.230  30.252  1.00  0.00     0.167 HD
ATOM     48  C   UNL A   1      42.900  25.126  28.130  1.00  0.00     0.037 A 
ATOM     49  C   UNL A   1      41.629  30.813  32.332  1.00  0.00     0.037 A 
ATOM     50  C   UNL A   1      43.821  25.843  29.004  1.00  0.00     0.049 A 
ATOM     51  C   UNL A   1      42.550  29.747  32.885  1.00  0.00     0.074 A 
ATOM     52  C   UNL A   1      44.740  26.857  28.789  1.00  0.00     0.029 A 
ATOM     53  N   UNL A   1      43.632  25.771  30.378  1.00  0.00    -0.354 N 
ATOM     54  N   UNL A   1      43.039  28.766  32.176  1.00  0.00    -0.248 NA
ATOM     55  C   UNL A   1      42.985  29.688  34.279  1.00  0.00     0.031 C 
ATOM     56  C   UNL A   1      45.085  27.415  30.046  1.00  0.00     0.029 A 
ATOM     57  C   UNL A   1      44.387  26.728  31.024  1.00  0.00     0.049 A 
ATOM     58  H   UNL A   1      43.042  25.126  30.828  1.00  0.00     0.167 HD
ATOM     59  C   UNL A   1      43.800  27.945  32.973  1.00  0.00     0.074 A 
ATOM     60  C   UNL A   1      43.756  28.585  34.275  1.00  0.00     0.031 C 
ATOM     61  C   UNL A   1      44.379  26.808  32.479  1.00  0.00     0.037 A 
BRANCH  48  62
ATOM     62  C   UNL A   1      43.326  24.137  27.076  1.00  0.00     0.057 A 
ATOM     63  C   UNL A   1      43.860  24.573  25.848  1.00  0.00     0.134 A 
ATOM     64  C   UNL A   1      43.195  22.743  27.191  1.00  0.00     0.134 A 
ATOM     65  F   UNL A   1      44.132  25.863  25.615  1.00  0.00    -0.206 F 
ATOM     66  C   UNL A   1      44.138  23.703  24.786  1.00  0.00     0.040 A 
ATOM     67  C   UNL A   1      43.411  21.866  26.118  1.00  0.00     0.040 A 
ATOM     68  F   UNL A   1      42.904  22.161  28.361  1.00  0.00    -0.206 F 
ATOM     69  C   UNL A   1      43.875  22.348  24.904  1.00  0.00     0.006 A 
ENDBRANCH  48  62
BRANCH  49  70
ATOM     70  C   UNL A   1      40.364  31.286  32.948  1.00  0.00     0.057 A 
ATOM     71  C   UNL A   1      39.428  30.317  33.356  1.00  0.00     0.134 A 
ATOM     72  C   UNL A   1      40.260  32.554  33.525  1.00  0.00     0.134 A 
ATOM     73  F   UNL A   1      39.471  29.080  32.838  1.00  0.00    -0.206 F 
ATOM     74  C   UNL A   1      38.519  30.557  34.390  1.00  0.00     0.040 A 
ATOM     75  C   UNL A   1      39.342  32.809  34.552  1.00  0.00     0.040 A 
ATOM     76  F   UNL A   1      41.134  33.520  33.209  1.00  0.00    -0.206 F 
ATOM     77  C   UNL A   1      38.503  31.798  35.019  1.00  0.00     0.006 A 
ENDBRANCH  49  70
BRANCH  61  78
ATOM     78  C   UNL A   1      45.036  25.675  33.249  1.00  0.00     0.057 A 
ATOM     79  C   UNL A   1      46.403  25.370  33.227  1.00  0.00     0.134 A 
ATOM     80  C   UNL A   1      44.287  24.928  34.196  1.00  0.00     0.134 A 
ATOM     81  F   UNL A   1      47.267  26.044  32.459  1.00  0.00    -0.206 F 
ATOM     82  C   UNL A   1      46.972  24.384  34.050  1.00  0.00     0.040 A 
ATOM     83  C   UNL A   1      44.854  23.990  35.064  1.00  0.00     0.040 A 
ATOM     84  F   UNL A   1      42.964  25.092  34.347  1.00  0.00    -0.206 F 
ATOM     85  C   UNL A   1      46.203  23.704  34.985  1.00  0.00     0.006 A 
ENDBRANCH  61  78
ENDBRANCH  35  36
ENDBRANCH  27  30
ENDBRANCH  25  26
ENDBRANCH   1  25
TORSDOF 14
ENDMDL
