MODEL 1
REMARK VINA RESULT:     -11.5      0.000      0.000
REMARK SMILES O=C(NCCCNC(=O)c1cc(OCc2ccccc2C(F)(F)F)cs1)c1ccc(-c2c3nc(c(-c4c(F)cccc4F)c4ccc([nH]4)c(-c4c(F)cccc4F)c4nc(c(-c5c(F)cccc5F)c5ccc2[nH]5)C=C4)C=C3)cc1
REMARK SMILES IDX 6 1 5 2 4 3 3 4 1 5 2 6 27 8 28 9 80 10 29 11 79 12 30 13
REMARK SMILES IDX 31 14 32 15 73 16 33 17 78 18 72 19 74 20 34 21 77 22 71 23
REMARK SMILES IDX 70 24 35 26 61 27 44 28 60 29 45 30 48 31 59 32 75 33 46 34
REMARK SMILES IDX 47 35 58 37 76 38 49 39 36 40 37 41 42 42 38 43 39 44 41 45
REMARK SMILES IDX 43 46 40 47 62 48 63 49 68 50 64 51 65 52 67 53 69 54 66 55
REMARK SMILES IDX 50 56 51 57 56 58 52 59 53 60 55 61 57 62 54 63 7 64 8 65
REMARK SMILES IDX 9 67 10 68 11 69 26 70 12 71 25 72 13 73 14 74 15 75 16 76
REMARK SMILES IDX 20 77 17 78 19 79 18 80 21 81 22 82 23 83 24 84
REMARK H PARENT 3 7 74 25 48 36 7 66
REMARK Flexibility Score: inf
ROOT
ATOM      1  C   UNL A   1      36.217  20.627  25.060  1.00  0.00     0.118 C 
ENDROOT
BRANCH   1   2
ATOM      2  C   UNL A   1      37.456  19.762  24.914  1.00  0.00     0.042 C 
BRANCH   2   3
ATOM      3  C   UNL A   1      38.679  20.330  25.613  1.00  0.00     0.118 C 
BRANCH   3   4
ATOM      4  N   UNL A   1      39.788  19.385  25.694  1.00  0.00    -0.352 N 
ATOM      5  O   UNL A   1      41.907  18.650  25.895  1.00  0.00    -0.269 OA
ATOM      6  C   UNL A   1      41.104  19.564  26.062  1.00  0.00     0.251 C 
ATOM      7  H   UNL A   1      39.558  18.461  25.444  1.00  0.00     0.163 HD
BRANCH   6   8
ATOM      8  C   UNL A   1      41.566  20.858  26.617  1.00  0.00     0.039 A 
ATOM      9  C   UNL A   1      41.514  21.109  27.984  1.00  0.00     0.014 A 
ATOM     10  C   UNL A   1      42.068  21.841  25.756  1.00  0.00     0.014 A 
ATOM     11  C   UNL A   1      41.725  22.394  28.462  1.00  0.00     0.010 A 
ATOM     12  C   UNL A   1      42.425  23.097  26.262  1.00  0.00     0.010 A 
ATOM     13  C   UNL A   1      42.209  23.400  27.614  1.00  0.00    -0.014 A 
BRANCH  13  14
ATOM     14  C   UNL A   1      42.546  24.726  28.197  1.00  0.00     0.031 A 
ATOM     15  C   UNL A   1      43.953  25.077  28.592  1.00  0.00     0.074 A 
ATOM     16  C   UNL A   1      41.561  25.637  28.328  1.00  0.00     0.049 A 
ATOM     17  N   UNL A   1      44.410  26.195  29.098  1.00  0.00    -0.248 NA
ATOM     18  C   UNL A   1      44.981  24.042  28.405  1.00  0.00     0.031 C 
ATOM     19  C   UNL A   1      40.153  25.409  27.989  1.00  0.00     0.029 A 
ATOM     20  N   UNL A   1      41.588  26.939  28.757  1.00  0.00    -0.354 N 
ATOM     21  C   UNL A   1      45.768  25.992  29.314  1.00  0.00     0.074 A 
ATOM     22  C   UNL A   1      46.057  24.633  28.907  1.00  0.00     0.031 C 
ATOM     23  C   UNL A   1      39.465  26.543  28.170  1.00  0.00     0.029 A 
ATOM     24  C   UNL A   1      40.360  27.552  28.720  1.00  0.00     0.049 A 
ATOM     25  H   UNL A   1      42.408  27.390  29.062  1.00  0.00     0.167 HD
ATOM     26  C   UNL A   1      46.686  26.861  29.802  1.00  0.00     0.037 A 
ATOM     27  C   UNL A   1      39.981  28.781  29.114  1.00  0.00     0.037 A 
ATOM     28  C   UNL A   1      46.390  28.217  30.193  1.00  0.00     0.049 A 
ATOM     29  C   UNL A   1      41.012  29.711  29.678  1.00  0.00     0.074 A 
ATOM     30  C   UNL A   1      47.257  29.189  30.660  1.00  0.00     0.029 A 
ATOM     31  N   UNL A   1      45.126  28.790  30.172  1.00  0.00    -0.354 N 
ATOM     32  N   UNL A   1      42.296  29.514  29.843  1.00  0.00    -0.248 NA
ATOM     33  C   UNL A   1      40.539  31.030  30.117  1.00  0.00     0.031 C 
ATOM     34  C   UNL A   1      46.511  30.329  30.977  1.00  0.00     0.029 A 
ATOM     35  C   UNL A   1      45.186  30.091  30.649  1.00  0.00     0.049 A 
ATOM     36  H   UNL A   1      44.307  28.340  29.863  1.00  0.00     0.167 HD
ATOM     37  C   UNL A   1      42.792  30.689  30.391  1.00  0.00     0.074 A 
ATOM     38  C   UNL A   1      41.671  31.600  30.508  1.00  0.00     0.031 C 
ATOM     39  C   UNL A   1      44.061  30.984  30.765  1.00  0.00     0.037 A 
BRANCH  26  40
ATOM     40  C   UNL A   1      48.096  26.366  29.972  1.00  0.00     0.057 A 
ATOM     41  C   UNL A   1      48.549  25.790  31.167  1.00  0.00     0.134 A 
ATOM     42  C   UNL A   1      49.005  26.433  28.907  1.00  0.00     0.134 A 
ATOM     43  F   UNL A   1      47.735  25.703  32.230  1.00  0.00    -0.206 F 
ATOM     44  C   UNL A   1      49.859  25.325  31.304  1.00  0.00     0.040 A 
ATOM     45  C   UNL A   1      50.309  25.947  29.024  1.00  0.00     0.040 A 
ATOM     46  F   UNL A   1      48.639  26.965  27.731  1.00  0.00    -0.206 F 
ATOM     47  C   UNL A   1      50.742  25.397  30.228  1.00  0.00     0.006 A 
ENDBRANCH  26  40
BRANCH  27  48
ATOM     48  C   UNL A   1      38.554  29.176  29.009  1.00  0.00     0.057 A 
ATOM     49  C   UNL A   1      37.697  29.111  30.112  1.00  0.00     0.134 A 
ATOM     50  C   UNL A   1      38.021  29.656  27.805  1.00  0.00     0.134 A 
ATOM     51  F   UNL A   1      38.144  28.648  31.289  1.00  0.00    -0.206 F 
ATOM     52  C   UNL A   1      36.358  29.495  30.019  1.00  0.00     0.040 A 
ATOM     53  C   UNL A   1      36.695  30.073  27.705  1.00  0.00     0.040 A 
ATOM     54  F   UNL A   1      38.796  29.754  26.714  1.00  0.00    -0.206 F 
ATOM     55  C   UNL A   1      35.856  29.985  28.814  1.00  0.00     0.006 A 
ENDBRANCH  27  48
BRANCH  39  56
ATOM     56  C   UNL A   1      44.304  32.360  31.311  1.00  0.00     0.057 A 
ATOM     57  C   UNL A   1      44.249  32.634  32.684  1.00  0.00     0.134 A 
ATOM     58  C   UNL A   1      44.622  33.420  30.453  1.00  0.00     0.134 A 
ATOM     59  F   UNL A   1      43.933  31.666  33.558  1.00  0.00    -0.206 F 
ATOM     60  C   UNL A   1      44.476  33.918  33.181  1.00  0.00     0.040 A 
ATOM     61  C   UNL A   1      44.880  34.702  30.940  1.00  0.00     0.040 A 
ATOM     62  F   UNL A   1      44.698  33.226  29.127  1.00  0.00    -0.206 F 
ATOM     63  C   UNL A   1      44.800  34.955  32.308  1.00  0.00     0.006 A 
ENDBRANCH  39  56
ENDBRANCH  13  14
ENDBRANCH   6   8
ENDBRANCH   3   4
ENDBRANCH   2   3
ENDBRANCH   1   2
BRANCH   1  64
ATOM     64  N   UNL A   1      34.991  19.856  25.222  1.00  0.00    -0.351 N 
ATOM     65  C   UNL A   1      33.672  20.272  25.245  1.00  0.00     0.261 C 
ATOM     66  H   UNL A   1      35.121  18.888  25.333  1.00  0.00     0.163 HD
ATOM     67  O   UNL A   1      32.828  19.416  25.506  1.00  0.00    -0.268 OA
BRANCH  65  68
ATOM     68  C   UNL A   1      33.360  21.661  24.958  1.00  0.00     0.096 A 
ATOM     69  C   UNL A   1      33.608  22.774  25.731  1.00  0.00     0.072 A 
ATOM     70  S   UNL A   1      32.636  22.121  23.478  1.00  0.00    -0.135 S 
ATOM     71  C   UNL A   1      33.050  23.969  25.225  1.00  0.00     0.131 A 
ATOM     72  C   UNL A   1      32.497  23.761  23.983  1.00  0.00     0.112 A 
BRANCH  71  73
ATOM     73  O   UNL A   1      32.985  25.186  25.830  1.00  0.00    -0.488 OA
BRANCH  73  74
ATOM     74  C   UNL A   1      31.653  25.704  26.030  1.00  0.00     0.266 C 
BRANCH  74  75
ATOM     75  C   UNL A   1      31.393  27.040  25.338  1.00  0.00     0.001 A 
ATOM     76  C   UNL A   1      30.778  27.006  24.070  1.00  0.00     0.008 A 
ATOM     77  C   UNL A   1      31.725  28.302  25.897  1.00  0.00     0.062 A 
ATOM     78  C   UNL A   1      30.426  28.180  23.403  1.00  0.00     0.000 A 
ATOM     79  C   UNL A   1      31.306  29.473  25.227  1.00  0.00     0.013 A 
ATOM     80  C   UNL A   1      30.660  29.413  23.995  1.00  0.00     0.001 A 
BRANCH  77  81
ATOM     81  C   UNL A   1      32.464  28.497  27.210  1.00  0.00     0.416 C 
ATOM     82  F   UNL A   1      32.657  29.811  27.517  1.00  0.00    -0.166 F 
ATOM     83  F   UNL A   1      31.777  27.982  28.269  1.00  0.00    -0.166 F 
ATOM     84  F   UNL A   1      33.697  27.930  27.250  1.00  0.00    -0.166 F 
ENDBRANCH  77  81
ENDBRANCH  74  75
ENDBRANCH  73  74
ENDBRANCH  71  73
ENDBRANCH  65  68
ENDBRANCH   1  64
TORSDOF 14
ENDMDL
MODEL 2
REMARK VINA RESULT:     -11.5      1.314      2.073
REMARK SMILES O=C(NCCCNC(=O)c1cc(OCc2ccccc2C(F)(F)F)cs1)c1ccc(-c2c3nc(c(-c4c(F)cccc4F)c4ccc([nH]4)c(-c4c(F)cccc4F)c4nc(c(-c5c(F)cccc5F)c5ccc2[nH]5)C=C4)C=C3)cc1
REMARK SMILES IDX 6 1 5 2 4 3 3 4 1 5 2 6 27 8 28 9 80 10 29 11 79 12 30 13
REMARK SMILES IDX 31 14 32 15 73 16 33 17 78 18 72 19 74 20 34 21 77 22 71 23
REMARK SMILES IDX 70 24 35 26 61 27 44 28 60 29 45 30 48 31 59 32 75 33 46 34
REMARK SMILES IDX 47 35 58 37 76 38 49 39 36 40 37 41 42 42 38 43 39 44 41 45
REMARK SMILES IDX 43 46 40 47 62 48 63 49 68 50 64 51 65 52 67 53 69 54 66 55
REMARK SMILES IDX 50 56 51 57 56 58 52 59 53 60 55 61 57 62 54 63 7 64 8 65
REMARK SMILES IDX 9 67 10 68 11 69 26 70 12 71 25 72 13 73 14 74 15 75 16 76
REMARK SMILES IDX 20 77 17 78 19 79 18 80 21 81 22 82 23 83 24 84
REMARK H PARENT 3 7 74 25 48 36 7 66
REMARK Flexibility Score: inf
ROOT
ATOM      1  C   UNL A   1      36.609  20.816  24.635  1.00  0.00     0.118 C 
ENDROOT
BRANCH   1   2
ATOM      2  C   UNL A   1      37.754  19.825  24.740  1.00  0.00     0.042 C 
BRANCH   2   3
ATOM      3  C   UNL A   1      38.819  20.233  25.744  1.00  0.00     0.118 C 
BRANCH   3   4
ATOM      4  N   UNL A   1      39.938  19.298  25.810  1.00  0.00    -0.352 N 
ATOM      5  O   UNL A   1      42.070  18.585  25.938  1.00  0.00    -0.269 OA
ATOM      6  C   UNL A   1      41.269  19.500  26.107  1.00  0.00     0.251 C 
ATOM      7  H   UNL A   1      39.704  18.364  25.608  1.00  0.00     0.163 HD
BRANCH   6   8
ATOM      8  C   UNL A   1      41.747  20.818  26.586  1.00  0.00     0.039 A 
ATOM      9  C   UNL A   1      41.813  21.102  27.946  1.00  0.00     0.014 A 
ATOM     10  C   UNL A   1      42.144  21.790  25.660  1.00  0.00     0.014 A 
ATOM     11  C   UNL A   1      42.033  22.404  28.373  1.00  0.00     0.010 A 
ATOM     12  C   UNL A   1      42.513  23.066  26.101  1.00  0.00     0.010 A 
ATOM     13  C   UNL A   1      42.413  23.399  27.461  1.00  0.00    -0.014 A 
BRANCH  13  14
ATOM     14  C   UNL A   1      42.768  24.747  27.979  1.00  0.00     0.031 A 
ATOM     15  C   UNL A   1      44.198  25.148  28.212  1.00  0.00     0.074 A 
ATOM     16  C   UNL A   1      41.775  25.631  28.200  1.00  0.00     0.049 A 
ATOM     17  N   UNL A   1      44.670  26.290  28.646  1.00  0.00    -0.248 NA
ATOM     18  C   UNL A   1      45.232  24.141  27.934  1.00  0.00     0.031 C 
ATOM     19  C   UNL A   1      40.346  25.353  28.020  1.00  0.00     0.029 A 
ATOM     20  N   UNL A   1      41.806  26.941  28.599  1.00  0.00    -0.354 N 
ATOM     21  C   UNL A   1      46.049  26.133  28.716  1.00  0.00     0.074 A 
ATOM     22  C   UNL A   1      46.337  24.775  28.305  1.00  0.00     0.031 C 
ATOM     23  C   UNL A   1      39.645  26.469  28.253  1.00  0.00     0.029 A 
ATOM     24  C   UNL A   1      40.562  27.517  28.683  1.00  0.00     0.049 A 
ATOM     25  H   UNL A   1      42.639  27.424  28.805  1.00  0.00     0.167 HD
ATOM     26  C   UNL A   1      46.987  27.040  29.087  1.00  0.00     0.037 A 
ATOM     27  C   UNL A   1      40.188  28.742  29.093  1.00  0.00     0.037 A 
ATOM     28  C   UNL A   1      46.690  28.394  29.482  1.00  0.00     0.049 A 
ATOM     29  C   UNL A   1      41.243  29.715  29.526  1.00  0.00     0.074 A 
ATOM     30  C   UNL A   1      47.572  29.402  29.835  1.00  0.00     0.029 A 
ATOM     31  N   UNL A   1      45.414  28.928  29.587  1.00  0.00    -0.354 N 
ATOM     32  N   UNL A   1      42.544  29.560  29.554  1.00  0.00    -0.248 NA
ATOM     33  C   UNL A   1      40.778  31.028  29.989  1.00  0.00     0.031 C 
ATOM     34  C   UNL A   1      46.828  30.525  30.209  1.00  0.00     0.029 A 
ATOM     35  C   UNL A   1      45.484  30.240  30.031  1.00  0.00     0.049 A 
ATOM     36  H   UNL A   1      44.581  28.447  29.378  1.00  0.00     0.167 HD
ATOM     37  C   UNL A   1      43.057  30.761  30.023  1.00  0.00     0.074 A 
ATOM     38  C   UNL A   1      41.926  31.640  30.244  1.00  0.00     0.031 C 
ATOM     39  C   UNL A   1      44.349  31.101  30.252  1.00  0.00     0.037 A 
BRANCH  26  40
ATOM     40  C   UNL A   1      48.422  26.591  29.111  1.00  0.00     0.057 A 
ATOM     41  C   UNL A   1      49.288  26.792  28.028  1.00  0.00     0.134 A 
ATOM     42  C   UNL A   1      48.956  25.981  30.255  1.00  0.00     0.134 A 
ATOM     43  F   UNL A   1      48.841  27.362  26.898  1.00  0.00    -0.206 F 
ATOM     44  C   UNL A   1      50.622  26.380  28.071  1.00  0.00     0.040 A 
ATOM     45  C   UNL A   1      50.294  25.589  30.320  1.00  0.00     0.040 A 
ATOM     46  F   UNL A   1      48.187  25.764  31.333  1.00  0.00    -0.206 F 
ATOM     47  C   UNL A   1      51.130  25.781  29.222  1.00  0.00     0.006 A 
ENDBRANCH  26  40
BRANCH  27  48
ATOM     48  C   UNL A   1      38.746  29.092  29.138  1.00  0.00     0.057 A 
ATOM     49  C   UNL A   1      38.006  28.988  30.319  1.00  0.00     0.134 A 
ATOM     50  C   UNL A   1      38.080  29.566  27.999  1.00  0.00     0.134 A 
ATOM     51  F   UNL A   1      38.583  28.528  31.439  1.00  0.00    -0.206 F 
ATOM     52  C   UNL A   1      36.653  29.329  30.365  1.00  0.00     0.040 A 
ATOM     53  C   UNL A   1      36.738  29.942  28.037  1.00  0.00     0.040 A 
ATOM     54  F   UNL A   1      38.739  29.701  26.837  1.00  0.00    -0.206 F 
ATOM     55  C   UNL A   1      36.018  29.815  29.223  1.00  0.00     0.006 A 
ENDBRANCH  27  48
BRANCH  39  56
ATOM     56  C   UNL A   1      44.605  32.496  30.743  1.00  0.00     0.057 A 
ATOM     57  C   UNL A   1      44.779  33.572  29.864  1.00  0.00     0.134 A 
ATOM     58  C   UNL A   1      44.655  32.769  32.116  1.00  0.00     0.134 A 
ATOM     59  F   UNL A   1      44.759  33.376  28.537  1.00  0.00    -0.206 F 
ATOM     60  C   UNL A   1      45.018  34.865  30.332  1.00  0.00     0.040 A 
ATOM     61  C   UNL A   1      44.864  34.062  32.597  1.00  0.00     0.040 A 
ATOM     62  F   UNL A   1      44.490  31.785  33.014  1.00  0.00    -0.206 F 
ATOM     63  C   UNL A   1      45.054  35.114  31.703  1.00  0.00     0.006 A 
ENDBRANCH  39  56
ENDBRANCH  13  14
ENDBRANCH   6   8
ENDBRANCH   3   4
ENDBRANCH   2   3
ENDBRANCH   1   2
BRANCH   1  64
ATOM     64  N   UNL A   1      35.693  20.761  25.768  1.00  0.00    -0.351 N 
ATOM     65  C   UNL A   1      34.644  21.596  26.109  1.00  0.00     0.261 C 
ATOM     66  H   UNL A   1      35.843  20.012  26.388  1.00  0.00     0.163 HD
ATOM     67  O   UNL A   1      34.095  21.378  27.187  1.00  0.00    -0.268 OA
BRANCH  65  68
ATOM     68  C   UNL A   1      34.252  22.652  25.193  1.00  0.00     0.096 A 
ATOM     69  C   UNL A   1      34.668  23.966  25.168  1.00  0.00     0.072 A 
ATOM     70  S   UNL A   1      33.176  22.351  23.897  1.00  0.00    -0.135 S 
ATOM     71  C   UNL A   1      33.985  24.774  24.233  1.00  0.00     0.131 A 
ATOM     72  C   UNL A   1      33.144  24.013  23.453  1.00  0.00     0.112 A 
BRANCH  71  73
ATOM     73  O   UNL A   1      34.054  26.124  24.082  1.00  0.00    -0.488 OA
BRANCH  73  74
ATOM     74  C   UNL A   1      32.785  26.797  23.959  1.00  0.00     0.266 C 
BRANCH  74  75
ATOM     75  C   UNL A   1      32.570  27.918  24.973  1.00  0.00     0.001 A 
ATOM     76  C   UNL A   1      33.390  27.922  26.120  1.00  0.00     0.008 A 
ATOM     77  C   UNL A   1      31.607  28.950  24.825  1.00  0.00     0.062 A 
ATOM     78  C   UNL A   1      33.323  28.954  27.057  1.00  0.00     0.000 A 
ATOM     79  C   UNL A   1      31.598  30.011  25.758  1.00  0.00     0.013 A 
ATOM     80  C   UNL A   1      32.450  30.015  26.860  1.00  0.00     0.001 A 
BRANCH  77  81
ATOM     81  C   UNL A   1      30.598  29.033  23.692  1.00  0.00     0.416 C 
ATOM     82  F   UNL A   1      29.744  30.087  23.821  1.00  0.00    -0.166 F 
ATOM     83  F   UNL A   1      31.198  29.206  22.481  1.00  0.00    -0.166 F 
ATOM     84  F   UNL A   1      29.804  27.937  23.567  1.00  0.00    -0.166 F 
ENDBRANCH  77  81
ENDBRANCH  74  75
ENDBRANCH  73  74
ENDBRANCH  71  73
ENDBRANCH  65  68
ENDBRANCH   1  64
TORSDOF 14
ENDMDL
MODEL 3
REMARK VINA RESULT:     -11.5      1.449      6.347
REMARK SMILES O=C(NCCCNC(=O)c1cc(OCc2ccccc2C(F)(F)F)cs1)c1ccc(-c2c3nc(c(-c4c(F)cccc4F)c4ccc([nH]4)c(-c4c(F)cccc4F)c4nc(c(-c5c(F)cccc5F)c5ccc2[nH]5)C=C4)C=C3)cc1
REMARK SMILES IDX 6 1 5 2 4 3 3 4 1 5 2 6 27 8 28 9 80 10 29 11 79 12 30 13
REMARK SMILES IDX 31 14 32 15 73 16 33 17 78 18 72 19 74 20 34 21 77 22 71 23
REMARK SMILES IDX 70 24 35 26 61 27 44 28 60 29 45 30 48 31 59 32 75 33 46 34
REMARK SMILES IDX 47 35 58 37 76 38 49 39 36 40 37 41 42 42 38 43 39 44 41 45
REMARK SMILES IDX 43 46 40 47 62 48 63 49 68 50 64 51 65 52 67 53 69 54 66 55
REMARK SMILES IDX 50 56 51 57 56 58 52 59 53 60 55 61 57 62 54 63 7 64 8 65
REMARK SMILES IDX 9 67 10 68 11 69 26 70 12 71 25 72 13 73 14 74 15 75 16 76
REMARK SMILES IDX 20 77 17 78 19 79 18 80 21 81 22 82 23 83 24 84
REMARK H PARENT 3 7 74 25 48 36 7 66
REMARK Flexibility Score: inf
ROOT
ATOM      1  C   UNL A   1      36.648  20.760  24.667  1.00  0.00     0.118 C 
ENDROOT
BRANCH   1   2
ATOM      2  C   UNL A   1      37.778  19.757  24.807  1.00  0.00     0.042 C 
BRANCH   2   3
ATOM      3  C   UNL A   1      38.862  20.193  25.777  1.00  0.00     0.118 C 
BRANCH   3   4
ATOM      4  N   UNL A   1      39.977  19.255  25.858  1.00  0.00    -0.352 N 
ATOM      5  O   UNL A   1      42.108  18.534  25.969  1.00  0.00    -0.269 OA
ATOM      6  C   UNL A   1      41.315  19.461  26.116  1.00  0.00     0.251 C 
ATOM      7  H   UNL A   1      39.733  18.315  25.702  1.00  0.00     0.163 HD
BRANCH   6   8
ATOM      8  C   UNL A   1      41.811  20.795  26.528  1.00  0.00     0.039 A 
ATOM      9  C   UNL A   1      41.891  21.144  27.872  1.00  0.00     0.014 A 
ATOM     10  C   UNL A   1      42.212  21.716  25.554  1.00  0.00     0.014 A 
ATOM     11  C   UNL A   1      42.129  22.462  28.234  1.00  0.00     0.010 A 
ATOM     12  C   UNL A   1      42.599  23.008  25.930  1.00  0.00     0.010 A 
ATOM     13  C   UNL A   1      42.513  23.408  27.272  1.00  0.00    -0.014 A 
BRANCH  13  14
ATOM     14  C   UNL A   1      42.887  24.774  27.722  1.00  0.00     0.031 A 
ATOM     15  C   UNL A   1      41.845  25.795  28.086  1.00  0.00     0.074 A 
ATOM     16  C   UNL A   1      44.196  25.074  27.842  1.00  0.00     0.049 A 
ATOM     17  N   UNL A   1      42.011  27.023  28.510  1.00  0.00    -0.248 NA
ATOM     18  C   UNL A   1      40.437  25.395  27.949  1.00  0.00     0.031 C 
ATOM     19  C   UNL A   1      45.300  24.168  27.509  1.00  0.00     0.029 A 
ATOM     20  N   UNL A   1      44.824  26.205  28.294  1.00  0.00    -0.354 N 
ATOM     21  C   UNL A   1      40.735  27.550  28.667  1.00  0.00     0.074 A 
ATOM     22  C   UNL A   1      39.803  26.516  28.267  1.00  0.00     0.031 C 
ATOM     23  C   UNL A   1      46.463  24.756  27.818  1.00  0.00     0.029 A 
ATOM     24  C   UNL A   1      46.194  26.108  28.287  1.00  0.00     0.049 A 
ATOM     25  H   UNL A   1      44.341  27.008  28.595  1.00  0.00     0.167 HD
ATOM     26  C   UNL A   1      40.376  28.781  29.107  1.00  0.00     0.037 A 
ATOM     27  C   UNL A   1      47.139  27.016  28.592  1.00  0.00     0.037 A 
ATOM     28  C   UNL A   1      41.312  29.799  29.515  1.00  0.00     0.049 A 
ATOM     29  C   UNL A   1      46.714  28.379  29.047  1.00  0.00     0.074 A 
ATOM     30  C   UNL A   1      41.048  31.063  30.015  1.00  0.00     0.029 A 
ATOM     31  N   UNL A   1      42.692  29.675  29.461  1.00  0.00    -0.354 N 
ATOM     32  N   UNL A   1      45.504  28.849  29.222  1.00  0.00    -0.248 NA
ATOM     33  C   UNL A   1      47.785  29.339  29.341  1.00  0.00     0.031 C 
ATOM     34  C   UNL A   1      42.265  31.722  30.207  1.00  0.00     0.029 A 
ATOM     35  C   UNL A   1      43.293  30.850  29.887  1.00  0.00     0.049 A 
ATOM     36  H   UNL A   1      43.176  28.870  29.164  1.00  0.00     0.167 HD
ATOM     37  C   UNL A   1      45.664  30.156  29.661  1.00  0.00     0.074 A 
ATOM     38  C   UNL A   1      47.091  30.394  29.747  1.00  0.00     0.031 C 
ATOM     39  C   UNL A   1      44.715  31.074  29.962  1.00  0.00     0.037 A 
BRANCH  26  40
ATOM     40  C   UNL A   1      38.909  29.110  29.144  1.00  0.00     0.057 A 
ATOM     41  C   UNL A   1      38.147  29.006  30.316  1.00  0.00     0.134 A 
ATOM     42  C   UNL A   1      38.256  29.575  27.994  1.00  0.00     0.134 A 
ATOM     43  F   UNL A   1      38.705  28.559  31.451  1.00  0.00    -0.206 F 
ATOM     44  C   UNL A   1      36.788  29.327  30.336  1.00  0.00     0.040 A 
ATOM     45  C   UNL A   1      36.904  29.925  28.008  1.00  0.00     0.040 A 
ATOM     46  F   UNL A   1      38.925  29.708  26.838  1.00  0.00    -0.206 F 
ATOM     47  C   UNL A   1      36.164  29.793  29.180  1.00  0.00     0.006 A 
ENDBRANCH  26  40
BRANCH  27  48
ATOM     48  C   UNL A   1      48.573  26.660  28.443  1.00  0.00     0.057 A 
ATOM     49  C   UNL A   1      49.271  26.006  29.461  1.00  0.00     0.134 A 
ATOM     50  C   UNL A   1      49.270  26.945  27.260  1.00  0.00     0.134 A 
ATOM     51  F   UNL A   1      48.663  25.718  30.621  1.00  0.00    -0.206 F 
ATOM     52  C   UNL A   1      50.616  25.659  29.317  1.00  0.00     0.040 A 
ATOM     53  C   UNL A   1      50.603  26.575  27.090  1.00  0.00     0.040 A 
ATOM     54  F   UNL A   1      48.652  27.559  26.241  1.00  0.00    -0.206 F 
ATOM     55  C   UNL A   1      51.283  25.937  28.125  1.00  0.00     0.006 A 
ENDBRANCH  27  48
BRANCH  39  56
ATOM     56  C   UNL A   1      45.194  32.414  30.440  1.00  0.00     0.057 A 
ATOM     57  C   UNL A   1      45.445  32.673  31.793  1.00  0.00     0.134 A 
ATOM     58  C   UNL A   1      45.432  33.451  29.528  1.00  0.00     0.134 A 
ATOM     59  F   UNL A   1      45.222  31.727  32.719  1.00  0.00    -0.206 F 
ATOM     60  C   UNL A   1      45.890  33.923  32.226  1.00  0.00     0.040 A 
ATOM     61  C   UNL A   1      45.904  34.695  29.945  1.00  0.00     0.040 A 
ATOM     62  F   UNL A   1      45.218  33.268  28.216  1.00  0.00    -0.206 F 
ATOM     63  C   UNL A   1      46.128  34.937  31.300  1.00  0.00     0.006 A 
ENDBRANCH  39  56
ENDBRANCH  13  14
ENDBRANCH   6   8
ENDBRANCH   3   4
ENDBRANCH   2   3
ENDBRANCH   1   2
BRANCH   1  64
ATOM     64  N   UNL A   1      35.724  20.750  25.794  1.00  0.00    -0.351 N 
ATOM     65  C   UNL A   1      34.659  21.584  26.083  1.00  0.00     0.261 C 
ATOM     66  H   UNL A   1      35.882  20.038  26.454  1.00  0.00     0.163 HD
ATOM     67  O   UNL A   1      34.104  21.414  27.168  1.00  0.00    -0.268 OA
BRANCH  65  68
ATOM     68  C   UNL A   1      34.257  22.584  25.110  1.00  0.00     0.096 A 
ATOM     69  C   UNL A   1      34.654  23.899  25.016  1.00  0.00     0.072 A 
ATOM     70  S   UNL A   1      33.193  22.197  23.827  1.00  0.00    -0.135 S 
ATOM     71  C   UNL A   1      33.964  24.646  24.035  1.00  0.00     0.131 A 
ATOM     72  C   UNL A   1      33.139  23.832  23.294  1.00  0.00     0.112 A 
BRANCH  71  73
ATOM     73  O   UNL A   1      34.016  25.987  23.813  1.00  0.00    -0.488 OA
BRANCH  73  74
ATOM     74  C   UNL A   1      32.744  26.667  23.851  1.00  0.00     0.266 C 
BRANCH  74  75
ATOM     75  C   UNL A   1      32.623  27.703  24.966  1.00  0.00     0.001 A 
ATOM     76  C   UNL A   1      33.477  27.563  26.078  1.00  0.00     0.008 A 
ATOM     77  C   UNL A   1      31.712  28.791  24.943  1.00  0.00     0.062 A 
ATOM     78  C   UNL A   1      33.495  28.510  27.103  1.00  0.00     0.000 A 
ATOM     79  C   UNL A   1      31.790  29.764  25.965  1.00  0.00     0.013 A 
ATOM     80  C   UNL A   1      32.674  29.627  27.032  1.00  0.00     0.001 A 
BRANCH  77  81
ATOM     81  C   UNL A   1      30.673  29.026  23.859  1.00  0.00     0.416 C 
ATOM     82  F   UNL A   1      29.958  30.169  24.052  1.00  0.00    -0.166 F 
ATOM     83  F   UNL A   1      31.238  29.163  22.627  1.00  0.00    -0.166 F 
ATOM     84  F   UNL A   1      29.750  28.036  23.743  1.00  0.00    -0.166 F 
ENDBRANCH  77  81
ENDBRANCH  74  75
ENDBRANCH  73  74
ENDBRANCH  71  73
ENDBRANCH  65  68
ENDBRANCH   1  64
TORSDOF 14
ENDMDL
