MODEL 1
REMARK VINA RESULT:     -12.0      0.000      0.000
REMARK SMILES O=C(NCCCNC(=O)c1ccc(-c2c3nc(c(-c4c(F)cccc4F)c4ccc([nH]4)c(-c4c(F)cccc4F)c4nc(c(-c5c(F)cccc5F)c5ccc2[nH]5)C=C4)C=C3)cc1)c1ccc(Cn2cc(Cl)c(=O)[nH]c2=O)cc1
REMARK SMILES IDX 5 1 4 2 3 3 1 4 2 5 64 7 65 8 79 9 66 10 78 11 67 12 68 13
REMARK SMILES IDX 69 14 70 15 76 16 71 17 75 18 77 19 72 20 73 21 74 23 6 24
REMARK SMILES IDX 7 25 8 26 9 28 10 29 11 30 63 31 12 32 62 33 13 34 14 35
REMARK SMILES IDX 15 36 56 37 16 38 61 39 55 40 57 41 17 42 60 43 54 44 53 45
REMARK SMILES IDX 18 47 44 48 27 49 43 50 28 51 31 52 42 53 58 54 29 55 30 56
REMARK SMILES IDX 41 58 59 59 32 60 19 61 20 62 25 63 21 64 22 65 24 66 26 67
REMARK SMILES IDX 23 68 45 69 46 70 51 71 47 72 48 73 50 74 52 75 49 76 33 77
REMARK SMILES IDX 34 78 39 79 35 80 36 81 38 82 40 83 37 84
REMARK H PARENT 3 6 75 22 7 27 57 46 31 57
REMARK Flexibility Score: inf
ROOT
ATOM      1  C   UNL A   1      37.838  19.756  24.944  1.00  0.00     0.042 C 
ENDROOT
BRANCH   1   2
ATOM      2  C   UNL A   1      36.732  20.805  24.892  1.00  0.00     0.118 C 
BRANCH   2   3
ATOM      3  N   UNL A   1      35.406  20.215  24.998  1.00  0.00    -0.352 N 
ATOM      4  O   UNL A   1      33.190  20.177  25.430  1.00  0.00    -0.269 OA
ATOM      5  C   UNL A   1      34.192  20.834  25.158  1.00  0.00     0.251 C 
ATOM      6  H   UNL A   1      35.376  19.233  24.946  1.00  0.00     0.163 HD
BRANCH   5   7
ATOM      7  C   UNL A   1      34.092  22.297  25.008  1.00  0.00     0.039 A 
ATOM      8  C   UNL A   1      34.177  22.880  23.741  1.00  0.00     0.014 A 
ATOM      9  C   UNL A   1      33.883  23.090  26.138  1.00  0.00     0.014 A 
ATOM     10  C   UNL A   1      34.128  24.267  23.614  1.00  0.00     0.006 A 
ATOM     11  C   UNL A   1      33.844  24.482  26.009  1.00  0.00     0.006 A 
ATOM     12  C   UNL A   1      33.983  25.083  24.748  1.00  0.00    -0.028 A 
BRANCH  12  13
ATOM     13  C   UNL A   1      34.005  26.591  24.612  1.00  0.00     0.162 C 
BRANCH  13  14
ATOM     14  N   UNL A   1      32.822  27.114  23.917  1.00  0.00    -0.295 N 
ATOM     15  C   UNL A   1      31.569  26.605  24.219  1.00  0.00     0.117 A 
ATOM     16  C   UNL A   1      32.990  28.119  22.971  1.00  0.00     0.328 A 
ATOM     17  C   UNL A   1      30.455  27.033  23.617  1.00  0.00     0.122 A 
ATOM     18  N   UNL A   1      31.836  28.567  22.375  1.00  0.00    -0.273 N 
ATOM     19  O   UNL A   1      34.072  28.608  22.662  1.00  0.00    -0.248 OA
ATOM     20  Cl  UNL A   1      28.914  26.376  23.985  1.00  0.00    -0.077 Cl
ATOM     21  C   UNL A   1      30.566  28.109  22.605  1.00  0.00     0.272 A 
ATOM     22  H   UNL A   1      31.932  29.291  21.716  1.00  0.00     0.175 HD
ATOM     23  O   UNL A   1      29.599  28.571  22.007  1.00  0.00    -0.268 OA
ENDBRANCH  13  14
ENDBRANCH  12  13
ENDBRANCH   5   7
ENDBRANCH   2   3
ENDBRANCH   1   2
BRANCH   1  24
ATOM     24  C   UNL A   1      38.887  19.990  26.025  1.00  0.00     0.118 C 
BRANCH  24  25
ATOM     25  N   UNL A   1      40.015  19.075  25.933  1.00  0.00    -0.352 N 
ATOM     26  C   UNL A   1      41.366  19.302  26.014  1.00  0.00     0.251 C 
ATOM     27  H   UNL A   1      39.767  18.133  25.786  1.00  0.00     0.163 HD
ATOM     28  O   UNL A   1      42.142  18.387  25.752  1.00  0.00    -0.269 OA
BRANCH  26  29
ATOM     29  C   UNL A   1      41.905  20.629  26.391  1.00  0.00     0.039 A 
ATOM     30  C   UNL A   1      42.151  21.561  25.376  1.00  0.00     0.014 A 
ATOM     31  C   UNL A   1      42.222  20.951  27.713  1.00  0.00     0.014 A 
ATOM     32  C   UNL A   1      42.659  22.824  25.691  1.00  0.00     0.010 A 
ATOM     33  C   UNL A   1      42.653  22.236  28.037  1.00  0.00     0.010 A 
ATOM     34  C   UNL A   1      42.887  23.184  27.029  1.00  0.00    -0.014 A 
BRANCH  34  35
ATOM     35  C   UNL A   1      43.381  24.538  27.385  1.00  0.00     0.031 A 
ATOM     36  C   UNL A   1      42.422  25.603  27.845  1.00  0.00     0.074 A 
ATOM     37  C   UNL A   1      44.688  24.831  27.242  1.00  0.00     0.049 A 
ATOM     38  N   UNL A   1      42.657  26.854  28.149  1.00  0.00    -0.248 NA
ATOM     39  C   UNL A   1      41.005  25.217  27.948  1.00  0.00     0.031 C 
ATOM     40  C   UNL A   1      45.715  23.910  26.753  1.00  0.00     0.029 A 
ATOM     41  N   UNL A   1      45.376  25.994  27.486  1.00  0.00    -0.354 N 
ATOM     42  C   UNL A   1      41.421  27.409  28.456  1.00  0.00     0.074 A 
ATOM     43  C   UNL A   1      40.432  26.371  28.257  1.00  0.00     0.031 C 
ATOM     44  C   UNL A   1      46.902  24.534  26.753  1.00  0.00     0.029 A 
ATOM     45  C   UNL A   1      46.718  25.907  27.213  1.00  0.00     0.049 A 
ATOM     46  H   UNL A   1      44.946  26.813  27.824  1.00  0.00     0.167 HD
ATOM     47  C   UNL A   1      41.136  28.661  28.884  1.00  0.00     0.037 A 
ATOM     48  C   UNL A   1      47.693  26.830  27.321  1.00  0.00     0.037 A 
ATOM     49  C   UNL A   1      42.122  29.682  29.120  1.00  0.00     0.049 A 
ATOM     50  C   UNL A   1      47.358  28.203  27.831  1.00  0.00     0.074 A 
ATOM     51  C   UNL A   1      41.940  30.958  29.627  1.00  0.00     0.029 A 
ATOM     52  N   UNL A   1      43.478  29.543  28.868  1.00  0.00    -0.354 N 
ATOM     53  N   UNL A   1      46.194  28.690  28.186  1.00  0.00    -0.248 NA
ATOM     54  C   UNL A   1      48.474  29.150  27.965  1.00  0.00     0.031 C 
ATOM     55  C   UNL A   1      43.181  31.603  29.649  1.00  0.00     0.029 A 
ATOM     56  C   UNL A   1      44.142  30.714  29.193  1.00  0.00     0.049 A 
ATOM     57  H   UNL A   1      43.906  28.732  28.510  1.00  0.00     0.167 HD
ATOM     58  C   UNL A   1      46.440  29.991  28.608  1.00  0.00     0.074 A 
ATOM     59  C   UNL A   1      47.865  30.211  28.477  1.00  0.00     0.031 C 
ATOM     60  C   UNL A   1      45.562  30.918  29.063  1.00  0.00     0.037 A 
BRANCH  47  61
ATOM     61  C   UNL A   1      39.694  28.995  29.132  1.00  0.00     0.057 A 
ATOM     62  C   UNL A   1      38.842  29.404  28.098  1.00  0.00     0.134 A 
ATOM     63  C   UNL A   1      39.144  28.881  30.414  1.00  0.00     0.134 A 
ATOM     64  F   UNL A   1      39.310  29.546  26.848  1.00  0.00    -0.206 F 
ATOM     65  C   UNL A   1      37.501  29.715  28.335  1.00  0.00     0.040 A 
ATOM     66  C   UNL A   1      37.799  29.164  30.660  1.00  0.00     0.040 A 
ATOM     67  F   UNL A   1      39.902  28.489  31.450  1.00  0.00    -0.206 F 
ATOM     68  C   UNL A   1      36.976  29.589  29.619  1.00  0.00     0.006 A 
ENDBRANCH  47  61
BRANCH  48  69
ATOM     69  C   UNL A   1      49.089  26.474  26.967  1.00  0.00     0.057 A 
ATOM     70  C   UNL A   1      49.949  25.906  27.915  1.00  0.00     0.134 A 
ATOM     71  C   UNL A   1      49.595  26.689  25.681  1.00  0.00     0.134 A 
ATOM     72  F   UNL A   1      49.525  25.693  29.169  1.00  0.00    -0.206 F 
ATOM     73  C   UNL A   1      51.268  25.579  27.600  1.00  0.00     0.040 A 
ATOM     74  C   UNL A   1      50.907  26.347  25.346  1.00  0.00     0.040 A 
ATOM     75  F   UNL A   1      48.818  27.224  24.728  1.00  0.00    -0.206 F 
ATOM     76  C   UNL A   1      51.749  25.795  26.309  1.00  0.00     0.006 A 
ENDBRANCH  48  69
BRANCH  60  77
ATOM     77  C   UNL A   1      46.123  32.244  29.479  1.00  0.00     0.057 A 
ATOM     78  C   UNL A   1      46.223  33.317  28.585  1.00  0.00     0.134 A 
ATOM     79  C   UNL A   1      46.539  32.459  30.799  1.00  0.00     0.134 A 
ATOM     80  F   UNL A   1      45.854  33.171  27.303  1.00  0.00    -0.206 F 
ATOM     81  C   UNL A   1      46.738  34.552  28.983  1.00  0.00     0.040 A 
ATOM     82  C   UNL A   1      47.034  33.696  31.215  1.00  0.00     0.040 A 
ATOM     83  F   UNL A   1      46.462  31.475  31.707  1.00  0.00    -0.206 F 
ATOM     84  C   UNL A   1      47.139  34.746  30.304  1.00  0.00     0.006 A 
ENDBRANCH  60  77
ENDBRANCH  34  35
ENDBRANCH  26  29
ENDBRANCH  24  25
ENDBRANCH   1  24
TORSDOF 12
ENDMDL
MODEL 2
REMARK VINA RESULT:     -12.0      1.472      1.939
REMARK SMILES O=C(NCCCNC(=O)c1ccc(-c2c3nc(c(-c4c(F)cccc4F)c4ccc([nH]4)c(-c4c(F)cccc4F)c4nc(c(-c5c(F)cccc5F)c5ccc2[nH]5)C=C4)C=C3)cc1)c1ccc(Cn2cc(Cl)c(=O)[nH]c2=O)cc1
REMARK SMILES IDX 5 1 4 2 3 3 1 4 2 5 64 7 65 8 79 9 66 10 78 11 67 12 68 13
REMARK SMILES IDX 69 14 70 15 76 16 71 17 75 18 77 19 72 20 73 21 74 23 6 24
REMARK SMILES IDX 7 25 8 26 9 28 10 29 11 30 63 31 12 32 62 33 13 34 14 35
REMARK SMILES IDX 15 36 56 37 16 38 61 39 55 40 57 41 17 42 60 43 54 44 53 45
REMARK SMILES IDX 18 47 44 48 27 49 43 50 28 51 31 52 42 53 58 54 29 55 30 56
REMARK SMILES IDX 41 58 59 59 32 60 19 61 20 62 25 63 21 64 22 65 24 66 26 67
REMARK SMILES IDX 23 68 45 69 46 70 51 71 47 72 48 73 50 74 52 75 49 76 33 77
REMARK SMILES IDX 34 78 39 79 35 80 36 81 38 82 40 83 37 84
REMARK H PARENT 3 6 75 22 7 27 57 46 31 57
REMARK Flexibility Score: inf
ROOT
ATOM      1  C   UNL A   1      37.516  19.674  24.891  1.00  0.00     0.042 C 
ENDROOT
BRANCH   1   2
ATOM      2  C   UNL A   1      36.377  20.654  24.637  1.00  0.00     0.118 C 
BRANCH   2   3
ATOM      3  N   UNL A   1      35.449  20.724  25.757  1.00  0.00    -0.352 N 
ATOM      4  O   UNL A   1      33.926  21.682  27.120  1.00  0.00    -0.269 OA
ATOM      5  C   UNL A   1      34.488  21.665  26.028  1.00  0.00     0.251 C 
ATOM      6  H   UNL A   1      35.520  19.992  26.410  1.00  0.00     0.163 HD
BRANCH   5   7
ATOM      7  C   UNL A   1      34.134  22.665  25.005  1.00  0.00     0.039 A 
ATOM      8  C   UNL A   1      33.291  22.316  23.945  1.00  0.00     0.014 A 
ATOM      9  C   UNL A   1      34.623  23.968  25.119  1.00  0.00     0.014 A 
ATOM     10  C   UNL A   1      32.998  23.255  22.958  1.00  0.00     0.006 A 
ATOM     11  C   UNL A   1      34.336  24.904  24.121  1.00  0.00     0.006 A 
ATOM     12  C   UNL A   1      33.535  24.552  23.023  1.00  0.00    -0.028 A 
BRANCH  12  13
ATOM     13  C   UNL A   1      33.275  25.543  21.909  1.00  0.00     0.162 C 
BRANCH  13  14
ATOM     14  N   UNL A   1      32.452  26.679  22.344  1.00  0.00    -0.295 N 
ATOM     15  C   UNL A   1      31.146  26.463  22.752  1.00  0.00     0.117 A 
ATOM     16  C   UNL A   1      33.012  27.952  22.341  1.00  0.00     0.328 A 
ATOM     17  C   UNL A   1      30.344  27.454  23.152  1.00  0.00     0.122 A 
ATOM     18  N   UNL A   1      32.186  28.960  22.774  1.00  0.00    -0.273 N 
ATOM     19  O   UNL A   1      34.160  28.205  21.990  1.00  0.00    -0.248 OA
ATOM     20  Cl  UNL A   1      28.721  27.173  23.632  1.00  0.00    -0.077 Cl
ATOM     21  C   UNL A   1      30.883  28.834  23.178  1.00  0.00     0.272 A 
ATOM     22  H   UNL A   1      32.569  29.866  22.796  1.00  0.00     0.175 HD
ATOM     23  O   UNL A   1      30.226  29.806  23.537  1.00  0.00    -0.268 OA
ENDBRANCH  13  14
ENDBRANCH  12  13
ENDBRANCH   5   7
ENDBRANCH   2   3
ENDBRANCH   1   2
BRANCH   1  24
ATOM     24  C   UNL A   1      38.685  20.247  25.686  1.00  0.00     0.118 C 
BRANCH  24  25
ATOM     25  N   UNL A   1      39.834  19.355  25.735  1.00  0.00    -0.352 N 
ATOM     26  C   UNL A   1      41.141  19.591  26.078  1.00  0.00     0.251 C 
ATOM     27  H   UNL A   1      39.640  18.424  25.479  1.00  0.00     0.163 HD
ATOM     28  O   UNL A   1      41.975  18.707  25.897  1.00  0.00    -0.269 OA
BRANCH  26  29
ATOM     29  C   UNL A   1      41.570  20.893  26.641  1.00  0.00     0.039 A 
ATOM     30  C   UNL A   1      41.958  21.906  25.756  1.00  0.00     0.014 A 
ATOM     31  C   UNL A   1      41.647  21.114  28.018  1.00  0.00     0.014 A 
ATOM     32  C   UNL A   1      42.369  23.147  26.248  1.00  0.00     0.010 A 
ATOM     33  C   UNL A   1      41.980  22.376  28.507  1.00  0.00     0.010 A 
ATOM     34  C   UNL A   1      42.355  23.404  27.629  1.00  0.00    -0.014 A 
BRANCH  34  35
ATOM     35  C   UNL A   1      42.742  24.733  28.166  1.00  0.00     0.031 A 
ATOM     36  C   UNL A   1      41.699  25.793  28.399  1.00  0.00     0.074 A 
ATOM     37  C   UNL A   1      44.040  25.010  28.391  1.00  0.00     0.049 A 
ATOM     38  N   UNL A   1      41.850  27.026  28.812  1.00  0.00    -0.248 NA
ATOM     39  C   UNL A   1      40.305  25.427  28.102  1.00  0.00     0.031 C 
ATOM     40  C   UNL A   1      45.156  24.093  28.153  1.00  0.00     0.029 A 
ATOM     41  N   UNL A   1      44.643  26.150  28.863  1.00  0.00    -0.354 N 
ATOM     42  C   UNL A   1      40.580  27.588  28.802  1.00  0.00     0.074 A 
ATOM     43  C   UNL A   1      39.675  26.576  28.298  1.00  0.00     0.031 C 
ATOM     44  C   UNL A   1      46.303  24.697  28.499  1.00  0.00     0.029 A 
ATOM     45  C   UNL A   1      46.009  26.052  28.955  1.00  0.00     0.049 A 
ATOM     46  H   UNL A   1      44.142  26.961  29.111  1.00  0.00     0.167 HD
ATOM     47  C   UNL A   1      40.196  28.826  29.195  1.00  0.00     0.037 A 
ATOM     48  C   UNL A   1      46.924  26.953  29.362  1.00  0.00     0.037 A 
ATOM     49  C   UNL A   1      41.087  29.819  29.733  1.00  0.00     0.049 A 
ATOM     50  C   UNL A   1      46.470  28.309  29.826  1.00  0.00     0.074 A 
ATOM     51  C   UNL A   1      40.782  31.075  30.230  1.00  0.00     0.029 A 
ATOM     52  N   UNL A   1      42.461  29.668  29.846  1.00  0.00    -0.354 N 
ATOM     53  N   UNL A   1      45.256  28.800  29.878  1.00  0.00    -0.248 NA
ATOM     54  C   UNL A   1      47.514  29.230  30.296  1.00  0.00     0.031 C 
ATOM     55  C   UNL A   1      41.975  31.697  30.612  1.00  0.00     0.029 A 
ATOM     56  C   UNL A   1      43.019  30.813  30.390  1.00  0.00     0.049 A 
ATOM     57  H   UNL A   1      42.966  28.866  29.580  1.00  0.00     0.167 HD
ATOM     58  C   UNL A   1      45.386  30.076  30.410  1.00  0.00     0.074 A 
ATOM     59  C   UNL A   1      46.795  30.278  30.674  1.00  0.00     0.031 C 
ATOM     60  C   UNL A   1      44.423  30.998  30.654  1.00  0.00     0.037 A 
BRANCH  47  61
ATOM     61  C   UNL A   1      38.742  29.173  29.063  1.00  0.00     0.057 A 
ATOM     62  C   UNL A   1      37.865  29.102  30.153  1.00  0.00     0.134 A 
ATOM     63  C   UNL A   1      38.219  29.608  27.840  1.00  0.00     0.134 A 
ATOM     64  F   UNL A   1      38.300  28.681  31.350  1.00  0.00    -0.206 F 
ATOM     65  C   UNL A   1      36.512  29.426  30.024  1.00  0.00     0.040 A 
ATOM     66  C   UNL A   1      36.874  29.958  27.704  1.00  0.00     0.040 A 
ATOM     67  F   UNL A   1      39.005  29.704  26.757  1.00  0.00    -0.206 F 
ATOM     68  C   UNL A   1      36.016  29.861  28.797  1.00  0.00     0.006 A 
ENDBRANCH  47  61
BRANCH  48  69
ATOM     69  C   UNL A   1      48.361  26.589  29.379  1.00  0.00     0.057 A 
ATOM     70  C   UNL A   1      48.920  25.915  30.471  1.00  0.00     0.134 A 
ATOM     71  C   UNL A   1      49.208  26.902  28.309  1.00  0.00     0.134 A 
ATOM     72  F   UNL A   1      48.162  25.605  31.533  1.00  0.00    -0.206 F 
ATOM     73  C   UNL A   1      50.274  25.578  30.507  1.00  0.00     0.040 A 
ATOM     74  C   UNL A   1      50.560  26.552  28.322  1.00  0.00     0.040 A 
ATOM     75  F   UNL A   1      48.729  27.541  27.232  1.00  0.00    -0.206 F 
ATOM     76  C   UNL A   1      51.097  25.893  29.426  1.00  0.00     0.006 A 
ENDBRANCH  48  69
BRANCH  60  77
ATOM     77  C   UNL A   1      44.858  32.296  31.266  1.00  0.00     0.057 A 
ATOM     78  C   UNL A   1      45.207  33.402  30.481  1.00  0.00     0.134 A 
ATOM     79  C   UNL A   1      44.899  32.450  32.657  1.00  0.00     0.134 A 
ATOM     80  F   UNL A   1      45.200  33.314  29.141  1.00  0.00    -0.206 F 
ATOM     81  C   UNL A   1      45.602  34.609  31.058  1.00  0.00     0.040 A 
ATOM     82  C   UNL A   1      45.270  33.660  33.246  1.00  0.00     0.040 A 
ATOM     83  F   UNL A   1      44.570  31.431  33.465  1.00  0.00    -0.206 F 
ATOM     84  C   UNL A   1      45.628  34.743  32.445  1.00  0.00     0.006 A 
ENDBRANCH  60  77
ENDBRANCH  34  35
ENDBRANCH  26  29
ENDBRANCH  24  25
ENDBRANCH   1  24
TORSDOF 12
ENDMDL
MODEL 3
REMARK VINA RESULT:     -12.0      6.056     11.484
REMARK SMILES O=C(NCCCNC(=O)c1ccc(-c2c3nc(c(-c4c(F)cccc4F)c4ccc([nH]4)c(-c4c(F)cccc4F)c4nc(c(-c5c(F)cccc5F)c5ccc2[nH]5)C=C4)C=C3)cc1)c1ccc(Cn2cc(Cl)c(=O)[nH]c2=O)cc1
REMARK SMILES IDX 5 1 4 2 3 3 1 4 2 5 64 7 65 8 79 9 66 10 78 11 67 12 68 13
REMARK SMILES IDX 69 14 70 15 76 16 71 17 75 18 77 19 72 20 73 21 74 23 6 24
REMARK SMILES IDX 7 25 8 26 9 28 10 29 11 30 63 31 12 32 62 33 13 34 14 35
REMARK SMILES IDX 15 36 56 37 16 38 61 39 55 40 57 41 17 42 60 43 54 44 53 45
REMARK SMILES IDX 18 47 44 48 27 49 43 50 28 51 31 52 42 53 58 54 29 55 30 56
REMARK SMILES IDX 41 58 59 59 32 60 19 61 20 62 25 63 21 64 22 65 24 66 26 67
REMARK SMILES IDX 23 68 45 69 46 70 51 71 47 72 48 73 50 74 52 75 49 76 33 77
REMARK SMILES IDX 34 78 39 79 35 80 36 81 38 82 40 83 37 84
REMARK H PARENT 3 6 75 22 7 27 57 46 31 57
REMARK Flexibility Score: inf
ROOT
ATOM      1  C   UNL A   1      45.613  23.851  34.055  1.00  0.00     0.042 C 
ENDROOT
BRANCH   1   2
ATOM      2  C   UNL A   1      44.793  24.444  32.914  1.00  0.00     0.118 C 
BRANCH   2   3
ATOM      3  N   UNL A   1      45.588  25.310  32.056  1.00  0.00    -0.352 N 
ATOM      4  O   UNL A   1      46.488  26.034  30.116  1.00  0.00    -0.269 OA
ATOM      5  C   UNL A   1      45.613  25.387  30.687  1.00  0.00     0.251 C 
ATOM      6  H   UNL A   1      46.191  25.930  32.526  1.00  0.00     0.163 HD
BRANCH   5   7
ATOM      7  C   UNL A   1      44.588  24.683  29.896  1.00  0.00     0.039 A 
ATOM      8  C   UNL A   1      44.221  23.375  30.227  1.00  0.00     0.014 A 
ATOM      9  C   UNL A   1      43.967  25.343  28.834  1.00  0.00     0.014 A 
ATOM     10  C   UNL A   1      43.284  22.702  29.446  1.00  0.00     0.006 A 
ATOM     11  C   UNL A   1      43.035  24.661  28.046  1.00  0.00     0.006 A 
ATOM     12  C   UNL A   1      42.698  23.329  28.334  1.00  0.00    -0.028 A 
BRANCH  12  13
ATOM     13  C   UNL A   1      41.737  22.567  27.446  1.00  0.00     0.162 C 
BRANCH  13  14
ATOM     14  N   UNL A   1      42.362  21.404  26.803  1.00  0.00    -0.295 N 
ATOM     15  C   UNL A   1      43.437  21.588  25.949  1.00  0.00     0.117 A 
ATOM     16  C   UNL A   1      41.859  20.137  27.077  1.00  0.00     0.328 A 
ATOM     17  C   UNL A   1      44.044  20.572  25.328  1.00  0.00     0.122 A 
ATOM     18  N   UNL A   1      42.505  19.099  26.451  1.00  0.00    -0.273 N 
ATOM     19  O   UNL A   1      40.911  19.912  27.822  1.00  0.00    -0.248 OA
ATOM     20  Cl  UNL A   1      45.359  20.819  24.254  1.00  0.00    -0.077 Cl
ATOM     21  C   UNL A   1      43.560  19.196  25.583  1.00  0.00     0.272 A 
ATOM     22  H   UNL A   1      42.175  18.192  26.645  1.00  0.00     0.175 HD
ATOM     23  O   UNL A   1      44.059  18.201  25.066  1.00  0.00    -0.268 OA
ENDBRANCH  13  14
ENDBRANCH  12  13
ENDBRANCH   5   7
ENDBRANCH   2   3
ENDBRANCH   1   2
BRANCH   1  24
ATOM     24  C   UNL A   1      46.976  24.500  34.266  1.00  0.00     0.118 C 
BRANCH  24  25
ATOM     25  N   UNL A   1      47.170  24.994  35.621  1.00  0.00    -0.352 N 
ATOM     26  C   UNL A   1      46.597  26.050  36.283  1.00  0.00     0.251 C 
ATOM     27  H   UNL A   1      47.823  24.484  36.153  1.00  0.00     0.163 HD
ATOM     28  O   UNL A   1      47.033  26.371  37.387  1.00  0.00    -0.269 OA
BRANCH  26  29
ATOM     29  C   UNL A   1      45.482  26.823  35.689  1.00  0.00     0.039 A 
ATOM     30  C   UNL A   1      45.790  27.898  34.848  1.00  0.00     0.014 A 
ATOM     31  C   UNL A   1      44.146  26.541  35.986  1.00  0.00     0.014 A 
ATOM     32  C   UNL A   1      44.766  28.651  34.267  1.00  0.00     0.010 A 
ATOM     33  C   UNL A   1      43.124  27.240  35.346  1.00  0.00     0.010 A 
ATOM     34  C   UNL A   1      43.422  28.310  34.487  1.00  0.00    -0.014 A 
BRANCH  34  35
ATOM     35  C   UNL A   1      42.322  29.069  33.840  1.00  0.00     0.031 A 
ATOM     36  C   UNL A   1      41.847  28.695  32.462  1.00  0.00     0.074 A 
ATOM     37  C   UNL A   1      41.786  30.134  34.467  1.00  0.00     0.049 A 
ATOM     38  N   UNL A   1      40.938  29.269  31.715  1.00  0.00    -0.248 NA
ATOM     39  C   UNL A   1      42.500  27.539  31.828  1.00  0.00     0.031 C 
ATOM     40  C   UNL A   1      42.193  30.637  35.779  1.00  0.00     0.029 A 
ATOM     41  N   UNL A   1      40.787  30.991  34.078  1.00  0.00    -0.354 N 
ATOM     42  C   UNL A   1      40.926  28.562  30.520  1.00  0.00     0.074 A 
ATOM     43  C   UNL A   1      41.951  27.545  30.622  1.00  0.00     0.031 C 
ATOM     44  C   UNL A   1      41.438  31.701  36.095  1.00  0.00     0.029 A 
ATOM     45  C   UNL A   1      40.515  31.973  34.998  1.00  0.00     0.049 A 
ATOM     46  H   UNL A   1      40.312  30.910  33.220  1.00  0.00     0.167 HD
ATOM     47  C   UNL A   1      40.123  28.730  29.442  1.00  0.00     0.037 A 
ATOM     48  C   UNL A   1      39.621  32.980  34.963  1.00  0.00     0.037 A 
ATOM     49  C   UNL A   1      39.078  29.714  29.355  1.00  0.00     0.049 A 
ATOM     50  C   UNL A   1      38.717  33.124  33.771  1.00  0.00     0.074 A 
ATOM     51  C   UNL A   1      38.161  29.912  28.336  1.00  0.00     0.029 A 
ATOM     52  N   UNL A   1      38.808  30.667  30.325  1.00  0.00    -0.354 N 
ATOM     53  N   UNL A   1      38.671  32.402  32.679  1.00  0.00    -0.248 NA
ATOM     54  C   UNL A   1      37.736  34.218  33.814  1.00  0.00     0.031 C 
ATOM     55  C   UNL A   1      37.358  31.007  28.675  1.00  0.00     0.029 A 
ATOM     56  C   UNL A   1      37.750  31.465  29.923  1.00  0.00     0.049 A 
ATOM     57  H   UNL A   1      39.296  30.763  31.175  1.00  0.00     0.167 HD
ATOM     58  C   UNL A   1      37.641  32.937  31.915  1.00  0.00     0.074 A 
ATOM     59  C   UNL A   1      37.082  34.035  32.675  1.00  0.00     0.031 C 
ATOM     60  C   UNL A   1      37.200  32.551  30.693  1.00  0.00     0.037 A 
BRANCH  47  61
ATOM     61  C   UNL A   1      40.341  27.819  28.270  1.00  0.00     0.057 A 
ATOM     62  C   UNL A   1      39.756  26.548  28.203  1.00  0.00     0.134 A 
ATOM     63  C   UNL A   1      41.124  28.227  27.183  1.00  0.00     0.134 A 
ATOM     64  F   UNL A   1      39.004  26.092  29.217  1.00  0.00    -0.206 F 
ATOM     65  C   UNL A   1      39.963  25.705  27.109  1.00  0.00     0.040 A 
ATOM     66  C   UNL A   1      41.318  27.403  26.073  1.00  0.00     0.040 A 
ATOM     67  F   UNL A   1      41.710  29.435  27.179  1.00  0.00    -0.206 F 
ATOM     68  C   UNL A   1      40.742  26.135  26.037  1.00  0.00     0.006 A 
ENDBRANCH  47  61
BRANCH  48  69
ATOM     69  C   UNL A   1      39.516  33.913  36.111  1.00  0.00     0.057 A 
ATOM     70  C   UNL A   1      38.757  33.582  37.241  1.00  0.00     0.134 A 
ATOM     71  C   UNL A   1      40.167  35.151  36.110  1.00  0.00     0.134 A 
ATOM     72  F   UNL A   1      38.096  32.417  37.291  1.00  0.00    -0.206 F 
ATOM     73  C   UNL A   1      38.638  34.455  38.322  1.00  0.00     0.040 A 
ATOM     74  C   UNL A   1      40.074  36.026  37.194  1.00  0.00     0.040 A 
ATOM     75  F   UNL A   1      40.914  35.522  35.059  1.00  0.00    -0.206 F 
ATOM     76  C   UNL A   1      39.303  35.681  38.302  1.00  0.00     0.006 A 
ENDBRANCH  48  69
BRANCH  60  77
ATOM     77  C   UNL A   1      36.039  33.304  30.116  1.00  0.00     0.057 A 
ATOM     78  C   UNL A   1      34.734  33.129  30.594  1.00  0.00     0.134 A 
ATOM     79  C   UNL A   1      36.233  34.239  29.091  1.00  0.00     0.134 A 
ATOM     80  F   UNL A   1      34.480  32.239  31.566  1.00  0.00    -0.206 F 
ATOM     81  C   UNL A   1      33.660  33.841  30.058  1.00  0.00     0.040 A 
ATOM     82  C   UNL A   1      35.171  34.973  28.563  1.00  0.00     0.040 A 
ATOM     83  F   UNL A   1      37.460  34.459  28.594  1.00  0.00    -0.206 F 
ATOM     84  C   UNL A   1      33.879  34.772  29.043  1.00  0.00     0.006 A 
ENDBRANCH  60  77
ENDBRANCH  34  35
ENDBRANCH  26  29
ENDBRANCH  24  25
ENDBRANCH   1  24
TORSDOF 12
ENDMDL
