MODEL 1
REMARK VINA RESULT:     -12.2      0.000      0.000
REMARK SMILES O=C(NCCCNC(=O)c1ccc2c(c1)CCN2C(=O)c1ccn[nH]1)c1ccc(-c2c3nc(c(-c4c(F)cccc4F)c4ccc([nH]4)c(-c4c(F)cccc4F)c4nc(c(-c5c(F)cccc5F)c5ccc2[nH]5)C=C4)C=C3)cc1
REMARK SMILES IDX 5 1 4 2 3 3 1 4 2 5 26 7 27 8 79 9 28 10 78 11 29 12 30 13
REMARK SMILES IDX 31 14 72 15 32 16 77 17 71 18 73 19 33 20 76 21 70 22 69 23
REMARK SMILES IDX 34 25 60 26 43 27 59 28 44 29 47 30 58 31 74 32 45 33 46 34
REMARK SMILES IDX 57 36 75 37 48 38 35 39 36 40 41 41 37 42 38 43 40 44 42 45
REMARK SMILES IDX 39 46 61 47 62 48 67 49 63 50 64 51 66 52 68 53 65 54 49 55
REMARK SMILES IDX 50 56 55 57 51 58 52 59 54 60 56 61 53 62 6 63 7 64 8 65
REMARK SMILES IDX 9 67 10 68 11 69 15 70 12 71 14 72 13 73 16 74 18 75 17 76
REMARK SMILES IDX 19 77 20 78 21 79 22 80 25 81 23 82 24 83
REMARK H PARENT 3 6 73 24 47 35 7 66 25 84
REMARK Flexibility Score: inf
ROOT
ATOM      1  C   UNL A   1      37.713  19.364  24.997  1.00  0.00     0.042 C 
ENDROOT
BRANCH   1   2
ATOM      2  C   UNL A   1      38.883  20.082  25.666  1.00  0.00     0.118 C 
BRANCH   2   3
ATOM      3  N   UNL A   1      40.071  19.250  25.762  1.00  0.00    -0.352 N 
ATOM      4  O   UNL A   1      42.242  18.708  25.850  1.00  0.00    -0.269 OA
ATOM      5  C   UNL A   1      41.376  19.559  26.044  1.00  0.00     0.251 C 
ATOM      6  H   UNL A   1      39.910  18.292  25.594  1.00  0.00     0.163 HD
BRANCH   5   7
ATOM      7  C   UNL A   1      41.774  20.886  26.568  1.00  0.00     0.039 A 
ATOM      8  C   UNL A   1      42.047  21.964  25.724  1.00  0.00     0.014 A 
ATOM      9  C   UNL A   1      41.753  21.084  27.956  1.00  0.00     0.014 A 
ATOM     10  C   UNL A   1      42.384  23.208  26.262  1.00  0.00     0.010 A 
ATOM     11  C   UNL A   1      42.048  22.340  28.494  1.00  0.00     0.010 A 
ATOM     12  C   UNL A   1      42.382  23.408  27.651  1.00  0.00    -0.014 A 
BRANCH  12  13
ATOM     13  C   UNL A   1      42.690  24.747  28.208  1.00  0.00     0.031 A 
ATOM     14  C   UNL A   1      44.102  25.137  28.534  1.00  0.00     0.074 A 
ATOM     15  C   UNL A   1      41.691  25.625  28.414  1.00  0.00     0.049 A 
ATOM     16  N   UNL A   1      44.554  26.269  29.013  1.00  0.00    -0.248 NA
ATOM     17  C   UNL A   1      45.142  24.125  28.297  1.00  0.00     0.031 C 
ATOM     18  C   UNL A   1      40.273  25.366  28.163  1.00  0.00     0.029 A 
ATOM     19  N   UNL A   1      41.721  26.919  28.868  1.00  0.00    -0.354 N 
ATOM     20  C   UNL A   1      45.922  26.098  29.163  1.00  0.00     0.074 A 
ATOM     21  C   UNL A   1      46.232  24.755  28.716  1.00  0.00     0.031 C 
ATOM     22  C   UNL A   1      39.572  26.482  28.429  1.00  0.00     0.029 A 
ATOM     23  C   UNL A   1      40.489  27.522  28.885  1.00  0.00     0.049 A 
ATOM     24  H   UNL A   1      42.548  27.370  29.155  1.00  0.00     0.167 HD
ATOM     25  C   UNL A   1      46.840  26.978  29.630  1.00  0.00     0.037 A 
ATOM     26  C   UNL A   1      40.138  28.775  29.221  1.00  0.00     0.037 A 
ATOM     27  C   UNL A   1      46.557  28.327  30.038  1.00  0.00     0.049 A 
ATOM     28  C   UNL A   1      41.179  29.746  29.689  1.00  0.00     0.074 A 
ATOM     29  C   UNL A   1      47.437  29.298  30.488  1.00  0.00     0.029 A 
ATOM     30  N   UNL A   1      45.296  28.899  30.039  1.00  0.00    -0.354 N 
ATOM     31  N   UNL A   1      42.470  29.570  29.818  1.00  0.00    -0.248 NA
ATOM     32  C   UNL A   1      40.710  31.087  30.067  1.00  0.00     0.031 C 
ATOM     33  C   UNL A   1      46.704  30.460  30.763  1.00  0.00     0.029 A 
ATOM     34  C   UNL A   1      45.373  30.208  30.484  1.00  0.00     0.049 A 
ATOM     35  H   UNL A   1      44.468  28.443  29.765  1.00  0.00     0.167 HD
ATOM     36  C   UNL A   1      42.968  30.771  30.299  1.00  0.00     0.074 A 
ATOM     37  C   UNL A   1      41.842  31.674  30.429  1.00  0.00     0.031 C 
ATOM     38  C   UNL A   1      44.246  31.092  30.611  1.00  0.00     0.037 A 
BRANCH  25  39
ATOM     39  C   UNL A   1      48.250  26.495  29.727  1.00  0.00     0.057 A 
ATOM     40  C   UNL A   1      49.165  26.706  28.691  1.00  0.00     0.134 A 
ATOM     41  C   UNL A   1      48.702  25.835  30.877  1.00  0.00     0.134 A 
ATOM     42  F   UNL A   1      48.784  27.321  27.562  1.00  0.00    -0.206 F 
ATOM     43  C   UNL A   1      50.488  26.271  28.793  1.00  0.00     0.040 A 
ATOM     44  C   UNL A   1      50.022  25.398  30.992  1.00  0.00     0.040 A 
ATOM     45  F   UNL A   1      47.865  25.599  31.898  1.00  0.00    -0.206 F 
ATOM     46  C   UNL A   1      50.919  25.618  29.948  1.00  0.00     0.006 A 
ENDBRANCH  25  39
BRANCH  26  47
ATOM     47  C   UNL A   1      38.724  29.188  29.112  1.00  0.00     0.057 A 
ATOM     48  C   UNL A   1      38.192  29.600  27.886  1.00  0.00     0.134 A 
ATOM     49  C   UNL A   1      37.875  29.168  30.222  1.00  0.00     0.134 A 
ATOM     50  F   UNL A   1      38.970  29.646  26.794  1.00  0.00    -0.206 F 
ATOM     51  C   UNL A   1      36.856  29.980  27.766  1.00  0.00     0.040 A 
ATOM     52  C   UNL A   1      36.536  29.543  30.115  1.00  0.00     0.040 A 
ATOM     53  F   UNL A   1      38.339  28.787  31.421  1.00  0.00    -0.206 F 
ATOM     54  C   UNL A   1      36.024  29.949  28.884  1.00  0.00     0.006 A 
ENDBRANCH  26  47
BRANCH  38  55
ATOM     55  C   UNL A   1      44.485  32.471  31.133  1.00  0.00     0.057 A 
ATOM     56  C   UNL A   1      44.746  33.535  30.262  1.00  0.00     0.134 A 
ATOM     57  C   UNL A   1      44.438  32.743  32.504  1.00  0.00     0.134 A 
ATOM     58  F   UNL A   1      44.813  33.329  28.938  1.00  0.00    -0.206 F 
ATOM     59  C   UNL A   1      44.957  34.828  30.741  1.00  0.00     0.040 A 
ATOM     60  C   UNL A   1      44.645  34.033  32.994  1.00  0.00     0.040 A 
ATOM     61  F   UNL A   1      44.199  31.760  33.385  1.00  0.00    -0.206 F 
ATOM     62  C   UNL A   1      44.906  35.079  32.111  1.00  0.00     0.006 A 
ENDBRANCH  38  55
ENDBRANCH  12  13
ENDBRANCH   5   7
ENDBRANCH   2   3
ENDBRANCH   1   2
BRANCH   1  63
ATOM     63  C   UNL A   1      36.529  20.256  24.630  1.00  0.00     0.118 C 
BRANCH  63  64
ATOM     64  N   UNL A   1      35.251  19.703  25.052  1.00  0.00    -0.352 N 
ATOM     65  C   UNL A   1      34.012  20.282  25.161  1.00  0.00     0.251 C 
ATOM     66  H   UNL A   1      35.280  18.750  25.301  1.00  0.00     0.163 HD
ATOM     67  O   UNL A   1      33.105  19.663  25.711  1.00  0.00    -0.269 OA
BRANCH  65  68
ATOM     68  C   UNL A   1      33.750  21.645  24.647  1.00  0.00     0.040 A 
ATOM     69  C   UNL A   1      33.060  21.859  23.444  1.00  0.00     0.016 A 
ATOM     70  C   UNL A   1      34.150  22.735  25.425  1.00  0.00     0.019 A 
ATOM     71  C   UNL A   1      32.845  23.158  22.963  1.00  0.00     0.027 A 
ATOM     72  C   UNL A   1      33.898  24.015  24.949  1.00  0.00    -0.022 A 
ATOM     73  C   UNL A   1      33.254  24.238  23.726  1.00  0.00     0.047 A 
ATOM     74  C   UNL A   1      34.267  25.299  25.622  1.00  0.00     0.059 C 
ATOM     75  N   UNL A   1      33.190  25.622  23.474  1.00  0.00    -0.306 N 
ATOM     76  C   UNL A   1      33.860  26.332  24.572  1.00  0.00     0.131 C 
BRANCH  75  77
ATOM     77  C   UNL A   1      32.749  26.352  22.377  1.00  0.00     0.276 C 
ATOM     78  O   UNL A   1      33.365  26.302  21.311  1.00  0.00    -0.267 OA
BRANCH  77  79
ATOM     79  C   UNL A   1      31.558  27.146  22.470  1.00  0.00     0.123 A 
ATOM     80  C   UNL A   1      30.353  26.938  23.113  1.00  0.00     0.055 A 
ATOM     81  N   UNL A   1      31.488  28.422  21.981  1.00  0.00    -0.273 N 
ATOM     82  C   UNL A   1      29.605  28.104  22.864  1.00  0.00     0.135 A 
ATOM     83  N   UNL A   1      30.282  28.996  22.141  1.00  0.00    -0.183 NA
ATOM     84  H   UNL A   1      32.249  28.877  21.553  1.00  0.00     0.190 HD
ENDBRANCH  77  79
ENDBRANCH  75  77
ENDBRANCH  65  68
ENDBRANCH  63  64
ENDBRANCH   1  63
TORSDOF 12
ENDMDL
MODEL 2
REMARK VINA RESULT:     -12.1      0.274      6.349
REMARK SMILES O=C(NCCCNC(=O)c1ccc2c(c1)CCN2C(=O)c1ccn[nH]1)c1ccc(-c2c3nc(c(-c4c(F)cccc4F)c4ccc([nH]4)c(-c4c(F)cccc4F)c4nc(c(-c5c(F)cccc5F)c5ccc2[nH]5)C=C4)C=C3)cc1
REMARK SMILES IDX 5 1 4 2 3 3 1 4 2 5 26 7 27 8 79 9 28 10 78 11 29 12 30 13
REMARK SMILES IDX 31 14 72 15 32 16 77 17 71 18 73 19 33 20 76 21 70 22 69 23
REMARK SMILES IDX 34 25 60 26 43 27 59 28 44 29 47 30 58 31 74 32 45 33 46 34
REMARK SMILES IDX 57 36 75 37 48 38 35 39 36 40 41 41 37 42 38 43 40 44 42 45
REMARK SMILES IDX 39 46 61 47 62 48 67 49 63 50 64 51 66 52 68 53 65 54 49 55
REMARK SMILES IDX 50 56 55 57 51 58 52 59 54 60 56 61 53 62 6 63 7 64 8 65
REMARK SMILES IDX 9 67 10 68 11 69 15 70 12 71 14 72 13 73 16 74 18 75 17 76
REMARK SMILES IDX 19 77 20 78 21 79 22 80 25 81 23 82 24 83
REMARK H PARENT 3 6 73 24 47 35 7 66 25 84
REMARK Flexibility Score: inf
ROOT
ATOM      1  C   UNL A   1      37.699  19.543  24.989  1.00  0.00     0.042 C 
ENDROOT
BRANCH   1   2
ATOM      2  C   UNL A   1      38.868  20.192  25.726  1.00  0.00     0.118 C 
BRANCH   2   3
ATOM      3  N   UNL A   1      40.031  19.324  25.807  1.00  0.00    -0.352 N 
ATOM      4  O   UNL A   1      42.185  18.714  25.857  1.00  0.00    -0.269 OA
ATOM      5  C   UNL A   1      41.351  19.594  26.060  1.00  0.00     0.251 C 
ATOM      6  H   UNL A   1      39.836  18.370  25.652  1.00  0.00     0.163 HD
BRANCH   5   7
ATOM      7  C   UNL A   1      41.800  20.913  26.562  1.00  0.00     0.039 A 
ATOM      8  C   UNL A   1      42.228  21.927  25.702  1.00  0.00     0.014 A 
ATOM      9  C   UNL A   1      41.673  21.178  27.933  1.00  0.00     0.014 A 
ATOM     10  C   UNL A   1      42.609  23.168  26.216  1.00  0.00     0.010 A 
ATOM     11  C   UNL A   1      42.013  22.435  28.443  1.00  0.00     0.010 A 
ATOM     12  C   UNL A   1      42.501  23.434  27.591  1.00  0.00    -0.014 A 
BRANCH  12  13
ATOM     13  C   UNL A   1      42.859  24.772  28.117  1.00  0.00     0.031 A 
ATOM     14  C   UNL A   1      41.802  25.806  28.374  1.00  0.00     0.074 A 
ATOM     15  C   UNL A   1      44.149  25.059  28.378  1.00  0.00     0.049 A 
ATOM     16  N   UNL A   1      41.934  27.021  28.846  1.00  0.00    -0.248 NA
ATOM     17  C   UNL A   1      40.416  25.431  28.055  1.00  0.00     0.031 C 
ATOM     18  C   UNL A   1      45.278  24.156  28.152  1.00  0.00     0.029 A 
ATOM     19  N   UNL A   1      44.722  26.188  28.904  1.00  0.00    -0.354 N 
ATOM     20  C   UNL A   1      40.659  27.565  28.853  1.00  0.00     0.074 A 
ATOM     21  C   UNL A   1      39.761  26.547  28.347  1.00  0.00     0.031 C 
ATOM     22  C   UNL A   1      46.405  24.753  28.575  1.00  0.00     0.029 A 
ATOM     23  C   UNL A   1      46.078  26.082  29.082  1.00  0.00     0.049 A 
ATOM     24  H   UNL A   1      44.209  26.998  29.130  1.00  0.00     0.167 HD
ATOM     25  C   UNL A   1      40.268  28.801  29.246  1.00  0.00     0.037 A 
ATOM     26  C   UNL A   1      46.959  26.954  29.602  1.00  0.00     0.037 A 
ATOM     27  C   UNL A   1      41.138  29.808  29.789  1.00  0.00     0.049 A 
ATOM     28  C   UNL A   1      46.494  28.297  30.075  1.00  0.00     0.074 A 
ATOM     29  C   UNL A   1      40.815  31.075  30.248  1.00  0.00     0.029 A 
ATOM     30  N   UNL A   1      42.505  29.660  29.953  1.00  0.00    -0.354 N 
ATOM     31  N   UNL A   1      45.283  28.794  30.081  1.00  0.00    -0.248 NA
ATOM     32  C   UNL A   1      47.524  29.204  30.603  1.00  0.00     0.031 C 
ATOM     33  C   UNL A   1      41.991  31.694  30.689  1.00  0.00     0.029 A 
ATOM     34  C   UNL A   1      43.041  30.812  30.504  1.00  0.00     0.049 A 
ATOM     35  H   UNL A   1      43.019  28.856  29.714  1.00  0.00     0.167 HD
ATOM     36  C   UNL A   1      45.402  30.072  30.605  1.00  0.00     0.074 A 
ATOM     37  C   UNL A   1      46.803  30.273  30.916  1.00  0.00     0.031 C 
ATOM     38  C   UNL A   1      44.435  30.999  30.803  1.00  0.00     0.037 A 
BRANCH  25  39
ATOM     39  C   UNL A   1      38.819  29.131  29.094  1.00  0.00     0.057 A 
ATOM     40  C   UNL A   1      37.935  29.047  30.174  1.00  0.00     0.134 A 
ATOM     41  C   UNL A   1      38.309  29.559  27.862  1.00  0.00     0.134 A 
ATOM     42  F   UNL A   1      38.366  28.631  31.374  1.00  0.00    -0.206 F 
ATOM     43  C   UNL A   1      36.586  29.376  30.034  1.00  0.00     0.040 A 
ATOM     44  C   UNL A   1      36.963  29.893  27.709  1.00  0.00     0.040 A 
ATOM     45  F   UNL A   1      39.110  29.650  26.790  1.00  0.00    -0.206 F 
ATOM     46  C   UNL A   1      36.098  29.802  28.798  1.00  0.00     0.006 A 
ENDBRANCH  25  39
BRANCH  26  47
ATOM     47  C   UNL A   1      48.381  26.570  29.717  1.00  0.00     0.057 A 
ATOM     48  C   UNL A   1      48.841  25.853  30.826  1.00  0.00     0.134 A 
ATOM     49  C   UNL A   1      49.303  26.898  28.719  1.00  0.00     0.134 A 
ATOM     50  F   UNL A   1      47.996  25.524  31.815  1.00  0.00    -0.206 F 
ATOM     51  C   UNL A   1      50.177  25.473  30.940  1.00  0.00     0.040 A 
ATOM     52  C   UNL A   1      50.642  26.522  28.819  1.00  0.00     0.040 A 
ATOM     53  F   UNL A   1      48.912  27.590  27.639  1.00  0.00    -0.206 F 
ATOM     54  C   UNL A   1      51.081  25.807  29.932  1.00  0.00     0.006 A 
ENDBRANCH  26  47
BRANCH  38  55
ATOM     55  C   UNL A   1      44.866  32.311  31.371  1.00  0.00     0.057 A 
ATOM     56  C   UNL A   1      44.915  32.516  32.754  1.00  0.00     0.134 A 
ATOM     57  C   UNL A   1      45.250  33.367  30.538  1.00  0.00     0.134 A 
ATOM     58  F   UNL A   1      44.548  31.541  33.599  1.00  0.00    -0.206 F 
ATOM     59  C   UNL A   1      45.329  33.735  33.292  1.00  0.00     0.040 A 
ATOM     60  C   UNL A   1      45.668  34.590  31.064  1.00  0.00     0.040 A 
ATOM     61  F   UNL A   1      45.215  33.229  29.204  1.00  0.00    -0.206 F 
ATOM     62  C   UNL A   1      45.708  34.775  32.445  1.00  0.00     0.006 A 
ENDBRANCH  38  55
ENDBRANCH  12  13
ENDBRANCH   5   7
ENDBRANCH   2   3
ENDBRANCH   1   2
BRANCH   1  63
ATOM     63  C   UNL A   1      36.516  20.468  24.708  1.00  0.00     0.118 C 
BRANCH  63  64
ATOM     64  N   UNL A   1      35.238  19.885  25.087  1.00  0.00    -0.352 N 
ATOM     65  C   UNL A   1      33.985  20.437  25.166  1.00  0.00     0.251 C 
ATOM     66  H   UNL A   1      35.280  18.930  25.329  1.00  0.00     0.163 HD
ATOM     67  O   UNL A   1      33.075  19.794  25.684  1.00  0.00    -0.269 OA
BRANCH  65  68
ATOM     68  C   UNL A   1      33.709  21.799  24.658  1.00  0.00     0.040 A 
ATOM     69  C   UNL A   1      33.057  22.010  23.434  1.00  0.00     0.016 A 
ATOM     70  C   UNL A   1      34.056  22.889  25.461  1.00  0.00     0.019 A 
ATOM     71  C   UNL A   1      32.829  23.309  22.958  1.00  0.00     0.027 A 
ATOM     72  C   UNL A   1      33.791  24.169  24.989  1.00  0.00    -0.022 A 
ATOM     73  C   UNL A   1      33.185  24.391  23.747  1.00  0.00     0.047 A 
ATOM     74  C   UNL A   1      34.106  25.453  25.688  1.00  0.00     0.059 C 
ATOM     75  N   UNL A   1      33.098  25.775  23.506  1.00  0.00    -0.306 N 
ATOM     76  C   UNL A   1      33.713  26.488  24.635  1.00  0.00     0.131 C 
BRANCH  75  77
ATOM     77  C   UNL A   1      32.679  26.507  22.403  1.00  0.00     0.276 C 
ATOM     78  O   UNL A   1      33.321  26.467  21.352  1.00  0.00    -0.267 OA
BRANCH  77  79
ATOM     79  C   UNL A   1      31.480  27.291  22.469  1.00  0.00     0.123 A 
ATOM     80  C   UNL A   1      30.265  27.077  23.091  1.00  0.00     0.055 A 
ATOM     81  N   UNL A   1      31.409  28.565  21.972  1.00  0.00    -0.273 N 
ATOM     82  C   UNL A   1      29.512  28.235  22.823  1.00  0.00     0.135 A 
ATOM     83  N   UNL A   1      30.195  29.130  22.107  1.00  0.00    -0.183 NA
ATOM     84  H   UNL A   1      32.173  29.023  21.557  1.00  0.00     0.190 HD
ENDBRANCH  77  79
ENDBRANCH  75  77
ENDBRANCH  65  68
ENDBRANCH  63  64
ENDBRANCH   1  63
TORSDOF 12
ENDMDL
MODEL 3
REMARK VINA RESULT:     -12.1      4.200      8.148
REMARK SMILES O=C(NCCCNC(=O)c1ccc2c(c1)CCN2C(=O)c1ccn[nH]1)c1ccc(-c2c3nc(c(-c4c(F)cccc4F)c4ccc([nH]4)c(-c4c(F)cccc4F)c4nc(c(-c5c(F)cccc5F)c5ccc2[nH]5)C=C4)C=C3)cc1
REMARK SMILES IDX 5 1 4 2 3 3 1 4 2 5 26 7 27 8 79 9 28 10 78 11 29 12 30 13
REMARK SMILES IDX 31 14 72 15 32 16 77 17 71 18 73 19 33 20 76 21 70 22 69 23
REMARK SMILES IDX 34 25 60 26 43 27 59 28 44 29 47 30 58 31 74 32 45 33 46 34
REMARK SMILES IDX 57 36 75 37 48 38 35 39 36 40 41 41 37 42 38 43 40 44 42 45
REMARK SMILES IDX 39 46 61 47 62 48 67 49 63 50 64 51 66 52 68 53 65 54 49 55
REMARK SMILES IDX 50 56 55 57 51 58 52 59 54 60 56 61 53 62 6 63 7 64 8 65
REMARK SMILES IDX 9 67 10 68 11 69 15 70 12 71 14 72 13 73 16 74 18 75 17 76
REMARK SMILES IDX 19 77 20 78 21 79 22 80 25 81 23 82 24 83
REMARK H PARENT 3 6 73 24 47 35 7 66 25 84
REMARK Flexibility Score: inf
ROOT
ATOM      1  C   UNL A   1      37.674  22.587  25.824  1.00  0.00     0.042 C 
ENDROOT
BRANCH   1   2
ATOM      2  C   UNL A   1      38.399  23.827  26.345  1.00  0.00     0.118 C 
BRANCH   2   3
ATOM      3  N   UNL A   1      39.829  23.791  26.087  1.00  0.00    -0.352 N 
ATOM      4  O   UNL A   1      41.945  24.508  25.940  1.00  0.00    -0.269 OA
ATOM      5  C   UNL A   1      40.842  24.630  26.469  1.00  0.00     0.251 C 
ATOM      6  H   UNL A   1      40.122  23.026  25.539  1.00  0.00     0.163 HD
BRANCH   5   7
ATOM      7  C   UNL A   1      40.647  25.682  27.493  1.00  0.00     0.039 A 
ATOM      8  C   UNL A   1      39.726  25.541  28.534  1.00  0.00     0.014 A 
ATOM      9  C   UNL A   1      41.503  26.792  27.475  1.00  0.00     0.014 A 
ATOM     10  C   UNL A   1      39.600  26.542  29.500  1.00  0.00     0.010 A 
ATOM     11  C   UNL A   1      41.407  27.774  28.466  1.00  0.00     0.010 A 
ATOM     12  C   UNL A   1      40.443  27.665  29.476  1.00  0.00    -0.014 A 
BRANCH  12  13
ATOM     13  C   UNL A   1      40.334  28.695  30.536  1.00  0.00     0.031 A 
ATOM     14  C   UNL A   1      39.288  29.769  30.461  1.00  0.00     0.074 A 
ATOM     15  C   UNL A   1      41.179  28.660  31.584  1.00  0.00     0.049 A 
ATOM     16  N   UNL A   1      39.041  30.739  31.305  1.00  0.00    -0.248 NA
ATOM     17  C   UNL A   1      38.408  29.756  29.283  1.00  0.00     0.031 C 
ATOM     18  C   UNL A   1      42.256  27.687  31.770  1.00  0.00     0.029 A 
ATOM     19  N   UNL A   1      41.252  29.457  32.697  1.00  0.00    -0.354 N 
ATOM     20  C   UNL A   1      38.001  31.469  30.750  1.00  0.00     0.074 A 
ATOM     21  C   UNL A   1      37.654  30.826  29.498  1.00  0.00     0.031 C 
ATOM     22  C   UNL A   1      42.857  27.921  32.949  1.00  0.00     0.029 A 
ATOM     23  C   UNL A   1      42.220  29.068  33.588  1.00  0.00     0.049 A 
ATOM     24  H   UNL A   1      40.666  30.235  32.842  1.00  0.00     0.167 HD
ATOM     25  C   UNL A   1      37.387  32.574  31.236  1.00  0.00     0.037 A 
ATOM     26  C   UNL A   1      42.552  29.572  34.789  1.00  0.00     0.037 A 
ATOM     27  C   UNL A   1      37.690  33.201  32.494  1.00  0.00     0.049 A 
ATOM     28  C   UNL A   1      41.826  30.767  35.327  1.00  0.00     0.074 A 
ATOM     29  C   UNL A   1      37.089  34.303  33.078  1.00  0.00     0.029 A 
ATOM     30  N   UNL A   1      38.678  32.774  33.366  1.00  0.00    -0.354 N 
ATOM     31  N   UNL A   1      40.840  31.441  34.792  1.00  0.00    -0.248 NA
ATOM     32  C   UNL A   1      42.269  31.276  36.633  1.00  0.00     0.031 C 
ATOM     33  C   UNL A   1      37.717  34.544  34.308  1.00  0.00     0.029 A 
ATOM     34  C   UNL A   1      38.705  33.592  34.483  1.00  0.00     0.049 A 
ATOM     35  H   UNL A   1      39.272  32.005  33.214  1.00  0.00     0.167 HD
ATOM     36  C   UNL A   1      40.547  32.457  35.689  1.00  0.00     0.074 A 
ATOM     37  C   UNL A   1      41.453  32.307  36.809  1.00  0.00     0.031 C 
ATOM     38  C   UNL A   1      39.613  33.432  35.586  1.00  0.00     0.037 A 
BRANCH  25  39
ATOM     39  C   UNL A   1      36.319  33.182  30.387  1.00  0.00     0.057 A 
ATOM     40  C   UNL A   1      36.632  33.967  29.273  1.00  0.00     0.134 A 
ATOM     41  C   UNL A   1      34.966  32.960  30.673  1.00  0.00     0.134 A 
ATOM     42  F   UNL A   1      37.910  34.222  28.959  1.00  0.00    -0.206 F 
ATOM     43  C   UNL A   1      35.632  34.517  28.469  1.00  0.00     0.040 A 
ATOM     44  C   UNL A   1      33.957  33.502  29.876  1.00  0.00     0.040 A 
ATOM     45  F   UNL A   1      34.608  32.222  31.734  1.00  0.00    -0.206 F 
ATOM     46  C   UNL A   1      34.290  34.282  28.770  1.00  0.00     0.006 A 
ENDBRANCH  25  39
BRANCH  26  47
ATOM     47  C   UNL A   1      43.625  28.930  35.576  1.00  0.00     0.057 A 
ATOM     48  C   UNL A   1      43.334  27.902  36.477  1.00  0.00     0.134 A 
ATOM     49  C   UNL A   1      44.960  29.321  35.434  1.00  0.00     0.134 A 
ATOM     50  F   UNL A   1      42.067  27.499  36.655  1.00  0.00    -0.206 F 
ATOM     51  C   UNL A   1      44.339  27.279  37.215  1.00  0.00     0.040 A 
ATOM     52  C   UNL A   1      45.975  28.704  36.165  1.00  0.00     0.040 A 
ATOM     53  F   UNL A   1      45.290  30.307  34.588  1.00  0.00    -0.206 F 
ATOM     54  C   UNL A   1      45.665  27.680  37.058  1.00  0.00     0.006 A 
ENDBRANCH  26  47
BRANCH  38  55
ATOM     55  C   UNL A   1      39.538  34.414  36.710  1.00  0.00     0.057 A 
ATOM     56  C   UNL A   1      38.820  34.121  37.874  1.00  0.00     0.134 A 
ATOM     57  C   UNL A   1      40.199  35.645  36.639  1.00  0.00     0.134 A 
ATOM     58  F   UNL A   1      38.159  32.960  37.991  1.00  0.00    -0.206 F 
ATOM     59  C   UNL A   1      38.756  35.027  38.934  1.00  0.00     0.040 A 
ATOM     60  C   UNL A   1      40.145  36.557  37.693  1.00  0.00     0.040 A 
ATOM     61  F   UNL A   1      40.897  35.980  35.544  1.00  0.00    -0.206 F 
ATOM     62  C   UNL A   1      39.422  36.248  38.844  1.00  0.00     0.006 A 
ENDBRANCH  38  55
ENDBRANCH  12  13
ENDBRANCH   5   7
ENDBRANCH   2   3
ENDBRANCH   1   2
BRANCH   1  63
ATOM     63  C   UNL A   1      37.015  22.748  24.456  1.00  0.00     0.118 C 
BRANCH  63  64
ATOM     64  N   UNL A   1      35.836  21.912  24.293  1.00  0.00    -0.352 N 
ATOM     65  C   UNL A   1      34.507  22.239  24.200  1.00  0.00     0.251 C 
ATOM     66  H   UNL A   1      36.024  20.946  24.240  1.00  0.00     0.163 HD
ATOM     67  O   UNL A   1      33.663  21.346  24.243  1.00  0.00    -0.269 OA
BRANCH  65  68
ATOM     68  C   UNL A   1      34.066  23.645  24.069  1.00  0.00     0.040 A 
ATOM     69  C   UNL A   1      33.756  24.206  22.821  1.00  0.00     0.016 A 
ATOM     70  C   UNL A   1      33.899  24.399  25.234  1.00  0.00     0.019 A 
ATOM     71  C   UNL A   1      33.364  25.549  22.716  1.00  0.00     0.027 A 
ATOM     72  C   UNL A   1      33.477  25.717  25.114  1.00  0.00    -0.022 A 
ATOM     73  C   UNL A   1      33.212  26.301  23.869  1.00  0.00     0.047 A 
ATOM     74  C   UNL A   1      33.262  26.684  26.235  1.00  0.00     0.059 C 
ATOM     75  N   UNL A   1      32.865  27.653  24.048  1.00  0.00    -0.306 N 
ATOM     76  C   UNL A   1      32.945  27.974  25.480  1.00  0.00     0.131 C 
BRANCH  75  77
ATOM     77  C   UNL A   1      32.611  28.680  23.147  1.00  0.00     0.276 C 
ATOM     78  O   UNL A   1      33.541  29.338  22.678  1.00  0.00    -0.267 OA
BRANCH  77  79
ATOM     79  C   UNL A   1      31.267  28.961  22.733  1.00  0.00     0.123 A 
ATOM     80  C   UNL A   1      30.040  28.606  23.260  1.00  0.00     0.055 A 
ATOM     81  N   UNL A   1      30.981  29.823  21.709  1.00  0.00    -0.273 N 
ATOM     82  C   UNL A   1      29.093  29.227  22.424  1.00  0.00     0.135 A 
ATOM     83  N   UNL A   1      29.666  29.940  21.453  1.00  0.00    -0.183 NA
ATOM     84  H   UNL A   1      31.673  30.312  21.209  1.00  0.00     0.190 HD
ENDBRANCH  77  79
ENDBRANCH  75  77
ENDBRANCH  65  68
ENDBRANCH  63  64
ENDBRANCH   1  63
TORSDOF 12
ENDMDL
