MODEL 1
REMARK VINA RESULT:     -12.4      0.000      0.000
REMARK SMILES CC(C)(C)c1cc2c(cc1Cl)C=C(C(=O)NCCCNC(=O)c1ccc(-c3c4nc(c(-c5c(F)cccc5F)c5ccc([nH]5)c(-c5c(F)cccc5F)c5nc(c(-c6c(F)cccc6F)c6ccc3[nH]6)C=C5)C=C4)cc1)[C@H](C(F)(F)F)O2
REMARK SMILES IDX 18 1 17 2 16 3 14 4 15 5 13 7 5 8 6 9 10 10 7 11 9 12 11 13
REMARK SMILES IDX 8 14 82 15 12 16 77 17 2 18 1 19 3 20 4 21 78 22 79 23 80 24
REMARK SMILES IDX 81 25 19 26 20 27 21 28 22 30 23 31 24 32 76 33 25 34 75 35
REMARK SMILES IDX 26 36 27 37 28 38 69 39 29 40 74 41 68 42 70 43 30 44 73 45
REMARK SMILES IDX 67 46 66 47 31 49 57 50 40 51 56 52 41 53 44 54 55 55 71 56
REMARK SMILES IDX 42 57 43 58 54 60 72 61 45 62 32 63 33 64 38 65 34 66 35 67
REMARK SMILES IDX 37 68 39 69 36 70 58 71 59 72 64 73 60 74 61 75 63 76 65 77
REMARK SMILES IDX 62 78 46 79 47 80 52 81 48 82 49 83 51 84 53 85 50 86
REMARK H PARENT 16 6 20 29 70 48 44 59
REMARK Flexibility Score: inf
ROOT
ATOM      1  C   UNL A   1      37.153  19.929  24.968  1.00  0.00     0.042 C 
ENDROOT
BRANCH   1   2
ATOM      2  C   UNL A   1      36.024  20.948  24.931  1.00  0.00     0.118 C 
BRANCH   2   3
ATOM      3  N   UNL A   1      35.204  20.879  26.129  1.00  0.00    -0.352 N 
ATOM      4  C   UNL A   1      34.118  21.513  26.626  1.00  0.00     0.251 C 
ATOM      5  O   UNL A   1      33.710  21.080  27.709  1.00  0.00    -0.270 OA
ATOM      6  H   UNL A   1      35.526  20.182  26.745  1.00  0.00     0.163 HD
BRANCH   4   7
ATOM      7  C   UNL A   1      33.410  22.652  25.974  1.00  0.00     0.067 C 
ATOM      8  C   UNL A   1      31.983  27.283  24.435  1.00  0.00    -0.020 A 
ATOM      9  C   UNL A   1      31.451  25.979  24.371  1.00  0.00     0.053 A 
ATOM     10  C   UNL A   1      33.216  27.415  25.122  1.00  0.00     0.045 A 
ATOM     11  C   UNL A   1      32.096  24.883  24.941  1.00  0.00     0.128 A 
ATOM     12  C   UNL A   1      33.849  26.306  25.714  1.00  0.00     0.032 A 
ATOM     13  Cl  UNL A   1      34.070  28.908  25.307  1.00  0.00    -0.084 Cl
ATOM     14  C   UNL A   1      33.291  25.034  25.626  1.00  0.00     0.019 A 
ATOM     15  O   UNL A   1      31.458  23.684  24.815  1.00  0.00    -0.475 OA
ATOM     16  C   UNL A   1      33.899  23.874  26.260  1.00  0.00     0.025 C 
ATOM     17  C   UNL A   1      32.283  22.502  24.989  1.00  0.00     0.314 C 
BRANCH   8  18
ATOM     18  C   UNL A   1      31.211  28.444  23.761  1.00  0.00    -0.012 C 
ATOM     19  C   UNL A   1      31.958  28.924  22.500  1.00  0.00     0.016 C 
ATOM     20  C   UNL A   1      30.985  29.613  24.744  1.00  0.00     0.016 C 
ATOM     21  C   UNL A   1      29.787  28.042  23.275  1.00  0.00     0.016 C 
ENDBRANCH   8  18
BRANCH  17  22
ATOM     22  C   UNL A   1      32.723  21.961  23.619  1.00  0.00     0.429 C 
ATOM     23  F   UNL A   1      32.959  20.629  23.634  1.00  0.00    -0.167 F 
ATOM     24  F   UNL A   1      31.745  22.173  22.700  1.00  0.00    -0.167 F 
ATOM     25  F   UNL A   1      33.843  22.554  23.152  1.00  0.00    -0.167 F 
ENDBRANCH  17  22
ENDBRANCH   4   7
ENDBRANCH   2   3
ENDBRANCH   1   2
BRANCH   1  26
ATOM     26  C   UNL A   1      38.487  20.552  25.356  1.00  0.00     0.118 C 
BRANCH  26  27
ATOM     27  N   UNL A   1      39.523  19.543  25.554  1.00  0.00    -0.352 N 
ATOM     28  C   UNL A   1      40.827  19.675  25.960  1.00  0.00     0.251 C 
ATOM     29  H   UNL A   1      39.241  18.619  25.366  1.00  0.00     0.163 HD
ATOM     30  O   UNL A   1      41.604  18.730  25.814  1.00  0.00    -0.269 OA
BRANCH  28  31
ATOM     31  C   UNL A   1      41.309  20.940  26.554  1.00  0.00     0.039 A 
ATOM     32  C   UNL A   1      41.200  21.169  27.925  1.00  0.00     0.014 A 
ATOM     33  C   UNL A   1      41.900  21.906  25.734  1.00  0.00     0.014 A 
ATOM     34  C   UNL A   1      41.490  22.424  28.441  1.00  0.00     0.010 A 
ATOM     35  C   UNL A   1      42.311  23.127  26.279  1.00  0.00     0.010 A 
ATOM     36  C   UNL A   1      42.064  23.416  27.631  1.00  0.00    -0.014 A 
BRANCH  36  37
ATOM     37  C   UNL A   1      42.402  24.733  28.232  1.00  0.00     0.031 A 
ATOM     38  C   UNL A   1      43.823  25.078  28.592  1.00  0.00     0.074 A 
ATOM     39  C   UNL A   1      41.425  25.648  28.392  1.00  0.00     0.049 A 
ATOM     40  N   UNL A   1      44.299  26.188  29.098  1.00  0.00    -0.248 NA
ATOM     41  C   UNL A   1      44.841  24.042  28.362  1.00  0.00     0.031 C 
ATOM     42  C   UNL A   1      40.010  25.438  28.072  1.00  0.00     0.029 A 
ATOM     43  N   UNL A   1      41.475  26.947  28.829  1.00  0.00    -0.354 N 
ATOM     44  C   UNL A   1      45.664  25.980  29.259  1.00  0.00     0.074 A 
ATOM     45  C   UNL A   1      45.932  24.621  28.838  1.00  0.00     0.031 C 
ATOM     46  C   UNL A   1      39.341  26.584  28.258  1.00  0.00     0.029 A 
ATOM     47  C   UNL A   1      40.259  27.586  28.785  1.00  0.00     0.049 A 
ATOM     48  H   UNL A   1      42.300  27.379  29.144  1.00  0.00     0.167 HD
ATOM     49  C   UNL A   1      46.610  26.844  29.701  1.00  0.00     0.037 A 
ATOM     50  C   UNL A   1      39.915  28.835  29.146  1.00  0.00     0.037 A 
ATOM     51  C   UNL A   1      46.340  28.199  30.114  1.00  0.00     0.049 A 
ATOM     52  C   UNL A   1      40.974  29.746  29.698  1.00  0.00     0.074 A 
ATOM     53  C   UNL A   1      47.228  29.156  30.573  1.00  0.00     0.029 A 
ATOM     54  N   UNL A   1      45.083  28.787  30.119  1.00  0.00    -0.354 N 
ATOM     55  N   UNL A   1      42.260  29.536  29.836  1.00  0.00    -0.248 NA
ATOM     56  C   UNL A   1      40.525  31.068  30.153  1.00  0.00     0.031 C 
ATOM     57  C   UNL A   1      46.502  30.305  30.903  1.00  0.00     0.029 A 
ATOM     58  C   UNL A   1      45.169  30.086  30.596  1.00  0.00     0.049 A 
ATOM     59  H   UNL A   1      44.253  28.347  29.828  1.00  0.00     0.167 HD
ATOM     60  C   UNL A   1      42.778  30.707  30.373  1.00  0.00     0.074 A 
ATOM     61  C   UNL A   1      41.670  31.631  30.509  1.00  0.00     0.031 C 
ATOM     62  C   UNL A   1      44.056  30.992  30.728  1.00  0.00     0.037 A 
BRANCH  49  63
ATOM     63  C   UNL A   1      48.023  26.338  29.781  1.00  0.00     0.057 A 
ATOM     64  C   UNL A   1      48.879  26.429  28.675  1.00  0.00     0.134 A 
ATOM     65  C   UNL A   1      48.537  25.749  30.944  1.00  0.00     0.134 A 
ATOM     66  F   UNL A   1      48.452  26.973  27.525  1.00  0.00    -0.206 F 
ATOM     67  C   UNL A   1      50.192  25.957  28.724  1.00  0.00     0.040 A 
ATOM     68  C   UNL A   1      49.858  25.301  31.015  1.00  0.00     0.040 A 
ATOM     69  F   UNL A   1      47.777  25.641  32.044  1.00  0.00    -0.206 F 
ATOM     70  C   UNL A   1      50.688  25.400  29.900  1.00  0.00     0.006 A 
ENDBRANCH  49  63
BRANCH  50  71
ATOM     71  C   UNL A   1      38.509  29.295  29.017  1.00  0.00     0.057 A 
ATOM     72  C   UNL A   1      37.994  29.733  27.792  1.00  0.00     0.134 A 
ATOM     73  C   UNL A   1      37.638  29.276  30.112  1.00  0.00     0.134 A 
ATOM     74  F   UNL A   1      38.777  29.782  26.704  1.00  0.00    -0.206 F 
ATOM     75  C   UNL A   1      36.666  30.141  27.660  1.00  0.00     0.040 A 
ATOM     76  C   UNL A   1      36.300  29.649  29.989  1.00  0.00     0.040 A 
ATOM     77  F   UNL A   1      38.068  28.848  31.309  1.00  0.00    -0.206 F 
ATOM     78  C   UNL A   1      35.811  30.087  28.759  1.00  0.00     0.006 A 
ENDBRANCH  50  71
BRANCH  62  79
ATOM     79  C   UNL A   1      44.316  32.372  31.258  1.00  0.00     0.057 A 
ATOM     80  C   UNL A   1      44.612  33.427  30.385  1.00  0.00     0.134 A 
ATOM     81  C   UNL A   1      44.266  32.663  32.628  1.00  0.00     0.134 A 
ATOM     82  F   UNL A   1      44.683  33.216  29.062  1.00  0.00    -0.206 F 
ATOM     83  C   UNL A   1      44.840  34.720  30.854  1.00  0.00     0.040 A 
ATOM     84  C   UNL A   1      44.460  33.959  33.106  1.00  0.00     0.040 A 
ATOM     85  F   UNL A   1      43.972  31.702  33.517  1.00  0.00    -0.206 F 
ATOM     86  C   UNL A   1      44.753  34.992  32.217  1.00  0.00     0.006 A 
ENDBRANCH  62  79
ENDBRANCH  36  37
ENDBRANCH  28  31
ENDBRANCH  26  27
ENDBRANCH   1  26
TORSDOF 12
ENDMDL
MODEL 2
REMARK VINA RESULT:     -12.2      1.956      2.513
REMARK SMILES CC(C)(C)c1cc2c(cc1Cl)C=C(C(=O)NCCCNC(=O)c1ccc(-c3c4nc(c(-c5c(F)cccc5F)c5ccc([nH]5)c(-c5c(F)cccc5F)c5nc(c(-c6c(F)cccc6F)c6ccc3[nH]6)C=C5)C=C4)cc1)[C@H](C(F)(F)F)O2
REMARK SMILES IDX 18 1 17 2 16 3 14 4 15 5 13 7 5 8 6 9 10 10 7 11 9 12 11 13
REMARK SMILES IDX 8 14 82 15 12 16 77 17 2 18 1 19 3 20 4 21 78 22 79 23 80 24
REMARK SMILES IDX 81 25 19 26 20 27 21 28 22 30 23 31 24 32 76 33 25 34 75 35
REMARK SMILES IDX 26 36 27 37 28 38 69 39 29 40 74 41 68 42 70 43 30 44 73 45
REMARK SMILES IDX 67 46 66 47 31 49 57 50 40 51 56 52 41 53 44 54 55 55 71 56
REMARK SMILES IDX 42 57 43 58 54 60 72 61 45 62 32 63 33 64 38 65 34 66 35 67
REMARK SMILES IDX 37 68 39 69 36 70 58 71 59 72 64 73 60 74 61 75 63 76 65 77
REMARK SMILES IDX 62 78 46 79 47 80 52 81 48 82 49 83 51 84 53 85 50 86
REMARK H PARENT 16 6 20 29 70 48 44 59
REMARK Flexibility Score: inf
ROOT
ATOM      1  C   UNL A   1      38.121  19.247  25.083  1.00  0.00     0.042 C 
ENDROOT
BRANCH   1   2
ATOM      2  C   UNL A   1      37.082  20.299  24.721  1.00  0.00     0.118 C 
BRANCH   2   3
ATOM      3  N   UNL A   1      35.740  19.867  25.076  1.00  0.00    -0.352 N 
ATOM      4  C   UNL A   1      34.525  20.436  25.239  1.00  0.00     0.251 C 
ATOM      5  O   UNL A   1      33.612  19.649  25.511  1.00  0.00    -0.270 OA
ATOM      6  H   UNL A   1      35.708  18.897  25.244  1.00  0.00     0.163 HD
BRANCH   4   7
ATOM      7  C   UNL A   1      34.231  21.891  25.112  1.00  0.00     0.067 C 
ATOM      8  C   UNL A   1      33.137  26.518  23.307  1.00  0.00    -0.020 A 
ATOM      9  C   UNL A   1      33.559  25.978  24.540  1.00  0.00     0.053 A 
ATOM     10  C   UNL A   1      32.993  25.592  22.244  1.00  0.00     0.045 A 
ATOM     11  C   UNL A   1      33.815  24.619  24.709  1.00  0.00     0.128 A 
ATOM     12  C   UNL A   1      33.275  24.224  22.418  1.00  0.00     0.032 A 
ATOM     13  Cl  UNL A   1      32.464  26.016  20.652  1.00  0.00    -0.084 Cl
ATOM     14  C   UNL A   1      33.688  23.731  23.652  1.00  0.00     0.019 A 
ATOM     15  O   UNL A   1      34.232  24.240  25.951  1.00  0.00    -0.475 OA
ATOM     16  C   UNL A   1      34.025  22.330  23.855  1.00  0.00     0.025 C 
ATOM     17  C   UNL A   1      34.075  22.833  26.274  1.00  0.00     0.314 C 
BRANCH   8  18
ATOM     18  C   UNL A   1      32.859  28.038  23.209  1.00  0.00    -0.012 C 
ATOM     19  C   UNL A   1      31.415  28.288  22.727  1.00  0.00     0.016 C 
ATOM     20  C   UNL A   1      33.877  28.736  22.281  1.00  0.00     0.016 C 
ATOM     21  C   UNL A   1      32.979  28.780  24.573  1.00  0.00     0.016 C 
ENDBRANCH   8  18
BRANCH  17  22
ATOM     22  C   UNL A   1      32.782  22.620  27.078  1.00  0.00     0.429 C 
ATOM     23  F   UNL A   1      32.977  21.883  28.196  1.00  0.00    -0.167 F 
ATOM     24  F   UNL A   1      32.283  23.817  27.483  1.00  0.00    -0.167 F 
ATOM     25  F   UNL A   1      31.812  22.006  26.365  1.00  0.00    -0.167 F 
ENDBRANCH  17  22
ENDBRANCH   4   7
ENDBRANCH   2   3
ENDBRANCH   1   2
BRANCH   1  26
ATOM     26  C   UNL A   1      39.327  19.842  25.798  1.00  0.00     0.118 C 
BRANCH  26  27
ATOM     27  N   UNL A   1      40.413  18.877  25.927  1.00  0.00    -0.352 N 
ATOM     28  C   UNL A   1      41.760  19.073  26.106  1.00  0.00     0.251 C 
ATOM     29  H   UNL A   1      40.137  17.934  25.877  1.00  0.00     0.163 HD
ATOM     30  O   UNL A   1      42.536  18.132  25.933  1.00  0.00    -0.269 OA
BRANCH  28  31
ATOM     31  C   UNL A   1      42.286  20.401  26.490  1.00  0.00     0.039 A 
ATOM     32  C   UNL A   1      42.252  20.822  27.818  1.00  0.00     0.014 A 
ATOM     33  C   UNL A   1      42.842  21.230  25.512  1.00  0.00     0.014 A 
ATOM     34  C   UNL A   1      42.582  22.132  28.135  1.00  0.00     0.010 A 
ATOM     35  C   UNL A   1      43.294  22.508  25.857  1.00  0.00     0.010 A 
ATOM     36  C   UNL A   1      43.122  22.990  27.165  1.00  0.00    -0.014 A 
BRANCH  36  37
ATOM     37  C   UNL A   1      43.505  24.372  27.556  1.00  0.00     0.031 A 
ATOM     38  C   UNL A   1      44.936  24.833  27.469  1.00  0.00     0.074 A 
ATOM     39  C   UNL A   1      42.540  25.236  27.928  1.00  0.00     0.049 A 
ATOM     40  N   UNL A   1      45.442  26.010  27.743  1.00  0.00    -0.248 NA
ATOM     41  C   UNL A   1      45.930  23.844  27.025  1.00  0.00     0.031 C 
ATOM     42  C   UNL A   1      41.115  24.913  28.042  1.00  0.00     0.029 A 
ATOM     43  N   UNL A   1      42.602  26.569  28.246  1.00  0.00    -0.354 N 
ATOM     44  C   UNL A   1      46.808  25.899  27.518  1.00  0.00     0.074 A 
ATOM     45  C   UNL A   1      47.060  24.528  27.129  1.00  0.00     0.031 C 
ATOM     46  C   UNL A   1      40.432  26.029  28.336  1.00  0.00     0.029 A 
ATOM     47  C   UNL A   1      41.375  27.126  28.510  1.00  0.00     0.049 A 
ATOM     48  H   UNL A   1      43.444  27.076  28.281  1.00  0.00     0.167 HD
ATOM     49  C   UNL A   1      47.765  26.855  27.612  1.00  0.00     0.037 A 
ATOM     50  C   UNL A   1      41.044  28.379  28.871  1.00  0.00     0.037 A 
ATOM     51  C   UNL A   1      47.511  28.221  27.995  1.00  0.00     0.049 A 
ATOM     52  C   UNL A   1      42.135  29.398  29.035  1.00  0.00     0.074 A 
ATOM     53  C   UNL A   1      48.409  29.268  28.116  1.00  0.00     0.029 A 
ATOM     54  N   UNL A   1      46.262  28.730  28.322  1.00  0.00    -0.354 N 
ATOM     55  N   UNL A   1      43.421  29.279  28.812  1.00  0.00    -0.248 NA
ATOM     56  C   UNL A   1      41.724  30.725  29.511  1.00  0.00     0.031 C 
ATOM     57  C   UNL A   1      47.713  30.395  28.563  1.00  0.00     0.029 A 
ATOM     58  C   UNL A   1      46.370  30.068  28.667  1.00  0.00     0.049 A 
ATOM     59  H   UNL A   1      45.423  28.217  28.310  1.00  0.00     0.167 HD
ATOM     60  C   UNL A   1      43.970  30.522  29.099  1.00  0.00     0.074 A 
ATOM     61  C   UNL A   1      42.872  31.384  29.485  1.00  0.00     0.031 C 
ATOM     62  C   UNL A   1      45.268  30.913  29.052  1.00  0.00     0.037 A 
BRANCH  49  63
ATOM     63  C   UNL A   1      49.181  26.445  27.317  1.00  0.00     0.057 A 
ATOM     64  C   UNL A   1      49.688  26.512  26.012  1.00  0.00     0.134 A 
ATOM     65  C   UNL A   1      50.042  25.971  28.316  1.00  0.00     0.134 A 
ATOM     66  F   UNL A   1      48.917  26.947  25.003  1.00  0.00    -0.206 F 
ATOM     67  C   UNL A   1      50.996  26.127  25.714  1.00  0.00     0.040 A 
ATOM     68  C   UNL A   1      51.362  25.612  28.035  1.00  0.00     0.040 A 
ATOM     69  F   UNL A   1      49.627  25.893  29.589  1.00  0.00    -0.206 F 
ATOM     70  C   UNL A   1      51.841  25.685  26.729  1.00  0.00     0.006 A 
ENDBRANCH  49  63
BRANCH  50  71
ATOM     71  C   UNL A   1      39.625  28.739  29.121  1.00  0.00     0.057 A 
ATOM     72  C   UNL A   1      38.809  29.241  28.100  1.00  0.00     0.134 A 
ATOM     73  C   UNL A   1      39.044  28.561  30.381  1.00  0.00     0.134 A 
ATOM     74  F   UNL A   1      39.305  29.442  26.871  1.00  0.00    -0.206 F 
ATOM     75  C   UNL A   1      37.467  29.555  28.324  1.00  0.00     0.040 A 
ATOM     76  C   UNL A   1      37.697  28.840  30.612  1.00  0.00     0.040 A 
ATOM     77  F   UNL A   1      39.770  28.066  31.396  1.00  0.00    -0.206 F 
ATOM     78  C   UNL A   1      36.905  29.342  29.581  1.00  0.00     0.006 A 
ENDBRANCH  50  71
BRANCH  62  79
ATOM     79  C   UNL A   1      45.552  32.347  29.393  1.00  0.00     0.057 A 
ATOM     80  C   UNL A   1      45.863  32.719  30.707  1.00  0.00     0.134 A 
ATOM     81  C   UNL A   1      45.528  33.360  28.424  1.00  0.00     0.134 A 
ATOM     82  F   UNL A   1      45.895  31.801  31.685  1.00  0.00    -0.206 F 
ATOM     83  C   UNL A   1      46.147  34.042  31.044  1.00  0.00     0.040 A 
ATOM     84  C   UNL A   1      45.843  34.681  28.743  1.00  0.00     0.040 A 
ATOM     85  F   UNL A   1      45.254  33.069  27.143  1.00  0.00    -0.206 F 
ATOM     86  C   UNL A   1      46.149  35.027  30.059  1.00  0.00     0.006 A 
ENDBRANCH  62  79
ENDBRANCH  36  37
ENDBRANCH  28  31
ENDBRANCH  26  27
ENDBRANCH   1  26
TORSDOF 12
ENDMDL
MODEL 3
REMARK VINA RESULT:     -12.1      0.254      6.169
REMARK SMILES CC(C)(C)c1cc2c(cc1Cl)C=C(C(=O)NCCCNC(=O)c1ccc(-c3c4nc(c(-c5c(F)cccc5F)c5ccc([nH]5)c(-c5c(F)cccc5F)c5nc(c(-c6c(F)cccc6F)c6ccc3[nH]6)C=C5)C=C4)cc1)[C@H](C(F)(F)F)O2
REMARK SMILES IDX 18 1 17 2 16 3 14 4 15 5 13 7 5 8 6 9 10 10 7 11 9 12 11 13
REMARK SMILES IDX 8 14 82 15 12 16 77 17 2 18 1 19 3 20 4 21 78 22 79 23 80 24
REMARK SMILES IDX 81 25 19 26 20 27 21 28 22 30 23 31 24 32 76 33 25 34 75 35
REMARK SMILES IDX 26 36 27 37 28 38 69 39 29 40 74 41 68 42 70 43 30 44 73 45
REMARK SMILES IDX 67 46 66 47 31 49 57 50 40 51 56 52 41 53 44 54 55 55 71 56
REMARK SMILES IDX 42 57 43 58 54 60 72 61 45 62 32 63 33 64 38 65 34 66 35 67
REMARK SMILES IDX 37 68 39 69 36 70 58 71 59 72 64 73 60 74 61 75 63 76 65 77
REMARK SMILES IDX 62 78 46 79 47 80 52 81 48 82 49 83 51 84 53 85 50 86
REMARK H PARENT 16 6 20 29 70 48 44 59
REMARK Flexibility Score: inf
ROOT
ATOM      1  C   UNL A   1      37.206  20.058  25.004  1.00  0.00     0.042 C 
ENDROOT
BRANCH   1   2
ATOM      2  C   UNL A   1      36.076  21.077  24.964  1.00  0.00     0.118 C 
BRANCH   2   3
ATOM      3  N   UNL A   1      35.209  20.957  26.125  1.00  0.00    -0.352 N 
ATOM      4  C   UNL A   1      34.084  21.545  26.589  1.00  0.00     0.251 C 
ATOM      5  O   UNL A   1      33.647  21.077  27.645  1.00  0.00    -0.270 OA
ATOM      6  H   UNL A   1      35.529  20.257  26.741  1.00  0.00     0.163 HD
BRANCH   4   7
ATOM      7  C   UNL A   1      33.368  22.675  25.931  1.00  0.00     0.067 C 
ATOM      8  C   UNL A   1      31.918  27.285  24.349  1.00  0.00    -0.020 A 
ATOM      9  C   UNL A   1      31.386  25.979  24.309  1.00  0.00     0.053 A 
ATOM     10  C   UNL A   1      33.159  27.426  25.019  1.00  0.00     0.045 A 
ATOM     11  C   UNL A   1      32.039  24.891  24.885  1.00  0.00     0.128 A 
ATOM     12  C   UNL A   1      33.801  26.325  25.618  1.00  0.00     0.032 A 
ATOM     13  Cl  UNL A   1      34.015  28.922  25.173  1.00  0.00    -0.084 Cl
ATOM     14  C   UNL A   1      33.242  25.052  25.553  1.00  0.00     0.019 A 
ATOM     15  O   UNL A   1      31.401  23.690  24.783  1.00  0.00    -0.475 OA
ATOM     16  C   UNL A   1      33.859  23.901  26.195  1.00  0.00     0.025 C 
ATOM     17  C   UNL A   1      32.229  22.512  24.963  1.00  0.00     0.314 C 
BRANCH   8  18
ATOM     18  C   UNL A   1      31.137  28.436  23.669  1.00  0.00    -0.012 C 
ATOM     19  C   UNL A   1      31.027  29.645  24.621  1.00  0.00     0.016 C 
ATOM     20  C   UNL A   1      29.739  27.970  23.209  1.00  0.00     0.016 C 
ATOM     21  C   UNL A   1      31.827  28.979  22.383  1.00  0.00     0.016 C 
ENDBRANCH   8  18
BRANCH  17  22
ATOM     22  C   UNL A   1      32.651  21.952  23.594  1.00  0.00     0.429 C 
ATOM     23  F   UNL A   1      31.708  22.133  22.641  1.00  0.00    -0.167 F 
ATOM     24  F   UNL A   1      33.771  22.587  23.159  1.00  0.00    -0.167 F 
ATOM     25  F   UNL A   1      32.930  20.631  23.628  1.00  0.00    -0.167 F 
ENDBRANCH  17  22
ENDBRANCH   4   7
ENDBRANCH   2   3
ENDBRANCH   1   2
BRANCH   1  26
ATOM     26  C   UNL A   1      38.521  20.666  25.474  1.00  0.00     0.118 C 
BRANCH  26  27
ATOM     27  N   UNL A   1      39.530  19.645  25.733  1.00  0.00    -0.352 N 
ATOM     28  C   UNL A   1      40.839  19.768  26.126  1.00  0.00     0.251 C 
ATOM     29  H   UNL A   1      39.224  18.719  25.604  1.00  0.00     0.163 HD
ATOM     30  O   UNL A   1      41.591  18.796  26.039  1.00  0.00    -0.269 OA
BRANCH  28  31
ATOM     31  C   UNL A   1      41.357  21.056  26.637  1.00  0.00     0.039 A 
ATOM     32  C   UNL A   1      41.313  21.349  27.999  1.00  0.00     0.014 A 
ATOM     33  C   UNL A   1      41.914  21.977  25.746  1.00  0.00     0.014 A 
ATOM     34  C   UNL A   1      41.635  22.624  28.441  1.00  0.00     0.010 A 
ATOM     35  C   UNL A   1      42.358  23.219  26.214  1.00  0.00     0.010 A 
ATOM     36  C   UNL A   1      42.177  23.573  27.560  1.00  0.00    -0.014 A 
BRANCH  36  37
ATOM     37  C   UNL A   1      42.551  24.913  28.083  1.00  0.00     0.031 A 
ATOM     38  C   UNL A   1      41.507  25.975  28.308  1.00  0.00     0.074 A 
ATOM     39  C   UNL A   1      43.834  25.148  28.421  1.00  0.00     0.049 A 
ATOM     40  N   UNL A   1      41.652  27.187  28.782  1.00  0.00    -0.248 NA
ATOM     41  C   UNL A   1      40.122  25.638  27.944  1.00  0.00     0.031 C 
ATOM     42  C   UNL A   1      44.937  24.195  28.262  1.00  0.00     0.029 A 
ATOM     43  N   UNL A   1      44.424  26.242  29.000  1.00  0.00    -0.354 N 
ATOM     44  C   UNL A   1      40.386  27.759  28.763  1.00  0.00     0.074 A 
ATOM     45  C   UNL A   1      39.492  26.777  28.187  1.00  0.00     0.031 C 
ATOM     46  C   UNL A   1      46.051  24.719  28.792  1.00  0.00     0.029 A 
ATOM     47  C   UNL A   1      45.764  26.070  29.255  1.00  0.00     0.049 A 
ATOM     48  H   UNL A   1      43.936  27.069  29.212  1.00  0.00     0.167 HD
ATOM     49  C   UNL A   1      39.999  28.983  29.198  1.00  0.00     0.037 A 
ATOM     50  C   UNL A   1      46.667  26.913  29.786  1.00  0.00     0.037 A 
ATOM     51  C   UNL A   1      40.892  29.957  29.776  1.00  0.00     0.049 A 
ATOM     52  C   UNL A   1      46.221  28.288  30.194  1.00  0.00     0.074 A 
ATOM     53  C   UNL A   1      40.599  31.223  30.252  1.00  0.00     0.029 A 
ATOM     54  N   UNL A   1      42.255  29.771  29.954  1.00  0.00    -0.354 N 
ATOM     55  N   UNL A   1      45.019  28.811  30.176  1.00  0.00    -0.248 NA
ATOM     56  C   UNL A   1      47.266  29.193  30.689  1.00  0.00     0.031 C 
ATOM     57  C   UNL A   1      41.792  31.821  30.672  1.00  0.00     0.029 A 
ATOM     58  C   UNL A   1      42.821  30.907  30.510  1.00  0.00     0.049 A 
ATOM     59  H   UNL A   1      42.748  28.952  29.719  1.00  0.00     0.167 HD
ATOM     60  C   UNL A   1      45.159  30.098  30.678  1.00  0.00     0.074 A 
ATOM     61  C   UNL A   1      46.558  30.264  31.015  1.00  0.00     0.031 C 
ATOM     62  C   UNL A   1      44.216  31.059  30.839  1.00  0.00     0.037 A 
BRANCH  49  63
ATOM     63  C   UNL A   1      38.548  29.344  29.043  1.00  0.00     0.057 A 
ATOM     64  C   UNL A   1      38.028  29.694  27.789  1.00  0.00     0.134 A 
ATOM     65  C   UNL A   1      37.665  29.358  30.131  1.00  0.00     0.134 A 
ATOM     66  F   UNL A   1      38.817  29.710  26.704  1.00  0.00    -0.206 F 
ATOM     67  C   UNL A   1      36.686  30.041  27.624  1.00  0.00     0.040 A 
ATOM     68  C   UNL A   1      36.313  29.674  29.973  1.00  0.00     0.040 A 
ATOM     69  F   UNL A   1      38.092  29.022  31.357  1.00  0.00    -0.206 F 
ATOM     70  C   UNL A   1      35.822  30.021  28.716  1.00  0.00     0.006 A 
ENDBRANCH  49  63
BRANCH  50  71
ATOM     71  C   UNL A   1      48.083  26.496  29.946  1.00  0.00     0.057 A 
ATOM     72  C   UNL A   1      48.537  25.897  31.127  1.00  0.00     0.134 A 
ATOM     73  C   UNL A   1      49.007  26.658  28.908  1.00  0.00     0.134 A 
ATOM     74  F   UNL A   1      47.704  25.718  32.162  1.00  0.00    -0.206 F 
ATOM     75  C   UNL A   1      49.861  25.478  31.272  1.00  0.00     0.040 A 
ATOM     76  C   UNL A   1      50.325  26.214  29.027  1.00  0.00     0.040 A 
ATOM     77  F   UNL A   1      48.628  27.208  27.745  1.00  0.00    -0.206 F 
ATOM     78  C   UNL A   1      50.755  25.625  30.214  1.00  0.00     0.006 A 
ENDBRANCH  50  71
BRANCH  62  79
ATOM     79  C   UNL A   1      44.671  32.355  31.442  1.00  0.00     0.057 A 
ATOM     80  C   UNL A   1      45.105  33.408  30.626  1.00  0.00     0.134 A 
ATOM     81  C   UNL A   1      44.672  32.571  32.827  1.00  0.00     0.134 A 
ATOM     82  F   UNL A   1      45.137  33.266  29.292  1.00  0.00    -0.206 F 
ATOM     83  C   UNL A   1      45.517  34.627  31.163  1.00  0.00     0.040 A 
ATOM     84  C   UNL A   1      45.050  33.797  33.374  1.00  0.00     0.040 A 
ATOM     85  F   UNL A   1      44.251  31.611  33.665  1.00  0.00    -0.206 F 
ATOM     86  C   UNL A   1      45.478  34.829  32.541  1.00  0.00     0.006 A 
ENDBRANCH  62  79
ENDBRANCH  36  37
ENDBRANCH  28  31
ENDBRANCH  26  27
ENDBRANCH   1  26
TORSDOF 12
ENDMDL
