MODEL 1
REMARK VINA RESULT:     -11.2      0.000      0.000
REMARK SMILES O=C(CSc1nc2cccnc2n1CC(F)(F)F)NCCCNC(=O)c1ccc(-c2c3nc(c(-c4c(F)cccc4F)c4ccc([nH]4)c(-c4c(F)cccc4F)c4nc(c(-c5c(F)cccc5F)c5ccc2[nH]5)C=C4)C=C3)cc1
REMARK SMILES IDX 20 1 19 2 1 3 2 4 3 6 4 7 5 8 6 9 13 10 7 11 12 12 8 13
REMARK SMILES IDX 11 14 9 15 10 16 14 17 15 18 16 19 17 20 18 21 21 22 22 23
REMARK SMILES IDX 23 24 24 25 25 27 26 28 27 29 79 30 28 31 78 32 29 33 30 34
REMARK SMILES IDX 31 35 72 36 32 37 77 38 71 39 73 40 33 41 76 42 70 43 69 44
REMARK SMILES IDX 34 46 60 47 43 48 59 49 44 50 47 51 58 52 74 53 45 54 46 55
REMARK SMILES IDX 57 57 75 58 48 59 35 60 36 61 41 62 37 63 38 64 40 65 42 66
REMARK SMILES IDX 39 67 61 68 62 69 67 70 63 71 64 72 66 73 68 74 65 75 49 76
REMARK SMILES IDX 50 77 55 78 51 79 52 80 54 81 56 82 53 83
REMARK H PARENT 19 5 23 26 73 45 47 56
REMARK Flexibility Score: inf
ROOT
ATOM      1  C   UNL A   1      39.903  21.253  26.320  1.00  0.00     0.117 C 
ENDROOT
BRANCH   1   2
ATOM      2  N   UNL A   1      38.663  21.514  25.601  1.00  0.00    -0.355 N 
ATOM      3  O   UNL A   1      38.420  23.661  26.361  1.00  0.00    -0.274 OA
ATOM      4  C   UNL A   1      38.041  22.749  25.631  1.00  0.00     0.230 C 
ATOM      5  H   UNL A   1      38.255  20.787  25.077  1.00  0.00     0.163 HD
BRANCH   4   6
ATOM      6  C   UNL A   1      36.787  22.879  24.776  1.00  0.00     0.178 C 
BRANCH   6   7
ATOM      7  S   UNL A   1      35.258  22.625  25.720  1.00  0.00    -0.078 SA
BRANCH   7   8
ATOM      8  C   UNL A   1      34.774  21.057  25.168  1.00  0.00     0.171 A 
ATOM      9  N   UNL A   1      35.538  19.988  25.186  1.00  0.00    -0.221 NA
ATOM     10  N   UNL A   1      33.545  20.811  24.611  1.00  0.00    -0.294 N 
ATOM     11  C   UNL A   1      34.776  18.999  24.613  1.00  0.00     0.109 A 
ATOM     12  C   UNL A   1      33.524  19.487  24.260  1.00  0.00     0.160 A 
ATOM     13  C   UNL A   1      35.054  17.657  24.326  1.00  0.00     0.034 A 
ATOM     14  N   UNL A   1      32.511  18.818  23.675  1.00  0.00    -0.237 NA
ATOM     15  C   UNL A   1      34.041  16.910  23.716  1.00  0.00     0.022 A 
ATOM     16  C   UNL A   1      32.824  17.522  23.427  1.00  0.00     0.113 A 
BRANCH  10  17
ATOM     17  C   UNL A   1      32.468  21.738  24.339  1.00  0.00     0.241 C 
BRANCH  17  18
ATOM     18  C   UNL A   1      32.505  22.326  22.949  1.00  0.00     0.406 C 
ATOM     19  F   UNL A   1      32.050  21.458  22.014  1.00  0.00    -0.169 F 
ATOM     20  F   UNL A   1      31.700  23.413  22.879  1.00  0.00    -0.169 F 
ATOM     21  F   UNL A   1      33.741  22.715  22.578  1.00  0.00    -0.169 F 
ENDBRANCH  17  18
ENDBRANCH  10  17
ENDBRANCH   7   8
ENDBRANCH   6   7
ENDBRANCH   4   6
ENDBRANCH   1   2
BRANCH   1  22
ATOM     22  C   UNL A   1      40.616  19.974  25.880  1.00  0.00     0.042 C 
BRANCH  22  23
ATOM     23  C   UNL A   1      41.966  19.778  26.552  1.00  0.00     0.118 C 
BRANCH  23  24
ATOM     24  N   UNL A   1      43.079  19.671  25.613  1.00  0.00    -0.352 N 
ATOM     25  C   UNL A   1      43.809  20.693  25.038  1.00  0.00     0.251 C 
ATOM     26  H   UNL A   1      43.343  18.756  25.358  1.00  0.00     0.163 HD
ATOM     27  O   UNL A   1      44.529  20.491  24.075  1.00  0.00    -0.269 OA
BRANCH  25  28
ATOM     28  C   UNL A   1      43.704  22.050  25.609  1.00  0.00     0.039 A 
ATOM     29  C   UNL A   1      42.931  23.032  24.979  1.00  0.00     0.014 A 
ATOM     30  C   UNL A   1      44.406  22.339  26.779  1.00  0.00     0.014 A 
ATOM     31  C   UNL A   1      42.820  24.289  25.567  1.00  0.00     0.010 A 
ATOM     32  C   UNL A   1      44.208  23.537  27.418  1.00  0.00     0.010 A 
ATOM     33  C   UNL A   1      43.458  24.527  26.789  1.00  0.00    -0.014 A 
BRANCH  33  34
ATOM     34  C   UNL A   1      43.324  25.807  27.466  1.00  0.00     0.031 A 
ATOM     35  C   UNL A   1      44.308  26.857  27.080  1.00  0.00     0.074 A 
ATOM     36  C   UNL A   1      42.219  26.100  28.182  1.00  0.00     0.049 A 
ATOM     37  N   UNL A   1      45.159  27.468  27.836  1.00  0.00    -0.248 NA
ATOM     38  C   UNL A   1      44.420  27.212  25.656  1.00  0.00     0.031 C 
ATOM     39  C   UNL A   1      41.011  25.284  28.366  1.00  0.00     0.029 A 
ATOM     40  N   UNL A   1      41.891  27.262  28.800  1.00  0.00    -0.354 N 
ATOM     41  C   UNL A   1      45.796  28.411  27.030  1.00  0.00     0.074 A 
ATOM     42  C   UNL A   1      45.416  28.101  25.677  1.00  0.00     0.031 C 
ATOM     43  C   UNL A   1      40.014  26.061  28.839  1.00  0.00     0.029 A 
ATOM     44  C   UNL A   1      40.550  27.379  29.131  1.00  0.00     0.049 A 
ATOM     45  H   UNL A   1      42.552  27.966  28.997  1.00  0.00     0.167 HD
ATOM     46  C   UNL A   1      46.419  29.500  27.564  1.00  0.00     0.037 A 
ATOM     47  C   UNL A   1      39.923  28.501  29.558  1.00  0.00     0.037 A 
ATOM     48  C   UNL A   1      46.636  29.329  28.979  1.00  0.00     0.049 A 
ATOM     49  C   UNL A   1      40.972  29.423  30.067  1.00  0.00     0.074 A 
ATOM     50  C   UNL A   1      47.326  28.419  29.757  1.00  0.00     0.029 A 
ATOM     51  N   UNL A   1      45.786  29.979  29.842  1.00  0.00    -0.354 N 
ATOM     52  N   UNL A   1      41.687  29.188  31.133  1.00  0.00    -0.248 NA
ATOM     53  C   UNL A   1      41.552  30.372  29.127  1.00  0.00     0.031 C 
ATOM     54  C   UNL A   1      46.500  28.217  30.902  1.00  0.00     0.029 A 
ATOM     55  C   UNL A   1      45.394  29.060  30.781  1.00  0.00     0.049 A 
ATOM     56  H   UNL A   1      45.512  30.923  29.795  1.00  0.00     0.167 HD
ATOM     57  C   UNL A   1      42.969  29.604  30.802  1.00  0.00     0.074 A 
ATOM     58  C   UNL A   1      42.805  30.406  29.590  1.00  0.00     0.031 C 
ATOM     59  C   UNL A   1      44.072  29.025  31.363  1.00  0.00     0.037 A 
BRANCH  46  60
ATOM     60  C   UNL A   1      46.513  30.863  26.913  1.00  0.00     0.057 A 
ATOM     61  C   UNL A   1      45.405  31.670  26.585  1.00  0.00     0.134 A 
ATOM     62  C   UNL A   1      47.756  31.528  26.900  1.00  0.00     0.134 A 
ATOM     63  F   UNL A   1      44.151  31.209  26.594  1.00  0.00    -0.206 F 
ATOM     64  C   UNL A   1      45.516  33.039  26.325  1.00  0.00     0.040 A 
ATOM     65  C   UNL A   1      47.870  32.909  26.693  1.00  0.00     0.040 A 
ATOM     66  F   UNL A   1      48.893  30.873  27.180  1.00  0.00    -0.206 F 
ATOM     67  C   UNL A   1      46.744  33.673  26.420  1.00  0.00     0.006 A 
ENDBRANCH  46  60
BRANCH  47  68
ATOM     68  C   UNL A   1      38.534  28.928  29.272  1.00  0.00     0.057 A 
ATOM     69  C   UNL A   1      38.168  29.473  28.026  1.00  0.00     0.134 A 
ATOM     70  C   UNL A   1      37.583  29.047  30.294  1.00  0.00     0.134 A 
ATOM     71  F   UNL A   1      39.027  29.491  26.996  1.00  0.00    -0.206 F 
ATOM     72  C   UNL A   1      36.939  30.100  27.809  1.00  0.00     0.040 A 
ATOM     73  C   UNL A   1      36.349  29.684  30.093  1.00  0.00     0.040 A 
ATOM     74  F   UNL A   1      37.851  28.601  31.529  1.00  0.00    -0.206 F 
ATOM     75  C   UNL A   1      36.028  30.220  28.850  1.00  0.00     0.006 A 
ENDBRANCH  47  68
BRANCH  59  76
ATOM     76  C   UNL A   1      43.866  28.069  32.508  1.00  0.00     0.057 A 
ATOM     77  C   UNL A   1      43.915  28.556  33.817  1.00  0.00     0.134 A 
ATOM     78  C   UNL A   1      43.780  26.677  32.358  1.00  0.00     0.134 A 
ATOM     79  F   UNL A   1      44.064  29.872  34.044  1.00  0.00    -0.206 F 
ATOM     80  C   UNL A   1      43.865  27.704  34.923  1.00  0.00     0.040 A 
ATOM     81  C   UNL A   1      43.695  25.815  33.455  1.00  0.00     0.040 A 
ATOM     82  F   UNL A   1      43.840  26.104  31.153  1.00  0.00    -0.206 F 
ATOM     83  C   UNL A   1      43.742  26.329  34.745  1.00  0.00     0.006 A 
ENDBRANCH  59  76
ENDBRANCH  33  34
ENDBRANCH  25  28
ENDBRANCH  23  24
ENDBRANCH  22  23
ENDBRANCH   1  22
TORSDOF 14
ENDMDL
MODEL 2
REMARK VINA RESULT:     -10.9      1.490      2.341
REMARK SMILES O=C(CSc1nc2cccnc2n1CC(F)(F)F)NCCCNC(=O)c1ccc(-c2c3nc(c(-c4c(F)cccc4F)c4ccc([nH]4)c(-c4c(F)cccc4F)c4nc(c(-c5c(F)cccc5F)c5ccc2[nH]5)C=C4)C=C3)cc1
REMARK SMILES IDX 20 1 19 2 1 3 2 4 3 6 4 7 5 8 6 9 13 10 7 11 12 12 8 13
REMARK SMILES IDX 11 14 9 15 10 16 14 17 15 18 16 19 17 20 18 21 21 22 22 23
REMARK SMILES IDX 23 24 24 25 25 27 26 28 27 29 79 30 28 31 78 32 29 33 30 34
REMARK SMILES IDX 31 35 72 36 32 37 77 38 71 39 73 40 33 41 76 42 70 43 69 44
REMARK SMILES IDX 34 46 60 47 43 48 59 49 44 50 47 51 58 52 74 53 45 54 46 55
REMARK SMILES IDX 57 57 75 58 48 59 35 60 36 61 41 62 37 63 38 64 40 65 42 66
REMARK SMILES IDX 39 67 61 68 62 69 67 70 63 71 64 72 66 73 68 74 65 75 49 76
REMARK SMILES IDX 50 77 55 78 51 79 52 80 54 81 56 82 53 83
REMARK H PARENT 19 5 23 26 73 45 47 56
REMARK Flexibility Score: inf
ROOT
ATOM      1  C   UNL A   1      40.211  21.327  26.775  1.00  0.00     0.117 C 
ENDROOT
BRANCH   1   2
ATOM      2  N   UNL A   1      39.440  22.350  26.081  1.00  0.00    -0.355 N 
ATOM      3  O   UNL A   1      37.576  21.052  25.786  1.00  0.00    -0.274 OA
ATOM      4  C   UNL A   1      38.130  22.144  25.689  1.00  0.00     0.230 C 
ATOM      5  H   UNL A   1      39.867  23.215  25.885  1.00  0.00     0.163 HD
BRANCH   4   6
ATOM      6  C   UNL A   1      37.441  23.334  25.032  1.00  0.00     0.178 C 
BRANCH   6   7
ATOM      7  S   UNL A   1      36.196  22.842  23.807  1.00  0.00    -0.078 SA
BRANCH   7   8
ATOM      8  C   UNL A   1      34.788  23.649  24.411  1.00  0.00     0.171 A 
ATOM      9  N   UNL A   1      34.799  24.799  25.046  1.00  0.00    -0.221 NA
ATOM     10  N   UNL A   1      33.527  23.117  24.314  1.00  0.00    -0.294 N 
ATOM     11  C   UNL A   1      33.487  25.029  25.384  1.00  0.00     0.109 A 
ATOM     12  C   UNL A   1      32.674  24.000  24.924  1.00  0.00     0.160 A 
ATOM     13  C   UNL A   1      32.876  26.069  26.094  1.00  0.00     0.034 A 
ATOM     14  N   UNL A   1      31.341  23.874  25.065  1.00  0.00    -0.237 NA
ATOM     15  C   UNL A   1      31.491  25.993  26.276  1.00  0.00     0.022 A 
ATOM     16  C   UNL A   1      30.795  24.909  25.750  1.00  0.00     0.113 A 
BRANCH  10  17
ATOM     17  C   UNL A   1      33.117  21.843  23.767  1.00  0.00     0.241 C 
BRANCH  17  18
ATOM     18  C   UNL A   1      33.237  20.693  24.738  1.00  0.00     0.406 C 
ATOM     19  F   UNL A   1      33.098  21.094  26.024  1.00  0.00    -0.169 F 
ATOM     20  F   UNL A   1      32.254  19.788  24.516  1.00  0.00    -0.169 F 
ATOM     21  F   UNL A   1      34.413  20.044  24.638  1.00  0.00    -0.169 F 
ENDBRANCH  17  18
ENDBRANCH  10  17
ENDBRANCH   7   8
ENDBRANCH   6   7
ENDBRANCH   4   6
ENDBRANCH   1   2
BRANCH   1  22
ATOM     22  C   UNL A   1      40.891  20.325  25.842  1.00  0.00     0.042 C 
BRANCH  22  23
ATOM     23  C   UNL A   1      42.152  19.713  26.435  1.00  0.00     0.118 C 
BRANCH  23  24
ATOM     24  N   UNL A   1      43.264  19.633  25.492  1.00  0.00    -0.352 N 
ATOM     25  C   UNL A   1      43.978  20.673  24.928  1.00  0.00     0.251 C 
ATOM     26  H   UNL A   1      43.540  18.726  25.225  1.00  0.00     0.163 HD
ATOM     27  O   UNL A   1      44.699  20.492  23.962  1.00  0.00    -0.269 OA
BRANCH  25  28
ATOM     28  C   UNL A   1      43.856  22.021  25.516  1.00  0.00     0.039 A 
ATOM     29  C   UNL A   1      43.046  22.991  24.915  1.00  0.00     0.014 A 
ATOM     30  C   UNL A   1      44.580  22.314  26.671  1.00  0.00     0.014 A 
ATOM     31  C   UNL A   1      42.921  24.239  25.519  1.00  0.00     0.010 A 
ATOM     32  C   UNL A   1      44.369  23.501  27.328  1.00  0.00     0.010 A 
ATOM     33  C   UNL A   1      43.582  24.480  26.728  1.00  0.00    -0.014 A 
BRANCH  33  34
ATOM     34  C   UNL A   1      43.435  25.749  27.422  1.00  0.00     0.031 A 
ATOM     35  C   UNL A   1      44.414  26.811  27.056  1.00  0.00     0.074 A 
ATOM     36  C   UNL A   1      42.324  26.024  28.135  1.00  0.00     0.049 A 
ATOM     37  N   UNL A   1      45.257  27.417  27.826  1.00  0.00    -0.248 NA
ATOM     38  C   UNL A   1      44.533  27.187  25.638  1.00  0.00     0.031 C 
ATOM     39  C   UNL A   1      41.121  25.198  28.300  1.00  0.00     0.029 A 
ATOM     40  N   UNL A   1      41.985  27.175  28.767  1.00  0.00    -0.354 N 
ATOM     41  C   UNL A   1      45.892  28.376  27.036  1.00  0.00     0.074 A 
ATOM     42  C   UNL A   1      45.522  28.082  25.677  1.00  0.00     0.031 C 
ATOM     43  C   UNL A   1      40.115  25.961  28.779  1.00  0.00     0.029 A 
ATOM     44  C   UNL A   1      40.640  27.278  29.091  1.00  0.00     0.049 A 
ATOM     45  H   UNL A   1      42.639  27.881  28.978  1.00  0.00     0.167 HD
ATOM     46  C   UNL A   1      46.504  29.461  27.589  1.00  0.00     0.037 A 
ATOM     47  C   UNL A   1      40.003  28.390  29.531  1.00  0.00     0.037 A 
ATOM     48  C   UNL A   1      46.714  29.273  29.003  1.00  0.00     0.049 A 
ATOM     49  C   UNL A   1      41.043  29.312  30.058  1.00  0.00     0.074 A 
ATOM     50  C   UNL A   1      47.405  28.357  29.772  1.00  0.00     0.029 A 
ATOM     51  N   UNL A   1      45.854  29.905  29.870  1.00  0.00    -0.354 N 
ATOM     52  N   UNL A   1      41.753  29.068  31.125  1.00  0.00    -0.248 NA
ATOM     53  C   UNL A   1      41.622  30.278  29.135  1.00  0.00     0.031 C 
ATOM     54  C   UNL A   1      46.574  28.133  30.909  1.00  0.00     0.029 A 
ATOM     55  C   UNL A   1      45.463  28.970  30.793  1.00  0.00     0.049 A 
ATOM     56  H   UNL A   1      45.574  30.848  29.834  1.00  0.00     0.167 HD
ATOM     57  C   UNL A   1      43.034  29.497  30.808  1.00  0.00     0.074 A 
ATOM     58  C   UNL A   1      42.872  30.314  29.605  1.00  0.00     0.031 C 
ATOM     59  C   UNL A   1      44.138  28.917  31.367  1.00  0.00     0.037 A 
BRANCH  46  60
ATOM     60  C   UNL A   1      46.592  30.834  26.957  1.00  0.00     0.057 A 
ATOM     61  C   UNL A   1      45.481  31.640  26.639  1.00  0.00     0.134 A 
ATOM     62  C   UNL A   1      47.832  31.505  26.956  1.00  0.00     0.134 A 
ATOM     63  F   UNL A   1      44.229  31.173  26.640  1.00  0.00    -0.206 F 
ATOM     64  C   UNL A   1      45.586  33.013  26.398  1.00  0.00     0.040 A 
ATOM     65  C   UNL A   1      47.940  32.889  26.768  1.00  0.00     0.040 A 
ATOM     66  F   UNL A   1      48.972  30.852  27.228  1.00  0.00    -0.206 F 
ATOM     67  C   UNL A   1      46.811  33.652  26.505  1.00  0.00     0.006 A 
ENDBRANCH  46  60
BRANCH  47  68
ATOM     68  C   UNL A   1      38.613  28.811  29.242  1.00  0.00     0.057 A 
ATOM     69  C   UNL A   1      38.243  29.336  27.988  1.00  0.00     0.134 A 
ATOM     70  C   UNL A   1      37.665  28.947  30.264  1.00  0.00     0.134 A 
ATOM     71  F   UNL A   1      39.098  29.338  26.955  1.00  0.00    -0.206 F 
ATOM     72  C   UNL A   1      37.012  29.959  27.765  1.00  0.00     0.040 A 
ATOM     73  C   UNL A   1      36.430  29.579  30.057  1.00  0.00     0.040 A 
ATOM     74  F   UNL A   1      37.938  28.521  31.505  1.00  0.00    -0.206 F 
ATOM     75  C   UNL A   1      36.104  30.095  28.806  1.00  0.00     0.006 A 
ENDBRANCH  47  68
BRANCH  59  76
ATOM     76  C   UNL A   1      43.931  27.945  32.497  1.00  0.00     0.057 A 
ATOM     77  C   UNL A   1      43.965  28.415  33.813  1.00  0.00     0.134 A 
ATOM     78  C   UNL A   1      43.860  26.554  32.328  1.00  0.00     0.134 A 
ATOM     79  F   UNL A   1      44.100  29.729  34.059  1.00  0.00    -0.206 F 
ATOM     80  C   UNL A   1      43.915  27.548  34.907  1.00  0.00     0.040 A 
ATOM     81  C   UNL A   1      43.774  25.677  33.413  1.00  0.00     0.040 A 
ATOM     82  F   UNL A   1      43.935  25.998  31.116  1.00  0.00    -0.206 F 
ATOM     83  C   UNL A   1      43.806  26.174  34.710  1.00  0.00     0.006 A 
ENDBRANCH  59  76
ENDBRANCH  33  34
ENDBRANCH  25  28
ENDBRANCH  23  24
ENDBRANCH  22  23
ENDBRANCH   1  22
TORSDOF 14
ENDMDL
MODEL 3
REMARK VINA RESULT:     -10.8      4.151      8.649
REMARK SMILES O=C(CSc1nc2cccnc2n1CC(F)(F)F)NCCCNC(=O)c1ccc(-c2c3nc(c(-c4c(F)cccc4F)c4ccc([nH]4)c(-c4c(F)cccc4F)c4nc(c(-c5c(F)cccc5F)c5ccc2[nH]5)C=C4)C=C3)cc1
REMARK SMILES IDX 20 1 19 2 1 3 2 4 3 6 4 7 5 8 6 9 13 10 7 11 12 12 8 13
REMARK SMILES IDX 11 14 9 15 10 16 14 17 15 18 16 19 17 20 18 21 21 22 22 23
REMARK SMILES IDX 23 24 24 25 25 27 26 28 27 29 79 30 28 31 78 32 29 33 30 34
REMARK SMILES IDX 31 35 72 36 32 37 77 38 71 39 73 40 33 41 76 42 70 43 69 44
REMARK SMILES IDX 34 46 60 47 43 48 59 49 44 50 47 51 58 52 74 53 45 54 46 55
REMARK SMILES IDX 57 57 75 58 48 59 35 60 36 61 41 62 37 63 38 64 40 65 42 66
REMARK SMILES IDX 39 67 61 68 62 69 67 70 63 71 64 72 66 73 68 74 65 75 49 76
REMARK SMILES IDX 50 77 55 78 51 79 52 80 54 81 56 82 53 83
REMARK H PARENT 19 5 23 26 73 45 47 56
REMARK Flexibility Score: inf
ROOT
ATOM      1  C   UNL A   1      32.152  28.793  27.205  1.00  0.00     0.117 C 
ENDROOT
BRANCH   1   2
ATOM      2  N   UNL A   1      32.505  27.649  26.376  1.00  0.00    -0.355 N 
ATOM      3  O   UNL A   1      30.647  26.417  26.905  1.00  0.00    -0.274 OA
ATOM      4  C   UNL A   1      31.672  26.553  26.240  1.00  0.00     0.230 C 
ATOM      5  H   UNL A   1      33.365  27.657  25.896  1.00  0.00     0.163 HD
BRANCH   4   6
ATOM      6  C   UNL A   1      32.155  25.469  25.286  1.00  0.00     0.178 C 
BRANCH   6   7
ATOM      7  S   UNL A   1      30.852  24.880  24.167  1.00  0.00    -0.078 SA
BRANCH   7   8
ATOM      8  C   UNL A   1      30.183  26.375  23.607  1.00  0.00     0.171 A 
ATOM      9  N   UNL A   1      28.977  26.811  23.895  1.00  0.00    -0.221 NA
ATOM     10  N   UNL A   1      30.855  27.219  22.760  1.00  0.00    -0.294 N 
ATOM     11  C   UNL A   1      28.853  27.991  23.203  1.00  0.00     0.109 A 
ATOM     12  C   UNL A   1      30.019  28.273  22.500  1.00  0.00     0.160 A 
ATOM     13  C   UNL A   1      27.791  28.896  23.085  1.00  0.00     0.034 A 
ATOM     14  N   UNL A   1      30.272  29.335  21.710  1.00  0.00    -0.237 NA
ATOM     15  C   UNL A   1      27.993  30.019  22.276  1.00  0.00     0.022 A 
ATOM     16  C   UNL A   1      29.218  30.185  21.637  1.00  0.00     0.113 A 
BRANCH  10  17
ATOM     17  C   UNL A   1      32.158  27.052  22.154  1.00  0.00     0.241 C 
BRANCH  17  18
ATOM     18  C   UNL A   1      33.234  27.913  22.771  1.00  0.00     0.406 C 
ATOM     19  F   UNL A   1      32.721  28.877  23.573  1.00  0.00    -0.169 F 
ATOM     20  F   UNL A   1      34.044  27.162  23.554  1.00  0.00    -0.169 F 
ATOM     21  F   UNL A   1      34.010  28.518  21.851  1.00  0.00    -0.169 F 
ENDBRANCH  17  18
ENDBRANCH  10  17
ENDBRANCH   7   8
ENDBRANCH   6   7
ENDBRANCH   4   6
ENDBRANCH   1   2
BRANCH   1  22
ATOM     22  C   UNL A   1      32.749  30.115  26.722  1.00  0.00     0.042 C 
BRANCH  22  23
ATOM     23  C   UNL A   1      34.064  30.463  27.402  1.00  0.00     0.118 C 
BRANCH  23  24
ATOM     24  N   UNL A   1      33.937  31.490  28.433  1.00  0.00    -0.352 N 
ATOM     25  C   UNL A   1      34.787  31.742  29.493  1.00  0.00     0.251 C 
ATOM     26  H   UNL A   1      33.148  32.077  28.364  1.00  0.00     0.163 HD
ATOM     27  O   UNL A   1      34.440  32.443  30.428  1.00  0.00    -0.269 OA
BRANCH  25  28
ATOM     28  C   UNL A   1      36.137  31.144  29.479  1.00  0.00     0.039 A 
ATOM     29  C   UNL A   1      37.264  31.935  29.230  1.00  0.00     0.014 A 
ATOM     30  C   UNL A   1      36.264  29.774  29.700  1.00  0.00     0.014 A 
ATOM     31  C   UNL A   1      38.526  31.348  29.265  1.00  0.00     0.010 A 
ATOM     32  C   UNL A   1      37.509  29.216  29.848  1.00  0.00     0.010 A 
ATOM     33  C   UNL A   1      38.636  29.990  29.582  1.00  0.00    -0.014 A 
BRANCH  33  34
ATOM     34  C   UNL A   1      39.936  29.348  29.684  1.00  0.00     0.031 A 
ATOM     35  C   UNL A   1      40.471  29.172  31.064  1.00  0.00     0.074 A 
ATOM     36  C   UNL A   1      40.482  28.713  28.626  1.00  0.00     0.049 A 
ATOM     37  N   UNL A   1      41.570  29.639  31.558  1.00  0.00    -0.248 NA
ATOM     38  C   UNL A   1      39.638  28.458  32.045  1.00  0.00     0.031 C 
ATOM     39  C   UNL A   1      39.905  28.512  27.290  1.00  0.00     0.029 A 
ATOM     40  N   UNL A   1      41.631  27.996  28.567  1.00  0.00    -0.354 N 
ATOM     41  C   UNL A   1      41.662  29.137  32.857  1.00  0.00     0.074 A 
ATOM     42  C   UNL A   1      40.380  28.552  33.150  1.00  0.00     0.031 C 
ATOM     43  C   UNL A   1      40.592  27.543  26.647  1.00  0.00     0.029 A 
ATOM     44  C   UNL A   1      41.734  27.167  27.460  1.00  0.00     0.049 A 
ATOM     45  H   UNL A   1      42.334  28.058  29.254  1.00  0.00     0.167 HD
ATOM     46  C   UNL A   1      42.858  29.060  33.507  1.00  0.00     0.037 A 
ATOM     47  C   UNL A   1      42.665  26.203  27.263  1.00  0.00     0.037 A 
ATOM     48  C   UNL A   1      43.856  29.869  32.852  1.00  0.00     0.049 A 
ATOM     49  C   UNL A   1      43.807  26.504  28.167  1.00  0.00     0.074 A 
ATOM     50  C   UNL A   1      43.981  31.213  32.557  1.00  0.00     0.029 A 
ATOM     51  N   UNL A   1      44.780  29.232  32.059  1.00  0.00    -0.354 N 
ATOM     52  N   UNL A   1      44.581  27.545  28.033  1.00  0.00    -0.248 NA
ATOM     53  C   UNL A   1      43.792  25.908  29.496  1.00  0.00     0.031 C 
ATOM     54  C   UNL A   1      44.583  31.249  31.264  1.00  0.00     0.029 A 
ATOM     55  C   UNL A   1      44.843  29.932  30.881  1.00  0.00     0.049 A 
ATOM     56  H   UNL A   1      45.297  28.427  32.292  1.00  0.00     0.167 HD
ATOM     57  C   UNL A   1      44.805  27.993  29.326  1.00  0.00     0.074 A 
ATOM     58  C   UNL A   1      44.370  26.894  30.188  1.00  0.00     0.031 C 
ATOM     59  C   UNL A   1      45.044  29.312  29.592  1.00  0.00     0.037 A 
BRANCH  46  60
ATOM     60  C   UNL A   1      43.244  27.992  34.507  1.00  0.00     0.057 A 
ATOM     61  C   UNL A   1      43.227  28.163  35.906  1.00  0.00     0.134 A 
ATOM     62  C   UNL A   1      43.334  26.653  34.074  1.00  0.00     0.134 A 
ATOM     63  F   UNL A   1      43.099  29.362  36.483  1.00  0.00    -0.206 F 
ATOM     64  C   UNL A   1      43.237  27.089  36.800  1.00  0.00     0.040 A 
ATOM     65  C   UNL A   1      43.292  25.570  34.961  1.00  0.00     0.040 A 
ATOM     66  F   UNL A   1      43.375  26.351  32.768  1.00  0.00    -0.206 F 
ATOM     67  C   UNL A   1      43.226  25.785  36.330  1.00  0.00     0.006 A 
ENDBRANCH  46  60
BRANCH  47  68
ATOM     68  C   UNL A   1      42.491  24.901  26.578  1.00  0.00     0.057 A 
ATOM     69  C   UNL A   1      41.761  23.848  27.164  1.00  0.00     0.134 A 
ATOM     70  C   UNL A   1      43.245  24.566  25.446  1.00  0.00     0.134 A 
ATOM     71  F   UNL A   1      41.068  24.029  28.297  1.00  0.00    -0.206 F 
ATOM     72  C   UNL A   1      41.782  22.546  26.659  1.00  0.00     0.040 A 
ATOM     73  C   UNL A   1      43.283  23.260  24.936  1.00  0.00     0.040 A 
ATOM     74  F   UNL A   1      44.010  25.486  24.842  1.00  0.00    -0.206 F 
ATOM     75  C   UNL A   1      42.556  22.243  25.548  1.00  0.00     0.006 A 
ENDBRANCH  47  68
BRANCH  59  76
ATOM     76  C   UNL A   1      45.271  30.239  28.427  1.00  0.00     0.057 A 
ATOM     77  C   UNL A   1      46.580  30.553  28.054  1.00  0.00     0.134 A 
ATOM     78  C   UNL A   1      44.245  30.942  27.778  1.00  0.00     0.134 A 
ATOM     79  F   UNL A   1      47.619  29.972  28.675  1.00  0.00    -0.206 F 
ATOM     80  C   UNL A   1      46.858  31.508  27.072  1.00  0.00     0.040 A 
ATOM     81  C   UNL A   1      44.507  31.875  26.770  1.00  0.00     0.040 A 
ATOM     82  F   UNL A   1      42.967  30.799  28.140  1.00  0.00    -0.206 F 
ATOM     83  C   UNL A   1      45.819  32.164  26.417  1.00  0.00     0.006 A 
ENDBRANCH  59  76
ENDBRANCH  33  34
ENDBRANCH  25  28
ENDBRANCH  23  24
ENDBRANCH  22  23
ENDBRANCH   1  22
TORSDOF 14
ENDMDL
