MODEL 1
REMARK VINA RESULT:     -11.5      0.000      0.000
REMARK SMILES C[C@@H](CS(=O)(=O)[C@@H]1CCC[C@H](S(C)(=O)=O)C1)C(=O)NCCCNC(=O)c1ccc(-c2c3nc(c(-c4c(F)cccc4F)c4ccc([nH]4)c(-c4c(F)cccc4F)c4nc(c(-c5c(F)cccc5F)c5ccc2[nH]5)C=C4)C=C3)cc1
REMARK SMILES IDX 20 1 19 2 17 3 18 4 2 6 1 7 3 8 4 9 5 10 6 11 7 12 8 13
REMARK SMILES IDX 16 14 9 15 11 16 10 17 12 18 13 19 14 20 15 21 21 22 22 23
REMARK SMILES IDX 23 24 24 25 25 27 26 28 27 29 79 30 28 31 78 32 29 33 30 34
REMARK SMILES IDX 31 35 72 36 32 37 77 38 71 39 73 40 33 41 76 42 70 43 69 44
REMARK SMILES IDX 34 46 60 47 43 48 59 49 44 50 47 51 58 52 74 53 45 54 46 55
REMARK SMILES IDX 57 57 75 58 48 59 35 60 36 61 41 62 37 63 38 64 40 65 42 66
REMARK SMILES IDX 39 67 61 68 62 69 67 70 63 71 64 72 66 73 68 74 65 75 49 76
REMARK SMILES IDX 50 77 55 78 51 79 52 80 54 81 56 82 53 83
REMARK H PARENT 19 5 23 26 73 45 47 56
REMARK Flexibility Score: inf
ROOT
ATOM      1  C   UNL A   1      35.459  21.034  25.174  1.00  0.00     0.117 C 
ENDROOT
BRANCH   1   2
ATOM      2  N   UNL A   1      34.431  20.068  25.433  1.00  0.00    -0.356 N 
ATOM      3  C   UNL A   1      33.104  20.119  25.177  1.00  0.00     0.223 C 
ATOM      4  O   UNL A   1      32.487  19.065  25.389  1.00  0.00    -0.275 OA
ATOM      5  H   UNL A   1      34.740  19.239  25.864  1.00  0.00     0.163 HD
BRANCH   3   6
ATOM      6  C   UNL A   1      32.304  21.370  24.754  1.00  0.00     0.090 C 
ATOM      7  C   UNL A   1      32.158  21.509  23.241  1.00  0.00     0.019 C 
BRANCH   6   8
ATOM      8  C   UNL A   1      31.227  22.046  25.600  1.00  0.00     0.150 C 
BRANCH   8   9
ATOM      9  S   UNL A   1      31.368  23.412  26.740  1.00  0.00     0.153 S 
ATOM     10  O   UNL A   1      30.035  23.698  27.241  1.00  0.00    -0.229 OA
ATOM     11  O   UNL A   1      32.358  22.954  27.706  1.00  0.00    -0.229 OA
BRANCH   9  12
ATOM     12  C   UNL A   1      32.081  24.975  26.086  1.00  0.00     0.110 C 
ATOM     13  C   UNL A   1      31.040  26.091  26.357  1.00  0.00     0.020 C 
ATOM     14  C   UNL A   1      32.398  25.034  24.602  1.00  0.00     0.039 C 
ATOM     15  C   UNL A   1      31.503  27.469  25.891  1.00  0.00     0.003 C 
ATOM     16  C   UNL A   1      32.963  26.383  24.135  1.00  0.00     0.109 C 
ATOM     17  C   UNL A   1      31.948  27.488  24.429  1.00  0.00     0.020 C 
BRANCH  16  18
ATOM     18  S   UNL A   1      33.350  26.271  22.366  1.00  0.00     0.150 S 
ATOM     19  C   UNL A   1      31.780  26.274  21.535  1.00  0.00     0.158 C 
ATOM     20  O   UNL A   1      34.026  27.507  22.004  1.00  0.00    -0.229 OA
ATOM     21  O   UNL A   1      33.986  24.996  22.117  1.00  0.00    -0.229 OA
ENDBRANCH  16  18
ENDBRANCH   9  12
ENDBRANCH   8   9
ENDBRANCH   6   8
ENDBRANCH   3   6
ENDBRANCH   1   2
BRANCH   1  22
ATOM     22  C   UNL A   1      35.373  22.302  26.006  1.00  0.00     0.042 C 
BRANCH  22  23
ATOM     23  C   UNL A   1      36.643  23.124  25.990  1.00  0.00     0.118 C 
BRANCH  23  24
ATOM     24  N   UNL A   1      37.835  22.289  26.145  1.00  0.00    -0.352 N 
ATOM     25  C   UNL A   1      39.157  22.582  26.396  1.00  0.00     0.251 C 
ATOM     26  H   UNL A   1      37.656  21.326  26.051  1.00  0.00     0.163 HD
ATOM     27  O   UNL A   1      39.994  21.694  26.240  1.00  0.00    -0.269 OA
BRANCH  25  28
ATOM     28  C   UNL A   1      39.612  23.929  26.822  1.00  0.00     0.039 A 
ATOM     29  C   UNL A   1      40.054  24.844  25.854  1.00  0.00     0.014 A 
ATOM     30  C   UNL A   1      39.680  24.293  28.163  1.00  0.00     0.014 A 
ATOM     31  C   UNL A   1      40.489  26.121  26.233  1.00  0.00     0.010 A 
ATOM     32  C   UNL A   1      39.964  25.605  28.525  1.00  0.00     0.010 A 
ATOM     33  C   UNL A   1      40.403  26.530  27.572  1.00  0.00    -0.014 A 
BRANCH  33  34
ATOM     34  C   UNL A   1      40.808  27.889  28.024  1.00  0.00     0.031 A 
ATOM     35  C   UNL A   1      42.270  28.267  28.059  1.00  0.00     0.074 A 
ATOM     36  C   UNL A   1      39.881  28.748  28.493  1.00  0.00     0.049 A 
ATOM     37  N   UNL A   1      42.840  29.339  28.549  1.00  0.00    -0.248 NA
ATOM     38  C   UNL A   1      43.223  27.288  27.508  1.00  0.00     0.031 C 
ATOM     39  C   UNL A   1      38.442  28.489  28.567  1.00  0.00     0.029 A 
ATOM     40  N   UNL A   1      40.015  30.014  29.011  1.00  0.00    -0.354 N 
ATOM     41  C   UNL A   1      44.208  29.142  28.399  1.00  0.00     0.074 A 
ATOM     42  C   UNL A   1      44.387  27.824  27.837  1.00  0.00     0.031 C 
ATOM     43  C   UNL A   1      37.824  29.572  29.064  1.00  0.00     0.029 A 
ATOM     44  C   UNL A   1      38.824  30.580  29.396  1.00  0.00     0.049 A 
ATOM     45  H   UNL A   1      40.882  30.470  29.097  1.00  0.00     0.167 HD
ATOM     46  C   UNL A   1      45.226  29.994  28.674  1.00  0.00     0.037 A 
ATOM     47  C   UNL A   1      38.568  31.775  29.965  1.00  0.00     0.037 A 
ATOM     48  C   UNL A   1      45.041  31.324  29.190  1.00  0.00     0.049 A 
ATOM     49  C   UNL A   1      39.713  32.707  30.253  1.00  0.00     0.074 A 
ATOM     50  C   UNL A   1      45.997  32.293  29.437  1.00  0.00     0.029 A 
ATOM     51  N   UNL A   1      43.814  31.871  29.534  1.00  0.00    -0.354 N 
ATOM     52  N   UNL A   1      40.997  32.533  30.046  1.00  0.00    -0.248 NA
ATOM     53  C   UNL A   1      39.374  34.007  30.850  1.00  0.00     0.031 C 
ATOM     54  C   UNL A   1      45.353  33.410  29.979  1.00  0.00     0.029 A 
ATOM     55  C   UNL A   1      43.991  33.158  30.011  1.00  0.00     0.049 A 
ATOM     56  H   UNL A   1      42.947  31.412  29.451  1.00  0.00     0.167 HD
ATOM     57  C   UNL A   1      41.612  33.710  30.452  1.00  0.00     0.074 A 
ATOM     58  C   UNL A   1      40.561  34.595  30.908  1.00  0.00     0.031 C 
ATOM     59  C   UNL A   1      42.929  34.030  30.446  1.00  0.00     0.037 A 
BRANCH  46  60
ATOM     60  C   UNL A   1      46.627  29.515  28.411  1.00  0.00     0.057 A 
ATOM     61  C   UNL A   1      47.387  28.868  29.395  1.00  0.00     0.134 A 
ATOM     62  C   UNL A   1      47.214  29.677  27.150  1.00  0.00     0.134 A 
ATOM     63  F   UNL A   1      46.891  28.688  30.629  1.00  0.00    -0.206 F 
ATOM     64  C   UNL A   1      48.690  28.431  29.146  1.00  0.00     0.040 A 
ATOM     65  C   UNL A   1      48.503  29.215  26.878  1.00  0.00     0.040 A 
ATOM     66  F   UNL A   1      46.543  30.280  26.157  1.00  0.00    -0.206 F 
ATOM     67  C   UNL A   1      49.248  28.598  27.880  1.00  0.00     0.006 A 
ENDBRANCH  46  60
BRANCH  47  68
ATOM     68  C   UNL A   1      37.169  32.169  30.273  1.00  0.00     0.057 A 
ATOM     69  C   UNL A   1      36.614  31.920  31.534  1.00  0.00     0.134 A 
ATOM     70  C   UNL A   1      36.352  32.794  29.324  1.00  0.00     0.134 A 
ATOM     71  F   UNL A   1      37.340  31.310  32.484  1.00  0.00    -0.206 F 
ATOM     72  C   UNL A   1      35.291  32.254  31.832  1.00  0.00     0.040 A 
ATOM     73  C   UNL A   1      35.037  33.159  29.616  1.00  0.00     0.040 A 
ATOM     74  F   UNL A   1      36.827  33.078  28.102  1.00  0.00    -0.206 F 
ATOM     75  C   UNL A   1      34.500  32.880  30.871  1.00  0.00     0.006 A 
ENDBRANCH  47  68
BRANCH  59  76
ATOM     76  C   UNL A   1      43.306  35.412  30.896  1.00  0.00     0.057 A 
ATOM     77  C   UNL A   1      43.592  35.707  32.235  1.00  0.00     0.134 A 
ATOM     78  C   UNL A   1      43.437  36.449  29.963  1.00  0.00     0.134 A 
ATOM     79  F   UNL A   1      43.475  34.761  33.179  1.00  0.00    -0.206 F 
ATOM     80  C   UNL A   1      43.974  36.989  32.632  1.00  0.00     0.040 A 
ATOM     81  C   UNL A   1      43.846  37.727  30.344  1.00  0.00     0.040 A 
ATOM     82  F   UNL A   1      43.187  36.232  28.663  1.00  0.00    -0.206 F 
ATOM     83  C   UNL A   1      44.111  38.001  31.684  1.00  0.00     0.006 A 
ENDBRANCH  59  76
ENDBRANCH  33  34
ENDBRANCH  25  28
ENDBRANCH  23  24
ENDBRANCH  22  23
ENDBRANCH   1  22
TORSDOF 14
ENDMDL
MODEL 2
REMARK VINA RESULT:     -11.3      2.510      7.256
REMARK SMILES C[C@@H](CS(=O)(=O)[C@@H]1CCC[C@H](S(C)(=O)=O)C1)C(=O)NCCCNC(=O)c1ccc(-c2c3nc(c(-c4c(F)cccc4F)c4ccc([nH]4)c(-c4c(F)cccc4F)c4nc(c(-c5c(F)cccc5F)c5ccc2[nH]5)C=C4)C=C3)cc1
REMARK SMILES IDX 20 1 19 2 17 3 18 4 2 6 1 7 3 8 4 9 5 10 6 11 7 12 8 13
REMARK SMILES IDX 16 14 9 15 11 16 10 17 12 18 13 19 14 20 15 21 21 22 22 23
REMARK SMILES IDX 23 24 24 25 25 27 26 28 27 29 79 30 28 31 78 32 29 33 30 34
REMARK SMILES IDX 31 35 72 36 32 37 77 38 71 39 73 40 33 41 76 42 70 43 69 44
REMARK SMILES IDX 34 46 60 47 43 48 59 49 44 50 47 51 58 52 74 53 45 54 46 55
REMARK SMILES IDX 57 57 75 58 48 59 35 60 36 61 41 62 37 63 38 64 40 65 42 66
REMARK SMILES IDX 39 67 61 68 62 69 67 70 63 71 64 72 66 73 68 74 65 75 49 76
REMARK SMILES IDX 50 77 55 78 51 79 52 80 54 81 56 82 53 83
REMARK H PARENT 19 5 23 26 73 45 47 56
REMARK Flexibility Score: inf
ROOT
ATOM      1  C   UNL A   1      35.947  20.304  24.997  1.00  0.00     0.117 C 
ENDROOT
BRANCH   1   2
ATOM      2  N   UNL A   1      34.796  19.448  25.001  1.00  0.00    -0.356 N 
ATOM      3  C   UNL A   1      33.500  19.729  24.735  1.00  0.00     0.223 C 
ATOM      4  O   UNL A   1      32.749  18.745  24.683  1.00  0.00    -0.275 OA
ATOM      5  H   UNL A   1      34.978  18.509  25.235  1.00  0.00     0.163 HD
BRANCH   3   6
ATOM      6  C   UNL A   1      32.882  21.137  24.597  1.00  0.00     0.090 C 
ATOM      7  C   UNL A   1      32.551  21.510  23.155  1.00  0.00     0.019 C 
BRANCH   6   8
ATOM      8  C   UNL A   1      32.072  21.847  25.679  1.00  0.00     0.150 C 
BRANCH   8   9
ATOM      9  S   UNL A   1      32.380  23.406  26.491  1.00  0.00     0.153 S 
ATOM     10  O   UNL A   1      31.403  23.541  27.557  1.00  0.00    -0.229 OA
ATOM     11  O   UNL A   1      33.782  23.320  26.881  1.00  0.00    -0.229 OA
BRANCH   9  12
ATOM     12  C   UNL A   1      32.304  24.919  25.450  1.00  0.00     0.110 C 
ATOM     13  C   UNL A   1      33.610  24.954  24.614  1.00  0.00     0.020 C 
ATOM     14  C   UNL A   1      32.214  26.257  26.163  1.00  0.00     0.039 C 
ATOM     15  C   UNL A   1      33.684  26.151  23.668  1.00  0.00     0.003 C 
ATOM     16  C   UNL A   1      32.184  27.468  25.220  1.00  0.00     0.109 C 
ATOM     17  C   UNL A   1      33.458  27.487  24.375  1.00  0.00     0.020 C 
BRANCH  16  18
ATOM     18  S   UNL A   1      32.009  28.975  26.215  1.00  0.00     0.150 S 
ATOM     19  C   UNL A   1      33.666  29.527  26.540  1.00  0.00     0.158 C 
ATOM     20  O   UNL A   1      31.387  29.974  25.360  1.00  0.00    -0.229 OA
ATOM     21  O   UNL A   1      31.400  28.620  27.479  1.00  0.00    -0.229 OA
ENDBRANCH  16  18
ENDBRANCH   9  12
ENDBRANCH   8   9
ENDBRANCH   6   8
ENDBRANCH   3   6
ENDBRANCH   1   2
BRANCH   1  22
ATOM     22  C   UNL A   1      37.271  19.597  24.767  1.00  0.00     0.042 C 
BRANCH  22  23
ATOM     23  C   UNL A   1      38.445  20.275  25.440  1.00  0.00     0.118 C 
BRANCH  23  24
ATOM     24  N   UNL A   1      39.550  19.345  25.675  1.00  0.00    -0.352 N 
ATOM     25  C   UNL A   1      40.864  19.528  26.047  1.00  0.00     0.251 C 
ATOM     26  H   UNL A   1      39.307  18.402  25.539  1.00  0.00     0.163 HD
ATOM     27  O   UNL A   1      41.640  18.580  25.941  1.00  0.00    -0.269 OA
BRANCH  25  28
ATOM     28  C   UNL A   1      41.382  20.826  26.550  1.00  0.00     0.039 A 
ATOM     29  C   UNL A   1      41.788  21.805  25.631  1.00  0.00     0.014 A 
ATOM     30  C   UNL A   1      41.542  21.079  27.908  1.00  0.00     0.014 A 
ATOM     31  C   UNL A   1      42.281  23.037  26.081  1.00  0.00     0.010 A 
ATOM     32  C   UNL A   1      41.883  22.351  28.354  1.00  0.00     0.010 A 
ATOM     33  C   UNL A   1      42.289  23.339  27.451  1.00  0.00    -0.014 A 
BRANCH  33  34
ATOM     34  C   UNL A   1      42.758  24.648  27.982  1.00  0.00     0.031 A 
ATOM     35  C   UNL A   1      41.756  25.726  28.320  1.00  0.00     0.074 A 
ATOM     36  C   UNL A   1      44.078  24.906  28.073  1.00  0.00     0.049 A 
ATOM     37  N   UNL A   1      41.961  26.975  28.657  1.00  0.00    -0.248 NA
ATOM     38  C   UNL A   1      40.331  25.365  28.220  1.00  0.00     0.031 C 
ATOM     39  C   UNL A   1      45.151  23.973  27.727  1.00  0.00     0.029 A 
ATOM     40  N   UNL A   1      44.743  26.040  28.471  1.00  0.00    -0.354 N 
ATOM     41  C   UNL A   1      40.698  27.548  28.771  1.00  0.00     0.074 A 
ATOM     42  C   UNL A   1      39.738  26.534  28.401  1.00  0.00     0.031 C 
ATOM     43  C   UNL A   1      46.337  24.557  27.962  1.00  0.00     0.029 A 
ATOM     44  C   UNL A   1      46.110  25.924  28.420  1.00  0.00     0.049 A 
ATOM     45  H   UNL A   1      44.281  26.858  28.765  1.00  0.00     0.167 HD
ATOM     46  C   UNL A   1      40.364  28.796  29.178  1.00  0.00     0.037 A 
ATOM     47  C   UNL A   1      47.075  26.822  28.701  1.00  0.00     0.037 A 
ATOM     48  C   UNL A   1      41.321  29.788  29.590  1.00  0.00     0.049 A 
ATOM     49  C   UNL A   1      46.680  28.200  29.159  1.00  0.00     0.074 A 
ATOM     50  C   UNL A   1      41.086  31.058  30.087  1.00  0.00     0.029 A 
ATOM     51  N   UNL A   1      42.696  29.617  29.557  1.00  0.00    -0.354 N 
ATOM     52  N   UNL A   1      45.481  28.706  29.324  1.00  0.00    -0.248 NA
ATOM     53  C   UNL A   1      47.772  29.130  29.476  1.00  0.00     0.031 C 
ATOM     54  C   UNL A   1      42.323  31.674  30.306  1.00  0.00     0.029 A 
ATOM     55  C   UNL A   1      43.325  30.766  30.004  1.00  0.00     0.049 A 
ATOM     56  H   UNL A   1      43.158  28.799  29.259  1.00  0.00     0.167 HD
ATOM     57  C   UNL A   1      45.675  29.998  29.797  1.00  0.00     0.074 A 
ATOM     58  C   UNL A   1      47.105  30.194  29.902  1.00  0.00     0.031 C 
ATOM     59  C   UNL A   1      44.751  30.937  30.117  1.00  0.00     0.037 A 
BRANCH  46  60
ATOM     60  C   UNL A   1      38.903  29.153  29.207  1.00  0.00     0.057 A 
ATOM     61  C   UNL A   1      38.224  29.594  28.063  1.00  0.00     0.134 A 
ATOM     62  C   UNL A   1      38.159  29.028  30.387  1.00  0.00     0.134 A 
ATOM     63  F   UNL A   1      38.877  29.747  26.900  1.00  0.00    -0.206 F 
ATOM     64  C   UNL A   1      36.869  29.929  28.098  1.00  0.00     0.040 A 
ATOM     65  C   UNL A   1      36.796  29.328  30.427  1.00  0.00     0.040 A 
ATOM     66  F   UNL A   1      38.741  28.604  31.519  1.00  0.00    -0.206 F 
ATOM     67  C   UNL A   1      36.149  29.788  29.282  1.00  0.00     0.006 A 
ENDBRANCH  46  60
BRANCH  47  68
ATOM     68  C   UNL A   1      48.506  26.439  28.584  1.00  0.00     0.057 A 
ATOM     69  C   UNL A   1      49.200  26.612  27.381  1.00  0.00     0.134 A 
ATOM     70  C   UNL A   1      49.213  25.890  29.660  1.00  0.00     0.134 A 
ATOM     71  F   UNL A   1      48.575  27.121  26.307  1.00  0.00    -0.206 F 
ATOM     72  C   UNL A   1      50.536  26.230  27.243  1.00  0.00     0.040 A 
ATOM     73  C   UNL A   1      50.556  25.528  29.545  1.00  0.00     0.040 A 
ATOM     74  F   UNL A   1      48.614  25.714  30.847  1.00  0.00    -0.206 F 
ATOM     75  C   UNL A   1      51.219  25.689  28.330  1.00  0.00     0.006 A 
ENDBRANCH  47  68
BRANCH  59  76
ATOM     76  C   UNL A   1      45.253  32.242  30.662  1.00  0.00     0.057 A 
ATOM     77  C   UNL A   1      45.510  33.344  29.837  1.00  0.00     0.134 A 
ATOM     78  C   UNL A   1      45.429  32.412  32.042  1.00  0.00     0.134 A 
ATOM     79  F   UNL A   1      45.372  33.244  28.506  1.00  0.00    -0.206 F 
ATOM     80  C   UNL A   1      45.944  34.561  30.362  1.00  0.00     0.040 A 
ATOM     81  C   UNL A   1      45.834  33.633  32.581  1.00  0.00     0.040 A 
ATOM     82  F   UNL A   1      45.190  31.400  32.889  1.00  0.00    -0.206 F 
ATOM     83  C   UNL A   1      46.099  34.711  31.740  1.00  0.00     0.006 A 
ENDBRANCH  59  76
ENDBRANCH  33  34
ENDBRANCH  25  28
ENDBRANCH  23  24
ENDBRANCH  22  23
ENDBRANCH   1  22
TORSDOF 14
ENDMDL
MODEL 3
REMARK VINA RESULT:     -11.3      2.299      6.931
REMARK SMILES C[C@@H](CS(=O)(=O)[C@@H]1CCC[C@H](S(C)(=O)=O)C1)C(=O)NCCCNC(=O)c1ccc(-c2c3nc(c(-c4c(F)cccc4F)c4ccc([nH]4)c(-c4c(F)cccc4F)c4nc(c(-c5c(F)cccc5F)c5ccc2[nH]5)C=C4)C=C3)cc1
REMARK SMILES IDX 20 1 19 2 17 3 18 4 2 6 1 7 3 8 4 9 5 10 6 11 7 12 8 13
REMARK SMILES IDX 16 14 9 15 11 16 10 17 12 18 13 19 14 20 15 21 21 22 22 23
REMARK SMILES IDX 23 24 24 25 25 27 26 28 27 29 79 30 28 31 78 32 29 33 30 34
REMARK SMILES IDX 31 35 72 36 32 37 77 38 71 39 73 40 33 41 76 42 70 43 69 44
REMARK SMILES IDX 34 46 60 47 43 48 59 49 44 50 47 51 58 52 74 53 45 54 46 55
REMARK SMILES IDX 57 57 75 58 48 59 35 60 36 61 41 62 37 63 38 64 40 65 42 66
REMARK SMILES IDX 39 67 61 68 62 69 67 70 63 71 64 72 66 73 68 74 65 75 49 76
REMARK SMILES IDX 50 77 55 78 51 79 52 80 54 81 56 82 53 83
REMARK H PARENT 19 5 23 26 73 45 47 56
REMARK Flexibility Score: inf
ROOT
ATOM      1  C   UNL A   1      36.370  20.109  24.986  1.00  0.00     0.117 C 
ENDROOT
BRANCH   1   2
ATOM      2  N   UNL A   1      35.289  19.173  24.867  1.00  0.00    -0.356 N 
ATOM      3  C   UNL A   1      33.973  19.386  24.643  1.00  0.00     0.223 C 
ATOM      4  O   UNL A   1      33.300  18.364  24.450  1.00  0.00    -0.275 OA
ATOM      5  H   UNL A   1      35.547  18.228  24.963  1.00  0.00     0.163 HD
BRANCH   3   6
ATOM      6  C   UNL A   1      33.245  20.747  24.709  1.00  0.00     0.090 C 
ATOM      7  C   UNL A   1      32.399  21.038  23.473  1.00  0.00     0.019 C 
BRANCH   6   8
ATOM      8  C   UNL A   1      32.821  21.450  25.996  1.00  0.00     0.150 C 
BRANCH   8   9
ATOM      9  S   UNL A   1      31.976  23.007  26.216  1.00  0.00     0.153 S 
ATOM     10  O   UNL A   1      30.724  22.927  25.485  1.00  0.00    -0.229 OA
ATOM     11  O   UNL A   1      31.893  23.153  27.663  1.00  0.00    -0.229 OA
BRANCH   9  12
ATOM     12  C   UNL A   1      32.863  24.522  25.670  1.00  0.00     0.110 C 
ATOM     13  C   UNL A   1      32.299  25.697  26.508  1.00  0.00     0.020 C 
ATOM     14  C   UNL A   1      32.725  24.928  24.213  1.00  0.00     0.039 C 
ATOM     15  C   UNL A   1      32.962  27.035  26.187  1.00  0.00     0.003 C 
ATOM     16  C   UNL A   1      33.474  26.218  23.850  1.00  0.00     0.109 C 
ATOM     17  C   UNL A   1      32.938  27.373  24.697  1.00  0.00     0.020 C 
BRANCH  16  18
ATOM     18  S   UNL A   1      33.268  26.529  22.074  1.00  0.00     0.150 S 
ATOM     19  C   UNL A   1      31.540  26.873  21.848  1.00  0.00     0.158 C 
ATOM     20  O   UNL A   1      33.989  27.757  21.776  1.00  0.00    -0.229 OA
ATOM     21  O   UNL A   1      33.580  25.311  21.358  1.00  0.00    -0.229 OA
ENDBRANCH  16  18
ENDBRANCH   9  12
ENDBRANCH   8   9
ENDBRANCH   6   8
ENDBRANCH   3   6
ENDBRANCH   1   2
BRANCH   1  22
ATOM     22  C   UNL A   1      37.755  19.517  24.791  1.00  0.00     0.042 C 
BRANCH  22  23
ATOM     23  C   UNL A   1      38.815  20.159  25.660  1.00  0.00     0.118 C 
BRANCH  23  24
ATOM     24  N   UNL A   1      40.015  19.326  25.760  1.00  0.00    -0.352 N 
ATOM     25  C   UNL A   1      41.329  19.610  26.059  1.00  0.00     0.251 C 
ATOM     26  H   UNL A   1      39.849  18.374  25.578  1.00  0.00     0.163 HD
ATOM     27  O   UNL A   1      42.179  18.749  25.840  1.00  0.00    -0.269 OA
BRANCH  25  28
ATOM     28  C   UNL A   1      41.761  20.919  26.612  1.00  0.00     0.039 A 
ATOM     29  C   UNL A   1      42.133  21.946  25.732  1.00  0.00     0.014 A 
ATOM     30  C   UNL A   1      41.873  21.139  27.980  1.00  0.00     0.014 A 
ATOM     31  C   UNL A   1      42.545  23.190  26.230  1.00  0.00     0.010 A 
ATOM     32  C   UNL A   1      42.132  22.414  28.471  1.00  0.00     0.010 A 
ATOM     33  C   UNL A   1      42.503  23.451  27.608  1.00  0.00    -0.014 A 
BRANCH  33  34
ATOM     34  C   UNL A   1      42.885  24.767  28.188  1.00  0.00     0.031 A 
ATOM     35  C   UNL A   1      41.827  25.816  28.435  1.00  0.00     0.074 A 
ATOM     36  C   UNL A   1      44.183  25.058  28.405  1.00  0.00     0.049 A 
ATOM     37  N   UNL A   1      41.966  27.067  28.797  1.00  0.00    -0.248 NA
ATOM     38  C   UNL A   1      40.428  25.418  28.199  1.00  0.00     0.031 C 
ATOM     39  C   UNL A   1      45.309  24.156  28.157  1.00  0.00     0.029 A 
ATOM     40  N   UNL A   1      44.776  26.206  28.871  1.00  0.00    -0.354 N 
ATOM     41  C   UNL A   1      40.683  27.606  28.794  1.00  0.00     0.074 A 
ATOM     42  C   UNL A   1      39.790  26.571  28.329  1.00  0.00     0.031 C 
ATOM     43  C   UNL A   1      46.450  24.769  28.507  1.00  0.00     0.029 A 
ATOM     44  C   UNL A   1      46.145  26.126  28.950  1.00  0.00     0.049 A 
ATOM     45  H   UNL A   1      44.268  27.009  29.124  1.00  0.00     0.167 HD
ATOM     46  C   UNL A   1      40.279  28.842  29.174  1.00  0.00     0.037 A 
ATOM     47  C   UNL A   1      47.055  27.046  29.325  1.00  0.00     0.037 A 
ATOM     48  C   UNL A   1      41.165  29.855  29.680  1.00  0.00     0.049 A 
ATOM     49  C   UNL A   1      46.582  28.410  29.751  1.00  0.00     0.074 A 
ATOM     50  C   UNL A   1      40.851  31.114  30.159  1.00  0.00     0.029 A 
ATOM     51  N   UNL A   1      42.542  29.720  29.777  1.00  0.00    -0.354 N 
ATOM     52  N   UNL A   1      45.360  28.883  29.804  1.00  0.00    -0.248 NA
ATOM     53  C   UNL A   1      47.614  29.365  30.176  1.00  0.00     0.031 C 
ATOM     54  C   UNL A   1      42.045  31.761  30.498  1.00  0.00     0.029 A 
ATOM     55  C   UNL A   1      43.094  30.881  30.288  1.00  0.00     0.049 A 
ATOM     56  H   UNL A   1      43.051  28.917  29.519  1.00  0.00     0.167 HD
ATOM     57  C   UNL A   1      45.473  30.176  30.301  1.00  0.00     0.074 A 
ATOM     58  C   UNL A   1      46.882  30.408  30.542  1.00  0.00     0.031 C 
ATOM     59  C   UNL A   1      44.498  31.088  30.537  1.00  0.00     0.037 A 
BRANCH  46  60
ATOM     60  C   UNL A   1      38.813  29.161  29.066  1.00  0.00     0.057 A 
ATOM     61  C   UNL A   1      37.954  29.087  30.170  1.00  0.00     0.134 A 
ATOM     62  C   UNL A   1      38.260  29.577  27.848  1.00  0.00     0.134 A 
ATOM     63  F   UNL A   1      38.414  28.687  31.366  1.00  0.00    -0.206 F 
ATOM     64  C   UNL A   1      36.593  29.381  30.062  1.00  0.00     0.040 A 
ATOM     65  C   UNL A   1      36.907  29.905  27.733  1.00  0.00     0.040 A 
ATOM     66  F   UNL A   1      39.024  29.679  26.750  1.00  0.00    -0.206 F 
ATOM     67  C   UNL A   1      36.068  29.799  28.840  1.00  0.00     0.006 A 
ENDBRANCH  46  60
BRANCH  47  68
ATOM     68  C   UNL A   1      48.500  26.702  29.343  1.00  0.00     0.057 A 
ATOM     69  C   UNL A   1      49.087  26.122  30.474  1.00  0.00     0.134 A 
ATOM     70  C   UNL A   1      49.330  26.944  28.243  1.00  0.00     0.134 A 
ATOM     71  F   UNL A   1      48.349  25.876  31.568  1.00  0.00    -0.206 F 
ATOM     72  C   UNL A   1      50.449  25.820  30.521  1.00  0.00     0.040 A 
ATOM     73  C   UNL A   1      50.688  26.624  28.265  1.00  0.00     0.040 A 
ATOM     74  F   UNL A   1      48.829  27.481  27.120  1.00  0.00    -0.206 F 
ATOM     75  C   UNL A   1      51.253  26.068  29.411  1.00  0.00     0.006 A 
ENDBRANCH  47  68
BRANCH  59  76
ATOM     76  C   UNL A   1      44.912  32.402  31.134  1.00  0.00     0.057 A 
ATOM     77  C   UNL A   1      45.226  33.514  30.343  1.00  0.00     0.134 A 
ATOM     78  C   UNL A   1      44.943  32.568  32.525  1.00  0.00     0.134 A 
ATOM     79  F   UNL A   1      45.226  33.417  29.005  1.00  0.00    -0.206 F 
ATOM     80  C   UNL A   1      45.576  34.738  30.914  1.00  0.00     0.040 A 
ATOM     81  C   UNL A   1      45.262  33.795  33.107  1.00  0.00     0.040 A 
ATOM     82  F   UNL A   1      44.643  31.545  33.341  1.00  0.00    -0.206 F 
ATOM     83  C   UNL A   1      45.586  34.883  32.300  1.00  0.00     0.006 A 
ENDBRANCH  59  76
ENDBRANCH  33  34
ENDBRANCH  25  28
ENDBRANCH  23  24
ENDBRANCH  22  23
ENDBRANCH   1  22
TORSDOF 14
ENDMDL
