MODEL 1
REMARK VINA RESULT:     -11.8      0.000      0.000
REMARK SMILES Cc1nc([C@]2(C)CCCO2)nc(C)c1C(=O)NCCCNC(=O)c1ccc(-c2c3nc(c(-c4c(F)cccc4F)c4ccc([nH]4)c(-c4c(F)cccc4F)c4nc(c(-c5c(F)cccc5F)c5ccc2[nH]5)C=C4)C=C3)cc1
REMARK SMILES IDX 19 1 18 2 17 3 15 4 16 5 14 7 1 8 2 9 3 10 4 11 12 12 11 13
REMARK SMILES IDX 13 14 5 15 7 16 10 17 6 18 8 19 9 20 20 21 21 22 22 23 23 25
REMARK SMILES IDX 24 26 25 27 77 28 26 29 76 30 27 31 28 32 29 33 70 34 30 35
REMARK SMILES IDX 75 36 69 37 71 38 31 39 74 40 68 41 67 42 32 44 58 45 41 46
REMARK SMILES IDX 57 47 42 48 45 49 56 50 72 51 43 52 44 53 55 55 73 56 46 57
REMARK SMILES IDX 33 58 34 59 39 60 35 61 36 62 38 63 40 64 37 65 59 66 60 67
REMARK SMILES IDX 65 68 61 69 62 70 64 71 66 72 63 73 47 74 48 75 53 76 49 77
REMARK SMILES IDX 50 78 52 79 54 80 51 81
REMARK H PARENT 17 6 21 24 71 43 45 54
REMARK Flexibility Score: inf
ROOT
ATOM      1  C   UNL A   1      37.445  19.707  24.989  1.00  0.00     0.042 C 
ENDROOT
BRANCH   1   2
ATOM      2  C   UNL A   1      36.239  20.648  24.976  1.00  0.00     0.118 C 
BRANCH   2   3
ATOM      3  N   UNL A   1      35.021  19.875  25.024  1.00  0.00    -0.352 N 
ATOM      4  C   UNL A   1      33.693  20.136  25.215  1.00  0.00     0.254 C 
ATOM      5  O   UNL A   1      33.029  19.105  25.364  1.00  0.00    -0.269 OA
ATOM      6  H   UNL A   1      35.189  18.916  24.884  1.00  0.00     0.163 HD
BRANCH   4   7
ATOM      7  C   UNL A   1      32.991  21.462  25.217  1.00  0.00     0.082 A 
ATOM      8  C   UNL A   1      32.170  21.679  22.763  1.00  0.00     0.068 C 
ATOM      9  C   UNL A   1      32.330  22.108  24.177  1.00  0.00     0.054 A 
ATOM     10  N   UNL A   1      31.798  23.348  24.309  1.00  0.00    -0.234 NA
ATOM     11  C   UNL A   1      31.995  24.048  25.429  1.00  0.00     0.160 A 
ATOM     12  C   UNL A   1      33.091  22.251  26.386  1.00  0.00     0.054 A 
ATOM     13  N   UNL A   1      32.604  23.521  26.493  1.00  0.00    -0.234 NA
ATOM     14  C   UNL A   1      33.799  21.813  27.642  1.00  0.00     0.068 C 
BRANCH  11  15
ATOM     15  C   UNL A   1      31.595  25.528  25.401  1.00  0.00     0.125 C 
ATOM     16  C   UNL A   1      31.990  26.208  24.089  1.00  0.00     0.046 C 
ATOM     17  O   UNL A   1      32.348  26.258  26.409  1.00  0.00    -0.367 OA
ATOM     18  C   UNL A   1      30.113  25.724  25.716  1.00  0.00     0.051 C 
ATOM     19  C   UNL A   1      33.438  26.597  24.304  1.00  0.00     0.032 C 
ATOM     20  C   UNL A   1      33.560  26.745  25.810  1.00  0.00     0.161 C 
ENDBRANCH  11  15
ENDBRANCH   4   7
ENDBRANCH   2   3
ENDBRANCH   1   2
BRANCH   1  21
ATOM     21  C   UNL A   1      38.723  20.365  25.483  1.00  0.00     0.118 C 
BRANCH  21  22
ATOM     22  N   UNL A   1      39.778  19.385  25.687  1.00  0.00    -0.352 N 
ATOM     23  C   UNL A   1      41.084  19.578  26.048  1.00  0.00     0.251 C 
ATOM     24  H   UNL A   1      39.514  18.447  25.546  1.00  0.00     0.163 HD
ATOM     25  O   UNL A   1      41.897  18.661  25.904  1.00  0.00    -0.269 OA
BRANCH  23  26
ATOM     26  C   UNL A   1      41.526  20.874  26.602  1.00  0.00     0.039 A 
ATOM     27  C   UNL A   1      42.045  21.842  25.736  1.00  0.00     0.014 A 
ATOM     28  C   UNL A   1      41.463  21.126  27.976  1.00  0.00     0.014 A 
ATOM     29  C   UNL A   1      42.455  23.076  26.243  1.00  0.00     0.010 A 
ATOM     30  C   UNL A   1      41.783  22.386  28.465  1.00  0.00     0.010 A 
ATOM     31  C   UNL A   1      42.301  23.367  27.607  1.00  0.00    -0.014 A 
BRANCH  31  32
ATOM     32  C   UNL A   1      42.698  24.680  28.170  1.00  0.00     0.031 A 
ATOM     33  C   UNL A   1      41.658  25.743  28.393  1.00  0.00     0.074 A 
ATOM     34  C   UNL A   1      43.998  24.937  28.406  1.00  0.00     0.049 A 
ATOM     35  N   UNL A   1      41.812  26.984  28.776  1.00  0.00    -0.248 NA
ATOM     36  C   UNL A   1      40.261  25.372  28.114  1.00  0.00     0.031 C 
ATOM     37  C   UNL A   1      45.101  24.000  28.182  1.00  0.00     0.029 A 
ATOM     38  N   UNL A   1      44.615  26.069  28.874  1.00  0.00    -0.354 N 
ATOM     39  C   UNL A   1      40.540  27.544  28.760  1.00  0.00     0.074 A 
ATOM     40  C   UNL A   1      39.633  26.527  28.277  1.00  0.00     0.031 C 
ATOM     41  C   UNL A   1      46.257  24.588  28.530  1.00  0.00     0.029 A 
ATOM     42  C   UNL A   1      45.982  25.954  28.963  1.00  0.00     0.049 A 
ATOM     43  H   UNL A   1      44.125  26.886  29.123  1.00  0.00     0.167 HD
ATOM     44  C   UNL A   1      40.159  28.787  29.139  1.00  0.00     0.037 A 
ATOM     45  C   UNL A   1      46.907  26.856  29.339  1.00  0.00     0.037 A 
ATOM     46  C   UNL A   1      41.064  29.782  29.650  1.00  0.00     0.049 A 
ATOM     47  C   UNL A   1      46.459  28.228  29.761  1.00  0.00     0.074 A 
ATOM     48  C   UNL A   1      40.775  31.048  30.125  1.00  0.00     0.029 A 
ATOM     49  N   UNL A   1      42.438  29.617  29.754  1.00  0.00    -0.354 N 
ATOM     50  N   UNL A   1      45.245  28.722  29.805  1.00  0.00    -0.248 NA
ATOM     51  C   UNL A   1      47.506  29.165  30.188  1.00  0.00     0.031 C 
ATOM     52  C   UNL A   1      41.979  31.668  30.472  1.00  0.00     0.029 A 
ATOM     53  C   UNL A   1      43.013  30.768  30.264  1.00  0.00     0.049 A 
ATOM     54  H   UNL A   1      42.930  28.803  29.500  1.00  0.00     0.167 HD
ATOM     55  C   UNL A   1      45.379  30.016  30.291  1.00  0.00     0.074 A 
ATOM     56  C   UNL A   1      46.791  30.224  30.538  1.00  0.00     0.031 C 
ATOM     57  C   UNL A   1      44.421  30.949  30.512  1.00  0.00     0.037 A 
BRANCH  44  58
ATOM     58  C   UNL A   1      38.703  29.135  29.018  1.00  0.00     0.057 A 
ATOM     59  C   UNL A   1      37.830  29.054  30.111  1.00  0.00     0.134 A 
ATOM     60  C   UNL A   1      38.175  29.586  27.803  1.00  0.00     0.134 A 
ATOM     61  F   UNL A   1      38.268  28.617  31.302  1.00  0.00    -0.206 F 
ATOM     62  C   UNL A   1      36.478  29.381  29.993  1.00  0.00     0.040 A 
ATOM     63  C   UNL A   1      36.830  29.945  27.678  1.00  0.00     0.040 A 
ATOM     64  F   UNL A   1      38.954  29.694  26.717  1.00  0.00    -0.206 F 
ATOM     65  C   UNL A   1      35.977  29.836  28.774  1.00  0.00     0.006 A 
ENDBRANCH  44  58
BRANCH  45  66
ATOM     66  C   UNL A   1      48.344  26.483  29.357  1.00  0.00     0.057 A 
ATOM     67  C   UNL A   1      49.177  26.767  28.270  1.00  0.00     0.134 A 
ATOM     68  C   UNL A   1      48.920  25.838  30.458  1.00  0.00     0.134 A 
ATOM     69  F   UNL A   1      48.681  27.371  27.180  1.00  0.00    -0.206 F 
ATOM     70  C   UNL A   1      50.526  26.407  28.266  1.00  0.00     0.040 A 
ATOM     71  C   UNL A   1      50.274  25.495  30.479  1.00  0.00     0.040 A 
ATOM     72  F   UNL A   1      48.179  25.548  31.537  1.00  0.00    -0.206 F 
ATOM     73  C   UNL A   1      51.079  25.773  29.377  1.00  0.00     0.006 A 
ENDBRANCH  45  66
BRANCH  57  74
ATOM     74  C   UNL A   1      44.861  32.264  31.084  1.00  0.00     0.057 A 
ATOM     75  C   UNL A   1      45.192  33.352  30.267  1.00  0.00     0.134 A 
ATOM     76  C   UNL A   1      44.903  32.457  32.471  1.00  0.00     0.134 A 
ATOM     77  F   UNL A   1      45.184  33.228  28.932  1.00  0.00    -0.206 F 
ATOM     78  C   UNL A   1      45.568  34.582  30.810  1.00  0.00     0.040 A 
ATOM     79  C   UNL A   1      45.250  33.689  33.025  1.00  0.00     0.040 A 
ATOM     80  F   UNL A   1      44.588  31.457  33.307  1.00  0.00    -0.206 F 
ATOM     81  C   UNL A   1      45.590  34.754  32.193  1.00  0.00     0.006 A 
ENDBRANCH  57  74
ENDBRANCH  31  32
ENDBRANCH  23  26
ENDBRANCH  21  22
ENDBRANCH   1  21
TORSDOF 11
ENDMDL
MODEL 2
REMARK VINA RESULT:     -11.8      0.065      1.333
REMARK SMILES Cc1nc([C@]2(C)CCCO2)nc(C)c1C(=O)NCCCNC(=O)c1ccc(-c2c3nc(c(-c4c(F)cccc4F)c4ccc([nH]4)c(-c4c(F)cccc4F)c4nc(c(-c5c(F)cccc5F)c5ccc2[nH]5)C=C4)C=C3)cc1
REMARK SMILES IDX 19 1 18 2 17 3 15 4 16 5 14 7 1 8 2 9 3 10 4 11 12 12 11 13
REMARK SMILES IDX 13 14 5 15 7 16 10 17 6 18 8 19 9 20 20 21 21 22 22 23 23 25
REMARK SMILES IDX 24 26 25 27 77 28 26 29 76 30 27 31 28 32 29 33 70 34 30 35
REMARK SMILES IDX 75 36 69 37 71 38 31 39 74 40 68 41 67 42 32 44 58 45 41 46
REMARK SMILES IDX 57 47 42 48 45 49 56 50 72 51 43 52 44 53 55 55 73 56 46 57
REMARK SMILES IDX 33 58 34 59 39 60 35 61 36 62 38 63 40 64 37 65 59 66 60 67
REMARK SMILES IDX 65 68 61 69 62 70 64 71 66 72 63 73 47 74 48 75 53 76 49 77
REMARK SMILES IDX 50 78 52 79 54 80 51 81
REMARK H PARENT 17 6 21 24 71 43 45 54
REMARK Flexibility Score: inf
ROOT
ATOM      1  C   UNL A   1      37.435  19.713  24.981  1.00  0.00     0.042 C 
ENDROOT
BRANCH   1   2
ATOM      2  C   UNL A   1      36.225  20.649  25.007  1.00  0.00     0.118 C 
BRANCH   2   3
ATOM      3  N   UNL A   1      35.011  19.871  25.041  1.00  0.00    -0.352 N 
ATOM      4  C   UNL A   1      33.681  20.125  25.222  1.00  0.00     0.254 C 
ATOM      5  O   UNL A   1      33.020  19.090  25.362  1.00  0.00    -0.269 OA
ATOM      6  H   UNL A   1      35.184  18.913  24.898  1.00  0.00     0.163 HD
BRANCH   4   7
ATOM      7  C   UNL A   1      32.972  21.448  25.225  1.00  0.00     0.082 A 
ATOM      8  C   UNL A   1      32.186  21.680  22.760  1.00  0.00     0.068 C 
ATOM      9  C   UNL A   1      32.324  22.099  24.180  1.00  0.00     0.054 A 
ATOM     10  N   UNL A   1      31.784  23.335  24.314  1.00  0.00    -0.234 NA
ATOM     11  C   UNL A   1      31.961  24.027  25.442  1.00  0.00     0.160 A 
ATOM     12  C   UNL A   1      33.052  22.227  26.400  1.00  0.00     0.054 A 
ATOM     13  N   UNL A   1      32.557  23.494  26.510  1.00  0.00    -0.234 NA
ATOM     14  C   UNL A   1      33.743  21.783  27.664  1.00  0.00     0.068 C 
BRANCH  11  15
ATOM     15  C   UNL A   1      31.555  25.505  25.420  1.00  0.00     0.125 C 
ATOM     16  C   UNL A   1      31.881  26.174  24.083  1.00  0.00     0.046 C 
ATOM     17  O   UNL A   1      32.355  26.248  26.381  1.00  0.00    -0.367 OA
ATOM     18  C   UNL A   1      30.090  25.700  25.806  1.00  0.00     0.051 C 
ATOM     19  C   UNL A   1      33.337  26.569  24.222  1.00  0.00     0.032 C 
ATOM     20  C   UNL A   1      33.533  26.732  25.718  1.00  0.00     0.161 C 
ENDBRANCH  11  15
ENDBRANCH   4   7
ENDBRANCH   2   3
ENDBRANCH   1   2
BRANCH   1  21
ATOM     21  C   UNL A   1      38.722  20.369  25.455  1.00  0.00     0.118 C 
BRANCH  21  22
ATOM     22  N   UNL A   1      39.765  19.383  25.684  1.00  0.00    -0.352 N 
ATOM     23  C   UNL A   1      41.068  19.570  26.061  1.00  0.00     0.251 C 
ATOM     24  H   UNL A   1      39.496  18.445  25.550  1.00  0.00     0.163 HD
ATOM     25  O   UNL A   1      41.875  18.645  25.937  1.00  0.00    -0.269 OA
BRANCH  23  26
ATOM     26  C   UNL A   1      41.514  20.868  26.605  1.00  0.00     0.039 A 
ATOM     27  C   UNL A   1      41.932  21.869  25.723  1.00  0.00     0.014 A 
ATOM     28  C   UNL A   1      41.553  21.091  27.985  1.00  0.00     0.014 A 
ATOM     29  C   UNL A   1      42.344  23.105  26.222  1.00  0.00     0.010 A 
ATOM     30  C   UNL A   1      41.873  22.350  28.475  1.00  0.00     0.010 A 
ATOM     31  C   UNL A   1      42.290  23.364  27.601  1.00  0.00    -0.014 A 
BRANCH  31  32
ATOM     32  C   UNL A   1      42.691  24.678  28.159  1.00  0.00     0.031 A 
ATOM     33  C   UNL A   1      41.652  25.742  28.386  1.00  0.00     0.074 A 
ATOM     34  C   UNL A   1      43.993  24.935  28.387  1.00  0.00     0.049 A 
ATOM     35  N   UNL A   1      41.809  26.984  28.765  1.00  0.00    -0.248 NA
ATOM     36  C   UNL A   1      40.254  25.371  28.115  1.00  0.00     0.031 C 
ATOM     37  C   UNL A   1      45.094  23.998  28.158  1.00  0.00     0.029 A 
ATOM     38  N   UNL A   1      44.612  26.067  28.850  1.00  0.00    -0.354 N 
ATOM     39  C   UNL A   1      40.537  27.544  28.756  1.00  0.00     0.074 A 
ATOM     40  C   UNL A   1      39.628  26.526  28.279  1.00  0.00     0.031 C 
ATOM     41  C   UNL A   1      46.251  24.586  28.499  1.00  0.00     0.029 A 
ATOM     42  C   UNL A   1      45.980  25.952  28.931  1.00  0.00     0.049 A 
ATOM     43  H   UNL A   1      44.124  26.885  29.100  1.00  0.00     0.167 HD
ATOM     44  C   UNL A   1      40.160  28.788  29.134  1.00  0.00     0.037 A 
ATOM     45  C   UNL A   1      46.908  26.854  29.301  1.00  0.00     0.037 A 
ATOM     46  C   UNL A   1      41.068  29.783  29.639  1.00  0.00     0.049 A 
ATOM     47  C   UNL A   1      46.462  28.227  29.722  1.00  0.00     0.074 A 
ATOM     48  C   UNL A   1      40.781  31.051  30.113  1.00  0.00     0.029 A 
ATOM     49  N   UNL A   1      42.442  29.618  29.735  1.00  0.00    -0.354 N 
ATOM     50  N   UNL A   1      45.249  28.722  29.773  1.00  0.00    -0.248 NA
ATOM     51  C   UNL A   1      47.512  29.165  30.142  1.00  0.00     0.031 C 
ATOM     52  C   UNL A   1      41.988  31.671  30.452  1.00  0.00     0.029 A 
ATOM     53  C   UNL A   1      43.020  30.770  30.241  1.00  0.00     0.049 A 
ATOM     54  H   UNL A   1      42.933  28.804  29.480  1.00  0.00     0.167 HD
ATOM     55  C   UNL A   1      45.386  30.017  30.255  1.00  0.00     0.074 A 
ATOM     56  C   UNL A   1      46.799  30.225  30.494  1.00  0.00     0.031 C 
ATOM     57  C   UNL A   1      44.429  30.950  30.480  1.00  0.00     0.037 A 
BRANCH  44  58
ATOM     58  C   UNL A   1      38.703  29.137  29.021  1.00  0.00     0.057 A 
ATOM     59  C   UNL A   1      37.834  29.052  30.117  1.00  0.00     0.134 A 
ATOM     60  C   UNL A   1      38.169  29.592  27.810  1.00  0.00     0.134 A 
ATOM     61  F   UNL A   1      38.277  28.612  31.305  1.00  0.00    -0.206 F 
ATOM     62  C   UNL A   1      36.482  29.379  30.006  1.00  0.00     0.040 A 
ATOM     63  C   UNL A   1      36.824  29.950  27.692  1.00  0.00     0.040 A 
ATOM     64  F   UNL A   1      38.944  29.702  26.721  1.00  0.00    -0.206 F 
ATOM     65  C   UNL A   1      35.975  29.838  28.791  1.00  0.00     0.006 A 
ENDBRANCH  44  58
BRANCH  45  66
ATOM     66  C   UNL A   1      48.344  26.481  29.311  1.00  0.00     0.057 A 
ATOM     67  C   UNL A   1      48.917  25.843  30.416  1.00  0.00     0.134 A 
ATOM     68  C   UNL A   1      49.179  26.749  28.218  1.00  0.00     0.134 A 
ATOM     69  F   UNL A   1      48.173  25.572  31.499  1.00  0.00    -0.206 F 
ATOM     70  C   UNL A   1      50.270  25.502  30.446  1.00  0.00     0.040 A 
ATOM     71  C   UNL A   1      50.528  26.390  28.223  1.00  0.00     0.040 A 
ATOM     72  F   UNL A   1      48.689  27.348  27.123  1.00  0.00    -0.206 F 
ATOM     73  C   UNL A   1      51.079  25.772  29.343  1.00  0.00     0.006 A 
ENDBRANCH  45  66
BRANCH  57  74
ATOM     74  C   UNL A   1      44.873  32.267  31.047  1.00  0.00     0.057 A 
ATOM     75  C   UNL A   1      44.988  32.478  32.426  1.00  0.00     0.134 A 
ATOM     76  C   UNL A   1      45.239  33.319  30.196  1.00  0.00     0.134 A 
ATOM     77  F   UNL A   1      44.641  31.515  33.293  1.00  0.00    -0.206 F 
ATOM     78  C   UNL A   1      45.434  33.696  32.941  1.00  0.00     0.040 A 
ATOM     79  C   UNL A   1      45.712  34.531  30.698  1.00  0.00     0.040 A 
ATOM     80  F   UNL A   1      45.160  33.176  28.865  1.00  0.00    -0.206 F 
ATOM     81  C   UNL A   1      45.805  34.724  32.075  1.00  0.00     0.006 A 
ENDBRANCH  57  74
ENDBRANCH  31  32
ENDBRANCH  23  26
ENDBRANCH  21  22
ENDBRANCH   1  21
TORSDOF 11
ENDMDL
MODEL 3
REMARK VINA RESULT:     -11.7      3.745      8.928
REMARK SMILES Cc1nc([C@]2(C)CCCO2)nc(C)c1C(=O)NCCCNC(=O)c1ccc(-c2c3nc(c(-c4c(F)cccc4F)c4ccc([nH]4)c(-c4c(F)cccc4F)c4nc(c(-c5c(F)cccc5F)c5ccc2[nH]5)C=C4)C=C3)cc1
REMARK SMILES IDX 19 1 18 2 17 3 15 4 16 5 14 7 1 8 2 9 3 10 4 11 12 12 11 13
REMARK SMILES IDX 13 14 5 15 7 16 10 17 6 18 8 19 9 20 20 21 21 22 22 23 23 25
REMARK SMILES IDX 24 26 25 27 77 28 26 29 76 30 27 31 28 32 29 33 70 34 30 35
REMARK SMILES IDX 75 36 69 37 71 38 31 39 74 40 68 41 67 42 32 44 58 45 41 46
REMARK SMILES IDX 57 47 42 48 45 49 56 50 72 51 43 52 44 53 55 55 73 56 46 57
REMARK SMILES IDX 33 58 34 59 39 60 35 61 36 62 38 63 40 64 37 65 59 66 60 67
REMARK SMILES IDX 65 68 61 69 62 70 64 71 66 72 63 73 47 74 48 75 53 76 49 77
REMARK SMILES IDX 50 78 52 79 54 80 51 81
REMARK H PARENT 17 6 21 24 71 43 45 54
REMARK Flexibility Score: inf
ROOT
ATOM      1  C   UNL A   1      31.226  31.553  26.158  1.00  0.00     0.042 C 
ENDROOT
BRANCH   1   2
ATOM      2  C   UNL A   1      31.453  30.167  25.551  1.00  0.00     0.118 C 
BRANCH   2   3
ATOM      3  N   UNL A   1      30.796  30.085  24.269  1.00  0.00    -0.352 N 
ATOM      4  C   UNL A   1      30.778  29.206  23.223  1.00  0.00     0.254 C 
ATOM      5  O   UNL A   1      30.197  29.664  22.234  1.00  0.00    -0.269 OA
ATOM      6  H   UNL A   1      30.213  30.861  24.105  1.00  0.00     0.163 HD
BRANCH   4   7
ATOM      7  C   UNL A   1      31.318  27.807  23.168  1.00  0.00     0.082 A 
ATOM      8  C   UNL A   1      29.283  26.378  23.919  1.00  0.00     0.068 C 
ATOM      9  C   UNL A   1      30.675  26.605  23.448  1.00  0.00     0.054 A 
ATOM     10  N   UNL A   1      31.316  25.411  23.423  1.00  0.00    -0.234 NA
ATOM     11  C   UNL A   1      32.637  25.362  23.236  1.00  0.00     0.160 A 
ATOM     12  C   UNL A   1      32.699  27.651  22.913  1.00  0.00     0.054 A 
ATOM     13  N   UNL A   1      33.350  26.452  22.946  1.00  0.00    -0.234 NA
ATOM     14  C   UNL A   1      33.640  28.794  22.630  1.00  0.00     0.068 C 
BRANCH  11  15
ATOM     15  C   UNL A   1      33.323  24.013  23.484  1.00  0.00     0.125 C 
ATOM     16  C   UNL A   1      32.851  23.356  24.782  1.00  0.00     0.046 C 
ATOM     17  O   UNL A   1      34.747  24.220  23.701  1.00  0.00    -0.367 OA
ATOM     18  C   UNL A   1      33.180  23.072  22.289  1.00  0.00     0.051 C 
ATOM     19  C   UNL A   1      33.713  23.997  25.848  1.00  0.00     0.032 C 
ATOM     20  C   UNL A   1      34.972  24.407  25.107  1.00  0.00     0.161 C 
ENDBRANCH  11  15
ENDBRANCH   4   7
ENDBRANCH   2   3
ENDBRANCH   1   2
BRANCH   1  21
ATOM     21  C   UNL A   1      32.369  32.025  27.042  1.00  0.00     0.118 C 
BRANCH  21  22
ATOM     22  N   UNL A   1      32.261  33.445  27.334  1.00  0.00    -0.352 N 
ATOM     23  C   UNL A   1      33.011  34.215  28.181  1.00  0.00     0.251 C 
ATOM     24  H   UNL A   1      31.544  33.920  26.854  1.00  0.00     0.163 HD
ATOM     25  O   UNL A   1      32.602  35.332  28.510  1.00  0.00    -0.269 OA
BRANCH  23  26
ATOM     26  C   UNL A   1      34.299  33.720  28.706  1.00  0.00     0.039 A 
ATOM     27  C   UNL A   1      34.303  32.917  29.852  1.00  0.00     0.014 A 
ATOM     28  C   UNL A   1      35.506  34.070  28.093  1.00  0.00     0.014 A 
ATOM     29  C   UNL A   1      35.511  32.430  30.352  1.00  0.00     0.010 A 
ATOM     30  C   UNL A   1      36.697  33.509  28.536  1.00  0.00     0.010 A 
ATOM     31  C   UNL A   1      36.714  32.700  29.681  1.00  0.00    -0.014 A 
BRANCH  31  32
ATOM     32  C   UNL A   1      38.010  32.171  30.171  1.00  0.00     0.031 A 
ATOM     33  C   UNL A   1      38.545  30.878  29.620  1.00  0.00     0.074 A 
ATOM     34  C   UNL A   1      38.661  32.814  31.159  1.00  0.00     0.049 A 
ATOM     35  N   UNL A   1      39.600  30.196  29.986  1.00  0.00    -0.248 NA
ATOM     36  C   UNL A   1      37.772  30.248  28.538  1.00  0.00     0.031 C 
ATOM     37  C   UNL A   1      38.213  34.049  31.804  1.00  0.00     0.029 A 
ATOM     38  N   UNL A   1      39.832  32.509  31.804  1.00  0.00    -0.354 N 
ATOM     39  C   UNL A   1      39.602  29.052  29.197  1.00  0.00     0.074 A 
ATOM     40  C   UNL A   1      38.414  29.102  28.374  1.00  0.00     0.031 C 
ATOM     41  C   UNL A   1      39.107  34.408  32.739  1.00  0.00     0.029 A 
ATOM     42  C   UNL A   1      40.169  33.408  32.787  1.00  0.00     0.049 A 
ATOM     43  H   UNL A   1      40.379  31.720  31.584  1.00  0.00     0.167 HD
ATOM     44  C   UNL A   1      40.523  28.062  29.147  1.00  0.00     0.037 A 
ATOM     45  C   UNL A   1      41.211  33.415  33.639  1.00  0.00     0.037 A 
ATOM     46  C   UNL A   1      41.719  28.038  29.947  1.00  0.00     0.049 A 
ATOM     47  C   UNL A   1      42.224  32.306  33.560  1.00  0.00     0.074 A 
ATOM     48  C   UNL A   1      42.751  27.118  29.927  1.00  0.00     0.029 A 
ATOM     49  N   UNL A   1      42.040  28.983  30.911  1.00  0.00    -0.354 N 
ATOM     50  N   UNL A   1      42.248  31.265  32.763  1.00  0.00    -0.248 NA
ATOM     51  C   UNL A   1      43.356  32.376  34.494  1.00  0.00     0.031 C 
ATOM     52  C   UNL A   1      43.676  27.481  30.912  1.00  0.00     0.029 A 
ATOM     53  C   UNL A   1      43.245  28.656  31.508  1.00  0.00     0.049 A 
ATOM     54  H   UNL A   1      41.492  29.769  31.137  1.00  0.00     0.167 HD
ATOM     55  C   UNL A   1      43.409  30.571  33.079  1.00  0.00     0.074 A 
ATOM     56  C   UNL A   1      44.067  31.318  34.131  1.00  0.00     0.031 C 
ATOM     57  C   UNL A   1      43.887  29.420  32.547  1.00  0.00     0.037 A 
BRANCH  44  58
ATOM     58  C   UNL A   1      40.275  26.929  28.193  1.00  0.00     0.057 A 
ATOM     59  C   UNL A   1      40.833  26.907  26.908  1.00  0.00     0.134 A 
ATOM     60  C   UNL A   1      39.495  25.831  28.574  1.00  0.00     0.134 A 
ATOM     61  F   UNL A   1      41.582  27.933  26.474  1.00  0.00    -0.206 F 
ATOM     62  C   UNL A   1      40.601  25.850  26.026  1.00  0.00     0.040 A 
ATOM     63  C   UNL A   1      39.278  24.753  27.713  1.00  0.00     0.040 A 
ATOM     64  F   UNL A   1      38.934  25.782  29.792  1.00  0.00    -0.206 F 
ATOM     65  C   UNL A   1      39.827  24.765  26.432  1.00  0.00     0.006 A 
ENDBRANCH  44  58
BRANCH  45  66
ATOM     66  C   UNL A   1      41.360  34.517  34.622  1.00  0.00     0.057 A 
ATOM     67  C   UNL A   1      42.041  35.693  34.292  1.00  0.00     0.134 A 
ATOM     68  C   UNL A   1      40.824  34.425  35.913  1.00  0.00     0.134 A 
ATOM     69  F   UNL A   1      42.589  35.835  33.075  1.00  0.00    -0.206 F 
ATOM     70  C   UNL A   1      42.204  36.729  35.212  1.00  0.00     0.040 A 
ATOM     71  C   UNL A   1      40.956  35.464  36.836  1.00  0.00     0.040 A 
ATOM     72  F   UNL A   1      40.149  33.329  36.290  1.00  0.00    -0.206 F 
ATOM     73  C   UNL A   1      41.654  36.618  36.488  1.00  0.00     0.006 A 
ENDBRANCH  45  66
BRANCH  57  74
ATOM     74  C   UNL A   1      45.202  28.917  33.066  1.00  0.00     0.057 A 
ATOM     75  C   UNL A   1      46.422  29.332  32.519  1.00  0.00     0.134 A 
ATOM     76  C   UNL A   1      45.245  28.045  34.162  1.00  0.00     0.134 A 
ATOM     77  F   UNL A   1      46.447  30.156  31.460  1.00  0.00    -0.206 F 
ATOM     78  C   UNL A   1      47.640  28.884  33.032  1.00  0.00     0.040 A 
ATOM     79  C   UNL A   1      46.457  27.612  34.701  1.00  0.00     0.040 A 
ATOM     80  F   UNL A   1      44.111  27.618  34.738  1.00  0.00    -0.206 F 
ATOM     81  C   UNL A   1      47.659  28.028  34.132  1.00  0.00     0.006 A 
ENDBRANCH  57  74
ENDBRANCH  31  32
ENDBRANCH  23  26
ENDBRANCH  21  22
ENDBRANCH   1  21
TORSDOF 11
ENDMDL
