MODEL 1
REMARK VINA RESULT:     -10.4      0.000      0.000
REMARK SMILES O=C(N[C@@H]1C=C[C@@H](C(=O)NCCCNC(=O)c2ccc(-c3c4nc(c(-c5c(F)cccc5F)c5ccc([nH]5)c(-c5c(F)cccc5F)c5nc(c(-c6c(F)cccc6F)c6ccc3[nH]6)C=C5)C=C4)cc2)C1)Oc1ccccc1
REMARK SMILES IDX 11 1 10 2 8 3 9 4 7 6 4 7 5 8 71 9 6 10 3 11 1 12 2 13 72 15
REMARK SMILES IDX 73 16 74 17 78 18 75 19 77 20 76 21 12 22 13 23 14 24 15 25
REMARK SMILES IDX 16 27 17 28 18 29 70 30 19 31 69 32 20 33 21 34 22 35 63 36
REMARK SMILES IDX 23 37 68 38 62 39 64 40 24 41 67 42 61 43 60 44 25 46 51 47
REMARK SMILES IDX 34 48 50 49 35 50 38 51 49 52 65 53 36 54 37 55 48 57 66 58
REMARK SMILES IDX 39 59 26 60 27 61 32 62 28 63 29 64 31 65 33 66 30 67 52 68
REMARK SMILES IDX 53 69 58 70 54 71 55 72 57 73 59 74 56 75 40 76 41 77 46 78
REMARK SMILES IDX 42 79 43 80 45 81 47 82 44 83
REMARK H PARENT 10 5 3 14 14 26 64 45 38 56
REMARK Flexibility Score: inf
ROOT
ATOM      1  C   UNL A   1      34.311  35.206  28.640  1.00  0.00     0.117 C 
ENDROOT
BRANCH   1   2
ATOM      2  N   UNL A   1      33.397  35.445  29.741  1.00  0.00    -0.356 N 
ATOM      3  C   UNL A   1      33.490  35.211  31.076  1.00  0.00     0.227 C 
ATOM      4  O   UNL A   1      32.526  35.569  31.762  1.00  0.00    -0.274 OA
ATOM      5  H   UNL A   1      32.546  35.857  29.469  1.00  0.00     0.163 HD
BRANCH   3   6
ATOM      6  C   UNL A   1      34.685  34.525  31.749  1.00  0.00     0.103 C 
ATOM      7  C   UNL A   1      35.329  34.436  34.121  1.00  0.00     0.109 C 
ATOM      8  C   UNL A   1      34.790  33.130  33.633  1.00  0.00    -0.006 C 
ATOM      9  C   UNL A   1      35.346  35.330  32.875  1.00  0.00     0.047 C 
ATOM     10  C   UNL A   1      34.404  33.186  32.354  1.00  0.00    -0.016 C 
BRANCH   7  11
ATOM     11  N   UNL A   1      36.635  34.196  34.683  1.00  0.00    -0.315 N 
ATOM     12  O   UNL A   1      38.661  33.305  34.996  1.00  0.00    -0.224 OA
ATOM     13  C   UNL A   1      37.701  33.467  34.241  1.00  0.00     0.413 C 
ATOM     14  H   UNL A   1      36.786  34.643  35.547  1.00  0.00     0.167 HD
BRANCH  13  15
ATOM     15  O   UNL A   1      37.693  32.856  32.977  1.00  0.00    -0.410 OA
BRANCH  15  16
ATOM     16  C   UNL A   1      38.005  33.348  31.687  1.00  0.00     0.132 A 
ATOM     17  C   UNL A   1      37.524  32.617  30.604  1.00  0.00     0.047 A 
ATOM     18  C   UNL A   1      38.817  34.465  31.514  1.00  0.00     0.047 A 
ATOM     19  C   UNL A   1      37.809  33.053  29.312  1.00  0.00     0.004 A 
ATOM     20  C   UNL A   1      39.077  34.912  30.218  1.00  0.00     0.004 A 
ATOM     21  C   UNL A   1      38.575  34.206  29.120  1.00  0.00     0.000 A 
ENDBRANCH  15  16
ENDBRANCH  13  15
ENDBRANCH   7  11
ENDBRANCH   3   6
ENDBRANCH   1   2
BRANCH   1  22
ATOM     22  C   UNL A   1      34.037  33.880  27.941  1.00  0.00     0.042 C 
BRANCH  22  23
ATOM     23  C   UNL A   1      34.731  32.674  28.568  1.00  0.00     0.118 C 
BRANCH  23  24
ATOM     24  N   UNL A   1      34.033  31.427  28.281  1.00  0.00    -0.352 N 
ATOM     25  C   UNL A   1      34.514  30.170  28.005  1.00  0.00     0.251 C 
ATOM     26  H   UNL A   1      33.052  31.498  28.285  1.00  0.00     0.163 HD
ATOM     27  O   UNL A   1      33.742  29.323  27.559  1.00  0.00    -0.269 OA
BRANCH  25  28
ATOM     28  C   UNL A   1      35.938  29.807  28.222  1.00  0.00     0.039 A 
ATOM     29  C   UNL A   1      36.317  29.281  29.465  1.00  0.00     0.014 A 
ATOM     30  C   UNL A   1      36.917  30.052  27.259  1.00  0.00     0.014 A 
ATOM     31  C   UNL A   1      37.655  28.951  29.714  1.00  0.00     0.010 A 
ATOM     32  C   UNL A   1      38.236  29.648  27.478  1.00  0.00     0.010 A 
ATOM     33  C   UNL A   1      38.623  29.102  28.712  1.00  0.00    -0.014 A 
BRANCH  33  34
ATOM     34  C   UNL A   1      40.047  28.724  28.928  1.00  0.00     0.031 A 
ATOM     35  C   UNL A   1      41.019  29.724  29.498  1.00  0.00     0.074 A 
ATOM     36  C   UNL A   1      40.490  27.513  28.538  1.00  0.00     0.049 A 
ATOM     37  N   UNL A   1      42.318  29.632  29.642  1.00  0.00    -0.248 NA
ATOM     38  C   UNL A   1      40.457  31.010  29.939  1.00  0.00     0.031 C 
ATOM     39  C   UNL A   1      39.664  26.452  27.961  1.00  0.00     0.029 A 
ATOM     40  N   UNL A   1      41.755  26.976  28.557  1.00  0.00    -0.354 N 
ATOM     41  C   UNL A   1      42.729  30.853  30.162  1.00  0.00     0.074 A 
ATOM     42  C   UNL A   1      41.549  31.686  30.264  1.00  0.00     0.031 C 
ATOM     43  C   UNL A   1      40.436  25.386  27.702  1.00  0.00     0.029 A 
ATOM     44  C   UNL A   1      41.820  25.703  28.043  1.00  0.00     0.049 A 
ATOM     45  H   UNL A   1      42.540  27.457  28.905  1.00  0.00     0.167 HD
ATOM     46  C   UNL A   1      43.972  31.244  30.534  1.00  0.00     0.037 A 
ATOM     47  C   UNL A   1      42.877  24.887  27.854  1.00  0.00     0.037 A 
ATOM     48  C   UNL A   1      45.143  30.408  30.455  1.00  0.00     0.049 A 
ATOM     49  C   UNL A   1      44.254  25.359  28.230  1.00  0.00     0.074 A 
ATOM     50  C   UNL A   1      46.434  30.690  30.866  1.00  0.00     0.029 A 
ATOM     51  N   UNL A   1      45.166  29.128  29.920  1.00  0.00    -0.354 N 
ATOM     52  N   UNL A   1      44.621  26.496  28.772  1.00  0.00    -0.248 NA
ATOM     53  C   UNL A   1      45.367  24.435  27.966  1.00  0.00     0.031 C 
ATOM     54  C   UNL A   1      47.250  29.607  30.525  1.00  0.00     0.029 A 
ATOM     55  C   UNL A   1      46.455  28.623  29.959  1.00  0.00     0.049 A 
ATOM     56  H   UNL A   1      44.382  28.650  29.564  1.00  0.00     0.167 HD
ATOM     57  C   UNL A   1      45.997  26.406  28.952  1.00  0.00     0.074 A 
ATOM     58  C   UNL A   1      46.399  25.105  28.461  1.00  0.00     0.031 C 
ATOM     59  C   UNL A   1      46.845  27.318  29.484  1.00  0.00     0.037 A 
BRANCH  46  60
ATOM     60  C   UNL A   1      44.134  32.649  31.043  1.00  0.00     0.057 A 
ATOM     61  C   UNL A   1      44.376  33.731  30.185  1.00  0.00     0.134 A 
ATOM     62  C   UNL A   1      44.032  32.927  32.413  1.00  0.00     0.134 A 
ATOM     63  F   UNL A   1      44.493  33.537  28.863  1.00  0.00    -0.206 F 
ATOM     64  C   UNL A   1      44.551  35.028  30.673  1.00  0.00     0.040 A 
ATOM     65  C   UNL A   1      44.171  34.225  32.910  1.00  0.00     0.040 A 
ATOM     66  F   UNL A   1      43.789  31.943  33.292  1.00  0.00    -0.206 F 
ATOM     67  C   UNL A   1      44.445  35.277  32.040  1.00  0.00     0.006 A 
ENDBRANCH  46  60
BRANCH  47  68
ATOM     68  C   UNL A   1      42.671  23.524  27.302  1.00  0.00     0.057 A 
ATOM     69  C   UNL A   1      42.759  23.290  25.924  1.00  0.00     0.134 A 
ATOM     70  C   UNL A   1      42.380  22.429  28.124  1.00  0.00     0.134 A 
ATOM     71  F   UNL A   1      43.016  24.304  25.084  1.00  0.00    -0.206 F 
ATOM     72  C   UNL A   1      42.553  22.021  25.382  1.00  0.00     0.040 A 
ATOM     73  C   UNL A   1      42.197  21.149  27.598  1.00  0.00     0.040 A 
ATOM     74  F   UNL A   1      42.286  22.586  29.453  1.00  0.00    -0.206 F 
ATOM     75  C   UNL A   1      42.277  20.944  26.221  1.00  0.00     0.006 A 
ENDBRANCH  47  68
BRANCH  59  76
ATOM     76  C   UNL A   1      48.290  26.930  29.622  1.00  0.00     0.057 A 
ATOM     77  C   UNL A   1      49.250  27.277  28.665  1.00  0.00     0.134 A 
ATOM     78  C   UNL A   1      48.734  26.251  30.765  1.00  0.00     0.134 A 
ATOM     79  F   UNL A   1      48.891  27.915  27.540  1.00  0.00    -0.206 F 
ATOM     80  C   UNL A   1      50.598  26.952  28.832  1.00  0.00     0.040 A 
ATOM     81  C   UNL A   1      50.082  25.945  30.958  1.00  0.00     0.040 A 
ATOM     82  F   UNL A   1      47.867  25.895  31.726  1.00  0.00    -0.206 F 
ATOM     83  C   UNL A   1      51.018  26.293  29.987  1.00  0.00     0.006 A 
ENDBRANCH  59  76
ENDBRANCH  33  34
ENDBRANCH  25  28
ENDBRANCH  23  24
ENDBRANCH  22  23
ENDBRANCH   1  22
TORSDOF 13
ENDMDL
MODEL 2
REMARK VINA RESULT:     -10.3      4.813     10.462
REMARK SMILES O=C(N[C@@H]1C=C[C@@H](C(=O)NCCCNC(=O)c2ccc(-c3c4nc(c(-c5c(F)cccc5F)c5ccc([nH]5)c(-c5c(F)cccc5F)c5nc(c(-c6c(F)cccc6F)c6ccc3[nH]6)C=C5)C=C4)cc2)C1)Oc1ccccc1
REMARK SMILES IDX 11 1 10 2 8 3 9 4 7 6 4 7 5 8 71 9 6 10 3 11 1 12 2 13 72 15
REMARK SMILES IDX 73 16 74 17 78 18 75 19 77 20 76 21 12 22 13 23 14 24 15 25
REMARK SMILES IDX 16 27 17 28 18 29 70 30 19 31 69 32 20 33 21 34 22 35 63 36
REMARK SMILES IDX 23 37 68 38 62 39 64 40 24 41 67 42 61 43 60 44 25 46 51 47
REMARK SMILES IDX 34 48 50 49 35 50 38 51 49 52 65 53 36 54 37 55 48 57 66 58
REMARK SMILES IDX 39 59 26 60 27 61 32 62 28 63 29 64 31 65 33 66 30 67 52 68
REMARK SMILES IDX 53 69 58 70 54 71 55 72 57 73 59 74 56 75 40 76 41 77 46 78
REMARK SMILES IDX 42 79 43 80 45 81 47 82 44 83
REMARK H PARENT 10 5 3 14 14 26 64 45 38 56
REMARK Flexibility Score: inf
ROOT
ATOM      1  C   UNL A   1      37.751  22.237  25.687  1.00  0.00     0.117 C 
ENDROOT
BRANCH   1   2
ATOM      2  N   UNL A   1      37.499  22.514  24.285  1.00  0.00    -0.356 N 
ATOM      3  C   UNL A   1      36.380  22.885  23.611  1.00  0.00     0.227 C 
ATOM      4  O   UNL A   1      36.511  23.076  22.397  1.00  0.00    -0.274 OA
ATOM      5  H   UNL A   1      38.293  22.415  23.712  1.00  0.00     0.163 HD
BRANCH   3   6
ATOM      6  C   UNL A   1      35.000  23.050  24.259  1.00  0.00     0.103 C 
ATOM      7  C   UNL A   1      33.597  25.056  24.505  1.00  0.00     0.109 C 
ATOM      8  C   UNL A   1      33.058  24.112  23.480  1.00  0.00    -0.006 C 
ATOM      9  C   UNL A   1      34.820  24.333  25.083  1.00  0.00     0.047 C 
ATOM     10  C   UNL A   1      33.838  23.039  23.317  1.00  0.00    -0.016 C 
BRANCH   7  11
ATOM     11  N   UNL A   1      32.557  25.305  25.471  1.00  0.00    -0.315 N 
ATOM     12  O   UNL A   1      31.279  26.377  26.959  1.00  0.00    -0.224 OA
ATOM     13  C   UNL A   1      32.089  26.457  26.034  1.00  0.00     0.413 C 
ATOM     14  H   UNL A   1      32.099  24.492  25.784  1.00  0.00     0.167 HD
BRANCH  13  15
ATOM     15  O   UNL A   1      32.558  27.714  25.621  1.00  0.00    -0.410 OA
BRANCH  15  16
ATOM     16  C   UNL A   1      33.196  28.763  26.325  1.00  0.00     0.132 A 
ATOM     17  C   UNL A   1      32.453  29.922  26.535  1.00  0.00     0.047 A 
ATOM     18  C   UNL A   1      34.527  28.665  26.721  1.00  0.00     0.047 A 
ATOM     19  C   UNL A   1      33.037  30.987  27.216  1.00  0.00     0.004 A 
ATOM     20  C   UNL A   1      35.097  29.726  27.426  1.00  0.00     0.004 A 
ATOM     21  C   UNL A   1      34.353  30.885  27.671  1.00  0.00     0.000 A 
ENDBRANCH  15  16
ENDBRANCH  13  15
ENDBRANCH   7  11
ENDBRANCH   3   6
ENDBRANCH   1   2
BRANCH   1  22
ATOM     22  C   UNL A   1      38.281  23.457  26.430  1.00  0.00     0.042 C 
BRANCH  22  23
ATOM     23  C   UNL A   1      39.709  23.315  26.950  1.00  0.00     0.118 C 
BRANCH  23  24
ATOM     24  N   UNL A   1      40.680  23.964  26.078  1.00  0.00    -0.352 N 
ATOM     25  C   UNL A   1      41.179  25.244  26.083  1.00  0.00     0.251 C 
ATOM     26  H   UNL A   1      41.038  23.388  25.366  1.00  0.00     0.163 HD
ATOM     27  O   UNL A   1      41.810  25.639  25.104  1.00  0.00    -0.269 OA
BRANCH  25  28
ATOM     28  C   UNL A   1      40.971  26.165  27.229  1.00  0.00     0.039 A 
ATOM     29  C   UNL A   1      39.974  25.860  28.166  1.00  0.00     0.014 A 
ATOM     30  C   UNL A   1      41.679  27.361  27.354  1.00  0.00     0.014 A 
ATOM     31  C   UNL A   1      39.732  26.717  29.246  1.00  0.00     0.010 A 
ATOM     32  C   UNL A   1      41.494  28.174  28.475  1.00  0.00     0.010 A 
ATOM     33  C   UNL A   1      40.511  27.868  29.428  1.00  0.00    -0.014 A 
BRANCH  33  34
ATOM     34  C   UNL A   1      40.310  28.781  30.587  1.00  0.00     0.031 A 
ATOM     35  C   UNL A   1      39.251  29.852  30.533  1.00  0.00     0.074 A 
ATOM     36  C   UNL A   1      41.127  28.707  31.655  1.00  0.00     0.049 A 
ATOM     37  N   UNL A   1      39.005  30.821  31.381  1.00  0.00    -0.248 NA
ATOM     38  C   UNL A   1      38.369  29.847  29.356  1.00  0.00     0.031 C 
ATOM     39  C   UNL A   1      42.201  27.730  31.836  1.00  0.00     0.029 A 
ATOM     40  N   UNL A   1      41.190  29.482  32.788  1.00  0.00    -0.354 N 
ATOM     41  C   UNL A   1      37.963  31.554  30.825  1.00  0.00     0.074 A 
ATOM     42  C   UNL A   1      37.655  30.946  29.548  1.00  0.00     0.031 C 
ATOM     43  C   UNL A   1      42.799  27.948  33.017  1.00  0.00     0.029 A 
ATOM     44  C   UNL A   1      42.191  29.112  33.655  1.00  0.00     0.049 A 
ATOM     45  H   UNL A   1      40.576  30.231  32.964  1.00  0.00     0.167 HD
ATOM     46  C   UNL A   1      37.312  32.627  31.335  1.00  0.00     0.037 A 
ATOM     47  C   UNL A   1      42.584  29.656  34.823  1.00  0.00     0.037 A 
ATOM     48  C   UNL A   1      37.602  33.218  32.617  1.00  0.00     0.049 A 
ATOM     49  C   UNL A   1      41.878  30.876  35.348  1.00  0.00     0.074 A 
ATOM     50  C   UNL A   1      36.957  34.267  33.249  1.00  0.00     0.029 A 
ATOM     51  N   UNL A   1      38.630  32.818  33.457  1.00  0.00    -0.354 N 
ATOM     52  N   UNL A   1      40.858  31.526  34.839  1.00  0.00    -0.248 NA
ATOM     53  C   UNL A   1      42.379  31.441  36.609  1.00  0.00     0.031 C 
ATOM     54  C   UNL A   1      37.631  34.540  34.443  1.00  0.00     0.029 A 
ATOM     55  C   UNL A   1      38.657  33.621  34.586  1.00  0.00     0.049 A 
ATOM     56  H   UNL A   1      39.249  32.074  33.278  1.00  0.00     0.167 HD
ATOM     57  C   UNL A   1      40.570  32.547  35.738  1.00  0.00     0.074 A 
ATOM     58  C   UNL A   1      41.523  32.431  36.822  1.00  0.00     0.031 C 
ATOM     59  C   UNL A   1      39.598  33.488  35.671  1.00  0.00     0.037 A 
BRANCH  46  60
ATOM     60  C   UNL A   1      36.230  33.246  30.494  1.00  0.00     0.057 A 
ATOM     61  C   UNL A   1      34.869  33.061  30.774  1.00  0.00     0.134 A 
ATOM     62  C   UNL A   1      36.556  34.053  29.396  1.00  0.00     0.134 A 
ATOM     63  F   UNL A   1      34.485  32.296  31.807  1.00  0.00    -0.206 F 
ATOM     64  C   UNL A   1      33.874  33.620  29.969  1.00  0.00     0.040 A 
ATOM     65  C   UNL A   1      35.570  34.645  28.603  1.00  0.00     0.040 A 
ATOM     66  F   UNL A   1      37.838  34.285  29.076  1.00  0.00    -0.206 F 
ATOM     67  C   UNL A   1      34.224  34.419  28.882  1.00  0.00     0.006 A 
ENDBRANCH  46  60
BRANCH  47  68
ATOM     68  C   UNL A   1      43.691  29.036  35.594  1.00  0.00     0.057 A 
ATOM     69  C   UNL A   1      45.014  29.461  35.414  1.00  0.00     0.134 A 
ATOM     70  C   UNL A   1      43.464  28.010  36.519  1.00  0.00     0.134 A 
ATOM     71  F   UNL A   1      45.296  30.426  34.527  1.00  0.00    -0.206 F 
ATOM     72  C   UNL A   1      46.070  28.880  36.116  1.00  0.00     0.040 A 
ATOM     73  C   UNL A   1      44.509  27.438  37.247  1.00  0.00     0.040 A 
ATOM     74  F   UNL A   1      42.220  27.561  36.741  1.00  0.00    -0.206 F 
ATOM     75  C   UNL A   1      45.819  27.869  37.040  1.00  0.00     0.006 A 
ENDBRANCH  47  68
BRANCH  59  76
ATOM     76  C   UNL A   1      39.468  34.439  36.826  1.00  0.00     0.057 A 
ATOM     77  C   UNL A   1      38.811  34.088  38.011  1.00  0.00     0.134 A 
ATOM     78  C   UNL A   1      40.066  35.705  36.771  1.00  0.00     0.134 A 
ATOM     79  F   UNL A   1      38.205  32.896  38.126  1.00  0.00    -0.206 F 
ATOM     80  C   UNL A   1      38.742  34.966  39.095  1.00  0.00     0.040 A 
ATOM     81  C   UNL A   1      40.028  36.582  37.857  1.00  0.00     0.040 A 
ATOM     82  F   UNL A   1      40.717  36.104  35.668  1.00  0.00    -0.206 F 
ATOM     83  C   UNL A   1      39.361  36.213  39.023  1.00  0.00     0.006 A 
ENDBRANCH  59  76
ENDBRANCH  33  34
ENDBRANCH  25  28
ENDBRANCH  23  24
ENDBRANCH  22  23
ENDBRANCH   1  22
TORSDOF 13
ENDMDL
MODEL 3
REMARK VINA RESULT:     -10.3      1.990      6.628
REMARK SMILES O=C(N[C@@H]1C=C[C@@H](C(=O)NCCCNC(=O)c2ccc(-c3c4nc(c(-c5c(F)cccc5F)c5ccc([nH]5)c(-c5c(F)cccc5F)c5nc(c(-c6c(F)cccc6F)c6ccc3[nH]6)C=C5)C=C4)cc2)C1)Oc1ccccc1
REMARK SMILES IDX 11 1 10 2 8 3 9 4 7 6 4 7 5 8 71 9 6 10 3 11 1 12 2 13 72 15
REMARK SMILES IDX 73 16 74 17 78 18 75 19 77 20 76 21 12 22 13 23 14 24 15 25
REMARK SMILES IDX 16 27 17 28 18 29 70 30 19 31 69 32 20 33 21 34 22 35 63 36
REMARK SMILES IDX 23 37 68 38 62 39 64 40 24 41 67 42 61 43 60 44 25 46 51 47
REMARK SMILES IDX 34 48 50 49 35 50 38 51 49 52 65 53 36 54 37 55 48 57 66 58
REMARK SMILES IDX 39 59 26 60 27 61 32 62 28 63 29 64 31 65 33 66 30 67 52 68
REMARK SMILES IDX 53 69 58 70 54 71 55 72 57 73 59 74 56 75 40 76 41 77 46 78
REMARK SMILES IDX 42 79 43 80 45 81 47 82 44 83
REMARK H PARENT 10 5 3 14 14 26 64 45 38 56
REMARK Flexibility Score: inf
ROOT
ATOM      1  C   UNL A   1      33.612  33.431  28.046  1.00  0.00     0.117 C 
ENDROOT
BRANCH   1   2
ATOM      2  N   UNL A   1      33.372  34.858  28.157  1.00  0.00    -0.356 N 
ATOM      3  C   UNL A   1      33.162  35.672  29.224  1.00  0.00     0.227 C 
ATOM      4  O   UNL A   1      33.018  36.874  28.975  1.00  0.00    -0.274 OA
ATOM      5  H   UNL A   1      33.358  35.327  27.292  1.00  0.00     0.163 HD
BRANCH   3   6
ATOM      6  C   UNL A   1      33.076  35.183  30.675  1.00  0.00     0.103 C 
ATOM      7  C   UNL A   1      34.558  35.633  32.587  1.00  0.00     0.109 C 
ATOM      8  C   UNL A   1      33.255  36.356  32.700  1.00  0.00    -0.006 C 
ATOM      9  C   UNL A   1      34.419  34.796  31.309  1.00  0.00     0.047 C 
ATOM     10  C   UNL A   1      32.463  36.144  31.645  1.00  0.00    -0.016 C 
BRANCH   7  11
ATOM     11  N   UNL A   1      34.737  34.848  33.782  1.00  0.00    -0.315 N 
ATOM     12  O   UNL A   1      35.723  33.602  35.354  1.00  0.00    -0.224 OA
ATOM     13  C   UNL A   1      35.855  34.390  34.416  1.00  0.00     0.413 C 
ATOM     14  H   UNL A   1      33.894  34.595  34.224  1.00  0.00     0.167 HD
BRANCH  13  15
ATOM     15  O   UNL A   1      37.140  34.750  33.981  1.00  0.00    -0.410 OA
BRANCH  15  16
ATOM     16  C   UNL A   1      38.023  34.156  33.047  1.00  0.00     0.132 A 
ATOM     17  C   UNL A   1      38.996  33.302  33.559  1.00  0.00     0.047 A 
ATOM     18  C   UNL A   1      37.966  34.472  31.693  1.00  0.00     0.047 A 
ATOM     19  C   UNL A   1      39.895  32.697  32.685  1.00  0.00     0.004 A 
ATOM     20  C   UNL A   1      38.853  33.842  30.819  1.00  0.00     0.004 A 
ATOM     21  C   UNL A   1      39.816  32.957  31.315  1.00  0.00     0.000 A 
ENDBRANCH  15  16
ENDBRANCH  13  15
ENDBRANCH   7  11
ENDBRANCH   3   6
ENDBRANCH   1   2
BRANCH   1  22
ATOM     22  C   UNL A   1      35.094  33.088  28.127  1.00  0.00     0.042 C 
BRANCH  22  23
ATOM     23  C   UNL A   1      35.393  31.641  28.510  1.00  0.00     0.118 C 
BRANCH  23  24
ATOM     24  N   UNL A   1      35.376  31.439  29.953  1.00  0.00    -0.352 N 
ATOM     25  C   UNL A   1      36.242  30.763  30.778  1.00  0.00     0.251 C 
ATOM     26  H   UNL A   1      34.615  31.859  30.415  1.00  0.00     0.163 HD
ATOM     27  O   UNL A   1      35.897  30.523  31.933  1.00  0.00    -0.269 OA
BRANCH  25  28
ATOM     28  C   UNL A   1      37.575  30.305  30.311  1.00  0.00     0.039 A 
ATOM     29  C   UNL A   1      37.916  30.485  28.963  1.00  0.00     0.014 A 
ATOM     30  C   UNL A   1      38.461  29.630  31.152  1.00  0.00     0.014 A 
ATOM     31  C   UNL A   1      39.154  30.044  28.482  1.00  0.00     0.010 A 
ATOM     32  C   UNL A   1      39.727  29.263  30.692  1.00  0.00     0.010 A 
ATOM     33  C   UNL A   1      40.086  29.456  29.349  1.00  0.00    -0.014 A 
BRANCH  33  34
ATOM     34  C   UNL A   1      41.428  29.011  28.881  1.00  0.00     0.031 A 
ATOM     35  C   UNL A   1      41.646  27.584  28.452  1.00  0.00     0.074 A 
ATOM     36  C   UNL A   1      42.471  29.863  28.917  1.00  0.00     0.049 A 
ATOM     37  N   UNL A   1      42.761  26.973  28.135  1.00  0.00    -0.248 NA
ATOM     38  C   UNL A   1      40.455  26.723  28.398  1.00  0.00     0.031 C 
ATOM     39  C   UNL A   1      42.407  31.267  29.322  1.00  0.00     0.029 A 
ATOM     40  N   UNL A   1      43.798  29.663  28.621  1.00  0.00    -0.354 N 
ATOM     41  C   UNL A   1      42.410  25.654  27.873  1.00  0.00     0.074 A 
ATOM     42  C   UNL A   1      40.986  25.543  28.113  1.00  0.00     0.031 C 
ATOM     43  C   UNL A   1      43.631  31.808  29.227  1.00  0.00     0.029 A 
ATOM     44  C   UNL A   1      44.578  30.780  28.807  1.00  0.00     0.049 A 
ATOM     45  H   UNL A   1      44.157  28.803  28.305  1.00  0.00     0.167 HD
ATOM     46  C   UNL A   1      43.195  24.631  27.458  1.00  0.00     0.037 A 
ATOM     47  C   UNL A   1      45.908  30.952  28.670  1.00  0.00     0.037 A 
ATOM     48  C   UNL A   1      44.607  24.746  27.197  1.00  0.00     0.049 A 
ATOM     49  C   UNL A   1      46.767  29.790  28.254  1.00  0.00     0.074 A 
ATOM     50  C   UNL A   1      45.476  23.784  26.713  1.00  0.00     0.029 A 
ATOM     51  N   UNL A   1      45.359  25.893  27.407  1.00  0.00    -0.354 N 
ATOM     52  N   UNL A   1      46.413  28.563  27.956  1.00  0.00    -0.248 NA
ATOM     53  C   UNL A   1      48.213  30.036  28.158  1.00  0.00     0.031 C 
ATOM     54  C   UNL A   1      46.763  24.328  26.688  1.00  0.00     0.029 A 
ATOM     55  C   UNL A   1      46.687  25.651  27.096  1.00  0.00     0.049 A 
ATOM     56  H   UNL A   1      45.002  26.751  27.731  1.00  0.00     0.167 HD
ATOM     57  C   UNL A   1      47.584  27.905  27.597  1.00  0.00     0.074 A 
ATOM     58  C   UNL A   1      48.659  28.868  27.716  1.00  0.00     0.031 C 
ATOM     59  C   UNL A   1      47.749  26.621  27.199  1.00  0.00     0.037 A 
BRANCH  46  60
ATOM     60  C   UNL A   1      42.545  23.286  27.280  1.00  0.00     0.057 A 
ATOM     61  C   UNL A   1      42.240  22.767  26.014  1.00  0.00     0.134 A 
ATOM     62  C   UNL A   1      42.235  22.492  28.392  1.00  0.00     0.134 A 
ATOM     63  F   UNL A   1      42.504  23.476  24.907  1.00  0.00    -0.206 F 
ATOM     64  C   UNL A   1      41.612  21.529  25.864  1.00  0.00     0.040 A 
ATOM     65  C   UNL A   1      41.638  21.237  28.253  1.00  0.00     0.040 A 
ATOM     66  F   UNL A   1      42.511  22.920  29.634  1.00  0.00    -0.206 F 
ATOM     67  C   UNL A   1      41.313  20.758  26.986  1.00  0.00     0.006 A 
ENDBRANCH  46  60
BRANCH  47  68
ATOM     68  C   UNL A   1      46.509  32.289  28.905  1.00  0.00     0.057 A 
ATOM     69  C   UNL A   1      46.939  32.665  30.184  1.00  0.00     0.134 A 
ATOM     70  C   UNL A   1      46.667  33.221  27.872  1.00  0.00     0.134 A 
ATOM     71  F   UNL A   1      46.795  31.823  31.218  1.00  0.00    -0.206 F 
ATOM     72  C   UNL A   1      47.491  33.922  30.430  1.00  0.00     0.040 A 
ATOM     73  C   UNL A   1      47.243  34.473  28.099  1.00  0.00     0.040 A 
ATOM     74  F   UNL A   1      46.280  32.920  26.624  1.00  0.00    -0.206 F 
ATOM     75  C   UNL A   1      47.650  34.829  29.384  1.00  0.00     0.006 A 
ENDBRANCH  47  68
BRANCH  59  76
ATOM     76  C   UNL A   1      49.130  26.186  26.801  1.00  0.00     0.057 A 
ATOM     77  C   UNL A   1      49.636  26.395  25.512  1.00  0.00     0.134 A 
ATOM     78  C   UNL A   1      49.988  25.604  27.744  1.00  0.00     0.134 A 
ATOM     79  F   UNL A   1      48.863  26.935  24.557  1.00  0.00    -0.206 F 
ATOM     80  C   UNL A   1      50.940  26.030  25.172  1.00  0.00     0.040 A 
ATOM     81  C   UNL A   1      51.303  25.260  27.425  1.00  0.00     0.040 A 
ATOM     82  F   UNL A   1      49.570  25.381  28.999  1.00  0.00    -0.206 F 
ATOM     83  C   UNL A   1      51.781  25.470  26.134  1.00  0.00     0.006 A 
ENDBRANCH  59  76
ENDBRANCH  33  34
ENDBRANCH  25  28
ENDBRANCH  23  24
ENDBRANCH  22  23
ENDBRANCH   1  22
TORSDOF 13
ENDMDL
