MODEL 1
REMARK VINA RESULT:     -12.4      0.000      0.000
REMARK SMILES CC1=NN(c2ccc(Cl)c(C(=O)NCCCNC(=O)c3ccc(-c4c5nc(c(-c6c(F)cccc6F)c6ccc([nH]6)c(-c6c(F)cccc6F)c6nc(c(-c7c(F)cccc7F)c7ccc4[nH]7)C=C6)C=C5)cc3)c2)C(=O)/C1=C\c1ccccc1Cl
REMARK SMILES IDX 15 1 14 2 13 3 11 4 12 5 10 7 5 8 6 9 74 10 7 11 8 12 9 13
REMARK SMILES IDX 4 14 1 15 2 16 3 17 77 18 75 19 78 20 76 21 79 22 80 23
REMARK SMILES IDX 84 24 81 25 83 26 85 27 82 28 16 29 17 30 18 31 19 33 20 34
REMARK SMILES IDX 21 35 73 36 22 37 72 38 23 39 24 40 25 41 66 42 26 43 71 44
REMARK SMILES IDX 65 45 67 46 27 47 70 48 64 49 63 50 28 52 54 53 37 54 53 55
REMARK SMILES IDX 38 56 41 57 52 58 68 59 39 60 40 61 51 63 69 64 42 65 29 66
REMARK SMILES IDX 30 67 35 68 31 69 32 70 34 71 36 72 33 73 55 74 56 75 61 76
REMARK SMILES IDX 57 77 58 78 60 79 62 80 59 81 43 82 44 83 49 84 45 85 46 86
REMARK SMILES IDX 48 87 50 88 47 89
REMARK H PARENT 13 6 17 32 67 51 41 62
REMARK Flexibility Score: inf
ROOT
ATOM      1  C   UNL A   1      36.643  22.895  24.022  1.00  0.00     0.042 C 
ENDROOT
BRANCH   1   2
ATOM      2  C   UNL A   1      35.163  23.213  23.895  1.00  0.00     0.118 C 
BRANCH   2   3
ATOM      3  N   UNL A   1      34.323  22.092  23.501  1.00  0.00    -0.352 N 
ATOM      4  C   UNL A   1      33.009  21.789  23.783  1.00  0.00     0.252 C 
ATOM      5  O   UNL A   1      32.536  20.776  23.265  1.00  0.00    -0.269 OA
ATOM      6  H   UNL A   1      34.777  21.430  22.931  1.00  0.00     0.163 HD
BRANCH   4   7
ATOM      7  C   UNL A   1      32.166  22.568  24.730  1.00  0.00     0.060 A 
ATOM      8  C   UNL A   1      30.779  24.549  25.052  1.00  0.00     0.070 A 
ATOM      9  C   UNL A   1      30.522  24.135  26.363  1.00  0.00     0.030 A 
ATOM     10  C   UNL A   1      31.501  23.704  24.201  1.00  0.00     0.044 A 
ATOM     11  C   UNL A   1      31.181  23.039  26.896  1.00  0.00     0.023 A 
ATOM     12  C   UNL A   1      32.101  22.343  26.114  1.00  0.00     0.053 A 
ATOM     13  Cl  UNL A   1      33.272  21.432  27.010  1.00  0.00    -0.083 Cl
BRANCH   8  14
ATOM     14  N   UNL A   1      30.519  25.895  24.728  1.00  0.00    -0.196 N 
ATOM     15  C   UNL A   1      28.922  28.442  22.750  1.00  0.00     0.069 C 
ATOM     16  C   UNL A   1      29.752  27.581  23.642  1.00  0.00     0.071 C 
ATOM     17  N   UNL A   1      29.705  26.268  23.669  1.00  0.00    -0.169 NA
ATOM     18  C   UNL A   1      30.718  28.132  24.612  1.00  0.00     0.065 C 
ATOM     19  C   UNL A   1      31.148  26.958  25.394  1.00  0.00     0.280 C 
ATOM     20  C   UNL A   1      31.207  29.378  24.697  1.00  0.00     0.025 C 
ATOM     21  O   UNL A   1      31.895  26.954  26.358  1.00  0.00    -0.267 OA
BRANCH  20  22
ATOM     22  C   UNL A   1      32.362  29.703  25.558  1.00  0.00    -0.006 A 
ATOM     23  C   UNL A   1      32.152  30.447  26.726  1.00  0.00     0.009 A 
ATOM     24  C   UNL A   1      33.655  29.206  25.296  1.00  0.00     0.048 A 
ATOM     25  C   UNL A   1      33.202  30.666  27.626  1.00  0.00     0.001 A 
ATOM     26  C   UNL A   1      34.699  29.419  26.202  1.00  0.00     0.021 A 
ATOM     27  Cl  UNL A   1      34.011  28.302  23.862  1.00  0.00    -0.084 Cl
ATOM     28  C   UNL A   1      34.469  30.144  27.370  1.00  0.00     0.002 A 
ENDBRANCH  20  22
ENDBRANCH   8  14
ENDBRANCH   4   7
ENDBRANCH   2   3
ENDBRANCH   1   2
BRANCH   1  29
ATOM     29  C   UNL A   1      37.235  23.102  25.409  1.00  0.00     0.118 C 
BRANCH  29  30
ATOM     30  N   UNL A   1      38.545  22.486  25.593  1.00  0.00    -0.352 N 
ATOM     31  C   UNL A   1      39.713  22.954  26.150  1.00  0.00     0.251 C 
ATOM     32  H   UNL A   1      38.605  21.563  25.255  1.00  0.00     0.163 HD
ATOM     33  O   UNL A   1      40.734  22.274  26.069  1.00  0.00    -0.269 OA
BRANCH  31  34
ATOM     34  C   UNL A   1      39.780  24.280  26.806  1.00  0.00     0.039 A 
ATOM     35  C   UNL A   1      39.177  24.445  28.059  1.00  0.00     0.014 A 
ATOM     36  C   UNL A   1      40.413  25.364  26.203  1.00  0.00     0.014 A 
ATOM     37  C   UNL A   1      39.319  25.651  28.751  1.00  0.00     0.010 A 
ATOM     38  C   UNL A   1      40.645  26.527  26.930  1.00  0.00     0.010 A 
ATOM     39  C   UNL A   1      40.114  26.677  28.220  1.00  0.00    -0.014 A 
BRANCH  39  40
ATOM     40  C   UNL A   1      40.451  27.895  29.004  1.00  0.00     0.031 A 
ATOM     41  C   UNL A   1      41.740  27.978  29.771  1.00  0.00     0.074 A 
ATOM     42  C   UNL A   1      39.538  28.882  29.111  1.00  0.00     0.049 A 
ATOM     43  N   UNL A   1      42.150  28.903  30.602  1.00  0.00    -0.248 NA
ATOM     44  C   UNL A   1      42.678  26.858  29.608  1.00  0.00     0.031 C 
ATOM     45  C   UNL A   1      38.230  28.902  28.454  1.00  0.00     0.029 A 
ATOM     46  N   UNL A   1      39.566  30.052  29.829  1.00  0.00    -0.354 N 
ATOM     47  C   UNL A   1      43.380  28.465  31.077  1.00  0.00     0.074 A 
ATOM     48  C   UNL A   1      43.624  27.168  30.481  1.00  0.00     0.031 C 
ATOM     49  C   UNL A   1      37.594  30.041  28.770  1.00  0.00     0.029 A 
ATOM     50  C   UNL A   1      38.424  30.806  29.695  1.00  0.00     0.049 A 
ATOM     51  H   UNL A   1      40.329  30.326  30.385  1.00  0.00     0.167 HD
ATOM     52  C   UNL A   1      44.235  29.094  31.919  1.00  0.00     0.037 A 
ATOM     53  C   UNL A   1      38.076  31.974  30.264  1.00  0.00     0.037 A 
ATOM     54  C   UNL A   1      43.995  30.392  32.492  1.00  0.00     0.049 A 
ATOM     55  C   UNL A   1      39.022  32.634  31.226  1.00  0.00     0.074 A 
ATOM     56  C   UNL A   1      44.837  31.155  33.281  1.00  0.00     0.029 A 
ATOM     57  N   UNL A   1      42.819  31.114  32.348  1.00  0.00    -0.354 N 
ATOM     58  N   UNL A   1      40.218  32.249  31.602  1.00  0.00    -0.248 NA
ATOM     59  C   UNL A   1      38.567  33.883  31.851  1.00  0.00     0.031 C 
ATOM     60  C   UNL A   1      44.147  32.311  33.666  1.00  0.00     0.029 A 
ATOM     61  C   UNL A   1      42.894  32.293  33.073  1.00  0.00     0.049 A 
ATOM     62  H   UNL A   1      42.045  30.830  31.809  1.00  0.00     0.167 HD
ATOM     63  C   UNL A   1      40.666  33.215  32.492  1.00  0.00     0.074 A 
ATOM     64  C   UNL A   1      39.619  34.213  32.588  1.00  0.00     0.031 C 
ATOM     65  C   UNL A   1      41.839  33.271  33.170  1.00  0.00     0.037 A 
BRANCH  52  66
ATOM     66  C   UNL A   1      45.503  28.372  32.279  1.00  0.00     0.057 A 
ATOM     67  C   UNL A   1      45.587  27.527  33.395  1.00  0.00     0.134 A 
ATOM     68  C   UNL A   1      46.654  28.519  31.496  1.00  0.00     0.134 A 
ATOM     69  F   UNL A   1      44.524  27.348  34.193  1.00  0.00    -0.206 F 
ATOM     70  C   UNL A   1      46.779  26.888  33.741  1.00  0.00     0.040 A 
ATOM     71  C   UNL A   1      47.844  27.860  31.814  1.00  0.00     0.040 A 
ATOM     72  F   UNL A   1      46.644  29.305  30.408  1.00  0.00    -0.206 F 
ATOM     73  C   UNL A   1      47.911  27.052  32.946  1.00  0.00     0.006 A 
ENDBRANCH  52  66
BRANCH  53  74
ATOM     74  C   UNL A   1      36.778  32.607  29.917  1.00  0.00     0.057 A 
ATOM     75  C   UNL A   1      35.628  32.330  30.663  1.00  0.00     0.134 A 
ATOM     76  C   UNL A   1      36.659  33.517  28.860  1.00  0.00     0.134 A 
ATOM     77  F   UNL A   1      35.676  31.452  31.676  1.00  0.00    -0.206 F 
ATOM     78  C   UNL A   1      34.401  32.928  30.368  1.00  0.00     0.040 A 
ATOM     79  C   UNL A   1      35.444  34.141  28.567  1.00  0.00     0.040 A 
ATOM     80  F   UNL A   1      37.726  33.829  28.110  1.00  0.00    -0.206 F 
ATOM     81  C   UNL A   1      34.311  33.844  29.321  1.00  0.00     0.006 A 
ENDBRANCH  53  74
BRANCH  65  82
ATOM     82  C   UNL A   1      42.056  34.450  34.071  1.00  0.00     0.057 A 
ATOM     83  C   UNL A   1      42.569  35.660  33.587  1.00  0.00     0.134 A 
ATOM     84  C   UNL A   1      41.704  34.392  35.425  1.00  0.00     0.134 A 
ATOM     85  F   UNL A   1      42.941  35.776  32.303  1.00  0.00    -0.206 F 
ATOM     86  C   UNL A   1      42.739  36.766  34.422  1.00  0.00     0.040 A 
ATOM     87  C   UNL A   1      41.844  35.499  36.264  1.00  0.00     0.040 A 
ATOM     88  F   UNL A   1      41.201  33.265  35.951  1.00  0.00    -0.206 F 
ATOM     89  C   UNL A   1      42.366  36.689  35.763  1.00  0.00     0.006 A 
ENDBRANCH  65  82
ENDBRANCH  39  40
ENDBRANCH  31  34
ENDBRANCH  29  30
ENDBRANCH   1  29
TORSDOF 12
ENDMDL
MODEL 2
REMARK VINA RESULT:     -12.3      3.661      7.549
REMARK SMILES CC1=NN(c2ccc(Cl)c(C(=O)NCCCNC(=O)c3ccc(-c4c5nc(c(-c6c(F)cccc6F)c6ccc([nH]6)c(-c6c(F)cccc6F)c6nc(c(-c7c(F)cccc7F)c7ccc4[nH]7)C=C6)C=C5)cc3)c2)C(=O)/C1=C\c1ccccc1Cl
REMARK SMILES IDX 15 1 14 2 13 3 11 4 12 5 10 7 5 8 6 9 74 10 7 11 8 12 9 13
REMARK SMILES IDX 4 14 1 15 2 16 3 17 77 18 75 19 78 20 76 21 79 22 80 23
REMARK SMILES IDX 84 24 81 25 83 26 85 27 82 28 16 29 17 30 18 31 19 33 20 34
REMARK SMILES IDX 21 35 73 36 22 37 72 38 23 39 24 40 25 41 66 42 26 43 71 44
REMARK SMILES IDX 65 45 67 46 27 47 70 48 64 49 63 50 28 52 54 53 37 54 53 55
REMARK SMILES IDX 38 56 41 57 52 58 68 59 39 60 40 61 51 63 69 64 42 65 29 66
REMARK SMILES IDX 30 67 35 68 31 69 32 70 34 71 36 72 33 73 55 74 56 75 61 76
REMARK SMILES IDX 57 77 58 78 60 79 62 80 59 81 43 82 44 83 49 84 45 85 46 86
REMARK SMILES IDX 48 87 50 88 47 89
REMARK H PARENT 13 6 17 32 67 51 41 62
REMARK Flexibility Score: inf
ROOT
ATOM      1  C   UNL A   1      37.729  20.124  24.980  1.00  0.00     0.042 C 
ENDROOT
BRANCH   1   2
ATOM      2  C   UNL A   1      36.654  21.197  25.008  1.00  0.00     0.118 C 
BRANCH   2   3
ATOM      3  N   UNL A   1      35.779  21.162  26.170  1.00  0.00    -0.352 N 
ATOM      4  C   UNL A   1      34.416  21.318  26.294  1.00  0.00     0.252 C 
ATOM      5  O   UNL A   1      33.929  21.189  27.418  1.00  0.00    -0.269 OA
ATOM      6  H   UNL A   1      36.245  20.998  27.021  1.00  0.00     0.163 HD
BRANCH   4   7
ATOM      7  C   UNL A   1      33.523  21.708  25.169  1.00  0.00     0.060 A 
ATOM      8  C   UNL A   1      32.195  23.487  24.158  1.00  0.00     0.070 A 
ATOM      9  C   UNL A   1      31.863  22.621  23.112  1.00  0.00     0.030 A 
ATOM     10  C   UNL A   1      33.120  23.068  25.120  1.00  0.00     0.044 A 
ATOM     11  C   UNL A   1      32.233  21.287  23.159  1.00  0.00     0.023 A 
ATOM     12  C   UNL A   1      32.948  20.810  24.256  1.00  0.00     0.053 A 
ATOM     13  Cl  UNL A   1      32.825  19.101  24.514  1.00  0.00    -0.083 Cl
BRANCH   8  14
ATOM     14  N   UNL A   1      31.400  24.636  24.334  1.00  0.00    -0.196 N 
ATOM     15  C   UNL A   1      28.455  26.602  23.687  1.00  0.00     0.069 C 
ATOM     16  C   UNL A   1      29.782  26.017  24.040  1.00  0.00     0.071 C 
ATOM     17  N   UNL A   1      30.194  24.824  23.675  1.00  0.00    -0.169 NA
ATOM     18  C   UNL A   1      30.776  26.731  24.864  1.00  0.00     0.065 C 
ATOM     19  C   UNL A   1      31.821  25.722  25.118  1.00  0.00     0.280 C 
ATOM     20  C   UNL A   1      30.813  28.029  25.204  1.00  0.00     0.025 C 
ATOM     21  O   UNL A   1      32.810  25.852  25.820  1.00  0.00    -0.267 OA
BRANCH  20  22
ATOM     22  C   UNL A   1      32.011  28.640  25.811  1.00  0.00    -0.006 A 
ATOM     23  C   UNL A   1      32.094  28.734  27.206  1.00  0.00     0.009 A 
ATOM     24  C   UNL A   1      33.119  29.046  25.039  1.00  0.00     0.048 A 
ATOM     25  C   UNL A   1      33.267  29.193  27.818  1.00  0.00     0.001 A 
ATOM     26  C   UNL A   1      34.292  29.496  25.654  1.00  0.00     0.021 A 
ATOM     27  Cl  UNL A   1      33.092  28.993  23.308  1.00  0.00    -0.084 Cl
ATOM     28  C   UNL A   1      34.366  29.563  27.044  1.00  0.00     0.002 A 
ENDBRANCH  20  22
ENDBRANCH   8  14
ENDBRANCH   4   7
ENDBRANCH   2   3
ENDBRANCH   1   2
BRANCH   1  29
ATOM     29  C   UNL A   1      39.013  20.471  25.720  1.00  0.00     0.118 C 
BRANCH  29  30
ATOM     30  N   UNL A   1      39.968  19.371  25.801  1.00  0.00    -0.352 N 
ATOM     31  C   UNL A   1      41.316  19.339  26.076  1.00  0.00     0.251 C 
ATOM     32  H   UNL A   1      39.575  18.485  25.624  1.00  0.00     0.163 HD
ATOM     33  O   UNL A   1      41.931  18.281  25.955  1.00  0.00    -0.269 OA
BRANCH  31  34
ATOM     34  C   UNL A   1      42.053  20.561  26.471  1.00  0.00     0.039 A 
ATOM     35  C   UNL A   1      42.638  21.349  25.473  1.00  0.00     0.014 A 
ATOM     36  C   UNL A   1      42.189  20.934  27.806  1.00  0.00     0.014 A 
ATOM     37  C   UNL A   1      43.244  22.565  25.805  1.00  0.00     0.010 A 
ATOM     38  C   UNL A   1      42.696  22.189  28.129  1.00  0.00     0.010 A 
ATOM     39  C   UNL A   1      43.214  23.026  27.130  1.00  0.00    -0.014 A 
BRANCH  39  40
ATOM     40  C   UNL A   1      43.670  24.393  27.495  1.00  0.00     0.031 A 
ATOM     41  C   UNL A   1      42.682  25.436  27.933  1.00  0.00     0.074 A 
ATOM     42  C   UNL A   1      44.966  24.723  27.323  1.00  0.00     0.049 A 
ATOM     43  N   UNL A   1      42.875  26.709  28.176  1.00  0.00    -0.248 NA
ATOM     44  C   UNL A   1      41.287  25.000  28.089  1.00  0.00     0.031 C 
ATOM     45  C   UNL A   1      46.017  23.815  26.859  1.00  0.00     0.029 A 
ATOM     46  N   UNL A   1      45.617  25.918  27.501  1.00  0.00    -0.354 N 
ATOM     47  C   UNL A   1      41.624  27.227  28.489  1.00  0.00     0.074 A 
ATOM     48  C   UNL A   1      40.674  26.144  28.354  1.00  0.00     0.031 C 
ATOM     49  C   UNL A   1      47.185  24.475  26.821  1.00  0.00     0.029 A 
ATOM     50  C   UNL A   1      46.958  25.864  27.204  1.00  0.00     0.049 A 
ATOM     51  H   UNL A   1      45.167  26.736  27.813  1.00  0.00     0.167 HD
ATOM     52  C   UNL A   1      41.301  28.487  28.869  1.00  0.00     0.037 A 
ATOM     53  C   UNL A   1      47.897  26.827  27.223  1.00  0.00     0.037 A 
ATOM     54  C   UNL A   1      42.254  29.554  29.020  1.00  0.00     0.049 A 
ATOM     55  C   UNL A   1      47.508  28.226  27.608  1.00  0.00     0.074 A 
ATOM     56  C   UNL A   1      42.044  30.839  29.488  1.00  0.00     0.029 A 
ATOM     57  N   UNL A   1      43.599  29.464  28.691  1.00  0.00    -0.354 N 
ATOM     58  N   UNL A   1      46.338  28.683  27.983  1.00  0.00    -0.248 NA
ATOM     59  C   UNL A   1      48.567  29.243  27.565  1.00  0.00     0.031 C 
ATOM     60  C   UNL A   1      43.247  31.545  29.384  1.00  0.00     0.029 A 
ATOM     61  C   UNL A   1      44.221  30.685  28.900  1.00  0.00     0.049 A 
ATOM     62  H   UNL A   1      44.046  28.653  28.357  1.00  0.00     0.167 HD
ATOM     63  C   UNL A   1      46.521  30.036  28.235  1.00  0.00     0.074 A 
ATOM     64  C   UNL A   1      47.921  30.321  27.987  1.00  0.00     0.031 C 
ATOM     65  C   UNL A   1      45.612  30.959  28.636  1.00  0.00     0.037 A 
BRANCH  52  66
ATOM     66  C   UNL A   1      39.850  28.775  29.133  1.00  0.00     0.057 A 
ATOM     67  C   UNL A   1      39.278  28.615  30.403  1.00  0.00     0.134 A 
ATOM     68  C   UNL A   1      39.014  29.226  28.104  1.00  0.00     0.134 A 
ATOM     69  F   UNL A   1      40.020  28.179  31.432  1.00  0.00    -0.206 F 
ATOM     70  C   UNL A   1      37.921  28.853  30.630  1.00  0.00     0.040 A 
ATOM     71  C   UNL A   1      37.662  29.497  28.325  1.00  0.00     0.040 A 
ATOM     72  F   UNL A   1      39.495  29.410  26.865  1.00  0.00    -0.206 F 
ATOM     73  C   UNL A   1      37.110  29.299  29.589  1.00  0.00     0.006 A 
ENDBRANCH  52  66
BRANCH  53  74
ATOM     74  C   UNL A   1      49.305  26.493  26.888  1.00  0.00     0.057 A 
ATOM     75  C   UNL A   1      50.166  25.980  27.863  1.00  0.00     0.134 A 
ATOM     76  C   UNL A   1      49.814  26.649  25.594  1.00  0.00     0.134 A 
ATOM     77  F   UNL A   1      49.741  25.825  29.126  1.00  0.00    -0.206 F 
ATOM     78  C   UNL A   1      51.488  25.639  27.567  1.00  0.00     0.040 A 
ATOM     79  C   UNL A   1      51.126  26.292  25.277  1.00  0.00     0.040 A 
ATOM     80  F   UNL A   1      49.036  27.131  24.613  1.00  0.00    -0.206 F 
ATOM     81  C   UNL A   1      51.967  25.787  26.267  1.00  0.00     0.006 A 
ENDBRANCH  53  74
BRANCH  65  82
ATOM     82  C   UNL A   1      46.102  32.363  28.837  1.00  0.00     0.057 A 
ATOM     83  C   UNL A   1      46.042  33.316  27.813  1.00  0.00     0.134 A 
ATOM     84  C   UNL A   1      46.593  32.779  30.081  1.00  0.00     0.134 A 
ATOM     85  F   UNL A   1      45.597  32.976  26.593  1.00  0.00    -0.206 F 
ATOM     86  C   UNL A   1      46.468  34.630  28.014  1.00  0.00     0.040 A 
ATOM     87  C   UNL A   1      46.997  34.096  30.302  1.00  0.00     0.040 A 
ATOM     88  F   UNL A   1      46.671  31.917  31.107  1.00  0.00    -0.206 F 
ATOM     89  C   UNL A   1      46.938  35.025  29.266  1.00  0.00     0.006 A 
ENDBRANCH  65  82
ENDBRANCH  39  40
ENDBRANCH  31  34
ENDBRANCH  29  30
ENDBRANCH   1  29
TORSDOF 12
ENDMDL
MODEL 3
REMARK VINA RESULT:     -12.3      5.856      9.757
REMARK SMILES CC1=NN(c2ccc(Cl)c(C(=O)NCCCNC(=O)c3ccc(-c4c5nc(c(-c6c(F)cccc6F)c6ccc([nH]6)c(-c6c(F)cccc6F)c6nc(c(-c7c(F)cccc7F)c7ccc4[nH]7)C=C6)C=C5)cc3)c2)C(=O)/C1=C\c1ccccc1Cl
REMARK SMILES IDX 15 1 14 2 13 3 11 4 12 5 10 7 5 8 6 9 74 10 7 11 8 12 9 13
REMARK SMILES IDX 4 14 1 15 2 16 3 17 77 18 75 19 78 20 76 21 79 22 80 23
REMARK SMILES IDX 84 24 81 25 83 26 85 27 82 28 16 29 17 30 18 31 19 33 20 34
REMARK SMILES IDX 21 35 73 36 22 37 72 38 23 39 24 40 25 41 66 42 26 43 71 44
REMARK SMILES IDX 65 45 67 46 27 47 70 48 64 49 63 50 28 52 54 53 37 54 53 55
REMARK SMILES IDX 38 56 41 57 52 58 68 59 39 60 40 61 51 63 69 64 42 65 29 66
REMARK SMILES IDX 30 67 35 68 31 69 32 70 34 71 36 72 33 73 55 74 56 75 61 76
REMARK SMILES IDX 57 77 58 78 60 79 62 80 59 81 43 82 44 83 49 84 45 85 46 86
REMARK SMILES IDX 48 87 50 88 47 89
REMARK H PARENT 13 6 17 32 67 51 41 62
REMARK Flexibility Score: inf
ROOT
ATOM      1  C   UNL A   1      38.512  24.234  26.863  1.00  0.00     0.042 C 
ENDROOT
BRANCH   1   2
ATOM      2  C   UNL A   1      37.882  23.056  26.140  1.00  0.00     0.118 C 
BRANCH   2   3
ATOM      3  N   UNL A   1      37.755  23.213  24.699  1.00  0.00    -0.352 N 
ATOM      4  C   UNL A   1      36.758  22.847  23.823  1.00  0.00     0.252 C 
ATOM      5  O   UNL A   1      36.901  23.155  22.638  1.00  0.00    -0.269 OA
ATOM      6  H   UNL A   1      38.522  23.661  24.274  1.00  0.00     0.163 HD
BRANCH   4   7
ATOM      7  C   UNL A   1      35.570  22.039  24.212  1.00  0.00     0.060 A 
ATOM      8  C   UNL A   1      33.211  22.072  24.834  1.00  0.00     0.070 A 
ATOM      9  C   UNL A   1      33.232  20.677  24.920  1.00  0.00     0.030 A 
ATOM     10  C   UNL A   1      34.347  22.742  24.363  1.00  0.00     0.044 A 
ATOM     11  C   UNL A   1      34.424  19.983  24.795  1.00  0.00     0.023 A 
ATOM     12  C   UNL A   1      35.608  20.683  24.574  1.00  0.00     0.053 A 
ATOM     13  Cl  UNL A   1      37.049  19.837  25.035  1.00  0.00    -0.083 Cl
BRANCH   8  14
ATOM     14  N   UNL A   1      32.147  22.752  25.457  1.00  0.00    -0.196 N 
ATOM     15  C   UNL A   1      29.135  22.827  27.427  1.00  0.00     0.069 C 
ATOM     16  C   UNL A   1      30.309  23.040  26.530  1.00  0.00     0.071 C 
ATOM     17  N   UNL A   1      31.141  22.096  26.151  1.00  0.00    -0.169 NA
ATOM     18  C   UNL A   1      30.667  24.362  25.982  1.00  0.00     0.065 C 
ATOM     19  C   UNL A   1      31.974  24.140  25.336  1.00  0.00     0.280 C 
ATOM     20  C   UNL A   1      29.935  25.486  25.949  1.00  0.00     0.025 C 
ATOM     21  O   UNL A   1      32.683  24.980  24.809  1.00  0.00    -0.267 OA
BRANCH  20  22
ATOM     22  C   UNL A   1      30.333  26.650  25.132  1.00  0.00    -0.006 A 
ATOM     23  C   UNL A   1      29.830  26.771  23.830  1.00  0.00     0.009 A 
ATOM     24  C   UNL A   1      31.127  27.693  25.650  1.00  0.00     0.048 A 
ATOM     25  C   UNL A   1      30.087  27.921  23.075  1.00  0.00     0.001 A 
ATOM     26  C   UNL A   1      31.374  28.844  24.896  1.00  0.00     0.021 A 
ATOM     27  Cl  UNL A   1      31.815  27.613  27.238  1.00  0.00    -0.084 Cl
ATOM     28  C   UNL A   1      30.849  28.959  23.610  1.00  0.00     0.002 A 
ENDBRANCH  20  22
ENDBRANCH   8  14
ENDBRANCH   4   7
ENDBRANCH   2   3
ENDBRANCH   1   2
BRANCH   1  29
ATOM     29  C   UNL A   1      39.892  24.638  26.366  1.00  0.00     0.118 C 
BRANCH  29  30
ATOM     30  N   UNL A   1      40.838  23.531  26.275  1.00  0.00    -0.352 N 
ATOM     31  C   UNL A   1      42.212  23.496  26.204  1.00  0.00     0.251 C 
ATOM     32  H   UNL A   1      40.415  22.642  26.261  1.00  0.00     0.163 HD
ATOM     33  O   UNL A   1      42.778  22.424  26.001  1.00  0.00    -0.269 OA
BRANCH  31  34
ATOM     34  C   UNL A   1      43.023  24.729  26.320  1.00  0.00     0.039 A 
ATOM     35  C   UNL A   1      43.485  25.118  27.582  1.00  0.00     0.014 A 
ATOM     36  C   UNL A   1      43.325  25.514  25.209  1.00  0.00     0.014 A 
ATOM     37  C   UNL A   1      44.344  26.214  27.708  1.00  0.00     0.010 A 
ATOM     38  C   UNL A   1      44.260  26.539  25.315  1.00  0.00     0.010 A 
ATOM     39  C   UNL A   1      44.794  26.890  26.563  1.00  0.00    -0.014 A 
BRANCH  39  40
ATOM     40  C   UNL A   1      45.853  27.930  26.632  1.00  0.00     0.031 A 
ATOM     41  C   UNL A   1      45.490  29.383  26.755  1.00  0.00     0.074 A 
ATOM     42  C   UNL A   1      47.142  27.569  26.470  1.00  0.00     0.049 A 
ATOM     43  N   UNL A   1      46.267  30.437  26.710  1.00  0.00    -0.248 NA
ATOM     44  C   UNL A   1      44.063  29.695  26.919  1.00  0.00     0.031 C 
ATOM     45  C   UNL A   1      47.622  26.197  26.295  1.00  0.00     0.029 A 
ATOM     46  N   UNL A   1      48.284  28.329  26.409  1.00  0.00    -0.354 N 
ATOM     47  C   UNL A   1      45.421  31.533  26.816  1.00  0.00     0.074 A 
ATOM     48  C   UNL A   1      44.069  31.019  26.875  1.00  0.00     0.031 C 
ATOM     49  C   UNL A   1      48.959  26.209  26.180  1.00  0.00     0.029 A 
ATOM     50  C   UNL A   1      49.427  27.590  26.218  1.00  0.00     0.049 A 
ATOM     51  H   UNL A   1      48.284  29.309  26.495  1.00  0.00     0.167 HD
ATOM     52  C   UNL A   1      45.743  32.849  26.874  1.00  0.00     0.037 A 
ATOM     53  C   UNL A   1      50.706  27.980  26.073  1.00  0.00     0.037 A 
ATOM     54  C   UNL A   1      47.091  33.352  26.835  1.00  0.00     0.049 A 
ATOM     55  C   UNL A   1      51.036  29.446  26.101  1.00  0.00     0.074 A 
ATOM     56  C   UNL A   1      47.529  34.656  26.980  1.00  0.00     0.029 A 
ATOM     57  N   UNL A   1      48.219  32.573  26.621  1.00  0.00    -0.354 N 
ATOM     58  N   UNL A   1      50.235  30.467  26.286  1.00  0.00    -0.248 NA
ATOM     59  C   UNL A   1      52.442  29.812  25.891  1.00  0.00     0.031 C 
ATOM     60  C   UNL A   1      48.915  34.675  26.792  1.00  0.00     0.029 A 
ATOM     61  C   UNL A   1      49.348  33.375  26.582  1.00  0.00     0.049 A 
ATOM     62  H   UNL A   1      48.217  31.595  26.512  1.00  0.00     0.167 HD
ATOM     63  C   UNL A   1      51.041  31.596  26.231  1.00  0.00     0.074 A 
ATOM     64  C   UNL A   1      52.397  31.132  26.013  1.00  0.00     0.031 C 
ATOM     65  C   UNL A   1      50.690  32.901  26.350  1.00  0.00     0.037 A 
BRANCH  52  66
ATOM     66  C   UNL A   1      44.610  33.831  26.973  1.00  0.00     0.057 A 
ATOM     67  C   UNL A   1      43.984  34.360  25.836  1.00  0.00     0.134 A 
ATOM     68  C   UNL A   1      44.137  34.250  28.222  1.00  0.00     0.134 A 
ATOM     69  F   UNL A   1      44.393  34.009  24.608  1.00  0.00    -0.206 F 
ATOM     70  C   UNL A   1      42.955  35.300  25.938  1.00  0.00     0.040 A 
ATOM     71  C   UNL A   1      43.088  35.165  28.338  1.00  0.00     0.040 A 
ATOM     72  F   UNL A   1      44.684  33.778  29.353  1.00  0.00    -0.206 F 
ATOM     73  C   UNL A   1      42.503  35.701  27.193  1.00  0.00     0.006 A 
ENDBRANCH  52  66
BRANCH  53  74
ATOM     74  C   UNL A   1      51.775  26.962  25.914  1.00  0.00     0.057 A 
ATOM     75  C   UNL A   1      52.105  26.467  24.647  1.00  0.00     0.134 A 
ATOM     76  C   UNL A   1      52.507  26.481  27.006  1.00  0.00     0.134 A 
ATOM     77  F   UNL A   1      51.426  26.876  23.565  1.00  0.00    -0.206 F 
ATOM     78  C   UNL A   1      53.120  25.525  24.471  1.00  0.00     0.040 A 
ATOM     79  C   UNL A   1      53.540  25.556  26.842  1.00  0.00     0.040 A 
ATOM     80  F   UNL A   1      52.243  26.921  28.245  1.00  0.00    -0.206 F 
ATOM     81  C   UNL A   1      53.846  25.073  25.571  1.00  0.00     0.006 A 
ENDBRANCH  53  74
BRANCH  65  82
ATOM     82  C   UNL A   1      51.788  33.919  26.253  1.00  0.00     0.057 A 
ATOM     83  C   UNL A   1      52.477  34.367  27.387  1.00  0.00     0.134 A 
ATOM     84  C   UNL A   1      52.192  34.420  25.010  1.00  0.00     0.134 A 
ATOM     85  F   UNL A   1      52.127  33.938  28.609  1.00  0.00    -0.206 F 
ATOM     86  C   UNL A   1      53.520  35.290  27.289  1.00  0.00     0.040 A 
ATOM     87  C   UNL A   1      53.251  35.322  24.896  1.00  0.00     0.040 A 
ATOM     88  F   UNL A   1      51.578  34.027  23.883  1.00  0.00    -0.206 F 
ATOM     89  C   UNL A   1      53.916  35.762  26.039  1.00  0.00     0.006 A 
ENDBRANCH  65  82
ENDBRANCH  39  40
ENDBRANCH  31  34
ENDBRANCH  29  30
ENDBRANCH   1  29
TORSDOF 12
ENDMDL
