MODEL 1
REMARK VINA RESULT:     -12.6      0.000      0.000
REMARK SMILES CCCc1cc(S(F)(F)(F)(F)F)cc2c1O[C@@H](C(F)(F)F)C(C(=O)NCCCNC(=O)c1ccc(-c3c4nc(c(-c5c(F)cccc5F)c5ccc([nH]5)c(-c5c(F)cccc5F)c5nc(c(-c6c(F)cccc6F)c6ccc3[nH]6)C=C5)C=C4)cc1)=C2
REMARK SMILES IDX 27 1 26 2 25 3 23 4 24 5 22 7 4 8 5 9 15 10 6 11 14 12 16 13
REMARK SMILES IDX 13 14 86 15 17 16 3 17 2 18 1 19 7 20 8 21 9 22 10 23 11 24
REMARK SMILES IDX 12 25 18 26 19 27 20 28 21 29 28 30 29 31 30 32 31 34 32 35
REMARK SMILES IDX 33 36 85 37 34 38 84 39 35 40 36 41 37 42 78 43 38 44 83 45
REMARK SMILES IDX 77 46 79 47 39 48 82 49 76 50 75 51 40 53 66 54 49 55 65 56
REMARK SMILES IDX 50 57 53 58 64 59 80 60 51 61 52 62 63 64 81 65 54 66 41 67
REMARK SMILES IDX 42 68 47 69 43 70 44 71 46 72 48 73 45 74 67 75 68 76 73 77
REMARK SMILES IDX 69 78 70 79 72 80 74 81 71 82 55 83 56 84 61 85 57 86 58 87
REMARK SMILES IDX 60 88 62 89 59 90
REMARK H PARENT 25 6 29 33 79 52 53 63
REMARK Flexibility Score: inf
ROOT
ATOM      1  C   UNL A   1      38.233  23.856  26.274  1.00  0.00     0.042 C 
ENDROOT
BRANCH   1   2
ATOM      2  C   UNL A   1      37.474  22.596  25.890  1.00  0.00     0.118 C 
BRANCH   2   3
ATOM      3  N   UNL A   1      37.401  22.495  24.425  1.00  0.00    -0.352 N 
ATOM      4  C   UNL A   1      36.238  23.037  23.707  1.00  0.00     0.251 C 
ATOM      5  O   UNL A   1      36.176  22.949  22.441  1.00  0.00    -0.270 OA
ATOM      6  H   UNL A   1      38.132  22.064  23.925  1.00  0.00     0.163 HD
BRANCH   4   7
ATOM      7  C   UNL A   1      35.111  23.701  24.480  1.00  0.00     0.067 C 
ATOM      8  C   UNL A   1      31.741  25.500  26.173  1.00  0.00    -0.004 A 
ATOM      9  C   UNL A   1      31.787  26.828  26.555  1.00  0.00     0.032 A 
ATOM     10  C   UNL A   1      32.846  24.948  25.569  1.00  0.00     0.131 A 
ATOM     11  C   UNL A   1      32.907  27.586  26.336  1.00  0.00     0.108 A 
ATOM     12  C   UNL A   1      34.000  25.677  25.349  1.00  0.00     0.019 A 
ATOM     13  O   UNL A   1      32.747  23.663  25.094  1.00  0.00    -0.475 OA
ATOM     14  C   UNL A   1      34.011  27.011  25.741  1.00  0.00     0.036 A 
ATOM     15  C   UNL A   1      35.100  25.015  24.669  1.00  0.00     0.025 C 
ATOM     16  C   UNL A   1      33.968  22.874  25.055  1.00  0.00     0.314 C 
BRANCH   8  17
ATOM     17  C   UNL A   1      30.406  24.779  26.264  1.00  0.00     0.039 C 
BRANCH  17  18
ATOM     18  C   UNL A   1      29.334  25.609  25.577  1.00  0.00     0.001 C 
ATOM     19  C   UNL A   1      29.627  25.683  24.087  1.00  0.00     0.004 C 
ENDBRANCH  17  18
ENDBRANCH   8  17
BRANCH  11  20
ATOM     20  S   UNL A   1      32.937  29.329  26.823  1.00  0.00     0.310 S 
ATOM     21  F   UNL A   1      34.217  29.636  25.938  1.00  0.00    -0.094 F 
ATOM     22  F   UNL A   1      33.922  28.935  27.988  1.00  0.00    -0.094 F 
ATOM     23  F   UNL A   1      32.963  30.818  27.268  1.00  0.00    -0.094 F 
ATOM     24  F   UNL A   1      32.064  29.728  25.568  1.00  0.00    -0.094 F 
ATOM     25  F   UNL A   1      32.993  27.841  26.293  1.00  0.00    -0.094 F 
ENDBRANCH  11  20
BRANCH  16  26
ATOM     26  C   UNL A   1      33.745  21.657  24.173  1.00  0.00     0.429 C 
ATOM     27  F   UNL A   1      34.797  20.848  24.257  1.00  0.00    -0.167 F 
ATOM     28  F   UNL A   1      32.656  21.010  24.577  1.00  0.00    -0.167 F 
ATOM     29  F   UNL A   1      33.586  22.047  22.911  1.00  0.00    -0.167 F 
ENDBRANCH  16  26
ENDBRANCH   4   7
ENDBRANCH   2   3
ENDBRANCH   1   2
BRANCH   1  30
ATOM     30  C   UNL A   1      39.517  23.475  26.990  1.00  0.00     0.118 C 
BRANCH  30  31
ATOM     31  N   UNL A   1      40.650  23.586  26.059  1.00  0.00    -0.352 N 
ATOM     32  C   UNL A   1      41.591  24.708  26.178  1.00  0.00     0.251 C 
ATOM     33  H   UNL A   1      40.777  22.909  25.356  1.00  0.00     0.163 HD
ATOM     34  O   UNL A   1      42.570  24.805  25.373  1.00  0.00    -0.269 OA
BRANCH  32  35
ATOM     35  C   UNL A   1      41.394  25.754  27.264  1.00  0.00     0.039 A 
ATOM     36  C   UNL A   1      40.716  25.407  28.421  1.00  0.00     0.014 A 
ATOM     37  C   UNL A   1      41.871  26.981  27.087  1.00  0.00     0.014 A 
ATOM     38  C   UNL A   1      40.338  26.513  29.217  1.00  0.00     0.010 A 
ATOM     39  C   UNL A   1      41.573  27.982  27.978  1.00  0.00     0.010 A 
ATOM     40  C   UNL A   1      40.857  27.723  29.114  1.00  0.00    -0.014 A 
BRANCH  40  41
ATOM     41  C   UNL A   1      40.669  28.771  30.199  1.00  0.00     0.031 A 
ATOM     42  C   UNL A   1      39.645  29.708  30.045  1.00  0.00     0.074 A 
ATOM     43  C   UNL A   1      41.526  28.733  31.285  1.00  0.00     0.049 A 
ATOM     44  N   UNL A   1      39.295  30.677  30.893  1.00  0.00    -0.248 NA
ATOM     45  C   UNL A   1      38.755  29.772  28.877  1.00  0.00     0.031 C 
ATOM     46  C   UNL A   1      42.556  27.786  31.451  1.00  0.00     0.029 A 
ATOM     47  N   UNL A   1      41.549  29.576  32.374  1.00  0.00    -0.354 N 
ATOM     48  C   UNL A   1      38.256  31.360  30.408  1.00  0.00     0.074 A 
ATOM     49  C   UNL A   1      37.897  30.791  29.102  1.00  0.00     0.031 C 
ATOM     50  C   UNL A   1      43.196  28.060  32.617  1.00  0.00     0.029 A 
ATOM     51  C   UNL A   1      42.579  29.183  33.201  1.00  0.00     0.049 A 
ATOM     52  H   UNL A   1      40.936  30.328  32.534  1.00  0.00     0.167 HD
ATOM     53  C   UNL A   1      37.592  32.433  31.005  1.00  0.00     0.037 A 
ATOM     54  C   UNL A   1      42.974  29.760  34.398  1.00  0.00     0.037 A 
ATOM     55  C   UNL A   1      37.960  32.982  32.224  1.00  0.00     0.049 A 
ATOM     56  C   UNL A   1      42.346  30.870  34.966  1.00  0.00     0.074 A 
ATOM     57  C   UNL A   1      37.297  34.058  32.843  1.00  0.00     0.029 A 
ATOM     58  N   UNL A   1      39.005  32.605  33.038  1.00  0.00    -0.354 N 
ATOM     59  N   UNL A   1      41.282  31.527  34.501  1.00  0.00    -0.248 NA
ATOM     60  C   UNL A   1      42.775  31.509  36.217  1.00  0.00     0.031 C 
ATOM     61  C   UNL A   1      37.938  34.333  34.010  1.00  0.00     0.029 A 
ATOM     62  C   UNL A   1      39.013  33.433  34.138  1.00  0.00     0.049 A 
ATOM     63  H   UNL A   1      39.636  31.870  32.863  1.00  0.00     0.167 HD
ATOM     64  C   UNL A   1      40.959  32.522  35.329  1.00  0.00     0.074 A 
ATOM     65  C   UNL A   1      41.920  32.530  36.442  1.00  0.00     0.031 C 
ATOM     66  C   UNL A   1      39.900  33.423  35.204  1.00  0.00     0.037 A 
BRANCH  53  67
ATOM     67  C   UNL A   1      36.399  33.032  30.279  1.00  0.00     0.057 A 
ATOM     68  C   UNL A   1      35.123  32.565  30.547  1.00  0.00     0.134 A 
ATOM     69  C   UNL A   1      36.628  33.875  29.279  1.00  0.00     0.134 A 
ATOM     70  F   UNL A   1      34.805  31.931  31.672  1.00  0.00    -0.206 F 
ATOM     71  C   UNL A   1      34.189  32.824  29.516  1.00  0.00     0.040 A 
ATOM     72  C   UNL A   1      35.631  34.189  28.387  1.00  0.00     0.040 A 
ATOM     73  F   UNL A   1      37.833  34.421  29.139  1.00  0.00    -0.206 F 
ATOM     74  C   UNL A   1      34.360  33.716  28.558  1.00  0.00     0.006 A 
ENDBRANCH  53  67
BRANCH  54  75
ATOM     75  C   UNL A   1      44.156  29.148  35.132  1.00  0.00     0.057 A 
ATOM     76  C   UNL A   1      44.033  28.074  35.997  1.00  0.00     0.134 A 
ATOM     77  C   UNL A   1      45.347  29.615  34.777  1.00  0.00     0.134 A 
ATOM     78  F   UNL A   1      42.891  27.418  36.180  1.00  0.00    -0.206 F 
ATOM     79  C   UNL A   1      45.233  27.738  36.668  1.00  0.00     0.040 A 
ATOM     80  C   UNL A   1      46.490  29.144  35.379  1.00  0.00     0.040 A 
ATOM     81  F   UNL A   1      45.436  30.547  33.833  1.00  0.00    -0.206 F 
ATOM     82  C   UNL A   1      46.437  28.124  36.287  1.00  0.00     0.006 A 
ENDBRANCH  54  75
BRANCH  66  83
ATOM     83  C   UNL A   1      39.706  34.454  36.303  1.00  0.00     0.057 A 
ATOM     84  C   UNL A   1      40.313  35.694  36.181  1.00  0.00     0.134 A 
ATOM     85  C   UNL A   1      38.963  34.153  37.362  1.00  0.00     0.134 A 
ATOM     86  F   UNL A   1      40.847  36.130  35.044  1.00  0.00    -0.206 F 
ATOM     87  C   UNL A   1      40.311  36.453  37.374  1.00  0.00     0.040 A 
ATOM     88  C   UNL A   1      38.899  35.005  38.438  1.00  0.00     0.040 A 
ATOM     89  F   UNL A   1      38.273  33.016  37.380  1.00  0.00    -0.206 F 
ATOM     90  C   UNL A   1      39.523  36.221  38.409  1.00  0.00     0.006 A 
ENDBRANCH  66  83
ENDBRANCH  40  41
ENDBRANCH  32  35
ENDBRANCH  30  31
ENDBRANCH   1  30
TORSDOF 14
ENDMDL
MODEL 2
REMARK VINA RESULT:     -12.6      4.954      9.773
REMARK SMILES CCCc1cc(S(F)(F)(F)(F)F)cc2c1O[C@@H](C(F)(F)F)C(C(=O)NCCCNC(=O)c1ccc(-c3c4nc(c(-c5c(F)cccc5F)c5ccc([nH]5)c(-c5c(F)cccc5F)c5nc(c(-c6c(F)cccc6F)c6ccc3[nH]6)C=C5)C=C4)cc1)=C2
REMARK SMILES IDX 27 1 26 2 25 3 23 4 24 5 22 7 4 8 5 9 15 10 6 11 14 12 16 13
REMARK SMILES IDX 13 14 86 15 17 16 3 17 2 18 1 19 7 20 8 21 9 22 10 23 11 24
REMARK SMILES IDX 12 25 18 26 19 27 20 28 21 29 28 30 29 31 30 32 31 34 32 35
REMARK SMILES IDX 33 36 85 37 34 38 84 39 35 40 36 41 37 42 78 43 38 44 83 45
REMARK SMILES IDX 77 46 79 47 39 48 82 49 76 50 75 51 40 53 66 54 49 55 65 56
REMARK SMILES IDX 50 57 53 58 64 59 80 60 51 61 52 62 63 64 81 65 54 66 41 67
REMARK SMILES IDX 42 68 47 69 43 70 44 71 46 72 48 73 45 74 67 75 68 76 73 77
REMARK SMILES IDX 69 78 70 79 72 80 74 81 71 82 55 83 56 84 61 85 57 86 58 87
REMARK SMILES IDX 60 88 62 89 59 90
REMARK H PARENT 25 6 29 33 79 52 53 63
REMARK Flexibility Score: inf
ROOT
ATOM      1  C   UNL A   1      34.450  31.014  27.291  1.00  0.00     0.042 C 
ENDROOT
BRANCH   1   2
ATOM      2  C   UNL A   1      33.684  29.955  26.516  1.00  0.00     0.118 C 
BRANCH   2   3
ATOM      3  N   UNL A   1      32.539  29.495  27.316  1.00  0.00    -0.352 N 
ATOM      4  C   UNL A   1      32.012  28.134  27.132  1.00  0.00     0.251 C 
ATOM      5  O   UNL A   1      31.023  27.738  27.823  1.00  0.00    -0.270 OA
ATOM      6  H   UNL A   1      32.125  30.099  27.974  1.00  0.00     0.163 HD
BRANCH   4   7
ATOM      7  C   UNL A   1      32.652  27.204  26.115  1.00  0.00     0.067 C 
ATOM      8  C   UNL A   1      33.981  24.371  23.348  1.00  0.00    -0.004 A 
ATOM      9  C   UNL A   1      35.037  23.536  23.667  1.00  0.00     0.032 A 
ATOM     10  C   UNL A   1      33.529  25.257  24.296  1.00  0.00     0.131 A 
ATOM     11  C   UNL A   1      35.623  23.584  24.905  1.00  0.00     0.108 A 
ATOM     12  C   UNL A   1      34.108  25.346  25.549  1.00  0.00     0.019 A 
ATOM     13  O   UNL A   1      32.411  25.998  24.005  1.00  0.00    -0.475 OA
ATOM     14  C   UNL A   1      35.164  24.489  25.839  1.00  0.00     0.036 A 
ATOM     15  C   UNL A   1      33.534  26.287  26.495  1.00  0.00     0.025 C 
ATOM     16  C   UNL A   1      32.296  27.303  24.638  1.00  0.00     0.314 C 
BRANCH   8  17
ATOM     17  C   UNL A   1      33.254  24.127  22.035  1.00  0.00     0.039 C 
BRANCH  17  18
ATOM     18  C   UNL A   1      32.802  22.677  21.968  1.00  0.00     0.001 C 
ATOM     19  C   UNL A   1      31.744  22.427  23.031  1.00  0.00     0.004 C 
ENDBRANCH  17  18
ENDBRANCH   8  17
BRANCH  11  20
ATOM     20  S   UNL A   1      36.988  22.466  25.310  1.00  0.00     0.310 S 
ATOM     21  F   UNL A   1      36.959  21.784  23.878  1.00  0.00    -0.094 F 
ATOM     22  F   UNL A   1      35.916  21.403  25.761  1.00  0.00    -0.094 F 
ATOM     23  F   UNL A   1      38.145  21.497  25.681  1.00  0.00    -0.094 F 
ATOM     24  F   UNL A   1      38.041  23.487  24.723  1.00  0.00    -0.094 F 
ATOM     25  F   UNL A   1      35.819  23.414  24.825  1.00  0.00    -0.094 F 
ENDBRANCH  11  20
BRANCH  16  26
ATOM     26  C   UNL A   1      30.864  27.795  24.505  1.00  0.00     0.429 C 
ATOM     27  F   UNL A   1      30.493  27.745  23.229  1.00  0.00    -0.167 F 
ATOM     28  F   UNL A   1      30.061  27.022  25.230  1.00  0.00    -0.167 F 
ATOM     29  F   UNL A   1      30.784  29.050  24.940  1.00  0.00    -0.167 F 
ENDBRANCH  16  26
ENDBRANCH   4   7
ENDBRANCH   2   3
ENDBRANCH   1   2
BRANCH   1  30
ATOM     30  C   UNL A   1      35.428  30.340  28.239  1.00  0.00     0.118 C 
BRANCH  30  31
ATOM     31  N   UNL A   1      35.201  30.829  29.607  1.00  0.00    -0.352 N 
ATOM     32  C   UNL A   1      36.304  30.830  30.579  1.00  0.00     0.251 C 
ATOM     33  H   UNL A   1      34.311  31.155  29.872  1.00  0.00     0.163 HD
ATOM     34  O   UNL A   1      36.108  31.253  31.762  1.00  0.00    -0.269 OA
BRANCH  32  35
ATOM     35  C   UNL A   1      37.679  30.327  30.169  1.00  0.00     0.039 A 
ATOM     36  C   UNL A   1      38.141  30.590  28.890  1.00  0.00     0.014 A 
ATOM     37  C   UNL A   1      38.412  29.643  31.040  1.00  0.00     0.014 A 
ATOM     38  C   UNL A   1      39.281  29.836  28.526  1.00  0.00     0.010 A 
ATOM     39  C   UNL A   1      39.585  29.045  30.648  1.00  0.00     0.010 A 
ATOM     40  C   UNL A   1      40.072  29.214  29.382  1.00  0.00    -0.014 A 
BRANCH  40  41
ATOM     41  C   UNL A   1      41.450  28.714  28.980  1.00  0.00     0.031 A 
ATOM     42  C   UNL A   1      41.588  27.373  28.614  1.00  0.00     0.074 A 
ATOM     43  C   UNL A   1      42.494  29.622  28.997  1.00  0.00     0.049 A 
ATOM     44  N   UNL A   1      42.694  26.753  28.199  1.00  0.00    -0.248 NA
ATOM     45  C   UNL A   1      40.488  26.398  28.628  1.00  0.00     0.031 C 
ATOM     46  C   UNL A   1      42.361  30.978  29.358  1.00  0.00     0.029 A 
ATOM     47  N   UNL A   1      43.816  29.397  28.684  1.00  0.00    -0.354 N 
ATOM     48  C   UNL A   1      42.428  25.474  27.923  1.00  0.00     0.074 A 
ATOM     49  C   UNL A   1      41.008  25.226  28.200  1.00  0.00     0.031 C 
ATOM     50  C   UNL A   1      43.587  31.558  29.272  1.00  0.00     0.029 A 
ATOM     51  C   UNL A   1      44.506  30.577  28.856  1.00  0.00     0.049 A 
ATOM     52  H   UNL A   1      44.201  28.542  28.386  1.00  0.00     0.167 HD
ATOM     53  C   UNL A   1      43.316  24.507  27.448  1.00  0.00     0.037 A 
ATOM     54  C   UNL A   1      45.861  30.802  28.671  1.00  0.00     0.037 A 
ATOM     55  C   UNL A   1      44.662  24.744  27.220  1.00  0.00     0.049 A 
ATOM     56  C   UNL A   1      46.760  29.819  28.252  1.00  0.00     0.074 A 
ATOM     57  C   UNL A   1      45.568  23.782  26.735  1.00  0.00     0.029 A 
ATOM     58  N   UNL A   1      45.357  25.916  27.418  1.00  0.00    -0.354 N 
ATOM     59  N   UNL A   1      46.487  28.551  27.938  1.00  0.00    -0.248 NA
ATOM     60  C   UNL A   1      48.203  30.038  28.083  1.00  0.00     0.031 C 
ATOM     61  C   UNL A   1      46.795  24.363  26.650  1.00  0.00     0.029 A 
ATOM     62  C   UNL A   1      46.674  25.698  27.081  1.00  0.00     0.049 A 
ATOM     63  H   UNL A   1      44.977  26.765  27.743  1.00  0.00     0.167 HD
ATOM     64  C   UNL A   1      47.601  27.921  27.563  1.00  0.00     0.074 A 
ATOM     65  C   UNL A   1      48.723  28.867  27.657  1.00  0.00     0.031 C 
ATOM     66  C   UNL A   1      47.729  26.597  27.141  1.00  0.00     0.037 A 
BRANCH  53  67
ATOM     67  C   UNL A   1      42.774  23.115  27.164  1.00  0.00     0.057 A 
ATOM     68  C   UNL A   1      42.351  22.787  25.887  1.00  0.00     0.134 A 
ATOM     69  C   UNL A   1      42.564  22.299  28.190  1.00  0.00     0.134 A 
ATOM     70  F   UNL A   1      42.753  23.440  24.800  1.00  0.00    -0.206 F 
ATOM     71  C   UNL A   1      41.451  21.696  25.844  1.00  0.00     0.040 A 
ATOM     72  C   UNL A   1      41.786  21.177  28.043  1.00  0.00     0.040 A 
ATOM     73  F   UNL A   1      43.113  22.571  29.372  1.00  0.00    -0.206 F 
ATOM     74  C   UNL A   1      41.285  20.823  26.821  1.00  0.00     0.006 A 
ENDBRANCH  53  67
BRANCH  54  75
ATOM     75  C   UNL A   1      46.398  32.199  28.938  1.00  0.00     0.057 A 
ATOM     76  C   UNL A   1      46.953  32.576  30.150  1.00  0.00     0.134 A 
ATOM     77  C   UNL A   1      46.438  33.003  27.882  1.00  0.00     0.134 A 
ATOM     78  F   UNL A   1      47.161  31.722  31.148  1.00  0.00    -0.206 F 
ATOM     79  C   UNL A   1      47.278  33.950  30.229  1.00  0.00     0.040 A 
ATOM     80  C   UNL A   1      46.896  34.293  28.003  1.00  0.00     0.040 A 
ATOM     81  F   UNL A   1      46.033  32.557  26.697  1.00  0.00    -0.206 F 
ATOM     82  C   UNL A   1      47.404  34.751  29.187  1.00  0.00     0.006 A 
ENDBRANCH  54  75
BRANCH  66  83
ATOM     83  C   UNL A   1      49.106  26.109  26.721  1.00  0.00     0.057 A 
ATOM     84  C   UNL A   1      49.889  25.427  27.638  1.00  0.00     0.134 A 
ATOM     85  C   UNL A   1      49.538  26.346  25.488  1.00  0.00     0.134 A 
ATOM     86  F   UNL A   1      49.413  24.950  28.784  1.00  0.00    -0.206 F 
ATOM     87  C   UNL A   1      51.240  25.285  27.244  1.00  0.00     0.040 A 
ATOM     88  C   UNL A   1      50.833  26.056  25.132  1.00  0.00     0.040 A 
ATOM     89  F   UNL A   1      48.708  26.868  24.589  1.00  0.00    -0.206 F 
ATOM     90  C   UNL A   1      51.680  25.435  26.008  1.00  0.00     0.006 A 
ENDBRANCH  66  83
ENDBRANCH  40  41
ENDBRANCH  32  35
ENDBRANCH  30  31
ENDBRANCH   1  30
TORSDOF 14
ENDMDL
MODEL 3
REMARK VINA RESULT:     -12.5      3.658      4.670
REMARK SMILES CCCc1cc(S(F)(F)(F)(F)F)cc2c1O[C@@H](C(F)(F)F)C(C(=O)NCCCNC(=O)c1ccc(-c3c4nc(c(-c5c(F)cccc5F)c5ccc([nH]5)c(-c5c(F)cccc5F)c5nc(c(-c6c(F)cccc6F)c6ccc3[nH]6)C=C5)C=C4)cc1)=C2
REMARK SMILES IDX 27 1 26 2 25 3 23 4 24 5 22 7 4 8 5 9 15 10 6 11 14 12 16 13
REMARK SMILES IDX 13 14 86 15 17 16 3 17 2 18 1 19 7 20 8 21 9 22 10 23 11 24
REMARK SMILES IDX 12 25 18 26 19 27 20 28 21 29 28 30 29 31 30 32 31 34 32 35
REMARK SMILES IDX 33 36 85 37 34 38 84 39 35 40 36 41 37 42 78 43 38 44 83 45
REMARK SMILES IDX 77 46 79 47 39 48 82 49 76 50 75 51 40 53 66 54 49 55 65 56
REMARK SMILES IDX 50 57 53 58 64 59 80 60 51 61 52 62 63 64 81 65 54 66 41 67
REMARK SMILES IDX 42 68 47 69 43 70 44 71 46 72 48 73 45 74 67 75 68 76 73 77
REMARK SMILES IDX 69 78 70 79 72 80 74 81 71 82 55 83 56 84 61 85 57 86 58 87
REMARK SMILES IDX 60 88 62 89 59 90
REMARK H PARENT 25 6 29 33 79 52 53 63
REMARK Flexibility Score: inf
ROOT
ATOM      1  C   UNL A   1      36.655  23.672  24.464  1.00  0.00     0.042 C 
ENDROOT
BRANCH   1   2
ATOM      2  C   UNL A   1      35.153  23.663  24.233  1.00  0.00     0.118 C 
BRANCH   2   3
ATOM      3  N   UNL A   1      34.518  22.725  25.171  1.00  0.00    -0.352 N 
ATOM      4  C   UNL A   1      33.264  23.093  25.844  1.00  0.00     0.251 C 
ATOM      5  O   UNL A   1      32.716  22.281  26.654  1.00  0.00    -0.270 OA
ATOM      6  H   UNL A   1      34.934  21.850  25.347  1.00  0.00     0.163 HD
BRANCH   4   7
ATOM      7  C   UNL A   1      32.623  24.444  25.571  1.00  0.00     0.067 C 
ATOM      8  C   UNL A   1      31.091  28.137  24.362  1.00  0.00    -0.004 A 
ATOM      9  C   UNL A   1      31.504  29.296  24.995  1.00  0.00     0.032 A 
ATOM     10  C   UNL A   1      31.651  26.941  24.743  1.00  0.00     0.131 A 
ATOM     11  C   UNL A   1      32.455  29.259  25.980  1.00  0.00     0.108 A 
ATOM     12  C   UNL A   1      32.600  26.865  25.746  1.00  0.00     0.019 A 
ATOM     13  O   UNL A   1      31.315  25.816  24.031  1.00  0.00    -0.475 OA
ATOM     14  C   UNL A   1      32.996  28.049  26.358  1.00  0.00     0.036 A 
ATOM     15  C   UNL A   1      33.160  25.559  26.050  1.00  0.00     0.025 C 
ATOM     16  C   UNL A   1      31.351  24.547  24.740  1.00  0.00     0.314 C 
BRANCH   8  17
ATOM     17  C   UNL A   1      30.185  28.273  23.149  1.00  0.00     0.039 C 
BRANCH  17  18
ATOM     18  C   UNL A   1      29.380  29.559  23.260  1.00  0.00     0.001 C 
ATOM     19  C   UNL A   1      28.226  29.520  22.272  1.00  0.00     0.004 C 
ENDBRANCH  17  18
ENDBRANCH   8  17
BRANCH  11  20
ATOM     20  S   UNL A   1      32.999  30.791  26.778  1.00  0.00     0.310 S 
ATOM     21  F   UNL A   1      33.155  30.091  28.193  1.00  0.00    -0.094 F 
ATOM     22  F   UNL A   1      31.495  31.067  27.158  1.00  0.00    -0.094 F 
ATOM     23  F   UNL A   1      33.442  32.119  27.454  1.00  0.00    -0.094 F 
ATOM     24  F   UNL A   1      34.513  30.429  26.513  1.00  0.00    -0.094 F 
ATOM     25  F   UNL A   1      32.575  29.386  26.189  1.00  0.00    -0.094 F 
ENDBRANCH  11  20
BRANCH  16  26
ATOM     26  C   UNL A   1      31.325  23.412  23.730  1.00  0.00     0.429 C 
ATOM     27  F   UNL A   1      32.387  23.500  22.935  1.00  0.00    -0.167 F 
ATOM     28  F   UNL A   1      31.347  22.247  24.371  1.00  0.00    -0.167 F 
ATOM     29  F   UNL A   1      30.216  23.495  22.998  1.00  0.00    -0.167 F 
ENDBRANCH  16  26
ENDBRANCH   4   7
ENDBRANCH   2   3
ENDBRANCH   1   2
BRANCH   1  30
ATOM     30  C   UNL A   1      36.947  23.315  25.912  1.00  0.00     0.118 C 
BRANCH  30  31
ATOM     31  N   UNL A   1      37.915  22.210  25.958  1.00  0.00    -0.352 N 
ATOM     32  C   UNL A   1      39.279  22.447  26.450  1.00  0.00     0.251 C 
ATOM     33  H   UNL A   1      37.649  21.310  25.659  1.00  0.00     0.163 HD
ATOM     34  O   UNL A   1      40.116  21.491  26.490  1.00  0.00    -0.269 OA
BRANCH  32  35
ATOM     35  C   UNL A   1      39.690  23.836  26.911  1.00  0.00     0.039 A 
ATOM     36  C   UNL A   1      39.609  24.152  28.258  1.00  0.00     0.014 A 
ATOM     37  C   UNL A   1      40.115  24.724  26.020  1.00  0.00     0.014 A 
ATOM     38  C   UNL A   1      39.728  25.534  28.531  1.00  0.00     0.010 A 
ATOM     39  C   UNL A   1      40.342  26.028  26.386  1.00  0.00     0.010 A 
ATOM     40  C   UNL A   1      40.224  26.424  27.690  1.00  0.00    -0.014 A 
BRANCH  40  41
ATOM     41  C   UNL A   1      40.641  27.812  28.146  1.00  0.00     0.031 A 
ATOM     42  C   UNL A   1      39.646  28.704  28.552  1.00  0.00     0.074 A 
ATOM     43  C   UNL A   1      41.993  28.113  28.137  1.00  0.00     0.049 A 
ATOM     44  N   UNL A   1      39.806  29.944  29.016  1.00  0.00    -0.248 NA
ATOM     45  C   UNL A   1      38.208  28.400  28.530  1.00  0.00     0.031 C 
ATOM     46  C   UNL A   1      43.003  27.216  27.737  1.00  0.00     0.029 A 
ATOM     47  N   UNL A   1      42.598  29.297  28.497  1.00  0.00    -0.354 N 
ATOM     48  C   UNL A   1      38.620  30.479  29.318  1.00  0.00     0.074 A 
ATOM     49  C   UNL A   1      37.576  29.495  29.004  1.00  0.00     0.031 C 
ATOM     50  C   UNL A   1      44.198  27.853  27.845  1.00  0.00     0.029 A 
ATOM     51  C   UNL A   1      43.957  29.158  28.314  1.00  0.00     0.049 A 
ATOM     52  H   UNL A   1      42.139  30.101  28.829  1.00  0.00     0.167 HD
ATOM     53  C   UNL A   1      38.371  31.747  29.845  1.00  0.00     0.037 A 
ATOM     54  C   UNL A   1      44.944  30.106  28.535  1.00  0.00     0.037 A 
ATOM     55  C   UNL A   1      39.362  32.679  30.108  1.00  0.00     0.049 A 
ATOM     56  C   UNL A   1      44.688  31.395  29.007  1.00  0.00     0.074 A 
ATOM     57  C   UNL A   1      39.128  33.959  30.646  1.00  0.00     0.029 A 
ATOM     58  N   UNL A   1      40.718  32.550  29.900  1.00  0.00    -0.354 N 
ATOM     59  N   UNL A   1      43.507  31.916  29.346  1.00  0.00    -0.248 NA
ATOM     60  C   UNL A   1      45.722  32.418  29.214  1.00  0.00     0.031 C 
ATOM     61  C   UNL A   1      40.325  34.597  30.753  1.00  0.00     0.029 A 
ATOM     62  C   UNL A   1      41.325  33.725  30.283  1.00  0.00     0.049 A 
ATOM     63  H   UNL A   1      41.173  31.755  29.541  1.00  0.00     0.167 HD
ATOM     64  C   UNL A   1      43.663  33.170  29.772  1.00  0.00     0.074 A 
ATOM     65  C   UNL A   1      45.090  33.514  29.686  1.00  0.00     0.031 C 
ATOM     66  C   UNL A   1      42.675  34.042  30.232  1.00  0.00     0.037 A 
BRANCH  53  67
ATOM     67  C   UNL A   1      36.931  32.127  30.149  1.00  0.00     0.057 A 
ATOM     68  C   UNL A   1      36.205  32.868  29.231  1.00  0.00     0.134 A 
ATOM     69  C   UNL A   1      36.456  31.880  31.364  1.00  0.00     0.134 A 
ATOM     70  F   UNL A   1      36.517  32.928  27.939  1.00  0.00    -0.206 F 
ATOM     71  C   UNL A   1      35.104  33.556  29.792  1.00  0.00     0.040 A 
ATOM     72  C   UNL A   1      35.300  32.482  31.799  1.00  0.00     0.040 A 
ATOM     73  F   UNL A   1      37.106  31.043  32.168  1.00  0.00    -0.206 F 
ATOM     74  C   UNL A   1      34.563  33.274  30.964  1.00  0.00     0.006 A 
ENDBRANCH  53  67
BRANCH  54  75
ATOM     75  C   UNL A   1      46.385  29.719  28.248  1.00  0.00     0.057 A 
ATOM     76  C   UNL A   1      47.012  29.983  27.041  1.00  0.00     0.134 A 
ATOM     77  C   UNL A   1      47.061  29.239  29.285  1.00  0.00     0.134 A 
ATOM     78  F   UNL A   1      46.443  30.691  26.069  1.00  0.00    -0.206 F 
ATOM     79  C   UNL A   1      48.311  29.433  26.937  1.00  0.00     0.040 A 
ATOM     80  C   UNL A   1      48.371  28.847  29.144  1.00  0.00     0.040 A 
ATOM     81  F   UNL A   1      46.467  29.137  30.470  1.00  0.00    -0.206 F 
ATOM     82  C   UNL A   1      49.035  29.025  27.963  1.00  0.00     0.006 A 
ENDBRANCH  54  75
BRANCH  66  83
ATOM     83  C   UNL A   1      43.102  35.421  30.706  1.00  0.00     0.057 A 
ATOM     84  C   UNL A   1      43.220  36.446  29.781  1.00  0.00     0.134 A 
ATOM     85  C   UNL A   1      43.358  35.622  31.993  1.00  0.00     0.134 A 
ATOM     86  F   UNL A   1      42.739  36.366  28.545  1.00  0.00    -0.206 F 
ATOM     87  C   UNL A   1      43.898  37.586  30.273  1.00  0.00     0.040 A 
ATOM     88  C   UNL A   1      43.895  36.812  32.423  1.00  0.00     0.040 A 
ATOM     89  F   UNL A   1      43.092  34.662  32.875  1.00  0.00    -0.206 F 
ATOM     90  C   UNL A   1      44.093  37.848  31.554  1.00  0.00     0.006 A 
ENDBRANCH  66  83
ENDBRANCH  40  41
ENDBRANCH  32  35
ENDBRANCH  30  31
ENDBRANCH   1  30
TORSDOF 14
ENDMDL
