MODEL 1
REMARK VINA RESULT:     -12.3      0.000      0.000
REMARK SMILES CC(C)CCc1cc2c(cc1Cl)C=C(C(=O)NCCCNC(=O)c1ccc(-c3c4nc(c(-c5c(F)cccc5F)c5ccc([nH]5)c(-c5c(F)cccc5F)c5nc(c(-c6c(F)cccc6F)c6ccc3[nH]6)C=C5)C=C4)cc1)[C@H](C(F)(F)F)O2
REMARK SMILES IDX 18 1 17 2 15 3 16 4 14 6 6 7 7 8 11 9 8 10 10 11 12 12 9 13
REMARK SMILES IDX 83 14 13 15 78 16 5 17 4 18 2 19 1 20 3 21 79 22 80 23 81 24
REMARK SMILES IDX 82 25 19 26 20 27 21 28 22 29 23 31 24 32 25 33 77 34 26 35
REMARK SMILES IDX 76 36 27 37 28 38 29 39 70 40 30 41 75 42 69 43 71 44 31 45
REMARK SMILES IDX 74 46 68 47 67 48 32 50 58 51 41 52 57 53 42 54 45 55 56 56
REMARK SMILES IDX 72 57 43 58 44 59 55 61 73 62 46 63 33 64 34 65 39 66 35 67
REMARK SMILES IDX 36 68 38 69 40 70 37 71 59 72 60 73 65 74 61 75 62 76 64 77
REMARK SMILES IDX 66 78 63 79 47 80 48 81 53 82 49 83 50 84 52 85 54 86 51 87
REMARK H PARENT 17 5 21 30 71 49 45 60
REMARK Flexibility Score: inf
ROOT
ATOM      1  C   UNL A   1      36.262  20.959  24.835  1.00  0.00     0.118 C 
ENDROOT
BRANCH   1   2
ATOM      2  N   UNL A   1      35.515  21.093  26.075  1.00  0.00    -0.352 N 
ATOM      3  C   UNL A   1      34.390  21.720  26.491  1.00  0.00     0.251 C 
ATOM      4  O   UNL A   1      34.050  21.479  27.653  1.00  0.00    -0.270 OA
ATOM      5  H   UNL A   1      35.941  20.593  26.809  1.00  0.00     0.163 HD
BRANCH   3   6
ATOM      6  C   UNL A   1      33.574  22.653  25.664  1.00  0.00     0.067 C 
ATOM      7  C   UNL A   1      31.787  26.720  23.254  1.00  0.00    -0.026 A 
ATOM      8  C   UNL A   1      31.334  25.411  23.477  1.00  0.00     0.052 A 
ATOM      9  C   UNL A   1      33.051  27.071  23.758  1.00  0.00     0.045 A 
ATOM     10  C   UNL A   1      32.076  24.514  24.235  1.00  0.00     0.128 A 
ATOM     11  C   UNL A   1      33.803  26.158  24.513  1.00  0.00     0.032 A 
ATOM     12  Cl  UNL A   1      33.745  28.632  23.495  1.00  0.00    -0.084 Cl
ATOM     13  C   UNL A   1      33.306  24.877  24.768  1.00  0.00     0.019 A 
ATOM     14  O   UNL A   1      31.491  23.303  24.462  1.00  0.00    -0.475 OA
ATOM     15  C   UNL A   1      34.020  23.923  25.608  1.00  0.00     0.025 C 
ATOM     16  C   UNL A   1      32.389  22.229  24.840  1.00  0.00     0.314 C 
BRANCH   7  17
ATOM     17  C   UNL A   1      30.890  27.674  22.491  1.00  0.00     0.037 C 
BRANCH  17  18
ATOM     18  C   UNL A   1      29.476  27.832  23.089  1.00  0.00     0.008 C 
BRANCH  18  19
ATOM     19  C   UNL A   1      28.753  29.142  22.712  1.00  0.00    -0.017 C 
ATOM     20  C   UNL A   1      27.266  29.093  23.058  1.00  0.00     0.007 C 
ATOM     21  C   UNL A   1      29.419  30.329  23.413  1.00  0.00     0.007 C 
ENDBRANCH  18  19
ENDBRANCH  17  18
ENDBRANCH   7  17
BRANCH  16  22
ATOM     22  C   UNL A   1      32.757  21.401  23.600  1.00  0.00     0.429 C 
ATOM     23  F   UNL A   1      33.114  20.133  23.902  1.00  0.00    -0.167 F 
ATOM     24  F   UNL A   1      31.746  21.326  22.705  1.00  0.00    -0.167 F 
ATOM     25  F   UNL A   1      33.807  21.972  22.956  1.00  0.00    -0.167 F 
ENDBRANCH  16  22
ENDBRANCH   3   6
ENDBRANCH   1   2
BRANCH   1  26
ATOM     26  C   UNL A   1      37.373  19.922  24.952  1.00  0.00     0.042 C 
BRANCH  26  27
ATOM     27  C   UNL A   1      38.639  20.490  25.584  1.00  0.00     0.118 C 
BRANCH  27  28
ATOM     28  N   UNL A   1      39.684  19.481  25.710  1.00  0.00    -0.352 N 
ATOM     29  C   UNL A   1      41.010  19.617  26.040  1.00  0.00     0.251 C 
ATOM     30  H   UNL A   1      39.392  18.557  25.532  1.00  0.00     0.163 HD
ATOM     31  O   UNL A   1      41.784  18.680  25.848  1.00  0.00    -0.269 OA
BRANCH  29  32
ATOM     32  C   UNL A   1      41.514  20.887  26.603  1.00  0.00     0.039 A 
ATOM     33  C   UNL A   1      41.441  21.133  27.973  1.00  0.00     0.014 A 
ATOM     34  C   UNL A   1      42.076  21.844  25.752  1.00  0.00     0.014 A 
ATOM     35  C   UNL A   1      41.738  22.397  28.465  1.00  0.00     0.010 A 
ATOM     36  C   UNL A   1      42.484  23.078  26.269  1.00  0.00     0.010 A 
ATOM     37  C   UNL A   1      42.268  23.385  27.622  1.00  0.00    -0.014 A 
BRANCH  37  38
ATOM     38  C   UNL A   1      42.588  24.724  28.184  1.00  0.00     0.031 A 
ATOM     39  C   UNL A   1      44.008  25.104  28.512  1.00  0.00     0.074 A 
ATOM     40  C   UNL A   1      41.598  25.624  28.346  1.00  0.00     0.049 A 
ATOM     41  N   UNL A   1      44.471  26.226  29.004  1.00  0.00    -0.248 NA
ATOM     42  C   UNL A   1      45.046  24.091  28.260  1.00  0.00     0.031 C 
ATOM     43  C   UNL A   1      40.182  25.384  28.050  1.00  0.00     0.029 A 
ATOM     44  N   UNL A   1      41.630  26.927  28.769  1.00  0.00    -0.354 N 
ATOM     45  C   UNL A   1      45.843  26.048  29.138  1.00  0.00     0.074 A 
ATOM     46  C   UNL A   1      46.135  24.697  28.711  1.00  0.00     0.031 C 
ATOM     47  C   UNL A   1      39.493  26.516  28.247  1.00  0.00     0.029 A 
ATOM     48  C   UNL A   1      40.399  27.537  28.756  1.00  0.00     0.049 A 
ATOM     49  H   UNL A   1      42.455  27.382  29.055  1.00  0.00     0.167 HD
ATOM     50  C   UNL A   1      46.777  26.933  29.565  1.00  0.00     0.037 A 
ATOM     51  C   UNL A   1      40.034  28.776  29.136  1.00  0.00     0.037 A 
ATOM     52  C   UNL A   1      46.486  28.282  29.979  1.00  0.00     0.049 A 
ATOM     53  C   UNL A   1      41.080  29.710  29.672  1.00  0.00     0.074 A 
ATOM     54  C   UNL A   1      47.362  29.261  30.415  1.00  0.00     0.029 A 
ATOM     55  N   UNL A   1      45.216  28.841  30.013  1.00  0.00    -0.354 N 
ATOM     56  N   UNL A   1      42.374  29.530  29.784  1.00  0.00    -0.248 NA
ATOM     57  C   UNL A   1      40.610  31.019  30.145  1.00  0.00     0.031 C 
ATOM     58  C   UNL A   1      46.618  30.394  30.761  1.00  0.00     0.029 A 
ATOM     59  C   UNL A   1      45.284  30.142  30.488  1.00  0.00     0.049 A 
ATOM     60  H   UNL A   1      44.389  28.382  29.740  1.00  0.00     0.167 HD
ATOM     61  C   UNL A   1      42.874  30.707  30.321  1.00  0.00     0.074 A 
ATOM     62  C   UNL A   1      41.748  31.603  30.486  1.00  0.00     0.031 C 
ATOM     63  C   UNL A   1      44.151  31.019  30.651  1.00  0.00     0.037 A 
BRANCH  50  64
ATOM     64  C   UNL A   1      48.202  26.458  29.628  1.00  0.00     0.057 A 
ATOM     65  C   UNL A   1      49.061  26.630  28.534  1.00  0.00     0.134 A 
ATOM     66  C   UNL A   1      48.723  25.815  30.759  1.00  0.00     0.134 A 
ATOM     67  F   UNL A   1      48.628  27.230  27.415  1.00  0.00    -0.206 F 
ATOM     68  C   UNL A   1      50.384  26.185  28.564  1.00  0.00     0.040 A 
ATOM     69  C   UNL A   1      50.053  25.391  30.812  1.00  0.00     0.040 A 
ATOM     70  F   UNL A   1      47.960  25.628  31.847  1.00  0.00    -0.206 F 
ATOM     71  C   UNL A   1      50.887  25.571  29.710  1.00  0.00     0.006 A 
ENDBRANCH  50  64
BRANCH  51  72
ATOM     72  C   UNL A   1      38.612  29.195  29.052  1.00  0.00     0.057 A 
ATOM     73  C   UNL A   1      37.768  29.143  30.169  1.00  0.00     0.134 A 
ATOM     74  C   UNL A   1      38.070  29.685  27.858  1.00  0.00     0.134 A 
ATOM     75  F   UNL A   1      38.224  28.677  31.342  1.00  0.00    -0.206 F 
ATOM     76  C   UNL A   1      36.438  29.554  30.101  1.00  0.00     0.040 A 
ATOM     77  C   UNL A   1      36.750  30.131  27.784  1.00  0.00     0.040 A 
ATOM     78  F   UNL A   1      38.834  29.778  26.759  1.00  0.00    -0.206 F 
ATOM     79  C   UNL A   1      35.928  30.063  28.908  1.00  0.00     0.006 A 
ENDBRANCH  51  72
BRANCH  63  80
ATOM     80  C   UNL A   1      44.393  32.399  31.194  1.00  0.00     0.057 A 
ATOM     81  C   UNL A   1      44.620  33.476  30.328  1.00  0.00     0.134 A 
ATOM     82  C   UNL A   1      44.400  32.663  32.570  1.00  0.00     0.134 A 
ATOM     83  F   UNL A   1      44.632  33.291  28.998  1.00  0.00    -0.206 F 
ATOM     84  C   UNL A   1      44.841  34.765  30.810  1.00  0.00     0.040 A 
ATOM     85  C   UNL A   1      44.590  33.955  33.063  1.00  0.00     0.040 A 
ATOM     86  F   UNL A   1      44.172  31.679  33.453  1.00  0.00    -0.206 F 
ATOM     87  C   UNL A   1      44.816  35.011  32.181  1.00  0.00     0.006 A 
ENDBRANCH  63  80
ENDBRANCH  37  38
ENDBRANCH  29  32
ENDBRANCH  27  28
ENDBRANCH  26  27
ENDBRANCH   1  26
TORSDOF 14
ENDMDL
MODEL 2
REMARK VINA RESULT:     -12.3      0.569      6.052
REMARK SMILES CC(C)CCc1cc2c(cc1Cl)C=C(C(=O)NCCCNC(=O)c1ccc(-c3c4nc(c(-c5c(F)cccc5F)c5ccc([nH]5)c(-c5c(F)cccc5F)c5nc(c(-c6c(F)cccc6F)c6ccc3[nH]6)C=C5)C=C4)cc1)[C@H](C(F)(F)F)O2
REMARK SMILES IDX 18 1 17 2 15 3 16 4 14 6 6 7 7 8 11 9 8 10 10 11 12 12 9 13
REMARK SMILES IDX 83 14 13 15 78 16 5 17 4 18 2 19 1 20 3 21 79 22 80 23 81 24
REMARK SMILES IDX 82 25 19 26 20 27 21 28 22 29 23 31 24 32 25 33 77 34 26 35
REMARK SMILES IDX 76 36 27 37 28 38 29 39 70 40 30 41 75 42 69 43 71 44 31 45
REMARK SMILES IDX 74 46 68 47 67 48 32 50 58 51 41 52 57 53 42 54 45 55 56 56
REMARK SMILES IDX 72 57 43 58 44 59 55 61 73 62 46 63 33 64 34 65 39 66 35 67
REMARK SMILES IDX 36 68 38 69 40 70 37 71 59 72 60 73 65 74 61 75 62 76 64 77
REMARK SMILES IDX 66 78 63 79 47 80 48 81 53 82 49 83 50 84 52 85 54 86 51 87
REMARK H PARENT 17 5 21 30 71 49 45 60
REMARK Flexibility Score: inf
ROOT
ATOM      1  C   UNL A   1      36.091  21.270  24.943  1.00  0.00     0.118 C 
ENDROOT
BRANCH   1   2
ATOM      2  N   UNL A   1      35.256  21.094  26.121  1.00  0.00    -0.352 N 
ATOM      3  C   UNL A   1      34.101  21.610  26.603  1.00  0.00     0.251 C 
ATOM      4  O   UNL A   1      33.679  21.086  27.638  1.00  0.00    -0.270 OA
ATOM      5  H   UNL A   1      35.630  20.418  26.731  1.00  0.00     0.163 HD
BRANCH   3   6
ATOM      6  C   UNL A   1      33.341  22.734  25.985  1.00  0.00     0.067 C 
ATOM      7  C   UNL A   1      31.726  27.303  24.551  1.00  0.00    -0.026 A 
ATOM      8  C   UNL A   1      31.253  25.989  24.418  1.00  0.00     0.052 A 
ATOM      9  C   UNL A   1      32.958  27.494  25.199  1.00  0.00     0.045 A 
ATOM     10  C   UNL A   1      31.943  24.918  24.974  1.00  0.00     0.128 A 
ATOM     11  C   UNL A   1      33.658  26.409  25.749  1.00  0.00     0.032 A 
ATOM     12  Cl  UNL A   1      33.674  29.058  25.371  1.00  0.00    -0.084 Cl
ATOM     13  C   UNL A   1      33.140  25.115  25.651  1.00  0.00     0.019 A 
ATOM     14  O   UNL A   1      31.340  23.700  24.860  1.00  0.00    -0.475 OA
ATOM     15  C   UNL A   1      33.797  23.969  26.270  1.00  0.00     0.025 C 
ATOM     16  C   UNL A   1      32.208  22.549  25.014  1.00  0.00     0.314 C 
BRANCH   7  17
ATOM     17  C   UNL A   1      30.882  28.432  23.997  1.00  0.00     0.037 C 
BRANCH  17  18
ATOM     18  C   UNL A   1      29.679  27.970  23.148  1.00  0.00     0.008 C 
BRANCH  18  19
ATOM     19  C   UNL A   1      28.700  29.091  22.741  1.00  0.00    -0.017 C 
ATOM     20  C   UNL A   1      27.261  28.763  23.135  1.00  0.00     0.007 C 
ATOM     21  C   UNL A   1      29.131  30.418  23.372  1.00  0.00     0.007 C 
ENDBRANCH  18  19
ENDBRANCH  17  18
ENDBRANCH   7  17
BRANCH  16  22
ATOM     22  C   UNL A   1      32.648  22.044  23.632  1.00  0.00     0.429 C 
ATOM     23  F   UNL A   1      33.012  20.743  23.639  1.00  0.00    -0.167 F 
ATOM     24  F   UNL A   1      31.681  22.180  22.695  1.00  0.00    -0.167 F 
ATOM     25  F   UNL A   1      33.717  22.759  23.195  1.00  0.00    -0.167 F 
ENDBRANCH  16  22
ENDBRANCH   3   6
ENDBRANCH   1   2
BRANCH   1  26
ATOM     26  C   UNL A   1      37.222  20.250  24.894  1.00  0.00     0.042 C 
BRANCH  26  27
ATOM     27  C   UNL A   1      38.502  20.766  25.543  1.00  0.00     0.118 C 
BRANCH  27  28
ATOM     28  N   UNL A   1      39.510  19.719  25.666  1.00  0.00    -0.352 N 
ATOM     29  C   UNL A   1      40.841  19.806  25.992  1.00  0.00     0.251 C 
ATOM     30  H   UNL A   1      39.185  18.807  25.487  1.00  0.00     0.163 HD
ATOM     31  O   UNL A   1      41.580  18.842  25.797  1.00  0.00    -0.269 OA
BRANCH  29  32
ATOM     32  C   UNL A   1      41.393  21.057  26.556  1.00  0.00     0.039 A 
ATOM     33  C   UNL A   1      41.311  21.313  27.924  1.00  0.00     0.014 A 
ATOM     34  C   UNL A   1      42.007  21.983  25.708  1.00  0.00     0.014 A 
ATOM     35  C   UNL A   1      41.656  22.566  28.413  1.00  0.00     0.010 A 
ATOM     36  C   UNL A   1      42.462  23.201  26.224  1.00  0.00     0.010 A 
ATOM     37  C   UNL A   1      42.241  23.525  27.572  1.00  0.00    -0.014 A 
BRANCH  37  38
ATOM     38  C   UNL A   1      42.611  24.852  28.132  1.00  0.00     0.031 A 
ATOM     39  C   UNL A   1      41.566  25.912  28.361  1.00  0.00     0.074 A 
ATOM     40  C   UNL A   1      43.890  25.081  28.492  1.00  0.00     0.049 A 
ATOM     41  N   UNL A   1      41.708  27.121  28.844  1.00  0.00    -0.248 NA
ATOM     42  C   UNL A   1      40.182  25.574  27.996  1.00  0.00     0.031 C 
ATOM     43  C   UNL A   1      44.994  24.129  28.336  1.00  0.00     0.029 A 
ATOM     44  N   UNL A   1      44.475  26.170  29.086  1.00  0.00    -0.354 N 
ATOM     45  C   UNL A   1      40.441  27.692  28.822  1.00  0.00     0.074 A 
ATOM     46  C   UNL A   1      39.548  26.711  28.244  1.00  0.00     0.031 C 
ATOM     47  C   UNL A   1      46.106  24.653  28.872  1.00  0.00     0.029 A 
ATOM     48  C   UNL A   1      45.815  26.002  29.337  1.00  0.00     0.049 A 
ATOM     49  H   UNL A   1      43.981  26.991  29.310  1.00  0.00     0.167 HD
ATOM     50  C   UNL A   1      40.053  28.916  29.257  1.00  0.00     0.037 A 
ATOM     51  C   UNL A   1      46.717  26.851  29.861  1.00  0.00     0.037 A 
ATOM     52  C   UNL A   1      40.941  29.887  29.843  1.00  0.00     0.049 A 
ATOM     53  C   UNL A   1      46.273  28.226  30.268  1.00  0.00     0.074 A 
ATOM     54  C   UNL A   1      40.645  31.150  30.327  1.00  0.00     0.029 A 
ATOM     55  N   UNL A   1      42.306  29.704  30.020  1.00  0.00    -0.354 N 
ATOM     56  N   UNL A   1      45.070  28.748  30.249  1.00  0.00    -0.248 NA
ATOM     57  C   UNL A   1      47.317  29.136  30.758  1.00  0.00     0.031 C 
ATOM     58  C   UNL A   1      41.836  31.750  30.748  1.00  0.00     0.029 A 
ATOM     59  C   UNL A   1      42.868  30.841  30.580  1.00  0.00     0.049 A 
ATOM     60  H   UNL A   1      42.802  28.888  29.782  1.00  0.00     0.167 HD
ATOM     61  C   UNL A   1      45.209  30.037  30.743  1.00  0.00     0.074 A 
ATOM     62  C   UNL A   1      46.607  30.208  31.077  1.00  0.00     0.031 C 
ATOM     63  C   UNL A   1      44.264  30.996  30.903  1.00  0.00     0.037 A 
BRANCH  50  64
ATOM     64  C   UNL A   1      38.605  29.282  29.090  1.00  0.00     0.057 A 
ATOM     65  C   UNL A   1      38.107  29.676  27.841  1.00  0.00     0.134 A 
ATOM     66  C   UNL A   1      37.704  29.266  30.164  1.00  0.00     0.134 A 
ATOM     67  F   UNL A   1      38.914  29.723  26.770  1.00  0.00    -0.206 F 
ATOM     68  C   UNL A   1      36.769  30.034  27.664  1.00  0.00     0.040 A 
ATOM     69  C   UNL A   1      36.356  29.594  29.994  1.00  0.00     0.040 A 
ATOM     70  F   UNL A   1      38.109  28.888  31.386  1.00  0.00    -0.206 F 
ATOM     71  C   UNL A   1      35.887  29.985  28.741  1.00  0.00     0.006 A 
ENDBRANCH  50  64
BRANCH  51  72
ATOM     72  C   UNL A   1      48.137  26.439  30.005  1.00  0.00     0.057 A 
ATOM     73  C   UNL A   1      48.599  25.805  31.166  1.00  0.00     0.134 A 
ATOM     74  C   UNL A   1      49.059  26.644  28.973  1.00  0.00     0.134 A 
ATOM     75  F   UNL A   1      47.767  25.585  32.195  1.00  0.00    -0.206 F 
ATOM     76  C   UNL A   1      49.926  25.397  31.298  1.00  0.00     0.040 A 
ATOM     77  C   UNL A   1      50.382  26.212  29.079  1.00  0.00     0.040 A 
ATOM     78  F   UNL A   1      48.673  27.228  27.829  1.00  0.00    -0.206 F 
ATOM     79  C   UNL A   1      50.819  25.590  30.247  1.00  0.00     0.006 A 
ENDBRANCH  51  72
BRANCH  63  80
ATOM     80  C   UNL A   1      44.717  32.300  31.494  1.00  0.00     0.057 A 
ATOM     81  C   UNL A   1      45.149  33.345  30.667  1.00  0.00     0.134 A 
ATOM     82  C   UNL A   1      44.726  32.525  32.877  1.00  0.00     0.134 A 
ATOM     83  F   UNL A   1      45.172  33.195  29.333  1.00  0.00    -0.206 F 
ATOM     84  C   UNL A   1      45.569  34.566  31.194  1.00  0.00     0.040 A 
ATOM     85  C   UNL A   1      45.116  33.753  33.414  1.00  0.00     0.040 A 
ATOM     86  F   UNL A   1      44.308  31.571  33.723  1.00  0.00    -0.206 F 
ATOM     87  C   UNL A   1      45.544  34.777  32.571  1.00  0.00     0.006 A 
ENDBRANCH  63  80
ENDBRANCH  37  38
ENDBRANCH  29  32
ENDBRANCH  27  28
ENDBRANCH  26  27
ENDBRANCH   1  26
TORSDOF 14
ENDMDL
MODEL 3
REMARK VINA RESULT:     -12.3      4.549      9.479
REMARK SMILES CC(C)CCc1cc2c(cc1Cl)C=C(C(=O)NCCCNC(=O)c1ccc(-c3c4nc(c(-c5c(F)cccc5F)c5ccc([nH]5)c(-c5c(F)cccc5F)c5nc(c(-c6c(F)cccc6F)c6ccc3[nH]6)C=C5)C=C4)cc1)[C@H](C(F)(F)F)O2
REMARK SMILES IDX 18 1 17 2 15 3 16 4 14 6 6 7 7 8 11 9 8 10 10 11 12 12 9 13
REMARK SMILES IDX 83 14 13 15 78 16 5 17 4 18 2 19 1 20 3 21 79 22 80 23 81 24
REMARK SMILES IDX 82 25 19 26 20 27 21 28 22 29 23 31 24 32 25 33 77 34 26 35
REMARK SMILES IDX 76 36 27 37 28 38 29 39 70 40 30 41 75 42 69 43 71 44 31 45
REMARK SMILES IDX 74 46 68 47 67 48 32 50 58 51 41 52 57 53 42 54 45 55 56 56
REMARK SMILES IDX 72 57 43 58 44 59 55 61 73 62 46 63 33 64 34 65 39 66 35 67
REMARK SMILES IDX 36 68 38 69 40 70 37 71 59 72 60 73 65 74 61 75 62 76 64 77
REMARK SMILES IDX 66 78 63 79 47 80 48 81 53 82 49 83 50 84 52 85 54 86 51 87
REMARK H PARENT 17 5 21 30 71 49 45 60
REMARK Flexibility Score: inf
ROOT
ATOM      1  C   UNL A   1      31.418  30.816  26.222  1.00  0.00     0.118 C 
ENDROOT
BRANCH   1   2
ATOM      2  N   UNL A   1      31.083  30.443  24.856  1.00  0.00    -0.352 N 
ATOM      3  C   UNL A   1      31.107  29.319  24.102  1.00  0.00     0.251 C 
ATOM      4  O   UNL A   1      30.624  29.431  22.972  1.00  0.00    -0.270 OA
ATOM      5  H   UNL A   1      30.750  31.214  24.343  1.00  0.00     0.163 HD
BRANCH   3   6
ATOM      6  C   UNL A   1      31.664  28.007  24.537  1.00  0.00     0.067 C 
ATOM      7  C   UNL A   1      32.262  23.387  26.497  1.00  0.00    -0.026 A 
ATOM      8  C   UNL A   1      33.108  24.344  25.917  1.00  0.00     0.052 A 
ATOM      9  C   UNL A   1      30.889  23.682  26.565  1.00  0.00     0.045 A 
ATOM     10  C   UNL A   1      32.618  25.573  25.492  1.00  0.00     0.128 A 
ATOM     11  C   UNL A   1      30.396  24.919  26.124  1.00  0.00     0.032 A 
ATOM     12  Cl  UNL A   1      29.738  22.559  27.200  1.00  0.00    -0.084 Cl
ATOM     13  C   UNL A   1      31.267  25.878  25.599  1.00  0.00     0.019 A 
ATOM     14  O   UNL A   1      33.550  26.456  25.031  1.00  0.00    -0.475 OA
ATOM     15  C   UNL A   1      30.809  27.202  25.197  1.00  0.00     0.025 C 
ATOM     16  C   UNL A   1      33.045  27.523  24.190  1.00  0.00     0.314 C 
BRANCH   7  17
ATOM     17  C   UNL A   1      32.874  22.103  27.017  1.00  0.00     0.037 C 
BRANCH  17  18
ATOM     18  C   UNL A   1      33.442  21.178  25.920  1.00  0.00     0.008 C 
BRANCH  18  19
ATOM     19  C   UNL A   1      32.399  20.644  24.916  1.00  0.00    -0.017 C 
ATOM     20  C   UNL A   1      32.522  21.319  23.552  1.00  0.00     0.007 C 
ATOM     21  C   UNL A   1      32.541  19.127  24.770  1.00  0.00     0.007 C 
ENDBRANCH  18  19
ENDBRANCH  17  18
ENDBRANCH   7  17
BRANCH  16  22
ATOM     22  C   UNL A   1      33.219  27.143  22.712  1.00  0.00     0.429 C 
ATOM     23  F   UNL A   1      32.049  26.851  22.103  1.00  0.00    -0.167 F 
ATOM     24  F   UNL A   1      33.809  28.122  21.988  1.00  0.00    -0.167 F 
ATOM     25  F   UNL A   1      34.013  26.047  22.605  1.00  0.00    -0.167 F 
ENDBRANCH  16  22
ENDBRANCH   3   6
ENDBRANCH   1   2
BRANCH   1  26
ATOM     26  C   UNL A   1      31.368  32.325  26.424  1.00  0.00     0.042 C 
BRANCH  26  27
ATOM     27  C   UNL A   1      32.537  32.843  27.255  1.00  0.00     0.118 C 
BRANCH  27  28
ATOM     28  N   UNL A   1      32.363  34.243  27.626  1.00  0.00    -0.352 N 
ATOM     29  C   UNL A   1      32.979  34.982  28.606  1.00  0.00     0.251 C 
ATOM     30  H   UNL A   1      31.699  34.735  27.090  1.00  0.00     0.163 HD
ATOM     31  O   UNL A   1      32.515  36.075  28.927  1.00  0.00    -0.269 OA
BRANCH  29  32
ATOM     32  C   UNL A   1      34.183  34.461  29.289  1.00  0.00     0.039 A 
ATOM     33  C   UNL A   1      35.445  34.616  28.717  1.00  0.00     0.014 A 
ATOM     34  C   UNL A   1      34.051  33.815  30.522  1.00  0.00     0.014 A 
ATOM     35  C   UNL A   1      36.537  33.960  29.268  1.00  0.00     0.010 A 
ATOM     36  C   UNL A   1      35.175  33.254  31.136  1.00  0.00     0.010 A 
ATOM     37  C   UNL A   1      36.420  33.275  30.487  1.00  0.00    -0.014 A 
BRANCH  37  38
ATOM     38  C   UNL A   1      37.614  32.595  31.055  1.00  0.00     0.031 A 
ATOM     39  C   UNL A   1      38.208  33.044  32.364  1.00  0.00     0.074 A 
ATOM     40  C   UNL A   1      38.131  31.528  30.414  1.00  0.00     0.049 A 
ATOM     41  N   UNL A   1      39.243  32.567  33.009  1.00  0.00    -0.248 NA
ATOM     42  C   UNL A   1      37.559  34.182  33.036  1.00  0.00     0.031 C 
ATOM     43  C   UNL A   1      37.638  30.984  29.145  1.00  0.00     0.029 A 
ATOM     44  N   UNL A   1      39.165  30.692  30.751  1.00  0.00    -0.354 N 
ATOM     45  C   UNL A   1      39.380  33.353  34.147  1.00  0.00     0.074 A 
ATOM     46  C   UNL A   1      38.346  34.364  34.086  1.00  0.00     0.031 C 
ATOM     47  C   UNL A   1      38.330  29.876  28.842  1.00  0.00     0.029 A 
ATOM     48  C   UNL A   1      39.364  29.676  29.848  1.00  0.00     0.049 A 
ATOM     49  H   UNL A   1      39.711  30.810  31.561  1.00  0.00     0.167 HD
ATOM     50  C   UNL A   1      40.277  33.237  35.157  1.00  0.00     0.037 A 
ATOM     51  C   UNL A   1      40.293  28.704  29.819  1.00  0.00     0.037 A 
ATOM     52  C   UNL A   1      41.298  32.223  35.221  1.00  0.00     0.049 A 
ATOM     53  C   UNL A   1      41.318  28.643  30.915  1.00  0.00     0.074 A 
ATOM     54  C   UNL A   1      42.247  32.012  36.208  1.00  0.00     0.029 A 
ATOM     55  N   UNL A   1      41.508  31.251  34.253  1.00  0.00    -0.354 N 
ATOM     56  N   UNL A   1      41.429  29.389  31.988  1.00  0.00    -0.248 NA
ATOM     57  C   UNL A   1      42.355  27.610  30.788  1.00  0.00     0.031 C 
ATOM     58  C   UNL A   1      43.062  30.946  35.812  1.00  0.00     0.029 A 
ATOM     59  C   UNL A   1      42.588  30.456  34.607  1.00  0.00     0.049 A 
ATOM     60  H   UNL A   1      40.971  31.143  33.436  1.00  0.00     0.167 HD
ATOM     61  C   UNL A   1      42.534  28.903  32.673  1.00  0.00     0.074 A 
ATOM     62  C   UNL A   1      43.041  27.783  31.907  1.00  0.00     0.031 C 
ATOM     63  C   UNL A   1      43.082  29.346  33.830  1.00  0.00     0.037 A 
BRANCH  50  64
ATOM     64  C   UNL A   1      40.206  34.251  36.265  1.00  0.00     0.057 A 
ATOM     65  C   UNL A   1      39.373  34.042  37.372  1.00  0.00     0.134 A 
ATOM     66  C   UNL A   1      40.945  35.442  36.232  1.00  0.00     0.134 A 
ATOM     67  F   UNL A   1      38.631  32.928  37.466  1.00  0.00    -0.206 F 
ATOM     68  C   UNL A   1      39.280  34.975  38.406  1.00  0.00     0.040 A 
ATOM     69  C   UNL A   1      40.883  36.370  37.275  1.00  0.00     0.040 A 
ATOM     70  F   UNL A   1      41.772  35.702  35.209  1.00  0.00    -0.206 F 
ATOM     71  C   UNL A   1      40.044  36.140  38.364  1.00  0.00     0.006 A 
ENDBRANCH  50  64
BRANCH  51  72
ATOM     72  C   UNL A   1      40.318  27.726  28.702  1.00  0.00     0.057 A 
ATOM     73  C   UNL A   1      41.063  27.964  27.540  1.00  0.00     0.134 A 
ATOM     74  C   UNL A   1      39.619  26.516  28.782  1.00  0.00     0.134 A 
ATOM     75  F   UNL A   1      41.751  29.107  27.398  1.00  0.00    -0.206 F 
ATOM     76  C   UNL A   1      41.106  27.040  26.496  1.00  0.00     0.040 A 
ATOM     77  C   UNL A   1      39.680  25.569  27.759  1.00  0.00     0.040 A 
ATOM     78  F   UNL A   1      38.903  26.222  29.877  1.00  0.00    -0.206 F 
ATOM     79  C   UNL A   1      40.423  25.832  26.609  1.00  0.00     0.006 A 
ENDBRANCH  51  72
BRANCH  63  80
ATOM     80  C   UNL A   1      44.274  28.592  34.347  1.00  0.00     0.057 A 
ATOM     81  C   UNL A   1      45.573  28.996  34.012  1.00  0.00     0.134 A 
ATOM     82  C   UNL A   1      44.140  27.469  35.174  1.00  0.00     0.134 A 
ATOM     83  F   UNL A   1      45.773  30.060  33.218  1.00  0.00    -0.206 F 
ATOM     84  C   UNL A   1      46.694  28.314  34.484  1.00  0.00     0.040 A 
ATOM     85  C   UNL A   1      45.255  26.796  35.677  1.00  0.00     0.040 A 
ATOM     86  F   UNL A   1      42.924  27.040  35.546  1.00  0.00    -0.206 F 
ATOM     87  C   UNL A   1      46.537  27.216  35.328  1.00  0.00     0.006 A 
ENDBRANCH  63  80
ENDBRANCH  37  38
ENDBRANCH  29  32
ENDBRANCH  27  28
ENDBRANCH  26  27
ENDBRANCH   1  26
TORSDOF 14
ENDMDL
