MODEL 1
REMARK VINA RESULT:     -12.0      0.000      0.000
REMARK SMILES C[C@@H](C(=O)NCCCNC(=O)c1ccc(-c2c3nc(c(-c4c(F)cccc4F)c4ccc([nH]4)c(-c4c(F)cccc4F)c4nc(c(-c5c(F)cccc5F)c5ccc2[nH]5)C=C4)C=C3)cc1)S(=O)(=O)N[C@@]12C[C@@H]3C[C@@](C)(C[C@@](C)(C3)C1)C2
REMARK SMILES IDX 6 1 5 2 3 3 4 4 2 6 1 7 66 8 67 9 68 10 69 11 70 13 71 14
REMARK SMILES IDX 80 15 81 16 72 17 77 18 74 19 79 20 73 21 76 22 78 23 75 24
REMARK SMILES IDX 7 25 8 26 9 27 10 28 11 30 12 31 13 32 65 33 14 34 64 35
REMARK SMILES IDX 15 36 16 37 17 38 58 39 18 40 63 41 57 42 59 43 19 44 62 45
REMARK SMILES IDX 56 46 55 47 20 49 46 50 29 51 45 52 30 53 33 54 44 55 60 56
REMARK SMILES IDX 31 57 32 58 43 60 61 61 34 62 21 63 22 64 27 65 23 66 24 67
REMARK SMILES IDX 26 68 28 69 25 70 47 71 48 72 53 73 49 74 50 75 52 76 54 77
REMARK SMILES IDX 51 78 35 79 36 80 41 81 37 82 38 83 40 84 42 85 39 86
REMARK H PARENT 5 5 69 12 9 29 59 48 33 59
REMARK Flexibility Score: inf
ROOT
ATOM      1  C   UNL A   1      32.134  26.844  26.126  1.00  0.00     0.117 C 
ENDROOT
BRANCH   1   2
ATOM      2  N   UNL A   1      31.441  27.368  24.964  1.00  0.00    -0.355 N 
ATOM      3  C   UNL A   1      31.858  27.708  23.708  1.00  0.00     0.239 C 
ATOM      4  O   UNL A   1      31.010  28.295  23.035  1.00  0.00    -0.274 OA
ATOM      5  H   UNL A   1      30.477  27.505  25.108  1.00  0.00     0.163 HD
BRANCH   3   6
ATOM      6  C   UNL A   1      33.217  27.285  23.174  1.00  0.00     0.209 C 
ATOM      7  C   UNL A   1      34.057  28.312  22.409  1.00  0.00     0.037 C 
BRANCH   6   8
ATOM      8  S   UNL A   1      33.080  25.697  22.289  1.00  0.00     0.223 S 
ATOM      9  O   UNL A   1      31.883  25.019  22.757  1.00  0.00    -0.212 OA
ATOM     10  O   UNL A   1      33.190  25.975  20.874  1.00  0.00    -0.212 OA
BRANCH   8  11
ATOM     11  N   UNL A   1      34.394  24.733  22.644  1.00  0.00    -0.208 NA
ATOM     12  H   UNL A   1      35.161  25.391  22.775  1.00  0.00     0.141 HD
BRANCH  11  13
ATOM     13  C   UNL A   1      34.562  23.751  23.730  1.00  0.00     0.034 C 
ATOM     14  C   UNL A   1      34.365  24.422  25.097  1.00  0.00     0.027 C 
ATOM     15  C   UNL A   1      33.622  22.549  23.544  1.00  0.00     0.030 C 
ATOM     16  C   UNL A   1      36.019  23.205  23.727  1.00  0.00     0.030 C 
ATOM     17  C   UNL A   1      34.491  23.414  26.238  1.00  0.00    -0.008 C 
ATOM     18  C   UNL A   1      33.782  21.529  24.692  1.00  0.00    -0.030 C 
ATOM     19  C   UNL A   1      36.232  22.192  24.892  1.00  0.00    -0.030 C 
ATOM     20  C   UNL A   1      33.488  22.268  26.020  1.00  0.00     0.010 C 
ATOM     21  C   UNL A   1      35.921  22.876  26.243  1.00  0.00     0.010 C 
ATOM     22  C   UNL A   1      35.241  21.020  24.714  1.00  0.00     0.013 C 
ATOM     23  C   UNL A   1      32.803  20.361  24.492  1.00  0.00     0.011 C 
ATOM     24  C   UNL A   1      37.672  21.675  24.916  1.00  0.00     0.011 C 
ENDBRANCH  11  13
ENDBRANCH   8  11
ENDBRANCH   6   8
ENDBRANCH   3   6
ENDBRANCH   1   2
BRANCH   1  25
ATOM     25  C   UNL A   1      32.286  27.933  27.193  1.00  0.00     0.042 C 
BRANCH  25  26
ATOM     26  C   UNL A   1      33.683  28.555  27.233  1.00  0.00     0.118 C 
BRANCH  26  27
ATOM     27  N   UNL A   1      33.647  29.958  27.622  1.00  0.00    -0.352 N 
ATOM     28  C   UNL A   1      34.572  30.712  28.298  1.00  0.00     0.251 C 
ATOM     29  H   UNL A   1      32.830  30.440  27.360  1.00  0.00     0.163 HD
ATOM     30  O   UNL A   1      34.250  31.813  28.736  1.00  0.00    -0.269 OA
BRANCH  28  31
ATOM     31  C   UNL A   1      35.945  30.211  28.507  1.00  0.00     0.039 A 
ATOM     32  C   UNL A   1      36.844  30.244  27.436  1.00  0.00     0.014 A 
ATOM     33  C   UNL A   1      36.337  29.664  29.732  1.00  0.00     0.014 A 
ATOM     34  C   UNL A   1      38.148  29.779  27.610  1.00  0.00     0.010 A 
ATOM     35  C   UNL A   1      37.657  29.267  29.926  1.00  0.00     0.010 A 
ATOM     36  C   UNL A   1      38.575  29.316  28.865  1.00  0.00    -0.014 A 
BRANCH  36  37
ATOM     37  C   UNL A   1      39.977  28.883  29.088  1.00  0.00     0.031 A 
ATOM     38  C   UNL A   1      40.978  29.828  29.692  1.00  0.00     0.074 A 
ATOM     39  C   UNL A   1      40.363  27.655  28.686  1.00  0.00     0.049 A 
ATOM     40  N   UNL A   1      42.260  29.654  29.899  1.00  0.00    -0.248 NA
ATOM     41  C   UNL A   1      40.480  31.154  30.093  1.00  0.00     0.031 C 
ATOM     42  C   UNL A   1      39.495  26.664  28.049  1.00  0.00     0.029 A 
ATOM     43  N   UNL A   1      41.586  27.038  28.745  1.00  0.00    -0.354 N 
ATOM     44  C   UNL A   1      42.721  30.848  30.440  1.00  0.00     0.074 A 
ATOM     45  C   UNL A   1      41.595  31.757  30.480  1.00  0.00     0.031 C 
ATOM     46  C   UNL A   1      40.208  25.554  27.796  1.00  0.00     0.029 A 
ATOM     47  C   UNL A   1      41.590  25.770  28.214  1.00  0.00     0.049 A 
ATOM     48  H   UNL A   1      42.387  27.461  29.132  1.00  0.00     0.167 HD
ATOM     49  C   UNL A   1      43.963  31.152  30.885  1.00  0.00     0.037 A 
ATOM     50  C   UNL A   1      42.595  24.886  28.069  1.00  0.00     0.037 A 
ATOM     51  C   UNL A   1      45.076  30.238  30.860  1.00  0.00     0.049 A 
ATOM     52  C   UNL A   1      43.969  25.255  28.556  1.00  0.00     0.074 A 
ATOM     53  C   UNL A   1      46.361  30.431  31.335  1.00  0.00     0.029 A 
ATOM     54  N   UNL A   1      45.036  28.959  30.325  1.00  0.00    -0.354 N 
ATOM     55  N   UNL A   1      44.375  26.363  29.126  1.00  0.00    -0.248 NA
ATOM     56  C   UNL A   1      45.023  24.245  28.385  1.00  0.00     0.031 C 
ATOM     57  C   UNL A   1      47.112  29.287  31.044  1.00  0.00     0.029 A 
ATOM     58  C   UNL A   1      46.281  28.360  30.438  1.00  0.00     0.049 A 
ATOM     59  H   UNL A   1      44.241  28.538  29.924  1.00  0.00     0.167 HD
ATOM     60  C   UNL A   1      45.721  26.173  29.410  1.00  0.00     0.074 A 
ATOM     61  C   UNL A   1      46.059  24.838  28.961  1.00  0.00     0.031 C 
ATOM     62  C   UNL A   1      46.599  27.027  29.993  1.00  0.00     0.037 A 
BRANCH  49  63
ATOM     63  C   UNL A   1      44.187  32.531  31.435  1.00  0.00     0.057 A 
ATOM     64  C   UNL A   1      44.025  32.819  32.797  1.00  0.00     0.134 A 
ATOM     65  C   UNL A   1      44.606  33.577  30.602  1.00  0.00     0.134 A 
ATOM     66  F   UNL A   1      43.616  31.867  33.650  1.00  0.00    -0.206 F 
ATOM     67  C   UNL A   1      44.243  34.102  33.305  1.00  0.00     0.040 A 
ATOM     68  C   UNL A   1      44.856  34.855  31.102  1.00  0.00     0.040 A 
ATOM     69  F   UNL A   1      44.788  33.370  29.289  1.00  0.00    -0.206 F 
ATOM     70  C   UNL A   1      44.667  35.122  32.457  1.00  0.00     0.006 A 
ENDBRANCH  49  63
BRANCH  50  71
ATOM     71  C   UNL A   1      42.337  23.561  27.453  1.00  0.00     0.057 A 
ATOM     72  C   UNL A   1      42.454  23.371  26.071  1.00  0.00     0.134 A 
ATOM     73  C   UNL A   1      41.959  22.455  28.225  1.00  0.00     0.134 A 
ATOM     74  F   UNL A   1      42.795  24.396  25.276  1.00  0.00    -0.206 F 
ATOM     75  C   UNL A   1      42.185  22.138  25.476  1.00  0.00     0.040 A 
ATOM     76  C   UNL A   1      41.715  21.208  27.648  1.00  0.00     0.040 A 
ATOM     77  F   UNL A   1      41.839  22.568  29.557  1.00  0.00    -0.206 F 
ATOM     78  C   UNL A   1      41.818  21.050  26.267  1.00  0.00     0.006 A 
ENDBRANCH  50  71
BRANCH  62  79
ATOM     79  C   UNL A   1      47.997  26.530  30.215  1.00  0.00     0.057 A 
ATOM     80  C   UNL A   1      48.370  25.862  31.389  1.00  0.00     0.134 A 
ATOM     81  C   UNL A   1      48.974  26.688  29.223  1.00  0.00     0.134 A 
ATOM     82  F   UNL A   1      47.486  25.689  32.383  1.00  0.00    -0.206 F 
ATOM     83  C   UNL A   1      49.670  25.389  31.577  1.00  0.00     0.040 A 
ATOM     84  C   UNL A   1      50.269  26.195  29.387  1.00  0.00     0.040 A 
ATOM     85  F   UNL A   1      48.681  27.311  28.072  1.00  0.00    -0.206 F 
ATOM     86  C   UNL A   1      50.622  25.548  30.570  1.00  0.00     0.006 A 
ENDBRANCH  62  79
ENDBRANCH  36  37
ENDBRANCH  28  31
ENDBRANCH  26  27
ENDBRANCH  25  26
ENDBRANCH   1  25
TORSDOF 13
ENDMDL
MODEL 2
REMARK VINA RESULT:     -11.8      2.349      7.669
REMARK SMILES C[C@@H](C(=O)NCCCNC(=O)c1ccc(-c2c3nc(c(-c4c(F)cccc4F)c4ccc([nH]4)c(-c4c(F)cccc4F)c4nc(c(-c5c(F)cccc5F)c5ccc2[nH]5)C=C4)C=C3)cc1)S(=O)(=O)N[C@@]12C[C@@H]3C[C@@](C)(C[C@@](C)(C3)C1)C2
REMARK SMILES IDX 6 1 5 2 3 3 4 4 2 6 1 7 66 8 67 9 68 10 69 11 70 13 71 14
REMARK SMILES IDX 80 15 81 16 72 17 77 18 74 19 79 20 73 21 76 22 78 23 75 24
REMARK SMILES IDX 7 25 8 26 9 27 10 28 11 30 12 31 13 32 65 33 14 34 64 35
REMARK SMILES IDX 15 36 16 37 17 38 58 39 18 40 63 41 57 42 59 43 19 44 62 45
REMARK SMILES IDX 56 46 55 47 20 49 46 50 29 51 45 52 30 53 33 54 44 55 60 56
REMARK SMILES IDX 31 57 32 58 43 60 61 61 34 62 21 63 22 64 27 65 23 66 24 67
REMARK SMILES IDX 26 68 28 69 25 70 47 71 48 72 53 73 49 74 50 75 52 76 54 77
REMARK SMILES IDX 51 78 35 79 36 80 41 81 37 82 38 83 40 84 42 85 39 86
REMARK H PARENT 5 5 69 12 9 29 59 48 33 59
REMARK Flexibility Score: inf
ROOT
ATOM      1  C   UNL A   1      36.327  19.609  24.984  1.00  0.00     0.117 C 
ENDROOT
BRANCH   1   2
ATOM      2  N   UNL A   1      35.866  20.773  25.718  1.00  0.00    -0.355 N 
ATOM      3  C   UNL A   1      35.576  22.053  25.342  1.00  0.00     0.239 C 
ATOM      4  O   UNL A   1      35.382  22.825  26.282  1.00  0.00    -0.274 OA
ATOM      5  H   UNL A   1      35.735  20.607  26.679  1.00  0.00     0.163 HD
BRANCH   3   6
ATOM      6  C   UNL A   1      35.402  22.440  23.882  1.00  0.00     0.209 C 
ATOM      7  C   UNL A   1      36.606  23.000  23.121  1.00  0.00     0.037 C 
BRANCH   6   8
ATOM      8  S   UNL A   1      33.909  23.466  23.676  1.00  0.00     0.223 S 
ATOM      9  O   UNL A   1      33.876  23.949  22.305  1.00  0.00    -0.212 OA
ATOM     10  O   UNL A   1      32.781  22.695  24.148  1.00  0.00    -0.212 OA
BRANCH   8  11
ATOM     11  N   UNL A   1      33.983  24.789  24.689  1.00  0.00    -0.208 NA
ATOM     12  H   UNL A   1      34.964  25.065  24.671  1.00  0.00     0.141 HD
BRANCH  11  13
ATOM     13  C   UNL A   1      33.243  26.061  24.616  1.00  0.00     0.034 C 
ATOM     14  C   UNL A   1      33.919  27.020  23.625  1.00  0.00     0.027 C 
ATOM     15  C   UNL A   1      31.765  25.826  24.263  1.00  0.00     0.030 C 
ATOM     16  C   UNL A   1      33.282  26.776  25.998  1.00  0.00     0.030 C 
ATOM     17  C   UNL A   1      33.144  28.331  23.498  1.00  0.00    -0.008 C 
ATOM     18  C   UNL A   1      30.993  27.159  24.165  1.00  0.00    -0.030 C 
ATOM     19  C   UNL A   1      32.537  28.144  25.933  1.00  0.00    -0.030 C 
ATOM     20  C   UNL A   1      31.692  28.028  23.092  1.00  0.00     0.010 C 
ATOM     21  C   UNL A   1      33.181  29.039  24.851  1.00  0.00     0.010 C 
ATOM     22  C   UNL A   1      31.069  27.887  25.526  1.00  0.00     0.013 C 
ATOM     23  C   UNL A   1      29.530  26.887  23.777  1.00  0.00     0.011 C 
ATOM     24  C   UNL A   1      32.599  28.867  27.281  1.00  0.00     0.011 C 
ENDBRANCH  11  13
ENDBRANCH   8  11
ENDBRANCH   6   8
ENDBRANCH   3   6
ENDBRANCH   1   2
BRANCH   1  25
ATOM     25  C   UNL A   1      37.800  19.769  24.598  1.00  0.00     0.042 C 
BRANCH  25  26
ATOM     26  C   UNL A   1      38.711  20.083  25.787  1.00  0.00     0.118 C 
BRANCH  26  27
ATOM     27  N   UNL A   1      39.893  19.234  25.811  1.00  0.00    -0.352 N 
ATOM     28  C   UNL A   1      41.208  19.554  26.034  1.00  0.00     0.251 C 
ATOM     29  H   UNL A   1      39.722  18.280  25.638  1.00  0.00     0.163 HD
ATOM     30  O   UNL A   1      42.082  18.732  25.777  1.00  0.00    -0.269 OA
BRANCH  28  31
ATOM     31  C   UNL A   1      41.579  20.876  26.577  1.00  0.00     0.039 A 
ATOM     32  C   UNL A   1      42.159  21.817  25.720  1.00  0.00     0.014 A 
ATOM     33  C   UNL A   1      41.408  21.176  27.931  1.00  0.00     0.014 A 
ATOM     34  C   UNL A   1      42.516  23.075  26.210  1.00  0.00     0.010 A 
ATOM     35  C   UNL A   1      41.697  22.454  28.402  1.00  0.00     0.010 A 
ATOM     36  C   UNL A   1      42.258  23.414  27.547  1.00  0.00    -0.014 A 
BRANCH  36  37
ATOM     37  C   UNL A   1      42.566  24.770  28.068  1.00  0.00     0.031 A 
ATOM     38  C   UNL A   1      43.962  25.118  28.507  1.00  0.00     0.074 A 
ATOM     39  C   UNL A   1      41.571  25.670  28.203  1.00  0.00     0.049 A 
ATOM     40  N   UNL A   1      44.407  26.222  29.051  1.00  0.00    -0.248 NA
ATOM     41  C   UNL A   1      44.988  24.076  28.338  1.00  0.00     0.031 C 
ATOM     42  C   UNL A   1      40.170  25.437  27.852  1.00  0.00     0.029 A 
ATOM     43  N   UNL A   1      41.586  26.955  28.682  1.00  0.00    -0.354 N 
ATOM     44  C   UNL A   1      45.757  26.005  29.299  1.00  0.00     0.074 A 
ATOM     45  C   UNL A   1      46.047  24.646  28.897  1.00  0.00     0.031 C 
ATOM     46  C   UNL A   1      39.463  26.550  28.106  1.00  0.00     0.029 A 
ATOM     47  C   UNL A   1      40.351  27.558  28.676  1.00  0.00     0.049 A 
ATOM     48  H   UNL A   1      42.403  27.404  28.999  1.00  0.00     0.167 HD
ATOM     49  C   UNL A   1      46.676  26.867  29.795  1.00  0.00     0.037 A 
ATOM     50  C   UNL A   1      39.975  28.782  29.094  1.00  0.00     0.037 A 
ATOM     51  C   UNL A   1      46.386  28.226  30.176  1.00  0.00     0.049 A 
ATOM     52  C   UNL A   1      41.012  29.714  29.656  1.00  0.00     0.074 A 
ATOM     53  C   UNL A   1      47.258  29.196  30.639  1.00  0.00     0.029 A 
ATOM     54  N   UNL A   1      45.126  28.803  30.144  1.00  0.00    -0.354 N 
ATOM     55  N   UNL A   1      42.297  29.518  29.822  1.00  0.00    -0.248 NA
ATOM     56  C   UNL A   1      40.546  31.041  30.082  1.00  0.00     0.031 C 
ATOM     57  C   UNL A   1      46.517  30.345  30.934  1.00  0.00     0.029 A 
ATOM     58  C   UNL A   1      45.193  30.110  30.601  1.00  0.00     0.049 A 
ATOM     59  H   UNL A   1      44.304  28.352  29.842  1.00  0.00     0.167 HD
ATOM     60  C   UNL A   1      42.799  30.704  30.342  1.00  0.00     0.074 A 
ATOM     61  C   UNL A   1      41.681  31.619  30.451  1.00  0.00     0.031 C 
ATOM     62  C   UNL A   1      44.072  31.010  30.696  1.00  0.00     0.037 A 
BRANCH  49  63
ATOM     63  C   UNL A   1      48.083  26.368  29.955  1.00  0.00     0.057 A 
ATOM     64  C   UNL A   1      49.033  26.491  28.932  1.00  0.00     0.134 A 
ATOM     65  C   UNL A   1      48.505  25.788  31.158  1.00  0.00     0.134 A 
ATOM     66  F   UNL A   1      48.693  27.027  27.750  1.00  0.00    -0.206 F 
ATOM     67  C   UNL A   1      50.343  26.033  29.090  1.00  0.00     0.040 A 
ATOM     68  C   UNL A   1      49.819  25.353  31.339  1.00  0.00     0.040 A 
ATOM     69  F   UNL A   1      47.650  25.644  32.182  1.00  0.00    -0.206 F 
ATOM     70  C   UNL A   1      50.740  25.468  30.300  1.00  0.00     0.006 A 
ENDBRANCH  49  63
BRANCH  50  71
ATOM     71  C   UNL A   1      38.557  29.203  28.979  1.00  0.00     0.057 A 
ATOM     72  C   UNL A   1      37.694  29.147  30.081  1.00  0.00     0.134 A 
ATOM     73  C   UNL A   1      38.025  29.664  27.768  1.00  0.00     0.134 A 
ATOM     74  F   UNL A   1      38.140  28.698  31.263  1.00  0.00    -0.206 F 
ATOM     75  C   UNL A   1      36.352  29.512  29.979  1.00  0.00     0.040 A 
ATOM     76  C   UNL A   1      36.691  30.059  27.658  1.00  0.00     0.040 A 
ATOM     77  F   UNL A   1      38.801  29.753  26.677  1.00  0.00    -0.206 F 
ATOM     78  C   UNL A   1      35.848  29.974  28.764  1.00  0.00     0.006 A 
ENDBRANCH  50  71
BRANCH  62  79
ATOM     79  C   UNL A   1      44.332  32.402  31.194  1.00  0.00     0.057 A 
ATOM     80  C   UNL A   1      44.631  33.459  30.324  1.00  0.00     0.134 A 
ATOM     81  C   UNL A   1      44.242  32.696  32.561  1.00  0.00     0.134 A 
ATOM     82  F   UNL A   1      44.744  33.242  29.005  1.00  0.00    -0.206 F 
ATOM     83  C   UNL A   1      44.854  34.752  30.798  1.00  0.00     0.040 A 
ATOM     84  C   UNL A   1      44.434  33.990  33.044  1.00  0.00     0.040 A 
ATOM     85  F   UNL A   1      43.951  31.731  33.447  1.00  0.00    -0.206 F 
ATOM     86  C   UNL A   1      44.748  35.022  32.162  1.00  0.00     0.006 A 
ENDBRANCH  62  79
ENDBRANCH  36  37
ENDBRANCH  28  31
ENDBRANCH  26  27
ENDBRANCH  25  26
ENDBRANCH   1  25
TORSDOF 13
ENDMDL
MODEL 3
REMARK VINA RESULT:     -11.7      2.393      7.393
REMARK SMILES C[C@@H](C(=O)NCCCNC(=O)c1ccc(-c2c3nc(c(-c4c(F)cccc4F)c4ccc([nH]4)c(-c4c(F)cccc4F)c4nc(c(-c5c(F)cccc5F)c5ccc2[nH]5)C=C4)C=C3)cc1)S(=O)(=O)N[C@@]12C[C@@H]3C[C@@](C)(C[C@@](C)(C3)C1)C2
REMARK SMILES IDX 6 1 5 2 3 3 4 4 2 6 1 7 66 8 67 9 68 10 69 11 70 13 71 14
REMARK SMILES IDX 80 15 81 16 72 17 77 18 74 19 79 20 73 21 76 22 78 23 75 24
REMARK SMILES IDX 7 25 8 26 9 27 10 28 11 30 12 31 13 32 65 33 14 34 64 35
REMARK SMILES IDX 15 36 16 37 17 38 58 39 18 40 63 41 57 42 59 43 19 44 62 45
REMARK SMILES IDX 56 46 55 47 20 49 46 50 29 51 45 52 30 53 33 54 44 55 60 56
REMARK SMILES IDX 31 57 32 58 43 60 61 61 34 62 21 63 22 64 27 65 23 66 24 67
REMARK SMILES IDX 26 68 28 69 25 70 47 71 48 72 53 73 49 74 50 75 52 76 54 77
REMARK SMILES IDX 51 78 35 79 36 80 41 81 37 82 38 83 40 84 42 85 39 86
REMARK H PARENT 5 5 69 12 9 29 59 48 33 59
REMARK Flexibility Score: inf
ROOT
ATOM      1  C   UNL A   1      36.186  20.544  25.041  1.00  0.00     0.117 C 
ENDROOT
BRANCH   1   2
ATOM      2  N   UNL A   1      36.252  21.819  24.349  1.00  0.00    -0.355 N 
ATOM      3  C   UNL A   1      35.325  22.555  23.668  1.00  0.00     0.239 C 
ATOM      4  O   UNL A   1      35.794  23.513  23.052  1.00  0.00    -0.274 OA
ATOM      5  H   UNL A   1      37.143  22.237  24.377  1.00  0.00     0.163 HD
BRANCH   3   6
ATOM      6  C   UNL A   1      33.837  22.263  23.770  1.00  0.00     0.209 C 
ATOM      7  C   UNL A   1      32.920  22.717  22.632  1.00  0.00     0.037 C 
BRANCH   6   8
ATOM      8  S   UNL A   1      33.210  22.755  25.410  1.00  0.00     0.223 S 
ATOM      9  O   UNL A   1      32.586  21.594  26.023  1.00  0.00    -0.212 OA
ATOM     10  O   UNL A   1      34.296  23.392  26.120  1.00  0.00    -0.212 OA
BRANCH   8  11
ATOM     11  N   UNL A   1      32.048  23.939  25.243  1.00  0.00    -0.208 NA
ATOM     12  H   UNL A   1      31.474  23.849  26.082  1.00  0.00     0.141 HD
BRANCH  11  13
ATOM     13  C   UNL A   1      32.217  25.393  25.070  1.00  0.00     0.034 C 
ATOM     14  C   UNL A   1      33.690  25.735  24.801  1.00  0.00     0.027 C 
ATOM     15  C   UNL A   1      31.295  25.933  23.965  1.00  0.00     0.030 C 
ATOM     16  C   UNL A   1      31.841  26.129  26.388  1.00  0.00     0.030 C 
ATOM     17  C   UNL A   1      33.884  27.233  24.574  1.00  0.00    -0.008 C 
ATOM     18  C   UNL A   1      31.486  27.452  23.767  1.00  0.00    -0.030 C 
ATOM     19  C   UNL A   1      32.049  27.667  26.241  1.00  0.00    -0.030 C 
ATOM     20  C   UNL A   1      32.975  27.696  23.422  1.00  0.00     0.010 C 
ATOM     21  C   UNL A   1      33.519  27.962  25.866  1.00  0.00     0.010 C 
ATOM     22  C   UNL A   1      31.153  28.178  25.090  1.00  0.00     0.013 C 
ATOM     23  C   UNL A   1      30.576  27.949  22.632  1.00  0.00     0.011 C 
ATOM     24  C   UNL A   1      31.712  28.395  27.544  1.00  0.00     0.011 C 
ENDBRANCH  11  13
ENDBRANCH   8  11
ENDBRANCH   6   8
ENDBRANCH   3   6
ENDBRANCH   1   2
BRANCH   1  25
ATOM     25  C   UNL A   1      37.482  19.756  24.834  1.00  0.00     0.042 C 
BRANCH  25  26
ATOM     26  C   UNL A   1      38.690  20.370  25.545  1.00  0.00     0.118 C 
BRANCH  26  27
ATOM     27  N   UNL A   1      39.772  19.410  25.714  1.00  0.00    -0.352 N 
ATOM     28  C   UNL A   1      41.079  19.607  26.076  1.00  0.00     0.251 C 
ATOM     29  H   UNL A   1      39.526  18.473  25.539  1.00  0.00     0.163 HD
ATOM     30  O   UNL A   1      41.891  18.698  25.931  1.00  0.00    -0.269 OA
BRANCH  28  31
ATOM     31  C   UNL A   1      41.520  20.902  26.635  1.00  0.00     0.039 A 
ATOM     32  C   UNL A   1      41.954  21.901  25.757  1.00  0.00     0.014 A 
ATOM     33  C   UNL A   1      41.555  21.119  28.015  1.00  0.00     0.014 A 
ATOM     34  C   UNL A   1      42.372  23.134  26.262  1.00  0.00     0.010 A 
ATOM     35  C   UNL A   1      41.903  22.372  28.512  1.00  0.00     0.010 A 
ATOM     36  C   UNL A   1      42.320  23.390  27.641  1.00  0.00    -0.014 A 
BRANCH  36  37
ATOM     37  C   UNL A   1      42.694  24.718  28.189  1.00  0.00     0.031 A 
ATOM     38  C   UNL A   1      41.648  25.780  28.390  1.00  0.00     0.074 A 
ATOM     39  C   UNL A   1      43.989  24.987  28.449  1.00  0.00     0.049 A 
ATOM     40  N   UNL A   1      41.793  27.018  28.791  1.00  0.00    -0.248 NA
ATOM     41  C   UNL A   1      40.259  25.411  28.072  1.00  0.00     0.031 C 
ATOM     42  C   UNL A   1      45.100  24.054  28.255  1.00  0.00     0.029 A 
ATOM     43  N   UNL A   1      44.589  26.127  28.919  1.00  0.00    -0.354 N 
ATOM     44  C   UNL A   1      40.520  27.576  28.762  1.00  0.00     0.074 A 
ATOM     45  C   UNL A   1      39.625  26.560  28.253  1.00  0.00     0.031 C 
ATOM     46  C   UNL A   1      46.244  24.651  28.626  1.00  0.00     0.029 A 
ATOM     47  C   UNL A   1      45.954  26.020  29.041  1.00  0.00     0.049 A 
ATOM     48  H   UNL A   1      44.090  26.944  29.149  1.00  0.00     0.167 HD
ATOM     49  C   UNL A   1      40.131  28.815  29.146  1.00  0.00     0.037 A 
ATOM     50  C   UNL A   1      46.869  26.926  29.433  1.00  0.00     0.037 A 
ATOM     51  C   UNL A   1      41.024  29.817  29.669  1.00  0.00     0.049 A 
ATOM     52  C   UNL A   1      46.412  28.300  29.839  1.00  0.00     0.074 A 
ATOM     53  C   UNL A   1      40.720  31.083  30.137  1.00  0.00     0.029 A 
ATOM     54  N   UNL A   1      42.397  29.666  29.789  1.00  0.00    -0.354 N 
ATOM     55  N   UNL A   1      45.198  28.792  29.869  1.00  0.00    -0.248 NA
ATOM     56  C   UNL A   1      47.454  29.243  30.271  1.00  0.00     0.031 C 
ATOM     57  C   UNL A   1      41.915  31.717  30.492  1.00  0.00     0.029 A 
ATOM     58  C   UNL A   1      42.957  30.826  30.300  1.00  0.00     0.049 A 
ATOM     59  H   UNL A   1      42.901  28.855  29.545  1.00  0.00     0.167 HD
ATOM     60  C   UNL A   1      45.325  30.088  30.352  1.00  0.00     0.074 A 
ATOM     61  C   UNL A   1      46.734  30.301  30.614  1.00  0.00     0.031 C 
ATOM     62  C   UNL A   1      44.361  31.019  30.563  1.00  0.00     0.037 A 
BRANCH  49  63
ATOM     63  C   UNL A   1      38.675  29.159  29.014  1.00  0.00     0.057 A 
ATOM     64  C   UNL A   1      37.798  29.097  30.105  1.00  0.00     0.134 A 
ATOM     65  C   UNL A   1      38.148  29.590  27.789  1.00  0.00     0.134 A 
ATOM     66  F   UNL A   1      38.234  28.682  31.305  1.00  0.00    -0.206 F 
ATOM     67  C   UNL A   1      36.447  29.426  29.979  1.00  0.00     0.040 A 
ATOM     68  C   UNL A   1      36.807  29.950  27.656  1.00  0.00     0.040 A 
ATOM     69  F   UNL A   1      38.932  29.679  26.704  1.00  0.00    -0.206 F 
ATOM     70  C   UNL A   1      35.950  29.862  28.752  1.00  0.00     0.006 A 
ENDBRANCH  49  63
BRANCH  50  71
ATOM     71  C   UNL A   1      48.307  26.559  29.480  1.00  0.00     0.057 A 
ATOM     72  C   UNL A   1      49.157  26.829  28.401  1.00  0.00     0.134 A 
ATOM     73  C   UNL A   1      48.865  25.924  30.596  1.00  0.00     0.134 A 
ATOM     74  F   UNL A   1      48.678  27.420  27.296  1.00  0.00    -0.206 F 
ATOM     75  C   UNL A   1      50.503  26.462  28.419  1.00  0.00     0.040 A 
ATOM     76  C   UNL A   1      50.216  25.576  30.640  1.00  0.00     0.040 A 
ATOM     77  F   UNL A   1      48.107  25.647  31.668  1.00  0.00    -0.206 F 
ATOM     78  C   UNL A   1      51.037  25.837  29.545  1.00  0.00     0.006 A 
ENDBRANCH  50  71
BRANCH  62  79
ATOM     79  C   UNL A   1      44.790  32.335  31.141  1.00  0.00     0.057 A 
ATOM     80  C   UNL A   1      45.125  33.428  30.330  1.00  0.00     0.134 A 
ATOM     81  C   UNL A   1      44.831  32.523  32.529  1.00  0.00     0.134 A 
ATOM     82  F   UNL A   1      45.118  33.311  28.994  1.00  0.00    -0.206 F 
ATOM     83  C   UNL A   1      45.507  34.653  30.880  1.00  0.00     0.040 A 
ATOM     84  C   UNL A   1      45.184  33.751  33.090  1.00  0.00     0.040 A 
ATOM     85  F   UNL A   1      44.515  31.520  33.361  1.00  0.00    -0.206 F 
ATOM     86  C   UNL A   1      45.529  34.819  32.264  1.00  0.00     0.006 A 
ENDBRANCH  62  79
ENDBRANCH  36  37
ENDBRANCH  28  31
ENDBRANCH  26  27
ENDBRANCH  25  26
ENDBRANCH   1  25
TORSDOF 13
ENDMDL
