MODEL 1
REMARK VINA RESULT:     -11.2      0.000      0.000
REMARK SMILES C[C@]([NH2+]Cc1nc(-c2ccsc2)no1)(C(=O)NCCCNC(=O)c1ccc(-c2c3nc(c(-c4c(F)cccc4F)c4ccc([nH]4)c(-c4c(F)cccc4F)c4nc(c(-c5c(F)cccc5F)c5ccc2[nH]5)C=C4)C=C3)cc1)C(F)(F)F
REMARK SMILES IDX 18 1 17 2 15 3 16 4 2 6 1 7 78 8 79 9 80 10 81 11 3 12 4 15
REMARK SMILES IDX 5 16 6 17 14 18 7 19 13 20 8 21 9 22 12 23 10 24 11 25 19 26
REMARK SMILES IDX 20 27 21 28 22 29 23 31 24 32 25 33 77 34 26 35 76 36 27 37
REMARK SMILES IDX 28 38 29 39 70 40 30 41 75 42 69 43 71 44 31 45 74 46 68 47
REMARK SMILES IDX 67 48 32 50 58 51 41 52 57 53 42 54 45 55 56 56 72 57 43 58
REMARK SMILES IDX 44 59 55 61 73 62 46 63 33 64 34 65 39 66 35 67 36 68 38 69
REMARK SMILES IDX 40 70 37 71 59 72 60 73 65 74 61 75 62 76 64 77 66 78 63 79
REMARK SMILES IDX 47 80 48 81 53 82 49 83 50 84 52 85 54 86 51 87
REMARK H PARENT 17 5 3 13 3 14 21 30 71 49 45 60
REMARK Flexibility Score: inf
ROOT
ATOM      1  C   UNL A   1      31.419  29.994  25.741  1.00  0.00     0.118 C 
ENDROOT
BRANCH   1   2
ATOM      2  N   UNL A   1      32.247  29.841  24.563  1.00  0.00    -0.350 N 
ATOM      3  C   UNL A   1      32.944  28.793  24.039  1.00  0.00     0.290 C 
ATOM      4  O   UNL A   1      33.675  29.104  23.094  1.00  0.00    -0.267 OA
ATOM      5  H   UNL A   1      32.323  30.665  24.030  1.00  0.00     0.163 HD
BRANCH   3   6
ATOM      6  C   UNL A   1      32.839  27.341  24.565  1.00  0.00     0.268 C 
ATOM      7  C   UNL A   1      33.588  26.366  23.637  1.00  0.00     0.101 C 
BRANCH   6   8
ATOM      8  C   UNL A   1      33.646  27.341  25.910  1.00  0.00     0.453 C 
ATOM      9  F   UNL A   1      32.844  27.323  27.000  1.00  0.00    -0.164 F 
ATOM     10  F   UNL A   1      34.422  26.224  25.990  1.00  0.00    -0.164 F 
ATOM     11  F   UNL A   1      34.491  28.393  26.016  1.00  0.00    -0.164 F 
ENDBRANCH   6   8
BRANCH   6  12
ATOM     12  N   UNL A   1      31.425  26.982  24.853  1.00  0.00    -0.318 N 
ATOM     13  H   UNL A   1      30.998  27.824  25.241  1.00  0.00     0.347 HD
ATOM     14  H   UNL A   1      31.547  26.149  25.428  1.00  0.00     0.347 HD
BRANCH  12  15
ATOM     15  C   UNL A   1      30.496  26.496  23.855  1.00  0.00     0.363 C 
BRANCH  15  16
ATOM     16  C   UNL A   1      29.588  27.570  23.352  1.00  0.00     0.282 A 
ATOM     17  N   UNL A   1      29.849  28.711  22.748  1.00  0.00    -0.186 NA
ATOM     18  O   UNL A   1      28.254  27.353  23.549  1.00  0.00    -0.333 OA
ATOM     19  C   UNL A   1      28.597  29.266  22.650  1.00  0.00     0.203 A 
ATOM     20  N   UNL A   1      27.597  28.491  23.090  1.00  0.00    -0.057 NA
BRANCH  19  21
ATOM     21  C   UNL A   1      28.406  30.629  22.159  1.00  0.00     0.033 A 
ATOM     22  C   UNL A   1      28.592  31.790  22.968  1.00  0.00     0.024 A 
ATOM     23  C   UNL A   1      28.016  30.952  20.875  1.00  0.00     0.077 A 
ATOM     24  C   UNL A   1      28.342  32.951  22.267  1.00  0.00     0.065 A 
ATOM     25  S   UNL A   1      27.870  32.642  20.650  1.00  0.00    -0.152 S 
ENDBRANCH  19  21
ENDBRANCH  15  16
ENDBRANCH  12  15
ENDBRANCH   6  12
ENDBRANCH   3   6
ENDBRANCH   1   2
BRANCH   1  26
ATOM     26  C   UNL A   1      31.324  31.455  26.170  1.00  0.00     0.042 C 
BRANCH  26  27
ATOM     27  C   UNL A   1      32.511  31.939  26.993  1.00  0.00     0.118 C 
BRANCH  27  28
ATOM     28  N   UNL A   1      32.385  33.339  27.365  1.00  0.00    -0.352 N 
ATOM     29  C   UNL A   1      33.126  34.099  28.233  1.00  0.00     0.251 C 
ATOM     30  H   UNL A   1      31.648  33.819  26.921  1.00  0.00     0.163 HD
ATOM     31  O   UNL A   1      32.708  35.205  28.565  1.00  0.00    -0.269 OA
BRANCH  29  32
ATOM     32  C   UNL A   1      34.414  33.610  28.779  1.00  0.00     0.039 A 
ATOM     33  C   UNL A   1      35.600  34.019  28.161  1.00  0.00     0.014 A 
ATOM     34  C   UNL A   1      34.462  32.698  29.838  1.00  0.00     0.014 A 
ATOM     35  C   UNL A   1      36.830  33.542  28.622  1.00  0.00     0.010 A 
ATOM     36  C   UNL A   1      35.691  32.282  30.345  1.00  0.00     0.010 A 
ATOM     37  C   UNL A   1      36.886  32.681  29.728  1.00  0.00    -0.014 A 
BRANCH  37  38
ATOM     38  C   UNL A   1      38.179  32.146  30.222  1.00  0.00     0.031 A 
ATOM     39  C   UNL A   1      38.716  30.855  29.667  1.00  0.00     0.074 A 
ATOM     40  C   UNL A   1      38.842  32.788  31.202  1.00  0.00     0.049 A 
ATOM     41  N   UNL A   1      39.782  30.182  30.020  1.00  0.00    -0.248 NA
ATOM     42  C   UNL A   1      37.937  30.222  28.591  1.00  0.00     0.031 C 
ATOM     43  C   UNL A   1      38.406  34.025  31.851  1.00  0.00     0.029 A 
ATOM     44  N   UNL A   1      40.022  32.479  31.831  1.00  0.00    -0.354 N 
ATOM     45  C   UNL A   1      39.786  29.038  29.231  1.00  0.00     0.074 A 
ATOM     46  C   UNL A   1      38.594  29.087  28.411  1.00  0.00     0.031 C 
ATOM     47  C   UNL A   1      39.316  34.380  32.773  1.00  0.00     0.029 A 
ATOM     48  C   UNL A   1      40.381  33.383  32.800  1.00  0.00     0.049 A 
ATOM     49  H   UNL A   1      40.559  31.685  31.608  1.00  0.00     0.167 HD
ATOM     50  C   UNL A   1      40.707  28.047  29.178  1.00  0.00     0.037 A 
ATOM     51  C   UNL A   1      41.449  33.402  33.619  1.00  0.00     0.037 A 
ATOM     52  C   UNL A   1      41.913  28.022  29.962  1.00  0.00     0.049 A 
ATOM     53  C   UNL A   1      42.473  32.307  33.520  1.00  0.00     0.074 A 
ATOM     54  C   UNL A   1      42.939  27.092  29.938  1.00  0.00     0.029 A 
ATOM     55  N   UNL A   1      42.259  28.976  30.906  1.00  0.00    -0.354 N 
ATOM     56  N   UNL A   1      42.488  31.258  32.735  1.00  0.00    -0.248 NA
ATOM     57  C   UNL A   1      43.635  32.404  34.418  1.00  0.00     0.031 C 
ATOM     58  C   UNL A   1      43.895  27.473  30.886  1.00  0.00     0.029 A 
ATOM     59  C   UNL A   1      43.479  28.656  31.476  1.00  0.00     0.049 A 
ATOM     60  H   UNL A   1      41.718  29.766  31.135  1.00  0.00     0.167 HD
ATOM     61  C   UNL A   1      43.668  30.584  33.023  1.00  0.00     0.074 A 
ATOM     62  C   UNL A   1      44.347  31.348  34.048  1.00  0.00     0.031 C 
ATOM     63  C   UNL A   1      44.145  29.435  32.486  1.00  0.00     0.037 A 
BRANCH  50  64
ATOM     64  C   UNL A   1      40.445  26.912  28.233  1.00  0.00     0.057 A 
ATOM     65  C   UNL A   1      41.032  26.861  26.963  1.00  0.00     0.134 A 
ATOM     66  C   UNL A   1      39.613  25.849  28.605  1.00  0.00     0.134 A 
ATOM     67  F   UNL A   1      41.827  27.856  26.541  1.00  0.00    -0.206 F 
ATOM     68  C   UNL A   1      40.781  25.805  26.085  1.00  0.00     0.040 A 
ATOM     69  C   UNL A   1      39.374  24.776  27.746  1.00  0.00     0.040 A 
ATOM     70  F   UNL A   1      39.022  25.834  29.810  1.00  0.00    -0.206 F 
ATOM     71  C   UNL A   1      39.953  24.755  26.478  1.00  0.00     0.006 A 
ENDBRANCH  50  64
BRANCH  51  72
ATOM     72  C   UNL A   1      41.623  34.517  34.582  1.00  0.00     0.057 A 
ATOM     73  C   UNL A   1      42.262  35.702  34.201  1.00  0.00     0.134 A 
ATOM     74  C   UNL A   1      41.157  34.427  35.897  1.00  0.00     0.134 A 
ATOM     75  F   UNL A   1      42.744  35.838  32.956  1.00  0.00    -0.206 F 
ATOM     76  C   UNL A   1      42.447  36.754  35.098  1.00  0.00     0.040 A 
ATOM     77  C   UNL A   1      41.317  35.479  36.801  1.00  0.00     0.040 A 
ATOM     78  F   UNL A   1      40.530  33.321  36.320  1.00  0.00    -0.206 F 
ATOM     79  C   UNL A   1      41.969  36.645  36.403  1.00  0.00     0.006 A 
ENDBRANCH  51  72
BRANCH  63  80
ATOM     80  C   UNL A   1      45.479  28.958  32.972  1.00  0.00     0.057 A 
ATOM     81  C   UNL A   1      46.674  29.378  32.375  1.00  0.00     0.134 A 
ATOM     82  C   UNL A   1      45.570  28.098  34.073  1.00  0.00     0.134 A 
ATOM     83  F   UNL A   1      46.651  30.191  31.309  1.00  0.00    -0.206 F 
ATOM     84  C   UNL A   1      47.914  28.945  32.847  1.00  0.00     0.040 A 
ATOM     85  C   UNL A   1      46.804  27.674  34.567  1.00  0.00     0.040 A 
ATOM     86  F   UNL A   1      44.461  27.665  34.692  1.00  0.00    -0.206 F 
ATOM     87  C   UNL A   1      47.981  28.094  33.950  1.00  0.00     0.006 A 
ENDBRANCH  63  80
ENDBRANCH  37  38
ENDBRANCH  29  32
ENDBRANCH  27  28
ENDBRANCH  26  27
ENDBRANCH   1  26
TORSDOF 15
ENDMDL
MODEL 2
REMARK VINA RESULT:     -11.1      0.685      6.200
REMARK SMILES C[C@]([NH2+]Cc1nc(-c2ccsc2)no1)(C(=O)NCCCNC(=O)c1ccc(-c2c3nc(c(-c4c(F)cccc4F)c4ccc([nH]4)c(-c4c(F)cccc4F)c4nc(c(-c5c(F)cccc5F)c5ccc2[nH]5)C=C4)C=C3)cc1)C(F)(F)F
REMARK SMILES IDX 18 1 17 2 15 3 16 4 2 6 1 7 78 8 79 9 80 10 81 11 3 12 4 15
REMARK SMILES IDX 5 16 6 17 14 18 7 19 13 20 8 21 9 22 12 23 10 24 11 25 19 26
REMARK SMILES IDX 20 27 21 28 22 29 23 31 24 32 25 33 77 34 26 35 76 36 27 37
REMARK SMILES IDX 28 38 29 39 70 40 30 41 75 42 69 43 71 44 31 45 74 46 68 47
REMARK SMILES IDX 67 48 32 50 58 51 41 52 57 53 42 54 45 55 56 56 72 57 43 58
REMARK SMILES IDX 44 59 55 61 73 62 46 63 33 64 34 65 39 66 35 67 36 68 38 69
REMARK SMILES IDX 40 70 37 71 59 72 60 73 65 74 61 75 62 76 64 77 66 78 63 79
REMARK SMILES IDX 47 80 48 81 53 82 49 83 50 84 52 85 54 86 51 87
REMARK H PARENT 17 5 3 13 3 14 21 30 71 49 45 60
REMARK Flexibility Score: inf
ROOT
ATOM      1  C   UNL A   1      31.432  29.723  25.399  1.00  0.00     0.118 C 
ENDROOT
BRANCH   1   2
ATOM      2  N   UNL A   1      32.372  29.563  24.309  1.00  0.00    -0.350 N 
ATOM      3  C   UNL A   1      33.097  28.505  23.847  1.00  0.00     0.290 C 
ATOM      4  O   UNL A   1      33.925  28.808  22.983  1.00  0.00    -0.267 OA
ATOM      5  H   UNL A   1      32.517  30.389  23.793  1.00  0.00     0.163 HD
BRANCH   3   6
ATOM      6  C   UNL A   1      32.913  27.051  24.347  1.00  0.00     0.268 C 
ATOM      7  C   UNL A   1      33.653  26.059  23.432  1.00  0.00     0.101 C 
BRANCH   6   8
ATOM      8  C   UNL A   1      33.671  26.999  25.720  1.00  0.00     0.453 C 
ATOM      9  F   UNL A   1      32.838  26.800  26.768  1.00  0.00    -0.164 F 
ATOM     10  F   UNL A   1      34.549  25.958  25.729  1.00  0.00    -0.164 F 
ATOM     11  F   UNL A   1      34.404  28.110  25.959  1.00  0.00    -0.164 F 
ENDBRANCH   6   8
BRANCH   6  12
ATOM     12  N   UNL A   1      31.475  26.749  24.580  1.00  0.00    -0.318 N 
ATOM     13  H   UNL A   1      31.075  27.597  24.984  1.00  0.00     0.347 HD
ATOM     14  H   UNL A   1      31.541  25.892  25.129  1.00  0.00     0.347 HD
BRANCH  12  15
ATOM     15  C   UNL A   1      30.558  26.342  23.538  1.00  0.00     0.363 C 
BRANCH  15  16
ATOM     16  C   UNL A   1      29.632  27.441  23.132  1.00  0.00     0.282 A 
ATOM     17  N   UNL A   1      29.857  28.568  22.489  1.00  0.00    -0.186 NA
ATOM     18  O   UNL A   1      28.324  27.271  23.486  1.00  0.00    -0.333 OA
ATOM     19  C   UNL A   1      28.620  29.164  22.531  1.00  0.00     0.203 A 
ATOM     20  N   UNL A   1      27.654  28.426  23.094  1.00  0.00    -0.057 NA
BRANCH  19  21
ATOM     21  C   UNL A   1      28.417  30.529  22.050  1.00  0.00     0.033 A 
ATOM     22  C   UNL A   1      28.601  31.685  22.866  1.00  0.00     0.024 A 
ATOM     23  C   UNL A   1      28.017  30.858  20.772  1.00  0.00     0.077 A 
ATOM     24  C   UNL A   1      28.339  32.850  22.174  1.00  0.00     0.065 A 
ATOM     25  S   UNL A   1      27.859  32.548  20.559  1.00  0.00    -0.152 S 
ENDBRANCH  19  21
ENDBRANCH  15  16
ENDBRANCH  12  15
ENDBRANCH   6  12
ENDBRANCH   3   6
ENDBRANCH   1   2
BRANCH   1  26
ATOM     26  C   UNL A   1      31.298  31.187  25.808  1.00  0.00     0.042 C 
BRANCH  26  27
ATOM     27  C   UNL A   1      32.246  31.610  26.923  1.00  0.00     0.118 C 
BRANCH  27  28
ATOM     28  N   UNL A   1      32.160  33.034  27.204  1.00  0.00    -0.352 N 
ATOM     29  C   UNL A   1      32.925  33.827  28.020  1.00  0.00     0.251 C 
ATOM     30  H   UNL A   1      31.436  33.505  26.731  1.00  0.00     0.163 HD
ATOM     31  O   UNL A   1      32.539  34.964  28.280  1.00  0.00    -0.269 OA
BRANCH  29  32
ATOM     32  C   UNL A   1      34.201  33.339  28.595  1.00  0.00     0.039 A 
ATOM     33  C   UNL A   1      35.398  33.697  27.967  1.00  0.00     0.014 A 
ATOM     34  C   UNL A   1      34.226  32.473  29.692  1.00  0.00     0.014 A 
ATOM     35  C   UNL A   1      36.616  33.218  28.455  1.00  0.00     0.010 A 
ATOM     36  C   UNL A   1      35.444  32.056  30.224  1.00  0.00     0.010 A 
ATOM     37  C   UNL A   1      36.650  32.405  29.598  1.00  0.00    -0.014 A 
BRANCH  37  38
ATOM     38  C   UNL A   1      37.929  31.868  30.123  1.00  0.00     0.031 A 
ATOM     39  C   UNL A   1      38.548  32.473  31.353  1.00  0.00     0.074 A 
ATOM     40  C   UNL A   1      38.561  30.875  29.468  1.00  0.00     0.049 A 
ATOM     41  N   UNL A   1      39.695  32.202  31.923  1.00  0.00    -0.248 NA
ATOM     42  C   UNL A   1      37.789  33.546  32.016  1.00  0.00     0.031 C 
ATOM     43  C   UNL A   1      38.087  30.232  28.242  1.00  0.00     0.029 A 
ATOM     44  N   UNL A   1      39.748  30.242  29.739  1.00  0.00    -0.354 N 
ATOM     45  C   UNL A   1      39.805  33.085  32.990  1.00  0.00     0.074 A 
ATOM     46  C   UNL A   1      38.630  33.929  32.964  1.00  0.00     0.031 C 
ATOM     47  C   UNL A   1      38.963  29.282  27.878  1.00  0.00     0.029 A 
ATOM     48  C   UNL A   1      40.074  29.270  28.826  1.00  0.00     0.049 A 
ATOM     49  H   UNL A   1      40.311  30.464  30.515  1.00  0.00     0.167 HD
ATOM     50  C   UNL A   1      40.785  33.173  33.920  1.00  0.00     0.037 A 
ATOM     51  C   UNL A   1      41.148  28.461  28.761  1.00  0.00     0.037 A 
ATOM     52  C   UNL A   1      41.932  32.305  33.972  1.00  0.00     0.049 A 
ATOM     53  C   UNL A   1      42.207  28.557  29.822  1.00  0.00     0.074 A 
ATOM     54  C   UNL A   1      42.950  32.275  34.909  1.00  0.00     0.029 A 
ATOM     55  N   UNL A   1      42.206  31.307  33.049  1.00  0.00    -0.354 N 
ATOM     56  N   UNL A   1      42.274  29.364  30.852  1.00  0.00    -0.248 NA
ATOM     57  C   UNL A   1      43.339  27.624  29.714  1.00  0.00     0.031 C 
ATOM     58  C   UNL A   1      43.854  31.273  34.539  1.00  0.00     0.029 A 
ATOM     59  C   UNL A   1      43.381  30.659  33.390  1.00  0.00     0.049 A 
ATOM     60  H   UNL A   1      41.647  31.091  32.268  1.00  0.00     0.167 HD
ATOM     61  C   UNL A   1      43.436  29.020  31.530  1.00  0.00     0.074 A 
ATOM     62  C   UNL A   1      44.039  27.925  30.799  1.00  0.00     0.031 C 
ATOM     63  C   UNL A   1      43.957  29.563  32.657  1.00  0.00     0.037 A 
BRANCH  50  64
ATOM     64  C   UNL A   1      40.653  34.244  34.962  1.00  0.00     0.057 A 
ATOM     65  C   UNL A   1      41.178  35.528  34.770  1.00  0.00     0.134 A 
ATOM     66  C   UNL A   1      39.978  33.994  36.163  1.00  0.00     0.134 A 
ATOM     67  F   UNL A   1      41.849  35.827  33.647  1.00  0.00    -0.206 F 
ATOM     68  C   UNL A   1      41.058  36.519  35.745  1.00  0.00     0.040 A 
ATOM     69  C   UNL A   1      39.830  34.984  37.136  1.00  0.00     0.040 A 
ATOM     70  F   UNL A   1      39.448  32.786  36.409  1.00  0.00    -0.206 F 
ATOM     71  C   UNL A   1      40.377  36.250  36.931  1.00  0.00     0.006 A 
ENDBRANCH  50  64
BRANCH  51  72
ATOM     72  C   UNL A   1      41.258  27.465  27.668  1.00  0.00     0.057 A 
ATOM     73  C   UNL A   1      40.682  26.196  27.793  1.00  0.00     0.134 A 
ATOM     74  C   UNL A   1      41.937  27.753  26.480  1.00  0.00     0.134 A 
ATOM     75  F   UNL A   1      40.033  25.858  28.917  1.00  0.00    -0.206 F 
ATOM     76  C   UNL A   1      40.790  25.242  26.781  1.00  0.00     0.040 A 
ATOM     77  C   UNL A   1      42.037  26.816  25.450  1.00  0.00     0.040 A 
ATOM     78  F   UNL A   1      42.504  28.954  26.298  1.00  0.00    -0.206 F 
ATOM     79  C   UNL A   1      41.466  25.553  25.602  1.00  0.00     0.006 A 
ENDBRANCH  51  72
BRANCH  63  80
ATOM     80  C   UNL A   1      45.221  28.956  33.185  1.00  0.00     0.057 A 
ATOM     81  C   UNL A   1      45.204  27.876  34.076  1.00  0.00     0.134 A 
ATOM     82  C   UNL A   1      46.470  29.434  32.767  1.00  0.00     0.134 A 
ATOM     83  F   UNL A   1      44.039  27.383  34.522  1.00  0.00    -0.206 F 
ATOM     84  C   UNL A   1      46.385  27.303  34.547  1.00  0.00     0.040 A 
ATOM     85  C   UNL A   1      47.658  28.856  33.216  1.00  0.00     0.040 A 
ATOM     86  F   UNL A   1      46.553  30.463  31.911  1.00  0.00    -0.206 F 
ATOM     87  C   UNL A   1      47.618  27.790  34.112  1.00  0.00     0.006 A 
ENDBRANCH  63  80
ENDBRANCH  37  38
ENDBRANCH  29  32
ENDBRANCH  27  28
ENDBRANCH  26  27
ENDBRANCH   1  26
TORSDOF 15
ENDMDL
MODEL 3
REMARK VINA RESULT:     -10.9      4.359      8.810
REMARK SMILES C[C@]([NH2+]Cc1nc(-c2ccsc2)no1)(C(=O)NCCCNC(=O)c1ccc(-c2c3nc(c(-c4c(F)cccc4F)c4ccc([nH]4)c(-c4c(F)cccc4F)c4nc(c(-c5c(F)cccc5F)c5ccc2[nH]5)C=C4)C=C3)cc1)C(F)(F)F
REMARK SMILES IDX 18 1 17 2 15 3 16 4 2 6 1 7 78 8 79 9 80 10 81 11 3 12 4 15
REMARK SMILES IDX 5 16 6 17 14 18 7 19 13 20 8 21 9 22 12 23 10 24 11 25 19 26
REMARK SMILES IDX 20 27 21 28 22 29 23 31 24 32 25 33 77 34 26 35 76 36 27 37
REMARK SMILES IDX 28 38 29 39 70 40 30 41 75 42 69 43 71 44 31 45 74 46 68 47
REMARK SMILES IDX 67 48 32 50 58 51 41 52 57 53 42 54 45 55 56 56 72 57 43 58
REMARK SMILES IDX 44 59 55 61 73 62 46 63 33 64 34 65 39 66 35 67 36 68 38 69
REMARK SMILES IDX 40 70 37 71 59 72 60 73 65 74 61 75 62 76 64 77 66 78 63 79
REMARK SMILES IDX 47 80 48 81 53 82 49 83 50 84 52 85 54 86 51 87
REMARK H PARENT 17 5 3 13 3 14 21 30 71 49 45 60
REMARK Flexibility Score: inf
ROOT
ATOM      1  C   UNL A   1      36.218  20.596  24.966  1.00  0.00     0.118 C 
ENDROOT
BRANCH   1   2
ATOM      2  N   UNL A   1      34.991  19.836  25.092  1.00  0.00    -0.350 N 
ATOM      3  C   UNL A   1      33.689  20.188  25.289  1.00  0.00     0.290 C 
ATOM      4  O   UNL A   1      32.942  19.230  25.511  1.00  0.00    -0.267 OA
ATOM      5  H   UNL A   1      35.125  18.864  25.021  1.00  0.00     0.163 HD
BRANCH   3   6
ATOM      6  C   UNL A   1      33.175  21.648  25.241  1.00  0.00     0.268 C 
ATOM      7  C   UNL A   1      34.272  22.631  25.691  1.00  0.00     0.101 C 
BRANCH   6   8
ATOM      8  C   UNL A   1      32.949  21.944  23.717  1.00  0.00     0.453 C 
ATOM      9  F   UNL A   1      34.051  22.450  23.114  1.00  0.00    -0.164 F 
ATOM     10  F   UNL A   1      32.650  20.790  23.056  1.00  0.00    -0.164 F 
ATOM     11  F   UNL A   1      31.913  22.784  23.493  1.00  0.00    -0.164 F 
ENDBRANCH   6   8
BRANCH   6  12
ATOM     12  N   UNL A   1      31.876  21.777  25.953  1.00  0.00    -0.318 N 
ATOM     13  H   UNL A   1      31.618  20.830  26.235  1.00  0.00     0.347 HD
ATOM     14  H   UNL A   1      31.323  22.283  25.262  1.00  0.00     0.347 HD
BRANCH  12  15
ATOM     15  C   UNL A   1      31.678  22.601  27.126  1.00  0.00     0.363 C 
BRANCH  15  16
ATOM     16  C   UNL A   1      31.284  23.999  26.780  1.00  0.00     0.282 A 
ATOM     17  N   UNL A   1      32.011  25.081  26.589  1.00  0.00    -0.186 NA
ATOM     18  O   UNL A   1      29.943  24.216  26.639  1.00  0.00    -0.333 OA
ATOM     19  C   UNL A   1      31.043  26.037  26.406  1.00  0.00     0.203 A 
ATOM     20  N   UNL A   1      29.784  25.577  26.401  1.00  0.00    -0.057 NA
BRANCH  19  21
ATOM     21  C   UNL A   1      31.386  27.454  26.295  1.00  0.00     0.033 A 
ATOM     22  C   UNL A   1      31.718  28.273  27.415  1.00  0.00     0.024 A 
ATOM     23  C   UNL A   1      31.415  28.162  25.111  1.00  0.00     0.077 A 
ATOM     24  C   UNL A   1      31.994  29.571  27.040  1.00  0.00     0.065 A 
ATOM     25  S   UNL A   1      31.836  29.804  25.351  1.00  0.00    -0.152 S 
ENDBRANCH  19  21
ENDBRANCH  15  16
ENDBRANCH  12  15
ENDBRANCH   6  12
ENDBRANCH   3   6
ENDBRANCH   1   2
BRANCH   1  26
ATOM     26  C   UNL A   1      37.441  19.683  24.965  1.00  0.00     0.042 C 
BRANCH  26  27
ATOM     27  C   UNL A   1      38.713  20.349  25.476  1.00  0.00     0.118 C 
BRANCH  27  28
ATOM     28  N   UNL A   1      39.788  19.391  25.679  1.00  0.00    -0.352 N 
ATOM     29  C   UNL A   1      41.091  19.584  26.060  1.00  0.00     0.251 C 
ATOM     30  H   UNL A   1      39.540  18.452  25.518  1.00  0.00     0.163 HD
ATOM     31  O   UNL A   1      41.888  18.656  25.955  1.00  0.00    -0.269 OA
BRANCH  29  32
ATOM     32  C   UNL A   1      41.554  20.889  26.588  1.00  0.00     0.039 A 
ATOM     33  C   UNL A   1      41.460  21.125  27.964  1.00  0.00     0.014 A 
ATOM     34  C   UNL A   1      42.005  21.905  25.741  1.00  0.00     0.014 A 
ATOM     35  C   UNL A   1      41.846  22.360  28.491  1.00  0.00     0.010 A 
ATOM     36  C   UNL A   1      42.460  23.109  26.274  1.00  0.00     0.010 A 
ATOM     37  C   UNL A   1      42.364  23.357  27.651  1.00  0.00    -0.014 A 
BRANCH  37  38
ATOM     38  C   UNL A   1      42.761  24.683  28.185  1.00  0.00     0.031 A 
ATOM     39  C   UNL A   1      41.717  25.743  28.410  1.00  0.00     0.074 A 
ATOM     40  C   UNL A   1      44.059  24.953  28.418  1.00  0.00     0.049 A 
ATOM     41  N   UNL A   1      41.868  26.986  28.793  1.00  0.00    -0.248 NA
ATOM     42  C   UNL A   1      40.321  25.365  28.142  1.00  0.00     0.031 C 
ATOM     43  C   UNL A   1      45.170  24.026  28.203  1.00  0.00     0.029 A 
ATOM     44  N   UNL A   1      44.664  26.096  28.879  1.00  0.00    -0.354 N 
ATOM     45  C   UNL A   1      40.594  27.542  28.786  1.00  0.00     0.074 A 
ATOM     46  C   UNL A   1      39.688  26.514  28.320  1.00  0.00     0.031 C 
ATOM     47  C   UNL A   1      46.318  24.629  28.549  1.00  0.00     0.029 A 
ATOM     48  C   UNL A   1      46.029  25.992  28.981  1.00  0.00     0.049 A 
ATOM     49  H   UNL A   1      44.165  26.911  29.114  1.00  0.00     0.167 HD
ATOM     50  C   UNL A   1      40.210  28.787  29.152  1.00  0.00     0.037 A 
ATOM     51  C   UNL A   1      46.943  26.897  29.379  1.00  0.00     0.037 A 
ATOM     52  C   UNL A   1      41.105  29.794  29.657  1.00  0.00     0.049 A 
ATOM     53  C   UNL A   1      46.488  28.263  29.811  1.00  0.00     0.074 A 
ATOM     54  C   UNL A   1      40.805  31.066  30.112  1.00  0.00     0.029 A 
ATOM     55  N   UNL A   1      42.477  29.637  29.782  1.00  0.00    -0.354 N 
ATOM     56  N   UNL A   1      45.275  28.758  29.844  1.00  0.00    -0.248 NA
ATOM     57  C   UNL A   1      47.531  29.194  30.266  1.00  0.00     0.031 C 
ATOM     58  C   UNL A   1      42.000  31.688  30.489  1.00  0.00     0.029 A 
ATOM     59  C   UNL A   1      43.039  30.791  30.300  1.00  0.00     0.049 A 
ATOM     60  H   UNL A   1      42.977  28.824  29.539  1.00  0.00     0.167 HD
ATOM     61  C   UNL A   1      45.403  30.045  30.349  1.00  0.00     0.074 A 
ATOM     62  C   UNL A   1      46.812  30.252  30.615  1.00  0.00     0.031 C 
ATOM     63  C   UNL A   1      44.441  30.973  30.570  1.00  0.00     0.037 A 
BRANCH  50  64
ATOM     64  C   UNL A   1      38.754  29.124  29.026  1.00  0.00     0.057 A 
ATOM     65  C   UNL A   1      37.880  29.035  30.117  1.00  0.00     0.134 A 
ATOM     66  C   UNL A   1      38.224  29.562  27.806  1.00  0.00     0.134 A 
ATOM     67  F   UNL A   1      38.322  28.608  31.310  1.00  0.00    -0.206 F 
ATOM     68  C   UNL A   1      36.525  29.345  29.993  1.00  0.00     0.040 A 
ATOM     69  C   UNL A   1      36.876  29.899  27.676  1.00  0.00     0.040 A 
ATOM     70  F   UNL A   1      39.008  29.674  26.723  1.00  0.00    -0.206 F 
ATOM     71  C   UNL A   1      36.020  29.784  28.771  1.00  0.00     0.006 A 
ENDBRANCH  50  64
BRANCH  51  72
ATOM     72  C   UNL A   1      48.379  26.528  29.421  1.00  0.00     0.057 A 
ATOM     73  C   UNL A   1      49.226  26.818  28.346  1.00  0.00     0.134 A 
ATOM     74  C   UNL A   1      48.936  25.882  30.528  1.00  0.00     0.134 A 
ATOM     75  F   UNL A   1      48.742  27.422  27.250  1.00  0.00    -0.206 F 
ATOM     76  C   UNL A   1      50.575  26.464  28.363  1.00  0.00     0.040 A 
ATOM     77  C   UNL A   1      50.289  25.539  30.568  1.00  0.00     0.040 A 
ATOM     78  F   UNL A   1      48.177  25.583  31.593  1.00  0.00    -0.206 F 
ATOM     79  C   UNL A   1      51.111  25.826  29.480  1.00  0.00     0.006 A 
ENDBRANCH  51  72
BRANCH  63  80
ATOM     80  C   UNL A   1      44.875  32.279  31.162  1.00  0.00     0.057 A 
ATOM     81  C   UNL A   1      44.954  32.471  32.547  1.00  0.00     0.134 A 
ATOM     82  C   UNL A   1      45.256  33.343  30.335  1.00  0.00     0.134 A 
ATOM     83  F   UNL A   1      44.590  31.492  33.389  1.00  0.00    -0.206 F 
ATOM     84  C   UNL A   1      45.379  33.683  33.089  1.00  0.00     0.040 A 
ATOM     85  C   UNL A   1      45.703  34.554  30.866  1.00  0.00     0.040 A 
ATOM     86  F   UNL A   1      45.209  33.219  29.001  1.00  0.00    -0.206 F 
ATOM     87  C   UNL A   1      45.761  34.728  32.248  1.00  0.00     0.006 A 
ENDBRANCH  63  80
ENDBRANCH  37  38
ENDBRANCH  29  32
ENDBRANCH  27  28
ENDBRANCH  26  27
ENDBRANCH   1  26
TORSDOF 15
ENDMDL
