MODEL 1
REMARK VINA RESULT:     -12.1      0.000      0.000
REMARK SMILES O=C(NCCCNC(=O)c1ccc(-c2c3nc(c(-c4c(F)cccc4F)c4ccc([nH]4)c(-c4c(F)cccc4F)c4nc(c(-c5c(F)cccc5F)c5ccc2[nH]5)C=C4)C=C3)cc1)c1ccc(N/C=C\C(=O)c2ccco2)cc1
REMARK SMILES IDX 4 1 3 2 1 3 2 4 64 6 65 7 79 8 66 9 78 10 67 11 68 12 69 14
REMARK SMILES IDX 70 15 71 16 72 17 73 18 74 19 77 20 75 21 76 22 5 23 6 24
REMARK SMILES IDX 7 25 8 26 9 28 10 29 11 30 63 31 12 32 62 33 13 34 14 35
REMARK SMILES IDX 15 36 56 37 16 38 61 39 55 40 57 41 17 42 60 43 54 44 53 45
REMARK SMILES IDX 18 47 44 48 27 49 43 50 28 51 31 52 42 53 58 54 29 55 30 56
REMARK SMILES IDX 41 58 59 59 32 60 19 61 20 62 25 63 21 64 22 65 24 66 26 67
REMARK SMILES IDX 23 68 45 69 46 70 51 71 47 72 48 73 50 74 52 75 49 76 33 77
REMARK SMILES IDX 34 78 39 79 35 80 36 81 38 82 40 83 37 84
REMARK H PARENT 3 5 68 13 7 27 57 46 31 57
REMARK Flexibility Score: inf
ROOT
ATOM      1  C   UNL A   1      30.918  30.317  24.847  1.00  0.00     0.118 C 
ENDROOT
BRANCH   1   2
ATOM      2  N   UNL A   1      30.211  30.467  23.585  1.00  0.00    -0.352 N 
ATOM      3  O   UNL A   1      29.482  29.873  21.538  1.00  0.00    -0.269 OA
ATOM      4  C   UNL A   1      29.904  29.524  22.637  1.00  0.00     0.251 C 
ATOM      5  H   UNL A   1      29.906  31.381  23.382  1.00  0.00     0.163 HD
BRANCH   4   6
ATOM      6  C   UNL A   1      30.106  28.092  22.928  1.00  0.00     0.039 A 
ATOM      7  C   UNL A   1      31.246  27.416  22.482  1.00  0.00     0.016 A 
ATOM      8  C   UNL A   1      29.142  27.419  23.674  1.00  0.00     0.016 A 
ATOM      9  C   UNL A   1      31.371  26.042  22.694  1.00  0.00     0.027 A 
ATOM     10  C   UNL A   1      29.292  26.053  23.914  1.00  0.00     0.027 A 
ATOM     11  C   UNL A   1      30.400  25.343  23.415  1.00  0.00     0.038 A 
BRANCH  11  12
ATOM     12  N   UNL A   1      30.419  23.951  23.589  1.00  0.00    -0.362 N 
ATOM     13  H   UNL A   1      29.615  23.476  23.280  1.00  0.00     0.166 HD
BRANCH  12  14
ATOM     14  C   UNL A   1      31.400  23.161  24.126  1.00  0.00     0.087 C 
ATOM     15  C   UNL A   1      31.921  23.173  25.362  1.00  0.00     0.074 C 
BRANCH  15  16
ATOM     16  C   UNL A   1      31.532  24.062  26.498  1.00  0.00     0.222 C 
ATOM     17  O   UNL A   1      30.891  23.552  27.416  1.00  0.00    -0.286 OA
BRANCH  16  18
ATOM     18  C   UNL A   1      31.909  25.460  26.464  1.00  0.00     0.173 A 
ATOM     19  C   UNL A   1      33.041  26.114  26.006  1.00  0.00     0.054 A 
ATOM     20  O   UNL A   1      31.062  26.372  27.032  1.00  0.00    -0.461 OA
ATOM     21  C   UNL A   1      32.889  27.480  26.346  1.00  0.00     0.043 A 
ATOM     22  C   UNL A   1      31.668  27.585  26.968  1.00  0.00     0.196 A 
ENDBRANCH  16  18
ENDBRANCH  15  16
ENDBRANCH  12  14
ENDBRANCH  11  12
ENDBRANCH   4   6
ENDBRANCH   1   2
BRANCH   1  23
ATOM     23  C   UNL A   1      30.784  31.544  25.736  1.00  0.00     0.042 C 
BRANCH  23  24
ATOM     24  C   UNL A   1      32.008  31.828  26.594  1.00  0.00     0.118 C 
BRANCH  24  25
ATOM     25  N   UNL A   1      32.073  33.211  27.050  1.00  0.00    -0.352 N 
ATOM     26  C   UNL A   1      32.973  33.822  27.891  1.00  0.00     0.251 C 
ATOM     27  H   UNL A   1      31.363  33.797  26.704  1.00  0.00     0.163 HD
ATOM     28  O   UNL A   1      32.763  34.963  28.293  1.00  0.00    -0.269 OA
BRANCH  26  29
ATOM     29  C   UNL A   1      34.177  33.093  28.336  1.00  0.00     0.039 A 
ATOM     30  C   UNL A   1      35.349  33.807  28.601  1.00  0.00     0.014 A 
ATOM     31  C   UNL A   1      34.144  31.707  28.511  1.00  0.00     0.014 A 
ATOM     32  C   UNL A   1      36.457  33.145  29.134  1.00  0.00     0.010 A 
ATOM     33  C   UNL A   1      35.215  31.067  29.124  1.00  0.00     0.010 A 
ATOM     34  C   UNL A   1      36.380  31.779  29.447  1.00  0.00    -0.014 A 
BRANCH  34  35
ATOM     35  C   UNL A   1      37.490  31.062  30.120  1.00  0.00     0.031 A 
ATOM     36  C   UNL A   1      37.786  31.337  31.568  1.00  0.00     0.074 A 
ATOM     37  C   UNL A   1      38.299  30.254  29.406  1.00  0.00     0.049 A 
ATOM     38  N   UNL A   1      38.809  30.958  32.291  1.00  0.00    -0.248 NA
ATOM     39  C   UNL A   1      36.822  32.183  32.287  1.00  0.00     0.031 C 
ATOM     40  C   UNL A   1      38.143  29.935  27.986  1.00  0.00     0.029 A 
ATOM     41  N   UNL A   1      39.431  29.570  29.776  1.00  0.00    -0.354 N 
ATOM     42  C   UNL A   1      38.625  31.542  33.537  1.00  0.00     0.074 A 
ATOM     43  C   UNL A   1      37.418  32.337  33.460  1.00  0.00     0.031 C 
ATOM     44  C   UNL A   1      39.133  29.111  27.608  1.00  0.00     0.029 A 
ATOM     45  C   UNL A   1      40.021  28.881  28.743  1.00  0.00     0.049 A 
ATOM     46  H   UNL A   1      39.787  29.574  30.694  1.00  0.00     0.167 HD
ATOM     47  C   UNL A   1      39.384  31.414  34.650  1.00  0.00     0.037 A 
ATOM     48  C   UNL A   1      41.157  28.162  28.711  1.00  0.00     0.037 A 
ATOM     49  C   UNL A   1      40.561  30.593  34.736  1.00  0.00     0.049 A 
ATOM     50  C   UNL A   1      41.984  28.034  29.961  1.00  0.00     0.074 A 
ATOM     51  C   UNL A   1      41.361  30.344  35.838  1.00  0.00     0.029 A 
ATOM     52  N   UNL A   1      41.104  29.882  33.676  1.00  0.00    -0.354 N 
ATOM     53  N   UNL A   1      41.771  28.552  31.147  1.00  0.00    -0.248 NA
ATOM     54  C   UNL A   1      43.207  27.226  29.868  1.00  0.00     0.031 C 
ATOM     55  C   UNL A   1      42.409  29.510  35.436  1.00  0.00     0.029 A 
ATOM     56  C   UNL A   1      42.239  29.206  34.094  1.00  0.00     0.049 A 
ATOM     57  H   UNL A   1      40.738  29.860  32.762  1.00  0.00     0.167 HD
ATOM     58  C   UNL A   1      42.815  28.108  31.947  1.00  0.00     0.074 A 
ATOM     59  C   UNL A   1      43.657  27.274  31.115  1.00  0.00     0.031 C 
ATOM     60  C   UNL A   1      43.054  28.367  33.255  1.00  0.00     0.037 A 
BRANCH  47  61
ATOM     61  C   UNL A   1      38.958  32.179  35.868  1.00  0.00     0.057 A 
ATOM     62  C   UNL A   1      39.322  33.518  36.064  1.00  0.00     0.134 A 
ATOM     63  C   UNL A   1      38.151  31.580  36.843  1.00  0.00     0.134 A 
ATOM     64  F   UNL A   1      40.105  34.146  35.174  1.00  0.00    -0.206 F 
ATOM     65  C   UNL A   1      38.920  34.225  37.199  1.00  0.00     0.040 A 
ATOM     66  C   UNL A   1      37.720  32.284  37.969  1.00  0.00     0.040 A 
ATOM     67  F   UNL A   1      37.761  30.302  36.715  1.00  0.00    -0.206 F 
ATOM     68  C   UNL A   1      38.111  33.610  38.151  1.00  0.00     0.006 A 
ENDBRANCH  47  61
BRANCH  48  69
ATOM     69  C   UNL A   1      41.578  27.492  27.455  1.00  0.00     0.057 A 
ATOM     70  C   UNL A   1      41.204  26.171  27.185  1.00  0.00     0.134 A 
ATOM     71  C   UNL A   1      42.363  28.149  26.499  1.00  0.00     0.134 A 
ATOM     72  F   UNL A   1      40.469  25.484  28.072  1.00  0.00    -0.206 F 
ATOM     73  C   UNL A   1      41.609  25.520  26.019  1.00  0.00     0.040 A 
ATOM     74  C   UNL A   1      42.756  27.518  25.318  1.00  0.00     0.040 A 
ATOM     75  F   UNL A   1      42.747  29.419  26.696  1.00  0.00    -0.206 F 
ATOM     76  C   UNL A   1      42.383  26.197  25.079  1.00  0.00     0.006 A 
ENDBRANCH  48  69
BRANCH  60  77
ATOM     77  C   UNL A   1      44.246  27.709  33.883  1.00  0.00     0.057 A 
ATOM     78  C   UNL A   1      45.490  28.347  33.951  1.00  0.00     0.134 A 
ATOM     79  C   UNL A   1      44.128  26.447  34.479  1.00  0.00     0.134 A 
ATOM     80  F   UNL A   1      45.669  29.550  33.387  1.00  0.00    -0.206 F 
ATOM     81  C   UNL A   1      46.581  27.747  34.583  1.00  0.00     0.040 A 
ATOM     82  C   UNL A   1      45.205  25.848  35.133  1.00  0.00     0.040 A 
ATOM     83  F   UNL A   1      42.960  25.788  34.453  1.00  0.00    -0.206 F 
ATOM     84  C   UNL A   1      46.437  26.497  35.183  1.00  0.00     0.006 A 
ENDBRANCH  60  77
ENDBRANCH  34  35
ENDBRANCH  26  29
ENDBRANCH  24  25
ENDBRANCH  23  24
ENDBRANCH   1  23
TORSDOF 14
ENDMDL
MODEL 2
REMARK VINA RESULT:     -11.7      1.884      2.845
REMARK SMILES O=C(NCCCNC(=O)c1ccc(-c2c3nc(c(-c4c(F)cccc4F)c4ccc([nH]4)c(-c4c(F)cccc4F)c4nc(c(-c5c(F)cccc5F)c5ccc2[nH]5)C=C4)C=C3)cc1)c1ccc(N/C=C\C(=O)c2ccco2)cc1
REMARK SMILES IDX 4 1 3 2 1 3 2 4 64 6 65 7 79 8 66 9 78 10 67 11 68 12 69 14
REMARK SMILES IDX 70 15 71 16 72 17 73 18 74 19 77 20 75 21 76 22 5 23 6 24
REMARK SMILES IDX 7 25 8 26 9 28 10 29 11 30 63 31 12 32 62 33 13 34 14 35
REMARK SMILES IDX 15 36 56 37 16 38 61 39 55 40 57 41 17 42 60 43 54 44 53 45
REMARK SMILES IDX 18 47 44 48 27 49 43 50 28 51 31 52 42 53 58 54 29 55 30 56
REMARK SMILES IDX 41 58 59 59 32 60 19 61 20 62 25 63 21 64 22 65 24 66 26 67
REMARK SMILES IDX 23 68 45 69 46 70 51 71 47 72 48 73 50 74 52 75 49 76 33 77
REMARK SMILES IDX 34 78 39 79 35 80 36 81 38 82 40 83 37 84
REMARK H PARENT 3 5 68 13 7 27 57 46 31 57
REMARK Flexibility Score: inf
ROOT
ATOM      1  C   UNL A   1      31.591  30.739  26.279  1.00  0.00     0.118 C 
ENDROOT
BRANCH   1   2
ATOM      2  N   UNL A   1      31.033  30.425  24.972  1.00  0.00    -0.352 N 
ATOM      3  O   UNL A   1      30.818  29.306  23.029  1.00  0.00    -0.269 OA
ATOM      4  C   UNL A   1      31.201  29.307  24.196  1.00  0.00     0.251 C 
ATOM      5  H   UNL A   1      30.447  31.117  24.590  1.00  0.00     0.163 HD
BRANCH   4   6
ATOM      6  C   UNL A   1      31.867  28.114  24.753  1.00  0.00     0.039 A 
ATOM      7  C   UNL A   1      33.261  28.014  24.790  1.00  0.00     0.016 A 
ATOM      8  C   UNL A   1      31.079  27.085  25.261  1.00  0.00     0.016 A 
ATOM      9  C   UNL A   1      33.865  26.839  25.241  1.00  0.00     0.027 A 
ATOM     10  C   UNL A   1      31.691  25.928  25.745  1.00  0.00     0.027 A 
ATOM     11  C   UNL A   1      33.090  25.783  25.727  1.00  0.00     0.038 A 
BRANCH  11  12
ATOM     12  N   UNL A   1      33.626  24.545  26.113  1.00  0.00    -0.362 N 
ATOM     13  H   UNL A   1      34.284  24.579  26.842  1.00  0.00     0.166 HD
BRANCH  12  14
ATOM     14  C   UNL A   1      33.361  23.296  25.617  1.00  0.00     0.087 C 
ATOM     15  C   UNL A   1      33.527  22.820  24.374  1.00  0.00     0.074 C 
BRANCH  15  16
ATOM     16  C   UNL A   1      34.082  23.549  23.195  1.00  0.00     0.222 C 
ATOM     17  O   UNL A   1      35.200  23.215  22.802  1.00  0.00    -0.286 OA
BRANCH  16  18
ATOM     18  C   UNL A   1      33.302  24.605  22.582  1.00  0.00     0.173 A 
ATOM     19  C   UNL A   1      31.939  24.776  22.399  1.00  0.00     0.054 A 
ATOM     20  O   UNL A   1      33.968  25.643  21.992  1.00  0.00    -0.461 OA
ATOM     21  C   UNL A   1      31.776  25.953  21.630  1.00  0.00     0.043 A 
ATOM     22  C   UNL A   1      33.040  26.443  21.409  1.00  0.00     0.196 A 
ENDBRANCH  16  18
ENDBRANCH  15  16
ENDBRANCH  12  14
ENDBRANCH  11  12
ENDBRANCH   4   6
ENDBRANCH   1   2
BRANCH   1  23
ATOM     23  C   UNL A   1      31.404  32.202  26.652  1.00  0.00     0.042 C 
BRANCH  23  24
ATOM     24  C   UNL A   1      32.644  32.857  27.241  1.00  0.00     0.118 C 
BRANCH  24  25
ATOM     25  N   UNL A   1      32.422  34.243  27.635  1.00  0.00    -0.352 N 
ATOM     26  C   UNL A   1      33.006  34.981  28.637  1.00  0.00     0.251 C 
ATOM     27  H   UNL A   1      31.749  34.724  27.102  1.00  0.00     0.163 HD
ATOM     28  O   UNL A   1      32.563  36.089  28.923  1.00  0.00    -0.269 OA
BRANCH  26  29
ATOM     29  C   UNL A   1      34.148  34.425  29.390  1.00  0.00     0.039 A 
ATOM     30  C   UNL A   1      33.914  33.780  30.607  1.00  0.00     0.014 A 
ATOM     31  C   UNL A   1      35.447  34.523  28.885  1.00  0.00     0.014 A 
ATOM     32  C   UNL A   1      34.969  33.149  31.270  1.00  0.00     0.010 A 
ATOM     33  C   UNL A   1      36.477  33.820  29.498  1.00  0.00     0.010 A 
ATOM     34  C   UNL A   1      36.249  33.121  30.693  1.00  0.00    -0.014 A 
BRANCH  34  35
ATOM     35  C   UNL A   1      37.370  32.365  31.303  1.00  0.00     0.031 A 
ATOM     36  C   UNL A   1      37.985  32.850  32.586  1.00  0.00     0.074 A 
ATOM     37  C   UNL A   1      37.908  31.316  30.649  1.00  0.00     0.049 A 
ATOM     38  N   UNL A   1      39.075  32.445  33.187  1.00  0.00    -0.248 NA
ATOM     39  C   UNL A   1      37.302  33.963  33.263  1.00  0.00     0.031 C 
ATOM     40  C   UNL A   1      37.429  30.772  29.377  1.00  0.00     0.029 A 
ATOM     41  N   UNL A   1      38.993  30.534  30.956  1.00  0.00    -0.354 N 
ATOM     42  C   UNL A   1      39.222  33.272  34.293  1.00  0.00     0.074 A 
ATOM     43  C   UNL A   1      38.138  34.229  34.256  1.00  0.00     0.031 C 
ATOM     44  C   UNL A   1      38.208  29.739  29.019  1.00  0.00     0.029 A 
ATOM     45  C   UNL A   1      39.269  29.578  30.008  1.00  0.00     0.049 A 
ATOM     46  H   UNL A   1      39.524  30.648  31.777  1.00  0.00     0.167 HD
ATOM     47  C   UNL A   1      40.167  33.227  35.261  1.00  0.00     0.037 A 
ATOM     48  C   UNL A   1      40.274  28.685  29.935  1.00  0.00     0.037 A 
ATOM     49  C   UNL A   1      41.222  32.251  35.316  1.00  0.00     0.049 A 
ATOM     50  C   UNL A   1      41.312  28.654  31.023  1.00  0.00     0.074 A 
ATOM     51  C   UNL A   1      42.189  32.080  36.292  1.00  0.00     0.029 A 
ATOM     52  N   UNL A   1      41.444  31.276  34.355  1.00  0.00    -0.354 N 
ATOM     53  N   UNL A   1      41.411  29.411  32.090  1.00  0.00    -0.248 NA
ATOM     54  C   UNL A   1      42.377  27.650  30.897  1.00  0.00     0.031 C 
ATOM     55  C   UNL A   1      43.018  31.023  35.903  1.00  0.00     0.029 A 
ATOM     56  C   UNL A   1      42.543  30.510  34.706  1.00  0.00     0.049 A 
ATOM     57  H   UNL A   1      40.901  31.147  33.543  1.00  0.00     0.167 HD
ATOM     58  C   UNL A   1      42.529  28.954  32.775  1.00  0.00     0.074 A 
ATOM     59  C   UNL A   1      43.072  27.853  32.008  1.00  0.00     0.031 C 
ATOM     60  C   UNL A   1      43.057  29.406  33.938  1.00  0.00     0.037 A 
BRANCH  47  61
ATOM     61  C   UNL A   1      40.098  34.264  36.343  1.00  0.00     0.057 A 
ATOM     62  C   UNL A   1      39.394  34.042  37.534  1.00  0.00     0.134 A 
ATOM     63  C   UNL A   1      40.768  35.486  36.206  1.00  0.00     0.134 A 
ATOM     64  F   UNL A   1      38.720  32.897  37.722  1.00  0.00    -0.206 F 
ATOM     65  C   UNL A   1      39.336  35.010  38.538  1.00  0.00     0.040 A 
ATOM     66  C   UNL A   1      40.740  36.451  37.214  1.00  0.00     0.040 A 
ATOM     67  F   UNL A   1      41.466  35.761  35.093  1.00  0.00    -0.206 F 
ATOM     68  C   UNL A   1      40.016  36.216  38.382  1.00  0.00     0.006 A 
ENDBRANCH  47  61
BRANCH  48  69
ATOM     69  C   UNL A   1      40.343  27.735  28.798  1.00  0.00     0.057 A 
ATOM     70  C   UNL A   1      41.108  28.028  27.662  1.00  0.00     0.134 A 
ATOM     71  C   UNL A   1      39.650  26.518  28.814  1.00  0.00     0.134 A 
ATOM     72  F   UNL A   1      41.778  29.186  27.581  1.00  0.00    -0.206 F 
ATOM     73  C   UNL A   1      41.166  27.153  26.575  1.00  0.00     0.040 A 
ATOM     74  C   UNL A   1      39.718  25.625  27.744  1.00  0.00     0.040 A 
ATOM     75  F   UNL A   1      38.907  26.176  29.877  1.00  0.00    -0.206 F 
ATOM     76  C   UNL A   1      40.474  25.945  26.617  1.00  0.00     0.006 A 
ENDBRANCH  48  69
BRANCH  60  77
ATOM     77  C   UNL A   1      44.257  28.686  34.477  1.00  0.00     0.057 A 
ATOM     78  C   UNL A   1      45.560  29.105  34.188  1.00  0.00     0.134 A 
ATOM     79  C   UNL A   1      44.100  27.598  35.346  1.00  0.00     0.134 A 
ATOM     80  F   UNL A   1      45.776  30.132  33.353  1.00  0.00    -0.206 F 
ATOM     81  C   UNL A   1      46.670  28.458  34.736  1.00  0.00     0.040 A 
ATOM     82  C   UNL A   1      45.200  26.959  35.917  1.00  0.00     0.040 A 
ATOM     83  F   UNL A   1      42.876  27.154  35.667  1.00  0.00    -0.206 F 
ATOM     84  C   UNL A   1      46.490  27.387  35.610  1.00  0.00     0.006 A 
ENDBRANCH  60  77
ENDBRANCH  34  35
ENDBRANCH  26  29
ENDBRANCH  24  25
ENDBRANCH  23  24
ENDBRANCH   1  23
TORSDOF 14
ENDMDL
MODEL 3
REMARK VINA RESULT:     -11.7      4.267      8.362
REMARK SMILES O=C(NCCCNC(=O)c1ccc(-c2c3nc(c(-c4c(F)cccc4F)c4ccc([nH]4)c(-c4c(F)cccc4F)c4nc(c(-c5c(F)cccc5F)c5ccc2[nH]5)C=C4)C=C3)cc1)c1ccc(N/C=C\C(=O)c2ccco2)cc1
REMARK SMILES IDX 4 1 3 2 1 3 2 4 64 6 65 7 79 8 66 9 78 10 67 11 68 12 69 14
REMARK SMILES IDX 70 15 71 16 72 17 73 18 74 19 77 20 75 21 76 22 5 23 6 24
REMARK SMILES IDX 7 25 8 26 9 28 10 29 11 30 63 31 12 32 62 33 13 34 14 35
REMARK SMILES IDX 15 36 56 37 16 38 61 39 55 40 57 41 17 42 60 43 54 44 53 45
REMARK SMILES IDX 18 47 44 48 27 49 43 50 28 51 31 52 42 53 58 54 29 55 30 56
REMARK SMILES IDX 41 58 59 59 32 60 19 61 20 62 25 63 21 64 22 65 24 66 26 67
REMARK SMILES IDX 23 68 45 69 46 70 51 71 47 72 48 73 50 74 52 75 49 76 33 77
REMARK SMILES IDX 34 78 39 79 35 80 36 81 38 82 40 83 37 84
REMARK H PARENT 3 5 68 13 7 27 57 46 31 57
REMARK Flexibility Score: inf
ROOT
ATOM      1  C   UNL A   1      35.891  20.839  25.237  1.00  0.00     0.118 C 
ENDROOT
BRANCH   1   2
ATOM      2  N   UNL A   1      35.148  19.619  24.960  1.00  0.00    -0.352 N 
ATOM      3  O   UNL A   1      33.330  18.308  24.745  1.00  0.00    -0.269 OA
ATOM      4  C   UNL A   1      33.804  19.441  24.761  1.00  0.00     0.251 C 
ATOM      5  H   UNL A   1      35.693  18.801  24.906  1.00  0.00     0.163 HD
BRANCH   4   6
ATOM      6  C   UNL A   1      32.920  20.611  24.595  1.00  0.00     0.039 A 
ATOM      7  C   UNL A   1      32.626  21.121  23.327  1.00  0.00     0.016 A 
ATOM      8  C   UNL A   1      32.365  21.196  25.730  1.00  0.00     0.016 A 
ATOM      9  C   UNL A   1      31.859  22.281  23.202  1.00  0.00     0.027 A 
ATOM     10  C   UNL A   1      31.569  22.334  25.594  1.00  0.00     0.027 A 
ATOM     11  C   UNL A   1      31.318  22.900  24.331  1.00  0.00     0.038 A 
BRANCH  11  12
ATOM     12  N   UNL A   1      30.614  24.113  24.285  1.00  0.00    -0.362 N 
ATOM     13  H   UNL A   1      30.064  24.313  25.076  1.00  0.00     0.166 HD
BRANCH  12  14
ATOM     14  C   UNL A   1      30.585  25.058  23.294  1.00  0.00     0.087 C 
ATOM     15  C   UNL A   1      31.351  26.147  23.133  1.00  0.00     0.074 C 
BRANCH  15  16
ATOM     16  C   UNL A   1      32.474  26.598  24.008  1.00  0.00     0.222 C 
ATOM     17  O   UNL A   1      32.475  27.779  24.358  1.00  0.00    -0.286 OA
BRANCH  16  18
ATOM     18  C   UNL A   1      33.500  25.649  24.391  1.00  0.00     0.173 A 
ATOM     19  C   UNL A   1      34.074  25.332  25.611  1.00  0.00     0.054 A 
ATOM     20  O   UNL A   1      34.114  24.929  23.404  1.00  0.00    -0.461 OA
ATOM     21  C   UNL A   1      35.111  24.404  25.345  1.00  0.00     0.043 A 
ATOM     22  C   UNL A   1      35.093  24.191  23.988  1.00  0.00     0.196 A 
ENDBRANCH  16  18
ENDBRANCH  15  16
ENDBRANCH  12  14
ENDBRANCH  11  12
ENDBRANCH   4   6
ENDBRANCH   1   2
BRANCH   1  23
ATOM     23  C   UNL A   1      37.289  20.816  24.637  1.00  0.00     0.042 C 
BRANCH  23  24
ATOM     24  C   UNL A   1      38.407  20.978  25.656  1.00  0.00     0.118 C 
BRANCH  24  25
ATOM     25  N   UNL A   1      39.365  19.880  25.627  1.00  0.00    -0.352 N 
ATOM     26  C   UNL A   1      40.703  19.867  25.944  1.00  0.00     0.251 C 
ATOM     27  H   UNL A   1      38.998  19.015  25.336  1.00  0.00     0.163 HD
ATOM     28  O   UNL A   1      41.385  18.878  25.694  1.00  0.00    -0.269 OA
BRANCH  26  29
ATOM     29  C   UNL A   1      41.326  21.057  26.557  1.00  0.00     0.039 A 
ATOM     30  C   UNL A   1      41.917  22.018  25.732  1.00  0.00     0.014 A 
ATOM     31  C   UNL A   1      41.309  21.235  27.942  1.00  0.00     0.014 A 
ATOM     32  C   UNL A   1      42.404  23.203  26.289  1.00  0.00     0.010 A 
ATOM     33  C   UNL A   1      41.712  22.449  28.484  1.00  0.00     0.010 A 
ATOM     34  C   UNL A   1      42.258  23.448  27.664  1.00  0.00    -0.014 A 
BRANCH  34  35
ATOM     35  C   UNL A   1      42.655  24.738  28.280  1.00  0.00     0.031 A 
ATOM     36  C   UNL A   1      41.623  25.808  28.500  1.00  0.00     0.074 A 
ATOM     37  C   UNL A   1      43.955  24.989  28.535  1.00  0.00     0.049 A 
ATOM     38  N   UNL A   1      41.787  27.057  28.855  1.00  0.00    -0.248 NA
ATOM     39  C   UNL A   1      40.223  25.432  28.252  1.00  0.00     0.031 C 
ATOM     40  C   UNL A   1      45.058  24.049  28.329  1.00  0.00     0.029 A 
ATOM     41  N   UNL A   1      44.570  26.124  29.002  1.00  0.00    -0.354 N 
ATOM     42  C   UNL A   1      40.518  27.620  28.843  1.00  0.00     0.074 A 
ATOM     43  C   UNL A   1      39.600  26.592  28.404  1.00  0.00     0.031 C 
ATOM     44  C   UNL A   1      46.212  24.641  28.678  1.00  0.00     0.029 A 
ATOM     45  C   UNL A   1      45.937  26.015  29.086  1.00  0.00     0.049 A 
ATOM     46  H   UNL A   1      44.078  26.939  29.252  1.00  0.00     0.167 HD
ATOM     47  C   UNL A   1      40.148  28.877  29.183  1.00  0.00     0.037 A 
ATOM     48  C   UNL A   1      46.866  26.925  29.434  1.00  0.00     0.037 A 
ATOM     49  C   UNL A   1      41.057  29.886  29.657  1.00  0.00     0.049 A 
ATOM     50  C   UNL A   1      46.431  28.314  29.809  1.00  0.00     0.074 A 
ATOM     51  C   UNL A   1      40.771  31.169  30.091  1.00  0.00     0.029 A 
ATOM     52  N   UNL A   1      42.430  29.723  29.762  1.00  0.00    -0.354 N 
ATOM     53  N   UNL A   1      45.221  28.820  29.841  1.00  0.00    -0.248 NA
ATOM     54  C   UNL A   1      47.487  29.260  30.193  1.00  0.00     0.031 C 
ATOM     55  C   UNL A   1      41.977  31.795  30.426  1.00  0.00     0.029 A 
ATOM     56  C   UNL A   1      43.008  30.888  30.240  1.00  0.00     0.049 A 
ATOM     57  H   UNL A   1      42.922  28.901  29.532  1.00  0.00     0.167 HD
ATOM     58  C   UNL A   1      45.369  30.129  30.276  1.00  0.00     0.074 A 
ATOM     59  C   UNL A   1      46.783  30.341  30.502  1.00  0.00     0.031 C 
ATOM     60  C   UNL A   1      44.416  31.073  30.474  1.00  0.00     0.037 A 
BRANCH  47  61
ATOM     61  C   UNL A   1      38.695  29.228  29.060  1.00  0.00     0.057 A 
ATOM     62  C   UNL A   1      37.829  29.186  30.161  1.00  0.00     0.134 A 
ATOM     63  C   UNL A   1      38.160  29.640  27.833  1.00  0.00     0.134 A 
ATOM     64  F   UNL A   1      38.276  28.787  31.362  1.00  0.00    -0.206 F 
ATOM     65  C   UNL A   1      36.479  29.517  30.039  1.00  0.00     0.040 A 
ATOM     66  C   UNL A   1      36.818  29.999  27.705  1.00  0.00     0.040 A 
ATOM     67  F   UNL A   1      38.936  29.708  26.739  1.00  0.00    -0.206 F 
ATOM     68  C   UNL A   1      35.971  29.931  28.810  1.00  0.00     0.006 A 
ENDBRANCH  47  61
BRANCH  48  69
ATOM     69  C   UNL A   1      48.302  26.550  29.460  1.00  0.00     0.057 A 
ATOM     70  C   UNL A   1      49.128  26.795  28.357  1.00  0.00     0.134 A 
ATOM     71  C   UNL A   1      48.881  25.938  30.578  1.00  0.00     0.134 A 
ATOM     72  F   UNL A   1      48.626  27.362  27.251  1.00  0.00    -0.206 F 
ATOM     73  C   UNL A   1      50.476  26.430  28.358  1.00  0.00     0.040 A 
ATOM     74  C   UNL A   1      50.232  25.588  30.601  1.00  0.00     0.040 A 
ATOM     75  F   UNL A   1      48.144  25.683  31.669  1.00  0.00    -0.206 F 
ATOM     76  C   UNL A   1      51.031  25.829  29.485  1.00  0.00     0.006 A 
ENDBRANCH  48  69
BRANCH  60  77
ATOM     77  C   UNL A   1      44.862  32.404  30.999  1.00  0.00     0.057 A 
ATOM     78  C   UNL A   1      45.175  33.467  30.145  1.00  0.00     0.134 A 
ATOM     79  C   UNL A   1      44.918  32.640  32.379  1.00  0.00     0.134 A 
ATOM     80  F   UNL A   1      45.153  33.300  28.815  1.00  0.00    -0.206 F 
ATOM     81  C   UNL A   1      45.540  34.719  30.645  1.00  0.00     0.040 A 
ATOM     82  C   UNL A   1      45.259  33.893  32.890  1.00  0.00     0.040 A 
ATOM     83  F   UNL A   1      44.623  31.663  33.250  1.00  0.00    -0.206 F 
ATOM     84  C   UNL A   1      45.575  34.935  32.022  1.00  0.00     0.006 A 
ENDBRANCH  60  77
ENDBRANCH  34  35
ENDBRANCH  26  29
ENDBRANCH  24  25
ENDBRANCH  23  24
ENDBRANCH   1  23
TORSDOF 14
ENDMDL
