MODEL 1
REMARK VINA RESULT:     -13.6      0.000      0.000
REMARK SMILES Cc1coc2c(C)c3oc(=O)c(CC(=O)NCC(=O)N[C@H](C(=O)NCCCNC(=O)c4ccc(-c5c6nc(c(-c7c(F)cccc7F)c7ccc([nH]7)c(-c7c(F)cccc7F)c7nc(c(-c8c(F)cccc8F)c8ccc5[nH]8)C=C7)C=C6)cc4)C(C)C)c(C)c3cc12
REMARK SMILES IDX 22 1 23 2 24 3 21 5 20 6 18 7 19 8 17 10 16 11 14 12 15 13
REMARK SMILES IDX 13 15 12 16 1 17 2 18 3 19 92 20 4 21 5 22 91 23 6 24 90 25
REMARK SMILES IDX 7 26 8 27 88 28 9 29 89 30 10 31 11 32 85 33 86 34 87 35
REMARK SMILES IDX 25 36 26 37 27 38 28 39 29 40 30 42 31 43 32 44 84 45 33 46
REMARK SMILES IDX 83 47 34 48 35 49 36 50 77 51 37 52 82 53 76 54 78 55 38 56
REMARK SMILES IDX 81 57 75 58 74 59 39 61 65 62 48 63 64 64 49 65 52 66 63 67
REMARK SMILES IDX 79 68 50 69 51 70 62 72 80 73 53 74 40 75 41 76 46 77 42 78
REMARK SMILES IDX 43 79 45 80 47 81 44 82 66 83 67 84 72 85 68 86 69 87 71 88
REMARK SMILES IDX 73 89 70 90 54 91 55 92 60 93 56 94 57 95 59 96 61 97 58 98
REMARK H PARENT 24 4 20 9 16 14 28 41 78 60 52 71
REMARK Flexibility Score: inf
ROOT
ATOM      1  C   UNL A   1      31.263  29.101  23.673  1.00  0.00     0.242 C 
ATOM      2  O   UNL A   1      30.724  29.663  22.717  1.00  0.00    -0.273 OA
ATOM      3  N   UNL A   1      31.338  29.799  24.857  1.00  0.00    -0.354 N 
ATOM      4  H   UNL A   1      31.048  30.738  24.806  1.00  0.00     0.163 HD
ENDROOT
BRANCH   1   5
ATOM      5  C   UNL A   1      31.957  27.710  23.527  1.00  0.00     0.173 C 
BRANCH   5   6
ATOM      6  N   UNL A   1      30.951  26.671  23.258  1.00  0.00    -0.343 N 
ATOM      7  C   UNL A   1      30.195  25.842  24.039  1.00  0.00     0.240 C 
ATOM      8  O   UNL A   1      29.487  25.057  23.388  1.00  0.00    -0.273 OA
ATOM      9  H   UNL A   1      30.786  26.543  22.296  1.00  0.00     0.164 HD
BRANCH   7  10
ATOM     10  C   UNL A   1      29.961  25.942  25.616  1.00  0.00     0.216 C 
BRANCH  10  11
ATOM     11  N   UNL A   1      30.274  24.823  26.540  1.00  0.00    -0.347 N 
ATOM     12  C   UNL A   1      30.959  23.634  26.513  1.00  0.00     0.225 C 
ATOM     13  O   UNL A   1      31.205  23.173  27.639  1.00  0.00    -0.275 OA
ATOM     14  H   UNL A   1      29.875  24.980  27.427  1.00  0.00     0.164 HD
BRANCH  12  15
ATOM     15  C   UNL A   1      31.453  22.818  25.266  1.00  0.00     0.143 C 
BRANCH  15  16
ATOM     16  C   UNL A   1      32.956  22.794  24.842  1.00  0.00     0.051 A 
ATOM     17  C   UNL A   1      39.306  25.124  27.178  1.00  0.00     0.048 C 
ATOM     18  C   UNL A   1      38.928  23.801  26.624  1.00  0.00    -0.005 A 
ATOM     19  C   UNL A   1      39.733  22.680  26.618  1.00  0.00     0.199 A 
ATOM     20  C   UNL A   1      37.692  23.401  26.002  1.00  0.00     0.024 A 
ATOM     21  O   UNL A   1      39.083  21.622  26.079  1.00  0.00    -0.464 OA
ATOM     22  C   UNL A   1      37.848  22.054  25.703  1.00  0.00     0.140 A 
ATOM     23  C   UNL A   1      36.440  24.007  25.697  1.00  0.00     0.024 A 
ATOM     24  C   UNL A   1      36.868  21.246  25.125  1.00  0.00     0.036 A 
ATOM     25  C   UNL A   1      35.387  23.253  25.108  1.00  0.00     0.022 A 
ATOM     26  C   UNL A   1      37.088  19.778  24.920  1.00  0.00     0.052 C 
ATOM     27  C   UNL A   1      35.658  21.912  24.812  1.00  0.00     0.145 A 
ATOM     28  C   UNL A   1      33.945  23.717  25.054  1.00  0.00    -0.029 A 
ATOM     29  O   UNL A   1      34.650  21.122  24.221  1.00  0.00    -0.422 OA
ATOM     30  C   UNL A   1      33.683  25.102  25.593  1.00  0.00     0.046 C 
ATOM     31  C   UNL A   1      33.325  21.514  24.175  1.00  0.00     0.340 A 
ATOM     32  O   UNL A   1      32.484  20.809  23.629  1.00  0.00    -0.246 OA
ENDBRANCH  15  16
ENDBRANCH  12  15
ENDBRANCH  10  11
ENDBRANCH   7  10
ENDBRANCH   5   6
BRANCH   5  33
ATOM     33  C   UNL A   1      33.044  27.648  22.477  1.00  0.00     0.015 C 
ATOM     34  C   UNL A   1      34.139  28.628  22.772  1.00  0.00     0.010 C 
ATOM     35  C   UNL A   1      33.495  26.255  22.061  1.00  0.00     0.010 C 
ENDBRANCH   5  33
ENDBRANCH   1   5
BRANCH   3  36
ATOM     36  C   UNL A   1      31.784  29.363  26.178  1.00  0.00     0.117 C 
BRANCH  36  37
ATOM     37  C   UNL A   1      33.304  29.195  26.328  1.00  0.00     0.042 C 
BRANCH  37  38
ATOM     38  C   UNL A   1      33.904  29.886  27.541  1.00  0.00     0.118 C 
BRANCH  38  39
ATOM     39  N   UNL A   1      34.235  31.294  27.335  1.00  0.00    -0.352 N 
ATOM     40  C   UNL A   1      35.387  31.974  27.724  1.00  0.00     0.251 C 
ATOM     41  H   UNL A   1      33.559  31.830  26.861  1.00  0.00     0.163 HD
ATOM     42  O   UNL A   1      35.451  33.176  27.717  1.00  0.00    -0.269 OA
BRANCH  40  43
ATOM     43  C   UNL A   1      36.536  31.153  28.158  1.00  0.00     0.039 A 
ATOM     44  C   UNL A   1      36.802  29.900  27.602  1.00  0.00     0.014 A 
ATOM     45  C   UNL A   1      37.399  31.727  29.081  1.00  0.00     0.014 A 
ATOM     46  C   UNL A   1      37.999  29.264  27.930  1.00  0.00     0.010 A 
ATOM     47  C   UNL A   1      38.655  31.212  29.222  1.00  0.00     0.010 A 
ATOM     48  C   UNL A   1      38.927  29.939  28.733  1.00  0.00    -0.014 A 
BRANCH  48  49
ATOM     49  C   UNL A   1      40.201  29.340  29.104  1.00  0.00     0.031 A 
ATOM     50  C   UNL A   1      40.421  29.040  30.549  1.00  0.00     0.074 A 
ATOM     51  C   UNL A   1      41.031  28.858  28.154  1.00  0.00     0.049 A 
ATOM     52  N   UNL A   1      41.358  29.486  31.320  1.00  0.00    -0.248 NA
ATOM     53  C   UNL A   1      39.440  28.191  31.242  1.00  0.00     0.031 C 
ATOM     54  C   UNL A   1      40.831  28.774  26.697  1.00  0.00     0.029 A 
ATOM     55  N   UNL A   1      42.202  28.201  28.325  1.00  0.00    -0.354 N 
ATOM     56  C   UNL A   1      41.185  28.869  32.558  1.00  0.00     0.074 A 
ATOM     57  C   UNL A   1      39.921  28.178  32.488  1.00  0.00     0.031 C 
ATOM     58  C   UNL A   1      41.697  27.882  26.174  1.00  0.00     0.029 A 
ATOM     59  C   UNL A   1      42.628  27.496  27.213  1.00  0.00     0.049 A 
ATOM     60  H   UNL A   1      42.707  28.221  29.170  1.00  0.00     0.167 HD
ATOM     61  C   UNL A   1      42.171  28.841  33.499  1.00  0.00     0.037 A 
ATOM     62  C   UNL A   1      43.653  26.614  27.174  1.00  0.00     0.037 A 
ATOM     63  C   UNL A   1      43.220  29.776  33.191  1.00  0.00     0.049 A 
ATOM     64  C   UNL A   1      44.526  26.915  28.340  1.00  0.00     0.074 A 
ATOM     65  C   UNL A   1      43.273  31.149  33.054  1.00  0.00     0.029 A 
ATOM     66  N   UNL A   1      44.359  29.301  32.585  1.00  0.00    -0.354 N 
ATOM     67  N   UNL A   1      45.193  28.034  28.471  1.00  0.00    -0.248 NA
ATOM     68  C   UNL A   1      44.262  26.203  29.582  1.00  0.00     0.031 C 
ATOM     69  C   UNL A   1      44.130  31.368  31.938  1.00  0.00     0.029 A 
ATOM     70  C   UNL A   1      44.601  30.124  31.512  1.00  0.00     0.049 A 
ATOM     71  H   UNL A   1      44.897  28.525  32.864  1.00  0.00     0.167 HD
ATOM     72  C   UNL A   1      45.079  28.371  29.814  1.00  0.00     0.074 A 
ATOM     73  C   UNL A   1      44.560  27.166  30.462  1.00  0.00     0.031 C 
ATOM     74  C   UNL A   1      45.128  29.669  30.242  1.00  0.00     0.037 A 
BRANCH  61  75
ATOM     75  C   UNL A   1      42.329  27.793  34.569  1.00  0.00     0.057 A 
ATOM     76  C   UNL A   1      42.835  26.522  34.240  1.00  0.00     0.134 A 
ATOM     77  C   UNL A   1      41.767  27.901  35.855  1.00  0.00     0.134 A 
ATOM     78  F   UNL A   1      43.376  26.285  33.035  1.00  0.00    -0.206 F 
ATOM     79  C   UNL A   1      42.746  25.429  35.112  1.00  0.00     0.040 A 
ATOM     80  C   UNL A   1      41.717  26.829  36.753  1.00  0.00     0.040 A 
ATOM     81  F   UNL A   1      41.155  29.018  36.270  1.00  0.00    -0.206 F 
ATOM     82  C   UNL A   1      42.184  25.581  36.373  1.00  0.00     0.006 A 
ENDBRANCH  61  75
BRANCH  62  83
ATOM     83  C   UNL A   1      43.679  25.354  26.399  1.00  0.00     0.057 A 
ATOM     84  C   UNL A   1      44.498  25.201  25.278  1.00  0.00     0.134 A 
ATOM     85  C   UNL A   1      43.055  24.183  26.875  1.00  0.00     0.134 A 
ATOM     86  F   UNL A   1      45.172  26.249  24.782  1.00  0.00    -0.206 F 
ATOM     87  C   UNL A   1      44.685  23.955  24.660  1.00  0.00     0.040 A 
ATOM     88  C   UNL A   1      43.224  22.937  26.264  1.00  0.00     0.040 A 
ATOM     89  F   UNL A   1      42.320  24.193  27.997  1.00  0.00    -0.206 F 
ATOM     90  C   UNL A   1      44.050  22.819  25.155  1.00  0.00     0.006 A 
ENDBRANCH  62  83
BRANCH  74  91
ATOM     91  C   UNL A   1      45.481  30.752  29.251  1.00  0.00     0.057 A 
ATOM     92  C   UNL A   1      46.797  31.053  28.864  1.00  0.00     0.134 A 
ATOM     93  C   UNL A   1      44.462  31.346  28.497  1.00  0.00     0.134 A 
ATOM     94  F   UNL A   1      47.842  30.459  29.444  1.00  0.00    -0.206 F 
ATOM     95  C   UNL A   1      47.086  31.919  27.805  1.00  0.00     0.040 A 
ATOM     96  C   UNL A   1      44.736  32.189  27.415  1.00  0.00     0.040 A 
ATOM     97  F   UNL A   1      43.177  31.060  28.757  1.00  0.00    -0.206 F 
ATOM     98  C   UNL A   1      46.052  32.482  27.068  1.00  0.00     0.006 A 
ENDBRANCH  74  91
ENDBRANCH  48  49
ENDBRANCH  40  43
ENDBRANCH  38  39
ENDBRANCH  37  38
ENDBRANCH  36  37
ENDBRANCH   3  36
TORSDOF 16
ENDMDL
MODEL 2
REMARK VINA RESULT:     -12.5      1.757      3.224
REMARK SMILES Cc1coc2c(C)c3oc(=O)c(CC(=O)NCC(=O)N[C@H](C(=O)NCCCNC(=O)c4ccc(-c5c6nc(c(-c7c(F)cccc7F)c7ccc([nH]7)c(-c7c(F)cccc7F)c7nc(c(-c8c(F)cccc8F)c8ccc5[nH]8)C=C7)C=C6)cc4)C(C)C)c(C)c3cc12
REMARK SMILES IDX 22 1 23 2 24 3 21 5 20 6 18 7 19 8 17 10 16 11 14 12 15 13
REMARK SMILES IDX 13 15 12 16 1 17 2 18 3 19 92 20 4 21 5 22 91 23 6 24 90 25
REMARK SMILES IDX 7 26 8 27 88 28 9 29 89 30 10 31 11 32 85 33 86 34 87 35
REMARK SMILES IDX 25 36 26 37 27 38 28 39 29 40 30 42 31 43 32 44 84 45 33 46
REMARK SMILES IDX 83 47 34 48 35 49 36 50 77 51 37 52 82 53 76 54 78 55 38 56
REMARK SMILES IDX 81 57 75 58 74 59 39 61 65 62 48 63 64 64 49 65 52 66 63 67
REMARK SMILES IDX 79 68 50 69 51 70 62 72 80 73 53 74 40 75 41 76 46 77 42 78
REMARK SMILES IDX 43 79 45 80 47 81 44 82 66 83 67 84 72 85 68 86 69 87 71 88
REMARK SMILES IDX 73 89 70 90 54 91 55 92 60 93 56 94 57 95 59 96 61 97 58 98
REMARK H PARENT 24 4 20 9 16 14 28 41 78 60 52 71
REMARK Flexibility Score: inf
ROOT
ATOM      1  C   UNL A   1      30.148  30.729  24.404  1.00  0.00     0.242 C 
ATOM      2  O   UNL A   1      29.593  31.810  24.617  1.00  0.00    -0.273 OA
ATOM      3  N   UNL A   1      31.317  30.473  25.085  1.00  0.00    -0.354 N 
ATOM      4  H   UNL A   1      31.669  31.230  25.606  1.00  0.00     0.163 HD
ENDROOT
BRANCH   1   5
ATOM      5  C   UNL A   1      29.632  29.739  23.314  1.00  0.00     0.173 C 
BRANCH   5   6
ATOM      6  N   UNL A   1      29.578  28.373  23.857  1.00  0.00    -0.343 N 
ATOM      7  C   UNL A   1      29.984  27.147  23.411  1.00  0.00     0.240 C 
ATOM      8  O   UNL A   1      29.694  26.217  24.181  1.00  0.00    -0.273 OA
ATOM      9  H   UNL A   1      29.152  28.334  24.743  1.00  0.00     0.164 HD
BRANCH   7  10
ATOM     10  C   UNL A   1      30.957  26.834  22.182  1.00  0.00     0.216 C 
BRANCH  10  11
ATOM     11  N   UNL A   1      32.259  27.522  22.003  1.00  0.00    -0.347 N 
ATOM     12  C   UNL A   1      33.585  27.292  22.274  1.00  0.00     0.225 C 
ATOM     13  O   UNL A   1      34.360  28.037  21.652  1.00  0.00    -0.275 OA
ATOM     14  H   UNL A   1      32.137  28.394  21.562  1.00  0.00     0.164 HD
BRANCH  12  15
ATOM     15  C   UNL A   1      34.214  26.231  23.246  1.00  0.00     0.143 C 
BRANCH  15  16
ATOM     16  C   UNL A   1      33.389  25.019  23.785  1.00  0.00     0.051 A 
ATOM     17  C   UNL A   1      32.406  18.065  22.417  1.00  0.00     0.048 C 
ATOM     18  C   UNL A   1      32.604  18.756  23.714  1.00  0.00    -0.005 A 
ATOM     19  C   UNL A   1      32.812  18.130  24.927  1.00  0.00     0.199 A 
ATOM     20  C   UNL A   1      32.630  20.169  23.991  1.00  0.00     0.024 A 
ATOM     21  O   UNL A   1      32.999  19.038  25.912  1.00  0.00    -0.464 OA
ATOM     22  C   UNL A   1      32.888  20.274  25.351  1.00  0.00     0.140 A 
ATOM     23  C   UNL A   1      32.513  21.375  23.243  1.00  0.00     0.024 A 
ATOM     24  C   UNL A   1      33.041  21.476  26.044  1.00  0.00     0.036 A 
ATOM     25  C   UNL A   1      32.657  22.643  23.873  1.00  0.00     0.022 A 
ATOM     26  C   UNL A   1      33.409  21.498  27.496  1.00  0.00     0.052 C 
ATOM     27  C   UNL A   1      32.879  22.641  25.255  1.00  0.00     0.145 A 
ATOM     28  C   UNL A   1      32.872  23.940  23.119  1.00  0.00    -0.029 A 
ATOM     29  O   UNL A   1      33.021  23.871  25.929  1.00  0.00    -0.422 OA
ATOM     30  C   UNL A   1      32.837  23.835  21.614  1.00  0.00     0.046 C 
ATOM     31  C   UNL A   1      33.237  25.065  25.266  1.00  0.00     0.340 A 
ATOM     32  O   UNL A   1      33.330  26.117  25.889  1.00  0.00    -0.246 OA
ENDBRANCH  15  16
ENDBRANCH  12  15
ENDBRANCH  10  11
ENDBRANCH   7  10
ENDBRANCH   5   6
BRANCH   5  33
ATOM     33  C   UNL A   1      28.291  30.097  22.711  1.00  0.00     0.015 C 
ATOM     34  C   UNL A   1      28.435  30.510  21.277  1.00  0.00     0.010 C 
ATOM     35  C   UNL A   1      27.143  29.146  23.015  1.00  0.00     0.010 C 
ENDBRANCH   5  33
ENDBRANCH   1   5
BRANCH   3  36
ATOM     36  C   UNL A   1      32.116  29.253  25.151  1.00  0.00     0.117 C 
BRANCH  36  37
ATOM     37  C   UNL A   1      33.601  29.466  25.486  1.00  0.00     0.042 C 
BRANCH  37  38
ATOM     38  C   UNL A   1      33.879  29.868  26.924  1.00  0.00     0.118 C 
BRANCH  38  39
ATOM     39  N   UNL A   1      34.067  31.303  27.127  1.00  0.00    -0.352 N 
ATOM     40  C   UNL A   1      35.063  31.946  27.857  1.00  0.00     0.251 C 
ATOM     41  H   UNL A   1      33.405  31.889  26.693  1.00  0.00     0.163 HD
ATOM     42  O   UNL A   1      34.985  33.110  28.155  1.00  0.00    -0.269 OA
BRANCH  40  43
ATOM     43  C   UNL A   1      36.229  31.134  28.263  1.00  0.00     0.039 A 
ATOM     44  C   UNL A   1      36.439  29.844  27.768  1.00  0.00     0.014 A 
ATOM     45  C   UNL A   1      37.160  31.748  29.088  1.00  0.00     0.014 A 
ATOM     46  C   UNL A   1      37.647  29.210  28.054  1.00  0.00     0.010 A 
ATOM     47  C   UNL A   1      38.416  31.221  29.175  1.00  0.00     0.010 A 
ATOM     48  C   UNL A   1      38.637  29.916  28.749  1.00  0.00    -0.014 A 
BRANCH  48  49
ATOM     49  C   UNL A   1      39.926  29.318  29.070  1.00  0.00     0.031 A 
ATOM     50  C   UNL A   1      40.209  29.033  30.506  1.00  0.00     0.074 A 
ATOM     51  C   UNL A   1      40.712  28.826  28.089  1.00  0.00     0.049 A 
ATOM     52  N   UNL A   1      41.179  29.485  31.231  1.00  0.00    -0.248 NA
ATOM     53  C   UNL A   1      39.257  28.192  31.251  1.00  0.00     0.031 C 
ATOM     54  C   UNL A   1      40.449  28.728  26.644  1.00  0.00     0.029 A 
ATOM     55  N   UNL A   1      41.889  28.169  28.215  1.00  0.00    -0.354 N 
ATOM     56  C   UNL A   1      41.059  28.880  32.482  1.00  0.00     0.074 A 
ATOM     57  C   UNL A   1      39.793  28.190  32.474  1.00  0.00     0.031 C 
ATOM     58  C   UNL A   1      41.290  27.830  26.091  1.00  0.00     0.029 A 
ATOM     59  C   UNL A   1      42.265  27.452  27.092  1.00  0.00     0.049 A 
ATOM     60  H   UNL A   1      42.431  28.197  29.037  1.00  0.00     0.167 HD
ATOM     61  C   UNL A   1      42.085  28.860  33.380  1.00  0.00     0.037 A 
ATOM     62  C   UNL A   1      43.286  26.569  27.017  1.00  0.00     0.037 A 
ATOM     63  C   UNL A   1      43.122  29.790  33.016  1.00  0.00     0.049 A 
ATOM     64  C   UNL A   1      44.210  26.880  28.141  1.00  0.00     0.074 A 
ATOM     65  C   UNL A   1      43.169  31.162  32.864  1.00  0.00     0.029 A 
ATOM     66  N   UNL A   1      44.232  29.308  32.365  1.00  0.00    -0.354 N 
ATOM     67  N   UNL A   1      44.883  27.999  28.232  1.00  0.00    -0.248 NA
ATOM     68  C   UNL A   1      44.001  26.181  29.400  1.00  0.00     0.031 C 
ATOM     69  C   UNL A   1      43.977  31.369  31.709  1.00  0.00     0.029 A 
ATOM     70  C   UNL A   1      44.427  30.119  31.275  1.00  0.00     0.049 A 
ATOM     71  H   UNL A   1      44.781  28.533  32.628  1.00  0.00     0.167 HD
ATOM     72  C   UNL A   1      44.829  28.349  29.575  1.00  0.00     0.074 A 
ATOM     73  C   UNL A   1      44.337  27.151  30.257  1.00  0.00     0.031 C 
ATOM     74  C   UNL A   1      44.898  29.652  29.987  1.00  0.00     0.037 A 
BRANCH  61  75
ATOM     75  C   UNL A   1      42.289  27.823  34.452  1.00  0.00     0.057 A 
ATOM     76  C   UNL A   1      42.837  26.568  34.123  1.00  0.00     0.134 A 
ATOM     77  C   UNL A   1      41.735  27.916  35.742  1.00  0.00     0.134 A 
ATOM     78  F   UNL A   1      43.376  26.346  32.914  1.00  0.00    -0.206 F 
ATOM     79  C   UNL A   1      42.794  25.476  34.999  1.00  0.00     0.040 A 
ATOM     80  C   UNL A   1      41.730  26.846  36.643  1.00  0.00     0.040 A 
ATOM     81  F   UNL A   1      41.088  29.012  36.158  1.00  0.00    -0.206 F 
ATOM     82  C   UNL A   1      42.237  25.613  36.264  1.00  0.00     0.006 A 
ENDBRANCH  61  75
BRANCH  62  83
ATOM     83  C   UNL A   1      43.277  25.301  26.255  1.00  0.00     0.057 A 
ATOM     84  C   UNL A   1      44.214  25.044  25.250  1.00  0.00     0.134 A 
ATOM     85  C   UNL A   1      42.474  24.210  26.646  1.00  0.00     0.134 A 
ATOM     86  F   UNL A   1      45.055  26.007  24.846  1.00  0.00    -0.206 F 
ATOM     87  C   UNL A   1      44.345  23.776  24.664  1.00  0.00     0.040 A 
ATOM     88  C   UNL A   1      42.586  22.945  26.065  1.00  0.00     0.040 A 
ATOM     89  F   UNL A   1      41.605  24.317  27.663  1.00  0.00    -0.206 F 
ATOM     90  C   UNL A   1      43.532  22.722  25.074  1.00  0.00     0.006 A 
ENDBRANCH  62  83
BRANCH  74  91
ATOM     91  C   UNL A   1      45.208  30.724  28.971  1.00  0.00     0.057 A 
ATOM     92  C   UNL A   1      44.225  31.439  28.269  1.00  0.00     0.134 A 
ATOM     93  C   UNL A   1      46.518  31.207  28.868  1.00  0.00     0.134 A 
ATOM     94  F   UNL A   1      42.932  31.130  28.383  1.00  0.00    -0.206 F 
ATOM     95  C   UNL A   1      44.528  32.556  27.485  1.00  0.00     0.040 A 
ATOM     96  C   UNL A   1      46.832  32.343  28.113  1.00  0.00     0.040 A 
ATOM     97  F   UNL A   1      47.509  30.623  29.560  1.00  0.00    -0.206 F 
ATOM     98  C   UNL A   1      45.836  33.019  27.414  1.00  0.00     0.006 A 
ENDBRANCH  74  91
ENDBRANCH  48  49
ENDBRANCH  40  43
ENDBRANCH  38  39
ENDBRANCH  37  38
ENDBRANCH  36  37
ENDBRANCH   3  36
TORSDOF 16
ENDMDL
MODEL 3
REMARK VINA RESULT:     -12.4      1.914      5.698
REMARK SMILES Cc1coc2c(C)c3oc(=O)c(CC(=O)NCC(=O)N[C@H](C(=O)NCCCNC(=O)c4ccc(-c5c6nc(c(-c7c(F)cccc7F)c7ccc([nH]7)c(-c7c(F)cccc7F)c7nc(c(-c8c(F)cccc8F)c8ccc5[nH]8)C=C7)C=C6)cc4)C(C)C)c(C)c3cc12
REMARK SMILES IDX 22 1 23 2 24 3 21 5 20 6 18 7 19 8 17 10 16 11 14 12 15 13
REMARK SMILES IDX 13 15 12 16 1 17 2 18 3 19 92 20 4 21 5 22 91 23 6 24 90 25
REMARK SMILES IDX 7 26 8 27 88 28 9 29 89 30 10 31 11 32 85 33 86 34 87 35
REMARK SMILES IDX 25 36 26 37 27 38 28 39 29 40 30 42 31 43 32 44 84 45 33 46
REMARK SMILES IDX 83 47 34 48 35 49 36 50 77 51 37 52 82 53 76 54 78 55 38 56
REMARK SMILES IDX 81 57 75 58 74 59 39 61 65 62 48 63 64 64 49 65 52 66 63 67
REMARK SMILES IDX 79 68 50 69 51 70 62 72 80 73 53 74 40 75 41 76 46 77 42 78
REMARK SMILES IDX 43 79 45 80 47 81 44 82 66 83 67 84 72 85 68 86 69 87 71 88
REMARK SMILES IDX 73 89 70 90 54 91 55 92 60 93 56 94 57 95 59 96 61 97 58 98
REMARK H PARENT 24 4 20 9 16 14 28 41 78 60 52 71
REMARK Flexibility Score: inf
ROOT
ATOM      1  C   UNL A   1      31.313  29.683  25.086  1.00  0.00     0.242 C 
ATOM      2  O   UNL A   1      30.543  30.501  24.577  1.00  0.00    -0.273 OA
ATOM      3  N   UNL A   1      32.150  30.136  26.081  1.00  0.00    -0.354 N 
ATOM      4  H   UNL A   1      32.136  31.110  26.225  1.00  0.00     0.163 HD
ENDROOT
BRANCH   1   5
ATOM      5  C   UNL A   1      31.442  28.225  24.546  1.00  0.00     0.173 C 
BRANCH   5   6
ATOM      6  N   UNL A   1      30.114  27.696  24.199  1.00  0.00    -0.343 N 
ATOM      7  C   UNL A   1      29.605  26.446  23.984  1.00  0.00     0.240 C 
ATOM      8  O   UNL A   1      28.408  26.447  23.655  1.00  0.00    -0.273 OA
ATOM      9  H   UNL A   1      29.438  28.405  24.099  1.00  0.00     0.164 HD
BRANCH   7  10
ATOM     10  C   UNL A   1      30.292  25.045  24.331  1.00  0.00     0.216 C 
BRANCH  10  11
ATOM     11  N   UNL A   1      30.051  24.336  25.611  1.00  0.00    -0.347 N 
ATOM     12  C   UNL A   1      30.535  23.241  26.283  1.00  0.00     0.225 C 
ATOM     13  O   UNL A   1      30.228  23.215  27.485  1.00  0.00    -0.275 OA
ATOM     14  H   UNL A   1      29.339  24.779  26.128  1.00  0.00     0.164 HD
BRANCH  12  15
ATOM     15  C   UNL A   1      31.404  22.058  25.726  1.00  0.00     0.143 C 
BRANCH  15  16
ATOM     16  C   UNL A   1      32.871  22.277  25.234  1.00  0.00     0.051 A 
ATOM     17  C   UNL A   1      39.066  24.951  27.616  1.00  0.00     0.048 C 
ATOM     18  C   UNL A   1      38.799  23.695  26.876  1.00  0.00    -0.005 A 
ATOM     19  C   UNL A   1      39.720  22.691  26.652  1.00  0.00     0.199 A 
ATOM     20  C   UNL A   1      37.577  23.252  26.255  1.00  0.00     0.024 A 
ATOM     21  O   UNL A   1      39.157  21.659  25.982  1.00  0.00    -0.464 OA
ATOM     22  C   UNL A   1      37.860  21.995  25.738  1.00  0.00     0.140 A 
ATOM     23  C   UNL A   1      36.250  23.746  26.110  1.00  0.00     0.024 A 
ATOM     24  C   UNL A   1      36.939  21.176  25.083  1.00  0.00     0.036 A 
ATOM     25  C   UNL A   1      35.250  22.974  25.457  1.00  0.00     0.022 A 
ATOM     26  C   UNL A   1      37.304  19.794  24.636  1.00  0.00     0.052 C 
ATOM     27  C   UNL A   1      35.646  21.735  24.938  1.00  0.00     0.145 A 
ATOM     28  C   UNL A   1      33.765  23.267  25.545  1.00  0.00    -0.029 A 
ATOM     29  O   UNL A   1      34.694  20.933  24.275  1.00  0.00    -0.422 OA
ATOM     30  C   UNL A   1      33.389  24.511  26.311  1.00  0.00     0.046 C 
ATOM     31  C   UNL A   1      33.334  21.168  24.353  1.00  0.00     0.340 A 
ATOM     32  O   UNL A   1      32.541  20.461  23.741  1.00  0.00    -0.246 OA
ENDBRANCH  15  16
ENDBRANCH  12  15
ENDBRANCH  10  11
ENDBRANCH   7  10
ENDBRANCH   5   6
BRANCH   5  33
ATOM     33  C   UNL A   1      32.375  28.062  23.367  1.00  0.00     0.015 C 
ATOM     34  C   UNL A   1      33.280  26.880  23.550  1.00  0.00     0.010 C 
ATOM     35  C   UNL A   1      31.747  28.209  21.988  1.00  0.00     0.010 C 
ENDBRANCH   5  33
ENDBRANCH   1   5
BRANCH   3  36
ATOM     36  C   UNL A   1      33.056  29.396  26.955  1.00  0.00     0.117 C 
BRANCH  36  37
ATOM     37  C   UNL A   1      34.536  29.438  26.540  1.00  0.00     0.042 C 
BRANCH  37  38
ATOM     38  C   UNL A   1      35.509  28.949  27.600  1.00  0.00     0.118 C 
BRANCH  38  39
ATOM     39  N   UNL A   1      35.531  29.756  28.819  1.00  0.00    -0.352 N 
ATOM     40  C   UNL A   1      36.559  29.877  29.751  1.00  0.00     0.251 C 
ATOM     41  H   UNL A   1      34.718  30.278  29.005  1.00  0.00     0.163 HD
ATOM     42  O   UNL A   1      36.383  30.375  30.833  1.00  0.00    -0.269 OA
BRANCH  40  43
ATOM     43  C   UNL A   1      37.886  29.359  29.360  1.00  0.00     0.039 A 
ATOM     44  C   UNL A   1      38.585  29.870  28.263  1.00  0.00     0.014 A 
ATOM     45  C   UNL A   1      38.451  28.402  30.189  1.00  0.00     0.014 A 
ATOM     46  C   UNL A   1      39.902  29.459  28.062  1.00  0.00     0.010 A 
ATOM     47  C   UNL A   1      39.796  28.177  30.121  1.00  0.00     0.010 A 
ATOM     48  C   UNL A   1      40.504  28.620  29.009  1.00  0.00    -0.014 A 
BRANCH  48  49
ATOM     49  C   UNL A   1      41.878  28.162  28.867  1.00  0.00     0.031 A 
ATOM     50  C   UNL A   1      42.112  26.940  28.044  1.00  0.00     0.074 A 
ATOM     51  C   UNL A   1      42.903  28.951  29.258  1.00  0.00     0.049 A 
ATOM     52  N   UNL A   1      42.661  25.829  28.409  1.00  0.00    -0.248 NA
ATOM     53  C   UNL A   1      41.612  26.925  26.660  1.00  0.00     0.031 C 
ATOM     54  C   UNL A   1      42.873  30.323  29.791  1.00  0.00     0.029 A 
ATOM     55  N   UNL A   1      44.230  28.720  29.122  1.00  0.00    -0.354 N 
ATOM     56  C   UNL A   1      42.718  25.019  27.275  1.00  0.00     0.074 A 
ATOM     57  C   UNL A   1      41.950  25.697  26.260  1.00  0.00     0.031 C 
ATOM     58  C   UNL A   1      44.095  30.880  29.672  1.00  0.00     0.029 A 
ATOM     59  C   UNL A   1      45.021  29.849  29.252  1.00  0.00     0.049 A 
ATOM     60  H   UNL A   1      44.602  27.826  28.945  1.00  0.00     0.167 HD
ATOM     61  C   UNL A   1      43.526  23.923  27.206  1.00  0.00     0.037 A 
ATOM     62  C   UNL A   1      46.343  29.930  28.979  1.00  0.00     0.037 A 
ATOM     63  C   UNL A   1      44.016  23.546  28.505  1.00  0.00     0.049 A 
ATOM     64  C   UNL A   1      46.878  28.542  29.020  1.00  0.00     0.074 A 
ATOM     65  C   UNL A   1      43.412  23.132  29.676  1.00  0.00     0.029 A 
ATOM     66  N   UNL A   1      45.283  23.942  28.864  1.00  0.00    -0.354 N 
ATOM     67  N   UNL A   1      46.914  27.816  30.109  1.00  0.00    -0.248 NA
ATOM     68  C   UNL A   1      46.901  27.791  27.774  1.00  0.00     0.031 C 
ATOM     69  C   UNL A   1      44.136  23.793  30.709  1.00  0.00     0.029 A 
ATOM     70  C   UNL A   1      45.176  24.508  30.110  1.00  0.00     0.049 A 
ATOM     71  H   UNL A   1      46.106  23.839  28.333  1.00  0.00     0.167 HD
ATOM     72  C   UNL A   1      46.557  26.536  29.704  1.00  0.00     0.074 A 
ATOM     73  C   UNL A   1      46.636  26.567  28.243  1.00  0.00     0.031 C 
ATOM     74  C   UNL A   1      45.946  25.653  30.551  1.00  0.00     0.037 A 
BRANCH  61  75
ATOM     75  C   UNL A   1      44.091  23.332  25.942  1.00  0.00     0.057 A 
ATOM     76  C   UNL A   1      43.822  21.991  25.609  1.00  0.00     0.134 A 
ATOM     77  C   UNL A   1      45.094  23.951  25.173  1.00  0.00     0.134 A 
ATOM     78  F   UNL A   1      42.902  21.284  26.284  1.00  0.00    -0.206 F 
ATOM     79  C   UNL A   1      44.531  21.306  24.615  1.00  0.00     0.040 A 
ATOM     80  C   UNL A   1      45.775  23.291  24.144  1.00  0.00     0.040 A 
ATOM     81  F   UNL A   1      45.530  25.189  25.440  1.00  0.00    -0.206 F 
ATOM     82  C   UNL A   1      45.514  21.956  23.879  1.00  0.00     0.006 A 
ENDBRANCH  61  75
BRANCH  62  83
ATOM     83  C   UNL A   1      47.027  31.083  28.354  1.00  0.00     0.057 A 
ATOM     84  C   UNL A   1      46.756  31.471  27.039  1.00  0.00     0.134 A 
ATOM     85  C   UNL A   1      47.813  31.974  29.112  1.00  0.00     0.134 A 
ATOM     86  F   UNL A   1      45.976  30.711  26.256  1.00  0.00    -0.206 F 
ATOM     87  C   UNL A   1      47.241  32.674  26.505  1.00  0.00     0.040 A 
ATOM     88  C   UNL A   1      48.311  33.172  28.591  1.00  0.00     0.040 A 
ATOM     89  F   UNL A   1      48.060  31.750  30.412  1.00  0.00    -0.206 F 
ATOM     90  C   UNL A   1      48.018  33.530  27.283  1.00  0.00     0.006 A 
ENDBRANCH  62  83
BRANCH  74  91
ATOM     91  C   UNL A   1      45.805  26.018  32.009  1.00  0.00     0.057 A 
ATOM     92  C   UNL A   1      44.645  26.583  32.562  1.00  0.00     0.134 A 
ATOM     93  C   UNL A   1      46.773  25.576  32.919  1.00  0.00     0.134 A 
ATOM     94  F   UNL A   1      43.615  26.939  31.792  1.00  0.00    -0.206 F 
ATOM     95  C   UNL A   1      44.466  26.728  33.941  1.00  0.00     0.040 A 
ATOM     96  C   UNL A   1      46.595  25.686  34.303  1.00  0.00     0.040 A 
ATOM     97  F   UNL A   1      47.883  24.964  32.479  1.00  0.00    -0.206 F 
ATOM     98  C   UNL A   1      45.440  26.267  34.818  1.00  0.00     0.006 A 
ENDBRANCH  74  91
ENDBRANCH  48  49
ENDBRANCH  40  43
ENDBRANCH  38  39
ENDBRANCH  37  38
ENDBRANCH  36  37
ENDBRANCH   3  36
TORSDOF 16
ENDMDL
