MODEL 1
REMARK VINA RESULT:     -12.8      0.000      0.000
REMARK SMILES O=C(NCCCNC(=O)c1cc(NC(=O)c2cccs2)ccc1N1CCC[C@H](C[NH+]2CCCC2)C1)c1ccc(-c2c3nc(c(-c4c(F)cccc4F)c4ccc([nH]4)c(-c4c(F)cccc4F)c4nc(c(-c5c(F)cccc5F)c5ccc2[nH]5)C=C4)C=C3)cc1
REMARK SMILES IDX 5 1 4 2 3 3 1 4 2 5 36 7 37 8 89 9 38 10 88 11 39 12 40 13
REMARK SMILES IDX 41 14 82 15 42 16 87 17 81 18 83 19 43 20 86 21 80 22 79 23
REMARK SMILES IDX 44 25 70 26 53 27 69 28 54 29 57 30 68 31 84 32 55 33 56 34
REMARK SMILES IDX 67 36 85 37 58 38 45 39 46 40 51 41 47 42 48 43 50 44 52 45
REMARK SMILES IDX 49 46 71 47 72 48 77 49 73 50 74 51 76 52 78 53 75 54 59 55
REMARK SMILES IDX 60 56 65 57 61 58 62 59 64 60 66 61 63 62 6 63 7 64 8 65
REMARK SMILES IDX 9 67 10 68 11 69 23 70 12 71 22 72 21 73 24 74 25 75 35 76
REMARK SMILES IDX 26 77 28 78 27 79 29 80 30 81 31 82 34 83 32 85 33 86 13 87
REMARK SMILES IDX 14 88 15 90 16 91 17 92 20 93 18 94 19 95
REMARK H PARENT 3 6 83 24 57 35 7 66 30 84 13 89
REMARK Flexibility Score: inf
ROOT
ATOM      1  C   UNL A   1      32.547  29.614  25.065  1.00  0.00     0.042 C 
ENDROOT
BRANCH   1   2
ATOM      2  C   UNL A   1      32.054  30.015  26.445  1.00  0.00     0.118 C 
BRANCH   2   3
ATOM      3  N   UNL A   1      31.912  31.457  26.628  1.00  0.00    -0.352 N 
ATOM      4  O   UNL A   1      32.315  33.534  27.400  1.00  0.00    -0.269 OA
ATOM      5  C   UNL A   1      32.709  32.383  27.267  1.00  0.00     0.251 C 
ATOM      6  H   UNL A   1      31.099  31.837  26.223  1.00  0.00     0.163 HD
BRANCH   5   7
ATOM      7  C   UNL A   1      34.018  31.984  27.832  1.00  0.00     0.039 A 
ATOM      8  C   UNL A   1      34.299  30.650  28.105  1.00  0.00     0.014 A 
ATOM      9  C   UNL A   1      34.985  32.960  28.096  1.00  0.00     0.014 A 
ATOM     10  C   UNL A   1      35.411  30.321  28.863  1.00  0.00     0.010 A 
ATOM     11  C   UNL A   1      36.184  32.603  28.725  1.00  0.00     0.010 A 
ATOM     12  C   UNL A   1      36.384  31.287  29.162  1.00  0.00    -0.014 A 
BRANCH  12  13
ATOM     13  C   UNL A   1      37.614  30.856  29.876  1.00  0.00     0.031 A 
ATOM     14  C   UNL A   1      37.838  31.184  31.326  1.00  0.00     0.074 A 
ATOM     15  C   UNL A   1      38.508  30.099  29.208  1.00  0.00     0.049 A 
ATOM     16  N   UNL A   1      38.843  30.849  32.097  1.00  0.00    -0.248 NA
ATOM     17  C   UNL A   1      36.816  31.999  31.999  1.00  0.00     0.031 C 
ATOM     18  C   UNL A   1      38.405  29.727  27.793  1.00  0.00     0.029 A 
ATOM     19  N   UNL A   1      39.654  29.476  29.628  1.00  0.00    -0.354 N 
ATOM     20  C   UNL A   1      38.592  31.439  33.331  1.00  0.00     0.074 A 
ATOM     21  C   UNL A   1      37.347  32.164  33.205  1.00  0.00     0.031 C 
ATOM     22  C   UNL A   1      39.397  28.881  27.486  1.00  0.00     0.029 A 
ATOM     23  C   UNL A   1      40.255  28.720  28.651  1.00  0.00     0.049 A 
ATOM     24  H   UNL A   1      40.012  29.561  30.542  1.00  0.00     0.167 HD
ATOM     25  C   UNL A   1      39.334  31.375  34.462  1.00  0.00     0.037 A 
ATOM     26  C   UNL A   1      41.385  27.992  28.677  1.00  0.00     0.037 A 
ATOM     27  C   UNL A   1      40.557  30.623  34.590  1.00  0.00     0.049 A 
ATOM     28  C   UNL A   1      42.182  27.936  29.944  1.00  0.00     0.074 A 
ATOM     29  C   UNL A   1      41.360  30.465  35.707  1.00  0.00     0.029 A 
ATOM     30  N   UNL A   1      41.152  29.900  33.566  1.00  0.00    -0.354 N 
ATOM     31  N   UNL A   1      41.923  28.491  31.104  1.00  0.00    -0.248 NA
ATOM     32  C   UNL A   1      43.432  27.168  29.904  1.00  0.00     0.031 C 
ATOM     33  C   UNL A   1      42.461  29.680  35.349  1.00  0.00     0.029 A 
ATOM     34  C   UNL A   1      42.322  29.312  34.020  1.00  0.00     0.049 A 
ATOM     35  H   UNL A   1      40.796  29.816  32.652  1.00  0.00     0.167 HD
ATOM     36  C   UNL A   1      42.975  28.138  31.934  1.00  0.00     0.074 A 
ATOM     37  C   UNL A   1      43.861  27.299  31.152  1.00  0.00     0.031 C 
ATOM     38  C   UNL A   1      43.193  28.485  33.225  1.00  0.00     0.037 A 
BRANCH  25  39
ATOM     39  C   UNL A   1      38.862  32.158  35.653  1.00  0.00     0.057 A 
ATOM     40  C   UNL A   1      38.134  31.565  36.692  1.00  0.00     0.134 A 
ATOM     41  C   UNL A   1      39.190  33.514  35.786  1.00  0.00     0.134 A 
ATOM     42  F   UNL A   1      37.776  30.274  36.622  1.00  0.00    -0.206 F 
ATOM     43  C   UNL A   1      37.736  32.296  37.814  1.00  0.00     0.040 A 
ATOM     44  C   UNL A   1      38.817  34.249  36.913  1.00  0.00     0.040 A 
ATOM     45  F   UNL A   1      39.890  34.142  34.830  1.00  0.00    -0.206 F 
ATOM     46  C   UNL A   1      38.085  33.641  37.930  1.00  0.00     0.006 A 
ENDBRANCH  25  39
BRANCH  26  47
ATOM     47  C   UNL A   1      41.827  27.282  27.452  1.00  0.00     0.057 A 
ATOM     48  C   UNL A   1      41.488  25.944  27.226  1.00  0.00     0.134 A 
ATOM     49  C   UNL A   1      42.567  27.938  26.461  1.00  0.00     0.134 A 
ATOM     50  F   UNL A   1      40.791  25.259  28.145  1.00  0.00    -0.206 F 
ATOM     51  C   UNL A   1      41.874  25.281  26.060  1.00  0.00     0.040 A 
ATOM     52  C   UNL A   1      42.937  27.297  25.279  1.00  0.00     0.040 A 
ATOM     53  F   UNL A   1      42.913  29.225  26.615  1.00  0.00    -0.206 F 
ATOM     54  C   UNL A   1      42.594  25.962  25.079  1.00  0.00     0.006 A 
ENDBRANCH  26  47
BRANCH  38  55
ATOM     55  C   UNL A   1      44.433  27.942  33.868  1.00  0.00     0.057 A 
ATOM     56  C   UNL A   1      45.626  28.674  33.896  1.00  0.00     0.134 A 
ATOM     57  C   UNL A   1      44.427  26.685  34.482  1.00  0.00     0.134 A 
ATOM     58  F   UNL A   1      45.699  29.879  33.311  1.00  0.00    -0.206 F 
ATOM     59  C   UNL A   1      46.779  28.162  34.492  1.00  0.00     0.040 A 
ATOM     60  C   UNL A   1      45.567  26.172  35.101  1.00  0.00     0.040 A 
ATOM     61  F   UNL A   1      43.312  25.938  34.493  1.00  0.00    -0.206 F 
ATOM     62  C   UNL A   1      46.749  26.909  35.101  1.00  0.00     0.006 A 
ENDBRANCH  38  55
ENDBRANCH  12  13
ENDBRANCH   5   7
ENDBRANCH   2   3
ENDBRANCH   1   2
BRANCH   1  63
ATOM     63  C   UNL A   1      32.963  28.162  24.968  1.00  0.00     0.118 C 
BRANCH  63  64
ATOM     64  N   UNL A   1      32.751  27.390  26.175  1.00  0.00    -0.352 N 
ATOM     65  C   UNL A   1      32.118  26.178  26.300  1.00  0.00     0.253 C 
ATOM     66  H   UNL A   1      33.107  27.781  27.006  1.00  0.00     0.163 HD
ATOM     67  O   UNL A   1      32.165  25.586  27.375  1.00  0.00    -0.269 OA
BRANCH  65  68
ATOM     68  C   UNL A   1      31.288  25.643  25.194  1.00  0.00     0.065 A 
ATOM     69  C   UNL A   1      30.012  26.232  25.133  1.00  0.00     0.042 A 
ATOM     70  C   UNL A   1      31.702  24.691  24.241  1.00  0.00     0.050 A 
ATOM     71  C   UNL A   1      29.161  26.012  24.061  1.00  0.00     0.042 A 
ATOM     72  C   UNL A   1      30.802  24.443  23.188  1.00  0.00     0.029 A 
ATOM     73  C   UNL A   1      29.562  25.094  23.092  1.00  0.00     0.028 A 
BRANCH  70  74
ATOM     74  N   UNL A   1      32.872  23.941  24.307  1.00  0.00    -0.370 N 
ATOM     75  C   UNL A   1      34.077  24.388  23.597  1.00  0.00     0.116 C 
ATOM     76  C   UNL A   1      33.007  22.932  25.363  1.00  0.00     0.126 C 
ATOM     77  C   UNL A   1      34.979  23.222  23.204  1.00  0.00     0.022 C 
ATOM     78  C   UNL A   1      33.779  21.711  24.845  1.00  0.00     0.064 C 
ATOM     79  C   UNL A   1      35.138  22.211  24.335  1.00  0.00     0.013 C 
BRANCH  78  80
ATOM     80  C   UNL A   1      32.898  20.955  23.817  1.00  0.00     0.267 C 
BRANCH  80  81
ATOM     81  N   UNL A   1      32.445  19.592  24.103  1.00  0.00    -0.335 N 
ATOM     82  C   UNL A   1      33.242  18.873  25.093  1.00  0.00     0.262 C 
ATOM     83  C   UNL A   1      32.255  18.712  22.956  1.00  0.00     0.262 C 
ATOM     84  H   UNL A   1      31.524  19.803  24.490  1.00  0.00     0.348 HD
ATOM     85  C   UNL A   1      34.125  17.939  24.292  1.00  0.00     0.067 C 
ATOM     86  C   UNL A   1      33.292  17.600  23.070  1.00  0.00     0.067 C 
ENDBRANCH  80  81
ENDBRANCH  78  80
ENDBRANCH  70  74
BRANCH  71  87
ATOM     87  N   UNL A   1      27.905  26.628  23.901  1.00  0.00    -0.321 N 
ATOM     88  C   UNL A   1      27.529  27.889  23.469  1.00  0.00     0.265 C 
ATOM     89  H   UNL A   1      27.146  26.051  24.145  1.00  0.00     0.170 HD
ATOM     90  O   UNL A   1      26.354  28.213  23.650  1.00  0.00    -0.268 OA
BRANCH  88  91
ATOM     91  C   UNL A   1      28.478  28.735  22.774  1.00  0.00     0.092 A 
ATOM     92  C   UNL A   1      29.847  28.587  22.632  1.00  0.00     0.025 A 
ATOM     93  S   UNL A   1      27.914  30.146  21.982  1.00  0.00    -0.139 S 
ATOM     94  C   UNL A   1      30.446  29.712  21.991  1.00  0.00     0.012 A 
ATOM     95  C   UNL A   1      29.508  30.644  21.606  1.00  0.00     0.065 A 
ENDBRANCH  88  91
ENDBRANCH  71  87
ENDBRANCH  65  68
ENDBRANCH  63  64
ENDBRANCH   1  63
TORSDOF 15
ENDMDL
MODEL 2
REMARK VINA RESULT:     -12.6      4.135      9.216
REMARK SMILES O=C(NCCCNC(=O)c1cc(NC(=O)c2cccs2)ccc1N1CCC[C@H](C[NH+]2CCCC2)C1)c1ccc(-c2c3nc(c(-c4c(F)cccc4F)c4ccc([nH]4)c(-c4c(F)cccc4F)c4nc(c(-c5c(F)cccc5F)c5ccc2[nH]5)C=C4)C=C3)cc1
REMARK SMILES IDX 5 1 4 2 3 3 1 4 2 5 36 7 37 8 89 9 38 10 88 11 39 12 40 13
REMARK SMILES IDX 41 14 82 15 42 16 87 17 81 18 83 19 43 20 86 21 80 22 79 23
REMARK SMILES IDX 44 25 70 26 53 27 69 28 54 29 57 30 68 31 84 32 55 33 56 34
REMARK SMILES IDX 67 36 85 37 58 38 45 39 46 40 51 41 47 42 48 43 50 44 52 45
REMARK SMILES IDX 49 46 71 47 72 48 77 49 73 50 74 51 76 52 78 53 75 54 59 55
REMARK SMILES IDX 60 56 65 57 61 58 62 59 64 60 66 61 63 62 6 63 7 64 8 65
REMARK SMILES IDX 9 67 10 68 11 69 23 70 12 71 22 72 21 73 24 74 25 75 35 76
REMARK SMILES IDX 26 77 28 78 27 79 29 80 30 81 31 82 34 83 32 85 33 86 13 87
REMARK SMILES IDX 14 88 15 90 16 91 17 92 20 93 18 94 19 95
REMARK H PARENT 3 6 83 24 57 35 7 66 30 84 13 89
REMARK Flexibility Score: inf
ROOT
ATOM      1  C   UNL A   1      37.528  20.212  24.792  1.00  0.00     0.042 C 
ENDROOT
BRANCH   1   2
ATOM      2  C   UNL A   1      38.609  20.455  25.831  1.00  0.00     0.118 C 
BRANCH   2   3
ATOM      3  N   UNL A   1      39.727  19.518  25.754  1.00  0.00    -0.352 N 
ATOM      4  O   UNL A   1      41.848  18.761  25.762  1.00  0.00    -0.269 OA
ATOM      5  C   UNL A   1      41.070  19.670  26.023  1.00  0.00     0.251 C 
ATOM      6  H   UNL A   1      39.476  18.614  25.456  1.00  0.00     0.163 HD
BRANCH   5   7
ATOM      7  C   UNL A   1      41.585  20.940  26.584  1.00  0.00     0.039 A 
ATOM      8  C   UNL A   1      41.623  21.148  27.958  1.00  0.00     0.014 A 
ATOM      9  C   UNL A   1      42.037  21.944  25.721  1.00  0.00     0.014 A 
ATOM     10  C   UNL A   1      41.861  22.419  28.456  1.00  0.00     0.010 A 
ATOM     11  C   UNL A   1      42.428  23.185  26.239  1.00  0.00     0.010 A 
ATOM     12  C   UNL A   1      42.292  23.450  27.608  1.00  0.00    -0.014 A 
BRANCH  12  13
ATOM     13  C   UNL A   1      42.646  24.762  28.211  1.00  0.00     0.031 A 
ATOM     14  C   UNL A   1      44.070  25.119  28.538  1.00  0.00     0.074 A 
ATOM     15  C   UNL A   1      41.662  25.664  28.401  1.00  0.00     0.049 A 
ATOM     16  N   UNL A   1      44.542  26.236  29.034  1.00  0.00    -0.248 NA
ATOM     17  C   UNL A   1      45.096  24.095  28.290  1.00  0.00     0.031 C 
ATOM     18  C   UNL A   1      40.239  25.427  28.133  1.00  0.00     0.029 A 
ATOM     19  N   UNL A   1      41.703  26.967  28.824  1.00  0.00    -0.354 N 
ATOM     20  C   UNL A   1      45.909  26.037  29.189  1.00  0.00     0.074 A 
ATOM     21  C   UNL A   1      46.191  24.689  28.747  1.00  0.00     0.031 C 
ATOM     22  C   UNL A   1      39.560  26.565  28.323  1.00  0.00     0.029 A 
ATOM     23  C   UNL A   1      40.477  27.586  28.809  1.00  0.00     0.049 A 
ATOM     24  H   UNL A   1      42.532  27.416  29.111  1.00  0.00     0.167 HD
ATOM     25  C   UNL A   1      46.839  26.905  29.654  1.00  0.00     0.037 A 
ATOM     26  C   UNL A   1      40.118  28.831  29.166  1.00  0.00     0.037 A 
ATOM     27  C   UNL A   1      46.556  28.258  30.061  1.00  0.00     0.049 A 
ATOM     28  C   UNL A   1      41.171  29.770  29.673  1.00  0.00     0.074 A 
ATOM     29  C   UNL A   1      47.438  29.226  30.510  1.00  0.00     0.029 A 
ATOM     30  N   UNL A   1      45.295  28.835  30.065  1.00  0.00    -0.354 N 
ATOM     31  N   UNL A   1      42.460  29.568  29.802  1.00  0.00    -0.248 NA
ATOM     32  C   UNL A   1      40.719  31.101  30.096  1.00  0.00     0.031 C 
ATOM     33  C   UNL A   1      46.706  30.376  30.823  1.00  0.00     0.029 A 
ATOM     34  C   UNL A   1      45.373  30.139  30.528  1.00  0.00     0.049 A 
ATOM     35  H   UNL A   1      44.466  28.386  29.780  1.00  0.00     0.167 HD
ATOM     36  C   UNL A   1      42.976  30.747  30.319  1.00  0.00     0.074 A 
ATOM     37  C   UNL A   1      41.864  31.666  30.453  1.00  0.00     0.031 C 
ATOM     38  C   UNL A   1      44.254  31.037  30.660  1.00  0.00     0.037 A 
BRANCH  25  39
ATOM     39  C   UNL A   1      48.253  26.415  29.775  1.00  0.00     0.057 A 
ATOM     40  C   UNL A   1      49.191  26.587  28.749  1.00  0.00     0.134 A 
ATOM     41  C   UNL A   1      48.697  25.813  30.960  1.00  0.00     0.134 A 
ATOM     42  F   UNL A   1      48.829  27.145  27.584  1.00  0.00    -0.206 F 
ATOM     43  C   UNL A   1      50.514  26.163  28.890  1.00  0.00     0.040 A 
ATOM     44  C   UNL A   1      50.023  25.404  31.121  1.00  0.00     0.040 A 
ATOM     45  F   UNL A   1      47.853  25.623  31.985  1.00  0.00    -0.206 F 
ATOM     46  C   UNL A   1      50.935  25.576  30.083  1.00  0.00     0.006 A 
ENDBRANCH  25  39
BRANCH  26  47
ATOM     47  C   UNL A   1      38.696  29.240  29.073  1.00  0.00     0.057 A 
ATOM     48  C   UNL A   1      38.132  29.634  27.855  1.00  0.00     0.134 A 
ATOM     49  C   UNL A   1      37.858  29.209  30.194  1.00  0.00     0.134 A 
ATOM     50  F   UNL A   1      38.888  29.697  26.750  1.00  0.00    -0.206 F 
ATOM     51  C   UNL A   1      36.786  29.989  27.757  1.00  0.00     0.040 A 
ATOM     52  C   UNL A   1      36.505  29.534  30.105  1.00  0.00     0.040 A 
ATOM     53  F   UNL A   1      38.337  28.828  31.388  1.00  0.00    -0.206 F 
ATOM     54  C   UNL A   1      35.966  29.930  28.883  1.00  0.00     0.006 A 
ENDBRANCH  26  47
BRANCH  38  55
ATOM     55  C   UNL A   1      44.512  32.412  31.198  1.00  0.00     0.057 A 
ATOM     56  C   UNL A   1      44.813  33.486  30.352  1.00  0.00     0.134 A 
ATOM     57  C   UNL A   1      44.439  32.667  32.572  1.00  0.00     0.134 A 
ATOM     58  F   UNL A   1      44.912  33.301  29.026  1.00  0.00    -0.206 F 
ATOM     59  C   UNL A   1      45.057  34.764  30.857  1.00  0.00     0.040 A 
ATOM     60  C   UNL A   1      44.659  33.944  33.087  1.00  0.00     0.040 A 
ATOM     61  F   UNL A   1      44.150  31.679  33.433  1.00  0.00    -0.206 F 
ATOM     62  C   UNL A   1      44.975  34.995  32.229  1.00  0.00     0.006 A 
ENDBRANCH  38  55
ENDBRANCH  12  13
ENDBRANCH   5   7
ENDBRANCH   2   3
ENDBRANCH   1   2
BRANCH   1  63
ATOM     63  C   UNL A   1      36.477  21.300  24.744  1.00  0.00     0.118 C 
BRANCH  63  64
ATOM     64  N   UNL A   1      35.706  21.451  25.960  1.00  0.00    -0.352 N 
ATOM     65  C   UNL A   1      34.342  21.544  26.088  1.00  0.00     0.253 C 
ATOM     66  H   UNL A   1      36.223  21.489  26.797  1.00  0.00     0.163 HD
ATOM     67  O   UNL A   1      33.841  21.508  27.209  1.00  0.00    -0.269 OA
BRANCH  65  68
ATOM     68  C   UNL A   1      33.490  21.801  24.902  1.00  0.00     0.065 A 
ATOM     69  C   UNL A   1      33.222  20.638  24.158  1.00  0.00     0.042 A 
ATOM     70  C   UNL A   1      32.931  23.045  24.544  1.00  0.00     0.050 A 
ATOM     71  C   UNL A   1      32.292  20.631  23.130  1.00  0.00     0.042 A 
ATOM     72  C   UNL A   1      32.029  23.026  23.465  1.00  0.00     0.029 A 
ATOM     73  C   UNL A   1      31.707  21.846  22.776  1.00  0.00     0.028 A 
BRANCH  70  74
ATOM     74  N   UNL A   1      33.260  24.270  25.116  1.00  0.00    -0.370 N 
ATOM     75  C   UNL A   1      32.825  24.586  26.483  1.00  0.00     0.116 C 
ATOM     76  C   UNL A   1      34.330  25.070  24.511  1.00  0.00     0.126 C 
ATOM     77  C   UNL A   1      32.652  26.087  26.698  1.00  0.00     0.022 C 
ATOM     78  C   UNL A   1      34.007  26.566  24.612  1.00  0.00     0.064 C 
ATOM     79  C   UNL A   1      33.801  26.891  26.097  1.00  0.00     0.013 C 
BRANCH  78  80
ATOM     80  C   UNL A   1      32.818  26.890  23.669  1.00  0.00     0.267 C 
BRANCH  80  81
ATOM     81  N   UNL A   1      32.536  28.279  23.300  1.00  0.00    -0.335 N 
ATOM     82  C   UNL A   1      32.706  29.250  24.377  1.00  0.00     0.262 C 
ATOM     83  C   UNL A   1      31.250  28.537  22.663  1.00  0.00     0.262 C 
ATOM     84  H   UNL A   1      33.264  28.414  22.597  1.00  0.00     0.348 HD
ATOM     85  C   UNL A   1      31.305  29.558  24.862  1.00  0.00     0.067 C 
ATOM     86  C   UNL A   1      30.443  29.405  23.622  1.00  0.00     0.067 C 
ENDBRANCH  80  81
ENDBRANCH  78  80
ENDBRANCH  70  74
BRANCH  71  87
ATOM     87  N   UNL A   1      31.923  19.487  22.397  1.00  0.00    -0.321 N 
ATOM     88  C   UNL A   1      32.352  18.172  22.436  1.00  0.00     0.265 C 
ATOM     89  H   UNL A   1      31.222  19.655  21.726  1.00  0.00     0.170 HD
ATOM     90  O   UNL A   1      31.994  17.440  21.510  1.00  0.00    -0.268 OA
BRANCH  88  91
ATOM     91  C   UNL A   1      33.125  17.689  23.562  1.00  0.00     0.092 A 
ATOM     92  C   UNL A   1      34.486  17.449  23.655  1.00  0.00     0.025 A 
ATOM     93  S   UNL A   1      32.326  17.339  25.036  1.00  0.00    -0.139 S 
ATOM     94  C   UNL A   1      34.842  16.844  24.896  1.00  0.00     0.012 A 
ATOM     95  C   UNL A   1      33.756  16.706  25.732  1.00  0.00     0.065 A 
ENDBRANCH  88  91
ENDBRANCH  71  87
ENDBRANCH  65  68
ENDBRANCH  63  64
ENDBRANCH   1  63
TORSDOF 15
ENDMDL
MODEL 3
REMARK VINA RESULT:     -12.6      2.546      6.853
REMARK SMILES O=C(NCCCNC(=O)c1cc(NC(=O)c2cccs2)ccc1N1CCC[C@H](C[NH+]2CCCC2)C1)c1ccc(-c2c3nc(c(-c4c(F)cccc4F)c4ccc([nH]4)c(-c4c(F)cccc4F)c4nc(c(-c5c(F)cccc5F)c5ccc2[nH]5)C=C4)C=C3)cc1
REMARK SMILES IDX 5 1 4 2 3 3 1 4 2 5 36 7 37 8 89 9 38 10 88 11 39 12 40 13
REMARK SMILES IDX 41 14 82 15 42 16 87 17 81 18 83 19 43 20 86 21 80 22 79 23
REMARK SMILES IDX 44 25 70 26 53 27 69 28 54 29 57 30 68 31 84 32 55 33 56 34
REMARK SMILES IDX 67 36 85 37 58 38 45 39 46 40 51 41 47 42 48 43 50 44 52 45
REMARK SMILES IDX 49 46 71 47 72 48 77 49 73 50 74 51 76 52 78 53 75 54 59 55
REMARK SMILES IDX 60 56 65 57 61 58 62 59 64 60 66 61 63 62 6 63 7 64 8 65
REMARK SMILES IDX 9 67 10 68 11 69 23 70 12 71 22 72 21 73 24 74 25 75 35 76
REMARK SMILES IDX 26 77 28 78 27 79 29 80 30 81 31 82 34 83 32 85 33 86 13 87
REMARK SMILES IDX 14 88 15 90 16 91 17 92 20 93 18 94 19 95
REMARK H PARENT 3 6 83 24 57 35 7 66 30 84 13 89
REMARK Flexibility Score: inf
ROOT
ATOM      1  C   UNL A   1      37.643  22.651  25.772  1.00  0.00     0.042 C 
ENDROOT
BRANCH   1   2
ATOM      2  C   UNL A   1      38.403  23.823  26.369  1.00  0.00     0.118 C 
BRANCH   2   3
ATOM      3  N   UNL A   1      39.833  23.816  26.071  1.00  0.00    -0.352 N 
ATOM      4  O   UNL A   1      41.970  24.519  25.978  1.00  0.00    -0.269 OA
ATOM      5  C   UNL A   1      40.855  24.654  26.464  1.00  0.00     0.251 C 
ATOM      6  H   UNL A   1      40.119  23.080  25.483  1.00  0.00     0.163 HD
BRANCH   5   7
ATOM      7  C   UNL A   1      40.602  25.742  27.435  1.00  0.00     0.039 A 
ATOM      8  C   UNL A   1      41.267  26.959  27.330  1.00  0.00     0.014 A 
ATOM      9  C   UNL A   1      39.684  25.546  28.472  1.00  0.00     0.014 A 
ATOM     10  C   UNL A   1      41.217  27.865  28.377  1.00  0.00     0.010 A 
ATOM     11  C   UNL A   1      39.516  26.533  29.452  1.00  0.00     0.010 A 
ATOM     12  C   UNL A   1      40.322  27.679  29.441  1.00  0.00    -0.014 A 
BRANCH  12  13
ATOM     13  C   UNL A   1      40.224  28.739  30.478  1.00  0.00     0.031 A 
ATOM     14  C   UNL A   1      39.166  29.806  30.415  1.00  0.00     0.074 A 
ATOM     15  C   UNL A   1      41.071  28.688  31.526  1.00  0.00     0.049 A 
ATOM     16  N   UNL A   1      38.929  30.777  31.261  1.00  0.00    -0.248 NA
ATOM     17  C   UNL A   1      38.265  29.794  29.253  1.00  0.00     0.031 C 
ATOM     18  C   UNL A   1      42.148  27.706  31.691  1.00  0.00     0.029 A 
ATOM     19  N   UNL A   1      41.141  29.445  32.666  1.00  0.00    -0.354 N 
ATOM     20  C   UNL A   1      37.879  31.509  30.719  1.00  0.00     0.074 A 
ATOM     21  C   UNL A   1      37.530  30.880  29.465  1.00  0.00     0.031 C 
ATOM     22  C   UNL A   1      42.717  27.872  32.891  1.00  0.00     0.029 A 
ATOM     23  C   UNL A   1      42.109  29.023  33.545  1.00  0.00     0.049 A 
ATOM     24  H   UNL A   1      40.555  30.218  32.838  1.00  0.00     0.167 HD
ATOM     25  C   UNL A   1      37.264  32.604  31.228  1.00  0.00     0.037 A 
ATOM     26  C   UNL A   1      42.486  29.516  34.737  1.00  0.00     0.037 A 
ATOM     27  C   UNL A   1      37.594  33.206  32.495  1.00  0.00     0.049 A 
ATOM     28  C   UNL A   1      41.783  30.724  35.276  1.00  0.00     0.074 A 
ATOM     29  C   UNL A   1      37.001  34.293  33.114  1.00  0.00     0.029 A 
ATOM     30  N   UNL A   1      38.605  32.769  33.339  1.00  0.00    -0.354 N 
ATOM     31  N   UNL A   1      40.785  31.396  34.755  1.00  0.00    -0.248 NA
ATOM     32  C   UNL A   1      42.266  31.251  36.558  1.00  0.00     0.031 C 
ATOM     33  C   UNL A   1      37.679  34.539  34.313  1.00  0.00     0.029 A 
ATOM     34  C   UNL A   1      38.666  33.578  34.462  1.00  0.00     0.049 A 
ATOM     35  H   UNL A   1      39.193  31.998  33.165  1.00  0.00     0.167 HD
ATOM     36  C   UNL A   1      40.517  32.424  35.645  1.00  0.00     0.074 A 
ATOM     37  C   UNL A   1      41.440  32.270  36.752  1.00  0.00     0.031 C 
ATOM     38  C   UNL A   1      39.596  33.413  35.550  1.00  0.00     0.037 A 
BRANCH  25  39
ATOM     39  C   UNL A   1      36.182  33.243  30.406  1.00  0.00     0.057 A 
ATOM     40  C   UNL A   1      34.825  33.103  30.723  1.00  0.00     0.134 A 
ATOM     41  C   UNL A   1      36.509  34.057  29.313  1.00  0.00     0.134 A 
ATOM     42  F   UNL A   1      34.443  32.328  31.750  1.00  0.00    -0.206 F 
ATOM     43  C   UNL A   1      33.831  33.737  29.974  1.00  0.00     0.040 A 
ATOM     44  C   UNL A   1      35.525  34.713  28.570  1.00  0.00     0.040 A 
ATOM     45  F   UNL A   1      37.789  34.238  28.958  1.00  0.00    -0.206 F 
ATOM     46  C   UNL A   1      34.181  34.551  28.898  1.00  0.00     0.006 A 
ENDBRANCH  25  39
BRANCH  26  47
ATOM     47  C   UNL A   1      43.597  28.871  35.478  1.00  0.00     0.057 A 
ATOM     48  C   UNL A   1      43.357  27.841  36.394  1.00  0.00     0.134 A 
ATOM     49  C   UNL A   1      44.928  29.244  35.258  1.00  0.00     0.134 A 
ATOM     50  F   UNL A   1      42.102  27.449  36.656  1.00  0.00    -0.206 F 
ATOM     51  C   UNL A   1      44.402  27.210  37.070  1.00  0.00     0.040 A 
ATOM     52  C   UNL A   1      45.984  28.603  35.906  1.00  0.00     0.040 A 
ATOM     53  F   UNL A   1      45.223  30.217  34.383  1.00  0.00    -0.206 F 
ATOM     54  C   UNL A   1      45.721  27.585  36.819  1.00  0.00     0.006 A 
ENDBRANCH  26  47
BRANCH  38  55
ATOM     55  C   UNL A   1      39.538  34.391  36.683  1.00  0.00     0.057 A 
ATOM     56  C   UNL A   1      40.196  35.626  36.621  1.00  0.00     0.134 A 
ATOM     57  C   UNL A   1      38.804  34.103  37.839  1.00  0.00     0.134 A 
ATOM     58  F   UNL A   1      40.929  35.953  35.546  1.00  0.00    -0.206 F 
ATOM     59  C   UNL A   1      40.144  36.532  37.681  1.00  0.00     0.040 A 
ATOM     60  C   UNL A   1      38.726  35.010  38.896  1.00  0.00     0.040 A 
ATOM     61  F   UNL A   1      38.148  32.939  37.956  1.00  0.00    -0.206 F 
ATOM     62  C   UNL A   1      39.403  36.226  38.821  1.00  0.00     0.006 A 
ENDBRANCH  38  55
ENDBRANCH  12  13
ENDBRANCH   5   7
ENDBRANCH   2   3
ENDBRANCH   1   2
BRANCH   1  63
ATOM     63  C   UNL A   1      36.166  22.919  25.582  1.00  0.00     0.118 C 
BRANCH  63  64
ATOM     64  N   UNL A   1      35.761  23.129  24.207  1.00  0.00    -0.352 N 
ATOM     65  C   UNL A   1      34.498  23.380  23.729  1.00  0.00     0.253 C 
ATOM     66  H   UNL A   1      36.478  23.088  23.535  1.00  0.00     0.163 HD
ATOM     67  O   UNL A   1      34.355  23.691  22.549  1.00  0.00    -0.269 OA
BRANCH  65  68
ATOM     68  C   UNL A   1      33.309  23.166  24.590  1.00  0.00     0.065 A 
ATOM     69  C   UNL A   1      33.010  24.280  25.395  1.00  0.00     0.042 A 
ATOM     70  C   UNL A   1      32.496  22.015  24.597  1.00  0.00     0.050 A 
ATOM     71  C   UNL A   1      31.833  24.354  26.123  1.00  0.00     0.042 A 
ATOM     72  C   UNL A   1      31.331  22.092  25.383  1.00  0.00     0.029 A 
ATOM     73  C   UNL A   1      30.999  23.237  26.124  1.00  0.00     0.028 A 
BRANCH  70  74
ATOM     74  N   UNL A   1      32.794  20.813  23.963  1.00  0.00    -0.370 N 
ATOM     75  C   UNL A   1      32.131  20.461  22.701  1.00  0.00     0.116 C 
ATOM     76  C   UNL A   1      34.012  20.093  24.348  1.00  0.00     0.126 C 
ATOM     77  C   UNL A   1      32.024  18.951  22.510  1.00  0.00     0.022 C 
ATOM     78  C   UNL A   1      33.780  18.577  24.298  1.00  0.00     0.064 C 
ATOM     79  C   UNL A   1      33.319  18.231  22.875  1.00  0.00     0.013 C 
BRANCH  78  80
ATOM     80  C   UNL A   1      32.817  18.175  25.445  1.00  0.00     0.267 C 
BRANCH  80  81
ATOM     81  N   UNL A   1      33.053  16.943  26.200  1.00  0.00    -0.335 N 
ATOM     82  C   UNL A   1      34.291  16.243  25.867  1.00  0.00     0.262 C 
ATOM     83  C   UNL A   1      31.973  15.963  26.207  1.00  0.00     0.262 C 
ATOM     84  H   UNL A   1      33.122  17.336  27.140  1.00  0.00     0.348 HD
ATOM     85  C   UNL A   1      33.871  15.094  24.974  1.00  0.00     0.067 C 
ATOM     86  C   UNL A   1      32.482  14.732  25.467  1.00  0.00     0.067 C 
ENDBRANCH  80  81
ENDBRANCH  78  80
ENDBRANCH  70  74
BRANCH  71  87
ATOM     87  N   UNL A   1      31.437  25.468  26.887  1.00  0.00    -0.321 N 
ATOM     88  C   UNL A   1      31.175  26.786  26.554  1.00  0.00     0.265 C 
ATOM     89  H   UNL A   1      31.325  25.272  27.845  1.00  0.00     0.170 HD
ATOM     90  O   UNL A   1      31.064  27.586  27.486  1.00  0.00    -0.268 OA
BRANCH  88  91
ATOM     91  C   UNL A   1      30.976  27.164  25.169  1.00  0.00     0.092 A 
ATOM     92  C   UNL A   1      30.070  26.669  24.246  1.00  0.00     0.025 A 
ATOM     93  S   UNL A   1      31.955  28.394  24.490  1.00  0.00    -0.139 S 
ATOM     94  C   UNL A   1      30.283  27.207  22.943  1.00  0.00     0.012 A 
ATOM     95  C   UNL A   1      31.294  28.142  22.931  1.00  0.00     0.065 A 
ENDBRANCH  88  91
ENDBRANCH  71  87
ENDBRANCH  65  68
ENDBRANCH  63  64
ENDBRANCH   1  63
TORSDOF 15
ENDMDL
