MODEL 1
REMARK VINA RESULT:     -10.2      0.000      0.000
REMARK SMILES CC[C@@H](Oc1ccccc1)C(=O)NCCCNC(=O)c1ccc(-c2c3nc(c(-c4c(F)cccc4F)c4ccc([nH]4)c(-c4c(F)cccc4F)c4nc(c(-c5c(F)cccc5F)c5ccc2[nH]5)C=C4)C=C3)cc1
REMARK SMILES IDX 15 1 14 2 13 3 11 4 12 5 3 7 2 8 1 9 4 10 5 11 6 12 10 13
REMARK SMILES IDX 7 14 9 15 8 16 16 17 17 18 18 19 19 21 20 22 21 23 73 24
REMARK SMILES IDX 22 25 72 26 23 27 24 28 25 29 66 30 26 31 71 32 65 33 67 34
REMARK SMILES IDX 27 35 70 36 64 37 63 38 28 40 54 41 37 42 53 43 38 44 41 45
REMARK SMILES IDX 52 46 68 47 39 48 40 49 51 51 69 52 42 53 29 54 30 55 35 56
REMARK SMILES IDX 31 57 32 58 34 59 36 60 33 61 55 62 56 63 61 64 57 65 58 66
REMARK SMILES IDX 60 67 62 68 59 69 43 70 44 71 49 72 45 73 46 74 48 75 50 76
REMARK SMILES IDX 47 77
REMARK H PARENT 13 6 17 20 67 39 41 50
REMARK Flexibility Score: inf
ROOT
ATOM      1  C   UNL A   1      33.597  28.471  25.585  1.00  0.00     0.042 C 
ENDROOT
BRANCH   1   2
ATOM      2  C   UNL A   1      33.255  27.086  25.059  1.00  0.00     0.118 C 
BRANCH   2   3
ATOM      3  N   UNL A   1      33.472  26.960  23.626  1.00  0.00    -0.353 N 
ATOM      4  C   UNL A   1      33.613  25.832  22.861  1.00  0.00     0.261 C 
ATOM      5  O   UNL A   1      33.748  25.978  21.642  1.00  0.00    -0.271 OA
ATOM      6  H   UNL A   1      33.527  27.811  23.134  1.00  0.00     0.163 HD
BRANCH   4   7
ATOM      7  C   UNL A   1      33.686  24.440  23.510  1.00  0.00     0.261 C 
BRANCH   7   8
ATOM      8  C   UNL A   1      32.405  23.673  23.135  1.00  0.00     0.052 C 
ATOM      9  C   UNL A   1      32.696  22.309  22.520  1.00  0.00     0.008 C 
ENDBRANCH   7   8
BRANCH   7  10
ATOM     10  O   UNL A   1      34.902  23.852  23.027  1.00  0.00    -0.481 OA
BRANCH  10  11
ATOM     11  C   UNL A   1      35.764  23.405  23.978  1.00  0.00     0.120 A 
ATOM     12  C   UNL A   1      35.936  24.155  25.136  1.00  0.00     0.046 A 
ATOM     13  C   UNL A   1      36.598  22.322  23.705  1.00  0.00     0.046 A 
ATOM     14  C   UNL A   1      36.915  23.783  26.056  1.00  0.00     0.004 A 
ATOM     15  C   UNL A   1      37.562  21.937  24.634  1.00  0.00     0.004 A 
ATOM     16  C   UNL A   1      37.720  22.669  25.811  1.00  0.00     0.000 A 
ENDBRANCH  10  11
ENDBRANCH   7  10
ENDBRANCH   4   7
ENDBRANCH   2   3
ENDBRANCH   1   2
BRANCH   1  17
ATOM     17  C   UNL A   1      33.764  28.530  27.095  1.00  0.00     0.118 C 
BRANCH  17  18
ATOM     18  N   UNL A   1      33.724  29.892  27.608  1.00  0.00    -0.352 N 
ATOM     19  C   UNL A   1      34.663  30.619  28.293  1.00  0.00     0.251 C 
ATOM     20  H   UNL A   1      32.882  30.371  27.432  1.00  0.00     0.163 HD
ATOM     21  O   UNL A   1      34.341  31.691  28.797  1.00  0.00    -0.269 OA
BRANCH  19  22
ATOM     22  C   UNL A   1      36.052  30.130  28.439  1.00  0.00     0.039 A 
ATOM     23  C   UNL A   1      36.444  29.587  29.667  1.00  0.00     0.014 A 
ATOM     24  C   UNL A   1      36.987  30.263  27.410  1.00  0.00     0.014 A 
ATOM     25  C   UNL A   1      37.759  29.154  29.850  1.00  0.00     0.010 A 
ATOM     26  C   UNL A   1      38.271  29.748  27.561  1.00  0.00     0.010 A 
ATOM     27  C   UNL A   1      38.679  29.217  28.793  1.00  0.00    -0.014 A 
BRANCH  27  28
ATOM     28  C   UNL A   1      40.090  28.799  28.977  1.00  0.00     0.031 A 
ATOM     29  C   UNL A   1      41.079  29.752  29.594  1.00  0.00     0.074 A 
ATOM     30  C   UNL A   1      40.494  27.587  28.554  1.00  0.00     0.049 A 
ATOM     31  N   UNL A   1      42.364  29.600  29.793  1.00  0.00    -0.248 NA
ATOM     32  C   UNL A   1      40.559  31.063  30.016  1.00  0.00     0.031 C 
ATOM     33  C   UNL A   1      39.646  26.593  27.893  1.00  0.00     0.029 A 
ATOM     34  N   UNL A   1      41.727  26.989  28.611  1.00  0.00    -0.354 N 
ATOM     35  C   UNL A   1      42.805  30.799  30.341  1.00  0.00     0.074 A 
ATOM     36  C   UNL A   1      41.665  31.688  30.387  1.00  0.00     0.031 C 
ATOM     37  C   UNL A   1      40.379  25.501  27.625  1.00  0.00     0.029 A 
ATOM     38  C   UNL A   1      41.751  25.727  28.071  1.00  0.00     0.049 A 
ATOM     39  H   UNL A   1      42.520  27.424  29.001  1.00  0.00     0.167 HD
ATOM     40  C   UNL A   1      44.040  31.122  30.793  1.00  0.00     0.037 A 
ATOM     41  C   UNL A   1      42.765  24.850  27.954  1.00  0.00     0.037 A 
ATOM     42  C   UNL A   1      45.164  30.225  30.776  1.00  0.00     0.049 A 
ATOM     43  C   UNL A   1      44.118  25.214  28.499  1.00  0.00     0.074 A 
ATOM     44  C   UNL A   1      46.449  30.440  31.244  1.00  0.00     0.029 A 
ATOM     45  N   UNL A   1      45.133  28.934  30.271  1.00  0.00    -0.354 N 
ATOM     46  N   UNL A   1      44.510  26.332  29.061  1.00  0.00    -0.248 NA
ATOM     47  C   UNL A   1      45.166  24.187  28.410  1.00  0.00     0.031 C 
ATOM     48  C   UNL A   1      47.203  29.287  31.000  1.00  0.00     0.029 A 
ATOM     49  C   UNL A   1      46.376  28.340  30.417  1.00  0.00     0.049 A 
ATOM     50  H   UNL A   1      44.344  28.504  29.869  1.00  0.00     0.167 HD
ATOM     51  C   UNL A   1      45.835  26.133  29.421  1.00  0.00     0.074 A 
ATOM     52  C   UNL A   1      46.179  24.783  29.023  1.00  0.00     0.031 C 
ATOM     53  C   UNL A   1      46.693  26.990  30.028  1.00  0.00     0.037 A 
BRANCH  40  54
ATOM     54  C   UNL A   1      44.225  32.502  31.353  1.00  0.00     0.057 A 
ATOM     55  C   UNL A   1      44.604  33.581  30.543  1.00  0.00     0.134 A 
ATOM     56  C   UNL A   1      44.017  32.760  32.713  1.00  0.00     0.134 A 
ATOM     57  F   UNL A   1      44.836  33.399  29.234  1.00  0.00    -0.206 F 
ATOM     58  C   UNL A   1      44.804  34.858  31.071  1.00  0.00     0.040 A 
ATOM     59  C   UNL A   1      44.185  34.038  33.248  1.00  0.00     0.040 A 
ATOM     60  F   UNL A   1      43.647  31.774  33.546  1.00  0.00    -0.206 F 
ATOM     61  C   UNL A   1      44.589  35.090  32.427  1.00  0.00     0.006 A 
ENDBRANCH  40  54
BRANCH  41  62
ATOM     62  C   UNL A   1      42.526  23.523  27.335  1.00  0.00     0.057 A 
ATOM     63  C   UNL A   1      42.137  22.425  28.110  1.00  0.00     0.134 A 
ATOM     64  C   UNL A   1      42.674  23.323  25.958  1.00  0.00     0.134 A 
ATOM     65  F   UNL A   1      41.995  22.552  29.437  1.00  0.00    -0.206 F 
ATOM     66  C   UNL A   1      41.922  21.169  27.541  1.00  0.00     0.040 A 
ATOM     67  C   UNL A   1      42.439  22.078  25.372  1.00  0.00     0.040 A 
ATOM     68  F   UNL A   1      43.034  24.340  25.160  1.00  0.00    -0.206 F 
ATOM     69  C   UNL A   1      42.068  20.995  26.166  1.00  0.00     0.006 A 
ENDBRANCH  41  62
BRANCH  53  70
ATOM     70  C   UNL A   1      48.067  26.477  30.340  1.00  0.00     0.057 A 
ATOM     71  C   UNL A   1      48.364  25.843  31.553  1.00  0.00     0.134 A 
ATOM     72  C   UNL A   1      49.098  26.594  29.399  1.00  0.00     0.134 A 
ATOM     73  F   UNL A   1      47.423  25.710  32.499  1.00  0.00    -0.206 F 
ATOM     74  C   UNL A   1      49.646  25.366  31.829  1.00  0.00     0.040 A 
ATOM     75  C   UNL A   1      50.377  26.100  29.654  1.00  0.00     0.040 A 
ATOM     76  F   UNL A   1      48.876  27.184  28.215  1.00  0.00    -0.206 F 
ATOM     77  C   UNL A   1      50.657  25.489  30.876  1.00  0.00     0.006 A 
ENDBRANCH  53  70
ENDBRANCH  27  28
ENDBRANCH  19  22
ENDBRANCH  17  18
ENDBRANCH   1  17
TORSDOF 13
ENDMDL
MODEL 2
REMARK VINA RESULT:     -10.1      3.576      6.432
REMARK SMILES CC[C@@H](Oc1ccccc1)C(=O)NCCCNC(=O)c1ccc(-c2c3nc(c(-c4c(F)cccc4F)c4ccc([nH]4)c(-c4c(F)cccc4F)c4nc(c(-c5c(F)cccc5F)c5ccc2[nH]5)C=C4)C=C3)cc1
REMARK SMILES IDX 15 1 14 2 13 3 11 4 12 5 3 7 2 8 1 9 4 10 5 11 6 12 10 13
REMARK SMILES IDX 7 14 9 15 8 16 16 17 17 18 18 19 19 21 20 22 21 23 73 24
REMARK SMILES IDX 22 25 72 26 23 27 24 28 25 29 66 30 26 31 71 32 65 33 67 34
REMARK SMILES IDX 27 35 70 36 64 37 63 38 28 40 54 41 37 42 53 43 38 44 41 45
REMARK SMILES IDX 52 46 68 47 39 48 40 49 51 51 69 52 42 53 29 54 30 55 35 56
REMARK SMILES IDX 31 57 32 58 34 59 36 60 33 61 55 62 56 63 61 64 57 65 58 66
REMARK SMILES IDX 60 67 62 68 59 69 43 70 44 71 49 72 45 73 46 74 48 75 50 76
REMARK SMILES IDX 47 77
REMARK H PARENT 13 6 17 20 67 39 41 50
REMARK Flexibility Score: inf
ROOT
ATOM      1  C   UNL A   1      34.117  34.488  28.210  1.00  0.00     0.042 C 
ENDROOT
BRANCH   1   2
ATOM      2  C   UNL A   1      34.037  34.974  29.649  1.00  0.00     0.118 C 
BRANCH   2   3
ATOM      3  N   UNL A   1      33.831  33.891  30.597  1.00  0.00    -0.353 N 
ATOM      4  C   UNL A   1      34.398  33.687  31.827  1.00  0.00     0.261 C 
ATOM      5  O   UNL A   1      34.028  32.703  32.475  1.00  0.00    -0.271 OA
ATOM      6  H   UNL A   1      33.189  33.201  30.311  1.00  0.00     0.163 HD
BRANCH   4   7
ATOM      7  C   UNL A   1      35.517  34.607  32.343  1.00  0.00     0.261 C 
BRANCH   7   8
ATOM      8  C   UNL A   1      34.998  35.328  33.601  1.00  0.00     0.052 C 
ATOM      9  C   UNL A   1      34.028  36.457  33.273  1.00  0.00     0.008 C 
ENDBRANCH   7   8
BRANCH   7  10
ATOM     10  O   UNL A   1      36.648  33.753  32.563  1.00  0.00    -0.481 OA
BRANCH  10  11
ATOM     11  C   UNL A   1      37.658  33.860  31.660  1.00  0.00     0.120 A 
ATOM     12  C   UNL A   1      37.481  33.329  30.387  1.00  0.00     0.046 A 
ATOM     13  C   UNL A   1      38.910  34.318  32.068  1.00  0.00     0.046 A 
ATOM     14  C   UNL A   1      38.553  33.308  29.496  1.00  0.00     0.004 A 
ATOM     15  C   UNL A   1      39.975  34.318  31.171  1.00  0.00     0.004 A 
ATOM     16  C   UNL A   1      39.796  33.812  29.884  1.00  0.00     0.000 A 
ENDBRANCH  10  11
ENDBRANCH   7  10
ENDBRANCH   4   7
ENDBRANCH   2   3
ENDBRANCH   1   2
BRANCH   1  17
ATOM     17  C   UNL A   1      34.968  33.241  28.030  1.00  0.00     0.118 C 
BRANCH  17  18
ATOM     18  N   UNL A   1      34.178  32.074  27.668  1.00  0.00    -0.352 N 
ATOM     19  C   UNL A   1      34.512  30.745  27.623  1.00  0.00     0.251 C 
ATOM     20  H   UNL A   1      33.247  32.271  27.413  1.00  0.00     0.163 HD
ATOM     21  O   UNL A   1      33.736  29.949  27.102  1.00  0.00    -0.269 OA
BRANCH  19  22
ATOM     22  C   UNL A   1      35.791  30.258  28.186  1.00  0.00     0.039 A 
ATOM     23  C   UNL A   1      36.933  30.292  27.378  1.00  0.00     0.014 A 
ATOM     24  C   UNL A   1      35.865  29.709  29.468  1.00  0.00     0.014 A 
ATOM     25  C   UNL A   1      38.146  29.803  27.866  1.00  0.00     0.010 A 
ATOM     26  C   UNL A   1      37.093  29.306  29.987  1.00  0.00     0.010 A 
ATOM     27  C   UNL A   1      38.239  29.320  29.180  1.00  0.00    -0.014 A 
BRANCH  27  28
ATOM     28  C   UNL A   1      39.508  28.760  29.705  1.00  0.00     0.031 A 
ATOM     29  C   UNL A   1      40.143  29.362  30.930  1.00  0.00     0.074 A 
ATOM     30  C   UNL A   1      40.112  27.743  29.061  1.00  0.00     0.049 A 
ATOM     31  N   UNL A   1      41.274  29.055  31.513  1.00  0.00    -0.248 NA
ATOM     32  C   UNL A   1      39.426  30.480  31.564  1.00  0.00     0.031 C 
ATOM     33  C   UNL A   1      39.626  27.107  27.835  1.00  0.00     0.029 A 
ATOM     34  N   UNL A   1      41.273  27.072  29.348  1.00  0.00    -0.354 N 
ATOM     35  C   UNL A   1      41.411  29.951  32.566  1.00  0.00     0.074 A 
ATOM     36  C   UNL A   1      40.281  30.852  32.504  1.00  0.00     0.031 C 
ATOM     37  C   UNL A   1      40.472  26.125  27.487  1.00  0.00     0.029 A 
ATOM     38  C   UNL A   1      41.569  26.078  28.448  1.00  0.00     0.049 A 
ATOM     39  H   UNL A   1      41.841  27.284  30.123  1.00  0.00     0.167 HD
ATOM     40  C   UNL A   1      42.374  30.004  33.517  1.00  0.00     0.037 A 
ATOM     41  C   UNL A   1      42.608  25.223  28.407  1.00  0.00     0.037 A 
ATOM     42  C   UNL A   1      43.479  29.087  33.596  1.00  0.00     0.049 A 
ATOM     43  C   UNL A   1      43.644  25.272  29.495  1.00  0.00     0.074 A 
ATOM     44  C   UNL A   1      44.489  29.029  34.541  1.00  0.00     0.029 A 
ATOM     45  N   UNL A   1      43.713  28.058  32.696  1.00  0.00    -0.354 N 
ATOM     46  N   UNL A   1      43.734  26.093  30.514  1.00  0.00    -0.248 NA
ATOM     47  C   UNL A   1      44.712  24.265  29.439  1.00  0.00     0.031 C 
ATOM     48  C   UNL A   1      45.348  27.979  34.199  1.00  0.00     0.029 A 
ATOM     49  C   UNL A   1      44.851  27.359  33.064  1.00  0.00     0.049 A 
ATOM     50  H   UNL A   1      43.153  27.854  31.913  1.00  0.00     0.167 HD
ATOM     51  C   UNL A   1      44.846  25.682  31.236  1.00  0.00     0.074 A 
ATOM     52  C   UNL A   1      45.393  24.534  30.544  1.00  0.00     0.031 C 
ATOM     53  C   UNL A   1      45.370  26.209  32.371  1.00  0.00     0.037 A 
BRANCH  40  54
ATOM     54  C   UNL A   1      42.257  31.086  34.551  1.00  0.00     0.057 A 
ATOM     55  C   UNL A   1      42.857  32.340  34.376  1.00  0.00     0.134 A 
ATOM     56  C   UNL A   1      41.534  30.876  35.732  1.00  0.00     0.134 A 
ATOM     57  F   UNL A   1      43.578  32.601  33.274  1.00  0.00    -0.206 F 
ATOM     58  C   UNL A   1      42.771  33.335  35.351  1.00  0.00     0.040 A 
ATOM     59  C   UNL A   1      41.417  31.873  36.702  1.00  0.00     0.040 A 
ATOM     60  F   UNL A   1      40.930  29.700  35.963  1.00  0.00    -0.206 F 
ATOM     61  C   UNL A   1      42.045  33.103  36.517  1.00  0.00     0.006 A 
ENDBRANCH  40  54
BRANCH  41  62
ATOM     62  C   UNL A   1      42.692  24.216  27.321  1.00  0.00     0.057 A 
ATOM     63  C   UNL A   1      43.321  24.515  26.106  1.00  0.00     0.134 A 
ATOM     64  C   UNL A   1      42.155  22.933  27.472  1.00  0.00     0.134 A 
ATOM     65  F   UNL A   1      43.840  25.734  25.898  1.00  0.00    -0.206 F 
ATOM     66  C   UNL A   1      43.395  23.581  25.073  1.00  0.00     0.040 A 
ATOM     67  C   UNL A   1      42.244  21.981  26.455  1.00  0.00     0.040 A 
ATOM     68  F   UNL A   1      41.551  22.581  28.617  1.00  0.00    -0.206 F 
ATOM     69  C   UNL A   1      42.859  22.306  25.248  1.00  0.00     0.006 A 
ENDBRANCH  41  62
BRANCH  53  70
ATOM     70  C   UNL A   1      46.563  25.517  32.958  1.00  0.00     0.057 A 
ATOM     71  C   UNL A   1      47.872  25.854  32.590  1.00  0.00     0.134 A 
ATOM     72  C   UNL A   1      46.398  24.520  33.928  1.00  0.00     0.134 A 
ATOM     73  F   UNL A   1      48.096  26.793  31.658  1.00  0.00    -0.206 F 
ATOM     74  C   UNL A   1      48.974  25.205  33.148  1.00  0.00     0.040 A 
ATOM     75  C   UNL A   1      47.493  23.881  34.511  1.00  0.00     0.040 A 
ATOM     76  F   UNL A   1      45.171  24.157  34.330  1.00  0.00    -0.206 F 
ATOM     77  C   UNL A   1      48.787  24.219  34.115  1.00  0.00     0.006 A 
ENDBRANCH  53  70
ENDBRANCH  27  28
ENDBRANCH  19  22
ENDBRANCH  17  18
ENDBRANCH   1  17
TORSDOF 13
ENDMDL
MODEL 3
REMARK VINA RESULT:     -10.1      3.555      6.897
REMARK SMILES CC[C@@H](Oc1ccccc1)C(=O)NCCCNC(=O)c1ccc(-c2c3nc(c(-c4c(F)cccc4F)c4ccc([nH]4)c(-c4c(F)cccc4F)c4nc(c(-c5c(F)cccc5F)c5ccc2[nH]5)C=C4)C=C3)cc1
REMARK SMILES IDX 15 1 14 2 13 3 11 4 12 5 3 7 2 8 1 9 4 10 5 11 6 12 10 13
REMARK SMILES IDX 7 14 9 15 8 16 16 17 17 18 18 19 19 21 20 22 21 23 73 24
REMARK SMILES IDX 22 25 72 26 23 27 24 28 25 29 66 30 26 31 71 32 65 33 67 34
REMARK SMILES IDX 27 35 70 36 64 37 63 38 28 40 54 41 37 42 53 43 38 44 41 45
REMARK SMILES IDX 52 46 68 47 39 48 40 49 51 51 69 52 42 53 29 54 30 55 35 56
REMARK SMILES IDX 31 57 32 58 34 59 36 60 33 61 55 62 56 63 61 64 57 65 58 66
REMARK SMILES IDX 60 67 62 68 59 69 43 70 44 71 49 72 45 73 46 74 48 75 50 76
REMARK SMILES IDX 47 77
REMARK H PARENT 13 6 17 20 67 39 41 50
REMARK Flexibility Score: inf
ROOT
ATOM      1  C   UNL A   1      34.701  33.738  29.443  1.00  0.00     0.042 C 
ENDROOT
BRANCH   1   2
ATOM      2  C   UNL A   1      33.989  35.075  29.584  1.00  0.00     0.118 C 
BRANCH   2   3
ATOM      3  N   UNL A   1      32.903  35.033  30.551  1.00  0.00    -0.353 N 
ATOM      4  C   UNL A   1      32.913  35.328  31.889  1.00  0.00     0.261 C 
ATOM      5  O   UNL A   1      31.843  35.258  32.501  1.00  0.00    -0.271 OA
ATOM      6  H   UNL A   1      32.031  34.750  30.190  1.00  0.00     0.163 HD
BRANCH   4   7
ATOM      7  C   UNL A   1      34.229  35.651  32.616  1.00  0.00     0.261 C 
BRANCH   7   8
ATOM      8  C   UNL A   1      34.028  36.958  33.405  1.00  0.00     0.052 C 
ATOM      9  C   UNL A   1      33.944  38.182  32.501  1.00  0.00     0.008 C 
ENDBRANCH   7   8
BRANCH   7  10
ATOM     10  O   UNL A   1      34.516  34.500  33.423  1.00  0.00    -0.481 OA
BRANCH  10  11
ATOM     11  C   UNL A   1      35.833  34.218  33.608  1.00  0.00     0.120 A 
ATOM     12  C   UNL A   1      36.265  33.828  34.871  1.00  0.00     0.046 A 
ATOM     13  C   UNL A   1      36.753  34.505  32.602  1.00  0.00     0.046 A 
ATOM     14  C   UNL A   1      37.629  33.670  35.111  1.00  0.00     0.004 A 
ATOM     15  C   UNL A   1      38.115  34.326  32.835  1.00  0.00     0.004 A 
ATOM     16  C   UNL A   1      38.552  33.907  34.091  1.00  0.00     0.000 A 
ENDBRANCH  10  11
ENDBRANCH   7  10
ENDBRANCH   4   7
ENDBRANCH   2   3
ENDBRANCH   1   2
BRANCH   1  17
ATOM     17  C   UNL A   1      34.864  33.279  28.002  1.00  0.00     0.118 C 
BRANCH  17  18
ATOM     18  N   UNL A   1      33.993  32.161  27.672  1.00  0.00    -0.352 N 
ATOM     19  C   UNL A   1      34.251  30.817  27.597  1.00  0.00     0.251 C 
ATOM     20  H   UNL A   1      33.062  32.412  27.468  1.00  0.00     0.163 HD
ATOM     21  O   UNL A   1      33.406  30.070  27.110  1.00  0.00    -0.269 OA
BRANCH  19  22
ATOM     22  C   UNL A   1      35.528  30.254  28.088  1.00  0.00     0.039 A 
ATOM     23  C   UNL A   1      35.573  29.732  29.385  1.00  0.00     0.014 A 
ATOM     24  C   UNL A   1      36.692  30.296  27.317  1.00  0.00     0.014 A 
ATOM     25  C   UNL A   1      36.773  29.230  29.893  1.00  0.00     0.010 A 
ATOM     26  C   UNL A   1      37.865  29.714  27.789  1.00  0.00     0.010 A 
ATOM     27  C   UNL A   1      37.925  29.203  29.093  1.00  0.00    -0.014 A 
BRANCH  27  28
ATOM     28  C   UNL A   1      39.219  28.711  29.626  1.00  0.00     0.031 A 
ATOM     29  C   UNL A   1      39.837  29.379  30.826  1.00  0.00     0.074 A 
ATOM     30  C   UNL A   1      39.859  27.698  29.012  1.00  0.00     0.049 A 
ATOM     31  N   UNL A   1      40.983  29.136  31.410  1.00  0.00    -0.248 NA
ATOM     32  C   UNL A   1      39.080  30.488  31.428  1.00  0.00     0.031 C 
ATOM     33  C   UNL A   1      39.391  27.003  27.812  1.00  0.00     0.029 A 
ATOM     34  N   UNL A   1      41.048  27.084  29.312  1.00  0.00    -0.354 N 
ATOM     35  C   UNL A   1      41.091  30.072  32.432  1.00  0.00     0.074 A 
ATOM     36  C   UNL A   1      39.926  30.925  32.349  1.00  0.00     0.031 C 
ATOM     37  C   UNL A   1      40.272  26.043  27.490  1.00  0.00     0.029 A 
ATOM     38  C   UNL A   1      41.377  26.072  28.444  1.00  0.00     0.049 A 
ATOM     39  H   UNL A   1      41.611  27.343  30.076  1.00  0.00     0.167 HD
ATOM     40  C   UNL A   1      42.056  30.194  33.373  1.00  0.00     0.037 A 
ATOM     41  C   UNL A   1      42.448  25.258  28.423  1.00  0.00     0.037 A 
ATOM     42  C   UNL A   1      43.198  29.326  33.474  1.00  0.00     0.049 A 
ATOM     43  C   UNL A   1      43.489  25.385  29.501  1.00  0.00     0.074 A 
ATOM     44  C   UNL A   1      44.215  29.339  34.413  1.00  0.00     0.029 A 
ATOM     45  N   UNL A   1      43.467  28.277  32.608  1.00  0.00    -0.354 N 
ATOM     46  N   UNL A   1      43.553  26.242  30.492  1.00  0.00    -0.248 NA
ATOM     47  C   UNL A   1      44.596  24.419  29.470  1.00  0.00     0.031 C 
ATOM     48  C   UNL A   1      45.114  28.313  34.099  1.00  0.00     0.029 A 
ATOM     49  C   UNL A   1      44.634  27.636  32.990  1.00  0.00     0.049 A 
ATOM     50  H   UNL A   1      42.911  28.025  31.836  1.00  0.00     0.167 HD
ATOM     51  C   UNL A   1      44.685  25.900  31.218  1.00  0.00     0.074 A 
ATOM     52  C   UNL A   1      45.272  24.751  30.561  1.00  0.00     0.031 C 
ATOM     53  C   UNL A   1      45.194  26.484  32.331  1.00  0.00     0.037 A 
BRANCH  40  54
ATOM     54  C   UNL A   1      41.903  31.305  34.371  1.00  0.00     0.057 A 
ATOM     55  C   UNL A   1      41.185  31.132  35.562  1.00  0.00     0.134 A 
ATOM     56  C   UNL A   1      42.483  32.560  34.145  1.00  0.00     0.134 A 
ATOM     57  F   UNL A   1      40.590  29.961  35.833  1.00  0.00    -0.206 F 
ATOM     58  C   UNL A   1      41.019  32.175  36.475  1.00  0.00     0.040 A 
ATOM     59  C   UNL A   1      42.348  33.602  35.063  1.00  0.00     0.040 A 
ATOM     60  F   UNL A   1      43.189  32.793  33.027  1.00  0.00    -0.206 F 
ATOM     61  C   UNL A   1      41.607  33.414  36.228  1.00  0.00     0.006 A 
ENDBRANCH  40  54
BRANCH  41  62
ATOM     62  C   UNL A   1      42.566  24.219  27.371  1.00  0.00     0.057 A 
ATOM     63  C   UNL A   1      42.086  22.921  27.581  1.00  0.00     0.134 A 
ATOM     64  C   UNL A   1      43.154  24.499  26.132  1.00  0.00     0.134 A 
ATOM     65  F   UNL A   1      41.528  22.590  28.754  1.00  0.00    -0.206 F 
ATOM     66  C   UNL A   1      42.203  21.932  26.604  1.00  0.00     0.040 A 
ATOM     67  C   UNL A   1      43.256  23.525  25.137  1.00  0.00     0.040 A 
ATOM     68  F   UNL A   1      43.623  25.727  25.866  1.00  0.00    -0.206 F 
ATOM     69  C   UNL A   1      42.786  22.236  25.374  1.00  0.00     0.006 A 
ENDBRANCH  41  62
BRANCH  53  70
ATOM     70  C   UNL A   1      46.418  25.861  32.932  1.00  0.00     0.057 A 
ATOM     71  C   UNL A   1      47.709  26.254  32.561  1.00  0.00     0.134 A 
ATOM     72  C   UNL A   1      46.298  24.872  33.918  1.00  0.00     0.134 A 
ATOM     73  F   UNL A   1      47.891  27.187  31.615  1.00  0.00    -0.206 F 
ATOM     74  C   UNL A   1      48.840  25.668  33.132  1.00  0.00     0.040 A 
ATOM     75  C   UNL A   1      47.421  24.296  34.513  1.00  0.00     0.040 A 
ATOM     76  F   UNL A   1      45.088  24.457  34.323  1.00  0.00    -0.206 F 
ATOM     77  C   UNL A   1      48.698  24.689  34.115  1.00  0.00     0.006 A 
ENDBRANCH  53  70
ENDBRANCH  27  28
ENDBRANCH  19  22
ENDBRANCH  17  18
ENDBRANCH   1  17
TORSDOF 13
ENDMDL
