MODEL 1
REMARK VINA RESULT:     -11.6      0.000      0.000
REMARK SMILES CC[C@@H]1CCCN1C(=O)N1CC[C@@H](C(=O)NCCCNC(=O)c2ccc(-c3c4nc(c(-c5c(F)cccc5F)c5ccc([nH]5)c(-c5c(F)cccc5F)c5nc(c(-c6c(F)cccc6F)c6ccc3[nH]6)C=C5)C=C4)cc2)[C@@H]1C
REMARK SMILES IDX 17 1 16 2 14 3 15 4 13 6 10 7 11 8 77 9 12 10 78 11 8 12
REMARK SMILES IDX 9 13 7 14 3 15 4 16 5 17 6 18 2 19 1 20 18 21 19 22 20 23
REMARK SMILES IDX 21 24 22 26 23 27 24 28 76 29 25 30 75 31 26 32 27 33 28 34
REMARK SMILES IDX 69 35 29 36 74 37 68 38 70 39 30 40 73 41 67 42 66 43 31 45
REMARK SMILES IDX 57 46 40 47 56 48 41 49 44 50 55 51 71 52 42 53 43 54 54 56
REMARK SMILES IDX 72 57 45 58 32 59 33 60 38 61 34 62 35 63 37 64 39 65 36 66
REMARK SMILES IDX 58 67 59 68 64 69 60 70 61 71 63 72 65 73 62 74 46 75 47 76
REMARK SMILES IDX 52 77 48 78 49 79 51 80 53 81 50 82
REMARK H PARENT 16 5 20 25 70 44 44 55
REMARK Flexibility Score: inf
ROOT
ATOM      1  C   UNL A   1      31.878  30.436  26.161  1.00  0.00     0.117 C 
ENDROOT
BRANCH   1   2
ATOM      2  N   UNL A   1      31.229  30.008  24.939  1.00  0.00    -0.356 N 
ATOM      3  C   UNL A   1      31.684  29.229  23.921  1.00  0.00     0.225 C 
ATOM      4  O   UNL A   1      30.917  29.016  22.980  1.00  0.00    -0.275 OA
ATOM      5  H   UNL A   1      30.306  30.335  24.826  1.00  0.00     0.163 HD
BRANCH   3   6
ATOM      6  C   UNL A   1      33.086  28.650  23.970  1.00  0.00     0.102 C 
ATOM      7  N   UNL A   1      33.779  26.376  23.912  1.00  0.00    -0.321 N 
ATOM      8  C   UNL A   1      33.390  26.721  22.561  1.00  0.00     0.122 C 
ATOM      9  C   UNL A   1      33.109  27.337  24.790  1.00  0.00     0.096 C 
ATOM     10  C   UNL A   1      33.526  28.230  22.551  1.00  0.00     0.037 C 
ATOM     11  C   UNL A   1      33.800  27.456  26.144  1.00  0.00     0.032 C 
BRANCH   7  12
ATOM     12  C   UNL A   1      33.846  25.056  24.273  1.00  0.00     0.320 C 
ATOM     13  O   UNL A   1      34.832  24.378  23.974  1.00  0.00    -0.248 OA
BRANCH  12  14
ATOM     14  N   UNL A   1      32.768  24.508  24.936  1.00  0.00    -0.322 N 
ATOM     15  C   UNL A   1      31.483  23.945  24.472  1.00  0.00     0.086 C 
ATOM     16  C   UNL A   1      30.721  23.787  25.799  1.00  0.00     0.027 C 
ATOM     17  C   UNL A   1      31.792  23.289  26.747  1.00  0.00     0.024 C 
ATOM     18  C   UNL A   1      33.032  24.044  26.297  1.00  0.00     0.122 C 
BRANCH  15  19
ATOM     19  C   UNL A   1      30.586  24.678  23.474  1.00  0.00     0.022 C 
ATOM     20  C   UNL A   1      29.882  25.880  24.090  1.00  0.00     0.006 C 
ENDBRANCH  15  19
ENDBRANCH  12  14
ENDBRANCH   7  12
ENDBRANCH   3   6
ENDBRANCH   1   2
BRANCH   1  21
ATOM     21  C   UNL A   1      31.581  31.888  26.514  1.00  0.00     0.042 C 
BRANCH  21  22
ATOM     22  C   UNL A   1      32.685  32.592  27.298  1.00  0.00     0.118 C 
BRANCH  22  23
ATOM     23  N   UNL A   1      32.380  33.988  27.589  1.00  0.00    -0.352 N 
ATOM     24  C   UNL A   1      32.951  34.859  28.483  1.00  0.00     0.251 C 
ATOM     25  H   UNL A   1      31.646  34.368  27.056  1.00  0.00     0.163 HD
ATOM     26  O   UNL A   1      32.430  35.953  28.686  1.00  0.00    -0.269 OA
BRANCH  24  27
ATOM     27  C   UNL A   1      34.169  34.478  29.226  1.00  0.00     0.039 A 
ATOM     28  C   UNL A   1      34.035  33.951  30.514  1.00  0.00     0.014 A 
ATOM     29  C   UNL A   1      35.437  34.639  28.664  1.00  0.00     0.014 A 
ATOM     30  C   UNL A   1      35.164  33.492  31.197  1.00  0.00     0.010 A 
ATOM     31  C   UNL A   1      36.551  34.117  29.313  1.00  0.00     0.010 A 
ATOM     32  C   UNL A   1      36.423  33.521  30.576  1.00  0.00    -0.014 A 
BRANCH  32  33
ATOM     33  C   UNL A   1      37.609  32.882  31.202  1.00  0.00     0.031 A 
ATOM     34  C   UNL A   1      38.232  31.663  30.584  1.00  0.00     0.074 A 
ATOM     35  C   UNL A   1      38.061  33.346  32.383  1.00  0.00     0.049 A 
ATOM     36  N   UNL A   1      39.185  30.897  31.049  1.00  0.00    -0.248 NA
ATOM     37  C   UNL A   1      37.698  31.236  29.281  1.00  0.00     0.031 C 
ATOM     38  C   UNL A   1      37.519  34.502  33.100  1.00  0.00     0.029 A 
ATOM     39  N   UNL A   1      39.065  32.892  33.201  1.00  0.00    -0.354 N 
ATOM     40  C   UNL A   1      39.358  29.892  30.105  1.00  0.00     0.074 A 
ATOM     41  C   UNL A   1      38.379  30.120  29.064  1.00  0.00     0.031 C 
ATOM     42  C   UNL A   1      38.203  34.673  34.243  1.00  0.00     0.029 A 
ATOM     43  C   UNL A   1      39.194  33.609  34.366  1.00  0.00     0.049 A 
ATOM     44  H   UNL A   1      39.640  32.124  32.974  1.00  0.00     0.167 HD
ATOM     45  C   UNL A   1      40.261  28.883  30.102  1.00  0.00     0.037 A 
ATOM     46  C   UNL A   1      40.001  33.419  35.427  1.00  0.00     0.037 A 
ATOM     47  C   UNL A   1      41.238  28.668  31.138  1.00  0.00     0.049 A 
ATOM     48  C   UNL A   1      40.959  32.260  35.421  1.00  0.00     0.074 A 
ATOM     49  C   UNL A   1      42.234  27.709  31.195  1.00  0.00     0.029 A 
ATOM     50  N   UNL A   1      41.334  29.414  32.303  1.00  0.00    -0.354 N 
ATOM     51  N   UNL A   1      41.158  31.358  34.492  1.00  0.00    -0.248 NA
ATOM     52  C   UNL A   1      41.800  32.088  36.614  1.00  0.00     0.031 C 
ATOM     53  C   UNL A   1      42.894  27.837  32.422  1.00  0.00     0.029 A 
ATOM     54  C   UNL A   1      42.347  28.913  33.103  1.00  0.00     0.049 A 
ATOM     55  H   UNL A   1      40.766  30.186  32.528  1.00  0.00     0.167 HD
ATOM     56  C   UNL A   1      42.162  30.528  34.975  1.00  0.00     0.074 A 
ATOM     57  C   UNL A   1      42.542  31.043  36.273  1.00  0.00     0.031 C 
ATOM     58  C   UNL A   1      42.716  29.436  34.395  1.00  0.00     0.037 A 
BRANCH  45  59
ATOM     59  C   UNL A   1      40.231  27.927  28.944  1.00  0.00     0.057 A 
ATOM     60  C   UNL A   1      40.950  28.168  27.766  1.00  0.00     0.134 A 
ATOM     61  C   UNL A   1      39.512  26.728  29.027  1.00  0.00     0.134 A 
ATOM     62  F   UNL A   1      41.653  29.301  27.619  1.00  0.00    -0.206 F 
ATOM     63  C   UNL A   1      40.934  27.265  26.702  1.00  0.00     0.040 A 
ATOM     64  C   UNL A   1      39.512  25.802  27.981  1.00  0.00     0.040 A 
ATOM     65  F   UNL A   1      38.809  26.428  30.129  1.00  0.00    -0.206 F 
ATOM     66  C   UNL A   1      40.219  26.074  26.811  1.00  0.00     0.006 A 
ENDBRANCH  45  59
BRANCH  46  67
ATOM     67  C   UNL A   1      39.934  34.342  36.589  1.00  0.00     0.057 A 
ATOM     68  C   UNL A   1      39.125  34.054  37.694  1.00  0.00     0.134 A 
ATOM     69  C   UNL A   1      40.668  35.534  36.622  1.00  0.00     0.134 A 
ATOM     70  F   UNL A   1      38.384  32.936  37.714  1.00  0.00    -0.206 F 
ATOM     71  C   UNL A   1      39.033  34.926  38.780  1.00  0.00     0.040 A 
ATOM     72  C   UNL A   1      40.607  36.402  37.713  1.00  0.00     0.040 A 
ATOM     73  F   UNL A   1      41.469  35.866  35.598  1.00  0.00    -0.206 F 
ATOM     74  C   UNL A   1      39.779  36.102  38.794  1.00  0.00     0.006 A 
ENDBRANCH  46  67
BRANCH  58  75
ATOM     75  C   UNL A   1      43.809  28.734  35.146  1.00  0.00     0.057 A 
ATOM     76  C   UNL A   1      43.542  27.662  36.007  1.00  0.00     0.134 A 
ATOM     77  C   UNL A   1      45.150  29.096  34.962  1.00  0.00     0.134 A 
ATOM     78  F   UNL A   1      42.279  27.274  36.239  1.00  0.00    -0.206 F 
ATOM     79  C   UNL A   1      44.569  26.984  36.666  1.00  0.00     0.040 A 
ATOM     80  C   UNL A   1      46.187  28.408  35.593  1.00  0.00     0.040 A 
ATOM     81  F   UNL A   1      45.475  30.111  34.146  1.00  0.00    -0.206 F 
ATOM     82  C   UNL A   1      45.897  27.350  36.452  1.00  0.00     0.006 A 
ENDBRANCH  58  75
ENDBRANCH  32  33
ENDBRANCH  24  27
ENDBRANCH  22  23
ENDBRANCH  21  22
ENDBRANCH   1  21
TORSDOF 13
ENDMDL
MODEL 2
REMARK VINA RESULT:     -11.5      4.143      8.241
REMARK SMILES CC[C@@H]1CCCN1C(=O)N1CC[C@@H](C(=O)NCCCNC(=O)c2ccc(-c3c4nc(c(-c5c(F)cccc5F)c5ccc([nH]5)c(-c5c(F)cccc5F)c5nc(c(-c6c(F)cccc6F)c6ccc3[nH]6)C=C5)C=C4)cc2)[C@@H]1C
REMARK SMILES IDX 17 1 16 2 14 3 15 4 13 6 10 7 11 8 77 9 12 10 78 11 8 12
REMARK SMILES IDX 9 13 7 14 3 15 4 16 5 17 6 18 2 19 1 20 18 21 19 22 20 23
REMARK SMILES IDX 21 24 22 26 23 27 24 28 76 29 25 30 75 31 26 32 27 33 28 34
REMARK SMILES IDX 69 35 29 36 74 37 68 38 70 39 30 40 73 41 67 42 66 43 31 45
REMARK SMILES IDX 57 46 40 47 56 48 41 49 44 50 55 51 71 52 42 53 43 54 54 56
REMARK SMILES IDX 72 57 45 58 32 59 33 60 38 61 34 62 35 63 37 64 39 65 36 66
REMARK SMILES IDX 58 67 59 68 64 69 60 70 61 71 63 72 65 73 62 74 46 75 47 76
REMARK SMILES IDX 52 77 48 78 49 79 51 80 53 81 50 82
REMARK H PARENT 16 5 20 25 70 44 44 55
REMARK Flexibility Score: inf
ROOT
ATOM      1  C   UNL A   1      31.722  28.345  27.078  1.00  0.00     0.117 C 
ENDROOT
BRANCH   1   2
ATOM      2  N   UNL A   1      31.048  27.064  27.136  1.00  0.00    -0.356 N 
ATOM      3  C   UNL A   1      30.715  26.194  26.145  1.00  0.00     0.225 C 
ATOM      4  O   UNL A   1      30.133  25.157  26.469  1.00  0.00    -0.275 OA
ATOM      5  H   UNL A   1      30.787  26.776  28.042  1.00  0.00     0.163 HD
BRANCH   3   6
ATOM      6  C   UNL A   1      31.067  26.508  24.703  1.00  0.00     0.102 C 
ATOM      7  N   UNL A   1      32.014  25.093  23.041  1.00  0.00    -0.321 N 
ATOM      8  C   UNL A   1      30.629  24.694  23.180  1.00  0.00     0.122 C 
ATOM      9  C   UNL A   1      32.368  25.781  24.284  1.00  0.00     0.096 C 
ATOM     10  C   UNL A   1      29.982  25.932  23.766  1.00  0.00     0.037 C 
ATOM     11  C   UNL A   1      33.570  26.703  24.108  1.00  0.00     0.032 C 
BRANCH   7  12
ATOM     12  C   UNL A   1      32.906  24.229  22.463  1.00  0.00     0.320 C 
ATOM     13  O   UNL A   1      33.277  24.404  21.300  1.00  0.00    -0.248 OA
BRANCH  12  14
ATOM     14  N   UNL A   1      33.334  23.147  23.203  1.00  0.00    -0.322 N 
ATOM     15  C   UNL A   1      34.251  23.016  24.354  1.00  0.00     0.086 C 
ATOM     16  C   UNL A   1      34.415  21.488  24.442  1.00  0.00     0.027 C 
ATOM     17  C   UNL A   1      33.014  20.981  24.166  1.00  0.00     0.024 C 
ATOM     18  C   UNL A   1      32.493  21.953  23.120  1.00  0.00     0.122 C 
BRANCH  15  19
ATOM     19  C   UNL A   1      35.637  23.660  24.367  1.00  0.00     0.022 C 
ATOM     20  C   UNL A   1      36.614  22.971  23.424  1.00  0.00     0.006 C 
ENDBRANCH  15  19
ENDBRANCH  12  14
ENDBRANCH   7  12
ENDBRANCH   3   6
ENDBRANCH   1   2
BRANCH   1  21
ATOM     21  C   UNL A   1      33.229  28.231  27.277  1.00  0.00     0.042 C 
BRANCH  21  22
ATOM     22  C   UNL A   1      34.032  29.423  26.766  1.00  0.00     0.118 C 
BRANCH  22  23
ATOM     23  N   UNL A   1      34.019  30.558  27.680  1.00  0.00    -0.352 N 
ATOM     24  C   UNL A   1      34.928  30.949  28.631  1.00  0.00     0.251 C 
ATOM     25  H   UNL A   1      33.230  31.141  27.602  1.00  0.00     0.163 HD
ATOM     26  O   UNL A   1      34.642  31.853  29.413  1.00  0.00    -0.269 OA
BRANCH  24  27
ATOM     27  C   UNL A   1      36.234  30.269  28.744  1.00  0.00     0.039 A 
ATOM     28  C   UNL A   1      37.094  30.274  27.641  1.00  0.00     0.014 A 
ATOM     29  C   UNL A   1      36.614  29.629  29.925  1.00  0.00     0.014 A 
ATOM     30  C   UNL A   1      38.372  29.724  27.756  1.00  0.00     0.010 A 
ATOM     31  C   UNL A   1      37.912  29.146  30.062  1.00  0.00     0.010 A 
ATOM     32  C   UNL A   1      38.810  29.207  28.986  1.00  0.00    -0.014 A 
BRANCH  32  33
ATOM     33  C   UNL A   1      40.217  28.779  29.189  1.00  0.00     0.031 A 
ATOM     34  C   UNL A   1      41.239  29.745  29.719  1.00  0.00     0.074 A 
ATOM     35  C   UNL A   1      40.593  27.545  28.800  1.00  0.00     0.049 A 
ATOM     36  N   UNL A   1      42.532  29.594  29.842  1.00  0.00    -0.248 NA
ATOM     37  C   UNL A   1      40.742  31.063  30.146  1.00  0.00     0.031 C 
ATOM     38  C   UNL A   1      39.701  26.528  28.240  1.00  0.00     0.029 A 
ATOM     39  N   UNL A   1      41.826  26.942  28.795  1.00  0.00    -0.354 N 
ATOM     40  C   UNL A   1      43.007  30.797  30.349  1.00  0.00     0.074 A 
ATOM     41  C   UNL A   1      41.870  31.683  30.466  1.00  0.00     0.031 C 
ATOM     42  C   UNL A   1      40.413  25.425  27.957  1.00  0.00     0.029 A 
ATOM     43  C   UNL A   1      41.817  25.674  28.265  1.00  0.00     0.049 A 
ATOM     44  H   UNL A   1      42.640  27.377  29.140  1.00  0.00     0.167 HD
ATOM     45  C   UNL A   1      44.274  31.124  30.698  1.00  0.00     0.037 A 
ATOM     46  C   UNL A   1      42.829  24.818  28.028  1.00  0.00     0.037 A 
ATOM     47  C   UNL A   1      45.400  30.233  30.587  1.00  0.00     0.049 A 
ATOM     48  C   UNL A   1      44.233  25.225  28.377  1.00  0.00     0.074 A 
ATOM     49  C   UNL A   1      46.712  30.453  30.971  1.00  0.00     0.029 A 
ATOM     50  N   UNL A   1      45.351  28.959  30.042  1.00  0.00    -0.354 N 
ATOM     51  N   UNL A   1      44.658  26.340  28.919  1.00  0.00    -0.248 NA
ATOM     52  C   UNL A   1      45.299  24.259  28.077  1.00  0.00     0.031 C 
ATOM     53  C   UNL A   1      47.467  29.335  30.603  1.00  0.00     0.029 A 
ATOM     54  C   UNL A   1      46.616  28.395  30.044  1.00  0.00     0.049 A 
ATOM     55  H   UNL A   1      44.537  28.520  29.704  1.00  0.00     0.167 HD
ATOM     56  C   UNL A   1      46.034  26.201  29.047  1.00  0.00     0.074 A 
ATOM     57  C   UNL A   1      46.371  24.886  28.541  1.00  0.00     0.031 C 
ATOM     58  C   UNL A   1      46.937  27.084  29.538  1.00  0.00     0.037 A 
BRANCH  45  59
ATOM     59  C   UNL A   1      44.513  32.508  31.228  1.00  0.00     0.057 A 
ATOM     60  C   UNL A   1      44.830  33.580  30.383  1.00  0.00     0.134 A 
ATOM     61  C   UNL A   1      44.377  32.783  32.595  1.00  0.00     0.134 A 
ATOM     62  F   UNL A   1      44.983  33.385  29.065  1.00  0.00    -0.206 F 
ATOM     63  C   UNL A   1      45.031  34.869  30.881  1.00  0.00     0.040 A 
ATOM     64  C   UNL A   1      44.546  34.073  33.102  1.00  0.00     0.040 A 
ATOM     65  F   UNL A   1      44.066  31.807  33.460  1.00  0.00    -0.206 F 
ATOM     66  C   UNL A   1      44.881  35.120  32.244  1.00  0.00     0.006 A 
ENDBRANCH  45  59
BRANCH  46  67
ATOM     67  C   UNL A   1      42.553  23.490  27.421  1.00  0.00     0.057 A 
ATOM     68  C   UNL A   1      42.209  22.391  28.216  1.00  0.00     0.134 A 
ATOM     69  C   UNL A   1      42.634  23.283  26.038  1.00  0.00     0.134 A 
ATOM     70  F   UNL A   1      42.133  22.520  29.549  1.00  0.00    -0.206 F 
ATOM     71  C   UNL A   1      41.974  21.132  27.662  1.00  0.00     0.040 A 
ATOM     72  C   UNL A   1      42.375  22.036  25.468  1.00  0.00     0.040 A 
ATOM     73  F   UNL A   1      42.952  24.297  25.219  1.00  0.00    -0.206 F 
ATOM     74  C   UNL A   1      42.052  20.953  26.283  1.00  0.00     0.006 A 
ENDBRANCH  46  67
BRANCH  58  75
ATOM     75  C   UNL A   1      48.375  26.655  29.574  1.00  0.00     0.057 A 
ATOM     76  C   UNL A   1      49.273  26.994  28.555  1.00  0.00     0.134 A 
ATOM     77  C   UNL A   1      48.881  25.943  30.671  1.00  0.00     0.134 A 
ATOM     78  F   UNL A   1      48.851  27.661  27.470  1.00  0.00    -0.206 F 
ATOM     79  C   UNL A   1      50.619  26.631  28.619  1.00  0.00     0.040 A 
ATOM     80  C   UNL A   1      50.230  25.599  30.760  1.00  0.00     0.040 A 
ATOM     81  F   UNL A   1      48.075  25.592  31.685  1.00  0.00    -0.206 F 
ATOM     82  C   UNL A   1      51.103  25.941  29.729  1.00  0.00     0.006 A 
ENDBRANCH  58  75
ENDBRANCH  32  33
ENDBRANCH  24  27
ENDBRANCH  22  23
ENDBRANCH  21  22
ENDBRANCH   1  21
TORSDOF 13
ENDMDL
MODEL 3
REMARK VINA RESULT:     -11.5      4.536      9.458
REMARK SMILES CC[C@@H]1CCCN1C(=O)N1CC[C@@H](C(=O)NCCCNC(=O)c2ccc(-c3c4nc(c(-c5c(F)cccc5F)c5ccc([nH]5)c(-c5c(F)cccc5F)c5nc(c(-c6c(F)cccc6F)c6ccc3[nH]6)C=C5)C=C4)cc2)[C@@H]1C
REMARK SMILES IDX 17 1 16 2 14 3 15 4 13 6 10 7 11 8 77 9 12 10 78 11 8 12
REMARK SMILES IDX 9 13 7 14 3 15 4 16 5 17 6 18 2 19 1 20 18 21 19 22 20 23
REMARK SMILES IDX 21 24 22 26 23 27 24 28 76 29 25 30 75 31 26 32 27 33 28 34
REMARK SMILES IDX 69 35 29 36 74 37 68 38 70 39 30 40 73 41 67 42 66 43 31 45
REMARK SMILES IDX 57 46 40 47 56 48 41 49 44 50 55 51 71 52 42 53 43 54 54 56
REMARK SMILES IDX 72 57 45 58 32 59 33 60 38 61 34 62 35 63 37 64 39 65 36 66
REMARK SMILES IDX 58 67 59 68 64 69 60 70 61 71 63 72 65 73 62 74 46 75 47 76
REMARK SMILES IDX 52 77 48 78 49 79 51 80 53 81 50 82
REMARK H PARENT 16 5 20 25 70 44 44 55
REMARK Flexibility Score: inf
ROOT
ATOM      1  C   UNL A   1      35.817  20.775  24.992  1.00  0.00     0.117 C 
ENDROOT
BRANCH   1   2
ATOM      2  N   UNL A   1      35.459  21.389  26.255  1.00  0.00    -0.356 N 
ATOM      3  C   UNL A   1      34.656  22.452  26.525  1.00  0.00     0.225 C 
ATOM      4  O   UNL A   1      34.518  22.776  27.705  1.00  0.00    -0.275 OA
ATOM      5  H   UNL A   1      35.864  20.966  27.047  1.00  0.00     0.163 HD
BRANCH   3   6
ATOM      6  C   UNL A   1      33.960  23.190  25.396  1.00  0.00     0.102 C 
ATOM      7  N   UNL A   1      32.633  25.163  25.479  1.00  0.00    -0.321 N 
ATOM      8  C   UNL A   1      34.010  25.587  25.628  1.00  0.00     0.122 C 
ATOM      9  C   UNL A   1      32.596  23.751  25.866  1.00  0.00     0.096 C 
ATOM     10  C   UNL A   1      34.781  24.440  25.008  1.00  0.00     0.037 C 
ATOM     11  C   UNL A   1      31.387  23.028  25.281  1.00  0.00     0.032 C 
BRANCH   7  12
ATOM     12  C   UNL A   1      31.626  26.004  25.874  1.00  0.00     0.320 C 
ATOM     13  O   UNL A   1      31.067  25.838  26.960  1.00  0.00    -0.248 OA
BRANCH  12  14
ATOM     14  N   UNL A   1      31.236  27.001  25.005  1.00  0.00    -0.322 N 
ATOM     15  C   UNL A   1      31.660  28.406  24.833  1.00  0.00     0.086 C 
ATOM     16  C   UNL A   1      30.596  28.928  23.851  1.00  0.00     0.027 C 
ATOM     17  C   UNL A   1      30.424  27.770  22.891  1.00  0.00     0.024 C 
ATOM     18  C   UNL A   1      30.560  26.551  23.789  1.00  0.00     0.122 C 
BRANCH  15  19
ATOM     19  C   UNL A   1      31.759  29.376  26.011  1.00  0.00     0.022 C 
ATOM     20  C   UNL A   1      32.962  29.096  26.902  1.00  0.00     0.006 C 
ENDBRANCH  15  19
ENDBRANCH  12  14
ENDBRANCH   7  12
ENDBRANCH   3   6
ENDBRANCH   1   2
BRANCH   1  21
ATOM     21  C   UNL A   1      37.260  21.051  24.587  1.00  0.00     0.042 C 
BRANCH  21  22
ATOM     22  C   UNL A   1      38.256  21.063  25.743  1.00  0.00     0.118 C 
BRANCH  22  23
ATOM     23  N   UNL A   1      39.232  19.983  25.671  1.00  0.00    -0.352 N 
ATOM     24  C   UNL A   1      40.573  19.971  25.960  1.00  0.00     0.251 C 
ATOM     25  H   UNL A   1      38.869  19.121  25.365  1.00  0.00     0.163 HD
ATOM     26  O   UNL A   1      41.251  18.987  25.671  1.00  0.00    -0.269 OA
BRANCH  24  27
ATOM     27  C   UNL A   1      41.215  21.143  26.588  1.00  0.00     0.039 A 
ATOM     28  C   UNL A   1      41.888  22.060  25.773  1.00  0.00     0.014 A 
ATOM     29  C   UNL A   1      41.159  21.343  27.968  1.00  0.00     0.014 A 
ATOM     30  C   UNL A   1      42.416  23.226  26.331  1.00  0.00     0.010 A 
ATOM     31  C   UNL A   1      41.621  22.537  28.513  1.00  0.00     0.010 A 
ATOM     32  C   UNL A   1      42.236  23.499  27.697  1.00  0.00    -0.014 A 
BRANCH  32  33
ATOM     33  C   UNL A   1      42.629  24.806  28.284  1.00  0.00     0.031 A 
ATOM     34  C   UNL A   1      41.606  25.888  28.486  1.00  0.00     0.074 A 
ATOM     35  C   UNL A   1      43.929  25.048  28.540  1.00  0.00     0.049 A 
ATOM     36  N   UNL A   1      41.781  27.128  28.863  1.00  0.00    -0.248 NA
ATOM     37  C   UNL A   1      40.206  25.533  28.208  1.00  0.00     0.031 C 
ATOM     38  C   UNL A   1      45.020  24.090  28.353  1.00  0.00     0.029 A 
ATOM     39  N   UNL A   1      44.558  26.181  28.993  1.00  0.00    -0.354 N 
ATOM     40  C   UNL A   1      40.518  27.707  28.856  1.00  0.00     0.074 A 
ATOM     41  C   UNL A   1      39.594  26.695  28.393  1.00  0.00     0.031 C 
ATOM     42  C   UNL A   1      46.181  24.671  28.699  1.00  0.00     0.029 A 
ATOM     43  C   UNL A   1      45.924  26.056  29.080  1.00  0.00     0.049 A 
ATOM     44  H   UNL A   1      44.076  27.006  29.233  1.00  0.00     0.167 HD
ATOM     45  C   UNL A   1      40.163  28.963  29.218  1.00  0.00     0.037 A 
ATOM     46  C   UNL A   1      46.867  26.960  29.404  1.00  0.00     0.037 A 
ATOM     47  C   UNL A   1      41.088  29.962  29.686  1.00  0.00     0.049 A 
ATOM     48  C   UNL A   1      46.451  28.362  29.751  1.00  0.00     0.074 A 
ATOM     49  C   UNL A   1      40.816  31.243  30.133  1.00  0.00     0.029 A 
ATOM     50  N   UNL A   1      42.463  29.797  29.756  1.00  0.00    -0.354 N 
ATOM     51  N   UNL A   1      45.247  28.876  29.807  1.00  0.00    -0.248 NA
ATOM     52  C   UNL A   1      47.524  29.312  30.077  1.00  0.00     0.031 C 
ATOM     53  C   UNL A   1      42.032  31.874  30.416  1.00  0.00     0.029 A 
ATOM     54  C   UNL A   1      43.057  30.967  30.202  1.00  0.00     0.049 A 
ATOM     55  H   UNL A   1      42.946  28.971  29.525  1.00  0.00     0.167 HD
ATOM     56  C   UNL A   1      45.414  30.199  30.195  1.00  0.00     0.074 A 
ATOM     57  C   UNL A   1      46.836  30.404  30.378  1.00  0.00     0.031 C 
ATOM     58  C   UNL A   1      44.474  31.157  30.381  1.00  0.00     0.037 A 
BRANCH  45  59
ATOM     59  C   UNL A   1      38.711  29.331  29.115  1.00  0.00     0.057 A 
ATOM     60  C   UNL A   1      38.122  29.688  27.895  1.00  0.00     0.134 A 
ATOM     61  C   UNL A   1      37.880  29.281  30.242  1.00  0.00     0.134 A 
ATOM     62  F   UNL A   1      38.862  29.763  26.779  1.00  0.00    -0.206 F 
ATOM     63  C   UNL A   1      36.767  30.010  27.804  1.00  0.00     0.040 A 
ATOM     64  C   UNL A   1      36.517  29.572  30.158  1.00  0.00     0.040 A 
ATOM     65  F   UNL A   1      38.375  28.938  31.440  1.00  0.00    -0.206 F 
ATOM     66  C   UNL A   1      35.958  29.944  28.937  1.00  0.00     0.006 A 
ENDBRANCH  45  59
BRANCH  46  67
ATOM     67  C   UNL A   1      48.301  26.571  29.408  1.00  0.00     0.057 A 
ATOM     68  C   UNL A   1      49.110  26.786  28.286  1.00  0.00     0.134 A 
ATOM     69  C   UNL A   1      48.896  25.972  30.525  1.00  0.00     0.134 A 
ATOM     70  F   UNL A   1      48.594  27.339  27.179  1.00  0.00    -0.206 F 
ATOM     71  C   UNL A   1      50.452  26.401  28.268  1.00  0.00     0.040 A 
ATOM     72  C   UNL A   1      50.243  25.607  30.530  1.00  0.00     0.040 A 
ATOM     73  F   UNL A   1      48.178  25.745  31.636  1.00  0.00    -0.206 F 
ATOM     74  C   UNL A   1      51.023  25.814  29.394  1.00  0.00     0.006 A 
ENDBRANCH  46  67
BRANCH  58  75
ATOM     75  C   UNL A   1      44.946  32.511  30.826  1.00  0.00     0.057 A 
ATOM     76  C   UNL A   1      45.122  32.824  32.180  1.00  0.00     0.134 A 
ATOM     77  C   UNL A   1      45.284  33.495  29.886  1.00  0.00     0.134 A 
ATOM     78  F   UNL A   1      44.802  31.933  33.130  1.00  0.00    -0.206 F 
ATOM     79  C   UNL A   1      45.605  34.070  32.583  1.00  0.00     0.040 A 
ATOM     80  C   UNL A   1      45.795  34.733  30.276  1.00  0.00     0.040 A 
ATOM     81  F   UNL A   1      45.145  33.257  28.572  1.00  0.00    -0.206 F 
ATOM     82  C   UNL A   1      45.953  35.025  31.629  1.00  0.00     0.006 A 
ENDBRANCH  58  75
ENDBRANCH  32  33
ENDBRANCH  24  27
ENDBRANCH  22  23
ENDBRANCH  21  22
ENDBRANCH   1  21
TORSDOF 13
ENDMDL
