MODEL 1
REMARK VINA RESULT:     -12.0      0.000      0.000
REMARK SMILES N#C/C(=C/c1cccc(OCC(=O)NCCCNC(=O)c2ccc(-c3c4nc(c(-c5c(F)cccc5F)c5ccc([nH]5)c(-c5c(F)cccc5F)c5nc(c(-c6c(F)cccc6F)c6ccc3[nH]6)C=C5)C=C4)cc2)c1)c1nc2ccccc2[nH]1
REMARK SMILES IDX 15 1 14 2 12 3 13 4 11 6 10 7 9 8 5 9 6 10 75 11 7 12 8 13
REMARK SMILES IDX 4 14 3 15 2 16 1 17 76 18 77 19 84 20 78 21 83 22 79 24
REMARK SMILES IDX 82 25 80 26 81 27 16 28 17 29 18 30 19 31 20 33 21 34 22 35
REMARK SMILES IDX 74 36 23 37 73 38 24 39 25 40 26 41 67 42 27 43 72 44 66 45
REMARK SMILES IDX 68 46 28 47 71 48 65 49 64 50 29 52 55 53 38 54 54 55 39 56
REMARK SMILES IDX 42 57 53 58 69 59 40 60 41 61 52 63 70 64 43 65 30 66 31 67
REMARK SMILES IDX 36 68 32 69 33 70 35 71 37 72 34 73 56 74 57 75 62 76 58 77
REMARK SMILES IDX 59 78 61 79 63 80 60 81 44 82 45 83 50 84 46 85 47 86 49 87
REMARK SMILES IDX 51 88 48 89
REMARK H PARENT 14 5 84 23 18 32 68 51 42 62
REMARK Flexibility Score: inf
ROOT
ATOM      1  C   UNL A   1      31.767  28.495  26.831  1.00  0.00     0.117 C 
ENDROOT
BRANCH   1   2
ATOM      2  N   UNL A   1      31.028  27.266  27.044  1.00  0.00    -0.353 N 
ATOM      3  C   UNL A   1      30.758  26.285  26.126  1.00  0.00     0.257 C 
ATOM      4  O   UNL A   1      30.385  25.174  26.510  1.00  0.00    -0.271 OA
ATOM      5  H   UNL A   1      30.678  27.119  27.953  1.00  0.00     0.163 HD
BRANCH   3   6
ATOM      6  C   UNL A   1      30.956  26.568  24.633  1.00  0.00     0.329 C 
BRANCH   6   7
ATOM      7  O   UNL A   1      30.459  25.578  23.746  1.00  0.00    -0.484 OA
BRANCH   7   8
ATOM      8  C   UNL A   1      31.288  24.541  23.411  1.00  0.00     0.120 A 
ATOM      9  C   UNL A   1      32.150  22.264  23.487  1.00  0.00    -0.021 A 
ATOM     10  C   UNL A   1      33.057  22.577  22.470  1.00  0.00     0.008 A 
ATOM     11  C   UNL A   1      31.287  23.262  23.973  1.00  0.00     0.054 A 
ATOM     12  C   UNL A   1      33.083  23.861  21.926  1.00  0.00     0.004 A 
ATOM     13  C   UNL A   1      32.198  24.834  22.393  1.00  0.00     0.046 A 
BRANCH   9  14
ATOM     14  C   UNL A   1      32.116  20.896  24.032  1.00  0.00     0.031 C 
ATOM     15  C   UNL A   1      33.095  20.306  24.744  1.00  0.00     0.095 C 
BRANCH  15  16
ATOM     16  C   UNL A   1      32.911  18.886  25.254  1.00  0.00     0.103 C 
ATOM     17  N   UNL A   1      32.758  17.708  25.677  1.00  0.00    -0.192 NA
ENDBRANCH  15  16
BRANCH  15  18
ATOM     18  C   UNL A   1      34.289  20.991  25.113  1.00  0.00     0.149 A 
ATOM     19  N   UNL A   1      34.474  22.219  25.564  1.00  0.00    -0.228 NA
ATOM     20  N   UNL A   1      35.495  20.333  25.001  1.00  0.00    -0.337 N 
ATOM     21  C   UNL A   1      35.830  22.364  25.709  1.00  0.00     0.089 A 
ATOM     22  C   UNL A   1      36.498  21.201  25.357  1.00  0.00     0.066 A 
ATOM     23  H   UNL A   1      35.617  19.399  24.714  1.00  0.00     0.168 HD
ATOM     24  C   UNL A   1      36.575  23.476  26.126  1.00  0.00     0.030 A 
ATOM     25  C   UNL A   1      37.889  21.077  25.367  1.00  0.00     0.028 A 
ATOM     26  C   UNL A   1      37.975  23.391  26.128  1.00  0.00     0.002 A 
ATOM     27  C   UNL A   1      38.618  22.210  25.751  1.00  0.00     0.002 A 
ENDBRANCH  15  18
ENDBRANCH   9  14
ENDBRANCH   7   8
ENDBRANCH   6   7
ENDBRANCH   3   6
ENDBRANCH   1   2
BRANCH   1  28
ATOM     28  C   UNL A   1      33.232  28.453  27.251  1.00  0.00     0.042 C 
BRANCH  28  29
ATOM     29  C   UNL A   1      34.081  29.690  26.956  1.00  0.00     0.118 C 
BRANCH  29  30
ATOM     30  N   UNL A   1      34.087  30.711  27.992  1.00  0.00    -0.352 N 
ATOM     31  C   UNL A   1      35.087  31.048  28.877  1.00  0.00     0.251 C 
ATOM     32  H   UNL A   1      33.259  31.237  28.072  1.00  0.00     0.163 HD
ATOM     33  O   UNL A   1      34.913  31.952  29.688  1.00  0.00    -0.269 OA
BRANCH  31  34
ATOM     34  C   UNL A   1      36.356  30.289  28.884  1.00  0.00     0.039 A 
ATOM     35  C   UNL A   1      37.133  30.284  27.722  1.00  0.00     0.014 A 
ATOM     36  C   UNL A   1      36.793  29.618  30.029  1.00  0.00     0.014 A 
ATOM     37  C   UNL A   1      38.403  29.703  27.742  1.00  0.00     0.010 A 
ATOM     38  C   UNL A   1      38.075  29.067  30.058  1.00  0.00     0.010 A 
ATOM     39  C   UNL A   1      38.905  29.144  28.928  1.00  0.00    -0.014 A 
BRANCH  39  40
ATOM     40  C   UNL A   1      40.337  28.767  29.043  1.00  0.00     0.031 A 
ATOM     41  C   UNL A   1      41.375  29.755  29.481  1.00  0.00     0.074 A 
ATOM     42  C   UNL A   1      40.706  27.527  28.664  1.00  0.00     0.049 A 
ATOM     43  N   UNL A   1      42.674  29.605  29.556  1.00  0.00    -0.248 NA
ATOM     44  C   UNL A   1      40.897  31.088  29.877  1.00  0.00     0.031 C 
ATOM     45  C   UNL A   1      39.794  26.484  28.187  1.00  0.00     0.029 A 
ATOM     46  N   UNL A   1      41.944  26.938  28.603  1.00  0.00    -0.354 N 
ATOM     47  C   UNL A   1      43.171  30.819  30.008  1.00  0.00     0.074 A 
ATOM     48  C   UNL A   1      42.036  31.707  30.160  1.00  0.00     0.031 C 
ATOM     49  C   UNL A   1      40.502  25.384  27.887  1.00  0.00     0.029 A 
ATOM     50  C   UNL A   1      41.918  25.654  28.113  1.00  0.00     0.049 A 
ATOM     51  H   UNL A   1      42.772  27.391  28.883  1.00  0.00     0.167 HD
ATOM     52  C   UNL A   1      44.454  31.155  30.284  1.00  0.00     0.037 A 
ATOM     53  C   UNL A   1      42.921  24.796  27.853  1.00  0.00     0.037 A 
ATOM     54  C   UNL A   1      45.583  30.272  30.133  1.00  0.00     0.049 A 
ATOM     55  C   UNL A   1      44.339  25.215  28.119  1.00  0.00     0.074 A 
ATOM     56  C   UNL A   1      46.911  30.509  30.446  1.00  0.00     0.029 A 
ATOM     57  N   UNL A   1      45.518  28.986  29.618  1.00  0.00    -0.354 N 
ATOM     58  N   UNL A   1      44.786  26.345  28.608  1.00  0.00    -0.248 NA
ATOM     59  C   UNL A   1      45.390  24.242  27.789  1.00  0.00     0.031 C 
ATOM     60  C   UNL A   1      47.657  29.383  30.080  1.00  0.00     0.029 A 
ATOM     61  C   UNL A   1      46.788  28.430  29.573  1.00  0.00     0.049 A 
ATOM     62  H   UNL A   1      44.693  28.535  29.325  1.00  0.00     0.167 HD
ATOM     63  C   UNL A   1      46.167  26.215  28.658  1.00  0.00     0.074 A 
ATOM     64  C   UNL A   1      46.484  24.891  28.165  1.00  0.00     0.031 C 
ATOM     65  C   UNL A   1      47.091  27.116  29.072  1.00  0.00     0.037 A 
BRANCH  52  66
ATOM     66  C   UNL A   1      44.715  32.545  30.782  1.00  0.00     0.057 A 
ATOM     67  C   UNL A   1      44.706  32.845  32.149  1.00  0.00     0.134 A 
ATOM     68  C   UNL A   1      45.040  33.577  29.894  1.00  0.00     0.134 A 
ATOM     69  F   UNL A   1      44.395  31.901  33.051  1.00  0.00    -0.206 F 
ATOM     70  C   UNL A   1      44.997  34.128  32.616  1.00  0.00     0.040 A 
ATOM     71  C   UNL A   1      45.352  34.859  30.348  1.00  0.00     0.040 A 
ATOM     72  F   UNL A   1      45.075  33.352  28.572  1.00  0.00    -0.206 F 
ATOM     73  C   UNL A   1      45.328  35.138  31.714  1.00  0.00     0.006 A 
ENDBRANCH  52  66
BRANCH  53  74
ATOM     74  C   UNL A   1      42.624  23.452  27.304  1.00  0.00     0.057 A 
ATOM     75  C   UNL A   1      42.645  23.217  25.925  1.00  0.00     0.134 A 
ATOM     76  C   UNL A   1      42.300  22.377  28.139  1.00  0.00     0.134 A 
ATOM     77  F   UNL A   1      42.928  24.215  25.075  1.00  0.00    -0.206 F 
ATOM     78  C   UNL A   1      42.338  21.964  25.393  1.00  0.00     0.040 A 
ATOM     79  C   UNL A   1      42.011  21.112  27.623  1.00  0.00     0.040 A 
ATOM     80  F   UNL A   1      42.268  22.539  29.470  1.00  0.00    -0.206 F 
ATOM     81  C   UNL A   1      42.024  20.905  26.244  1.00  0.00     0.006 A 
ENDBRANCH  53  74
BRANCH  65  82
ATOM     82  C   UNL A   1      48.528  26.693  29.016  1.00  0.00     0.057 A 
ATOM     83  C   UNL A   1      49.123  25.986  30.068  1.00  0.00     0.134 A 
ATOM     84  C   UNL A   1      49.315  26.968  27.892  1.00  0.00     0.134 A 
ATOM     85  F   UNL A   1      48.426  25.707  31.181  1.00  0.00    -0.206 F 
ATOM     86  C   UNL A   1      50.457  25.580  30.010  1.00  0.00     0.040 A 
ATOM     87  C   UNL A   1      50.644  26.550  27.812  1.00  0.00     0.040 A 
ATOM     88  F   UNL A   1      48.802  27.640  26.850  1.00  0.00    -0.206 F 
ATOM     89  C   UNL A   1      51.219  25.857  28.875  1.00  0.00     0.006 A 
ENDBRANCH  65  82
ENDBRANCH  39  40
ENDBRANCH  31  34
ENDBRANCH  29  30
ENDBRANCH  28  29
ENDBRANCH   1  28
TORSDOF 15
ENDMDL
MODEL 2
REMARK VINA RESULT:     -12.0      3.687      7.055
REMARK SMILES N#C/C(=C/c1cccc(OCC(=O)NCCCNC(=O)c2ccc(-c3c4nc(c(-c5c(F)cccc5F)c5ccc([nH]5)c(-c5c(F)cccc5F)c5nc(c(-c6c(F)cccc6F)c6ccc3[nH]6)C=C5)C=C4)cc2)c1)c1nc2ccccc2[nH]1
REMARK SMILES IDX 15 1 14 2 12 3 13 4 11 6 10 7 9 8 5 9 6 10 75 11 7 12 8 13
REMARK SMILES IDX 4 14 3 15 2 16 1 17 76 18 77 19 84 20 78 21 83 22 79 24
REMARK SMILES IDX 82 25 80 26 81 27 16 28 17 29 18 30 19 31 20 33 21 34 22 35
REMARK SMILES IDX 74 36 23 37 73 38 24 39 25 40 26 41 67 42 27 43 72 44 66 45
REMARK SMILES IDX 68 46 28 47 71 48 65 49 64 50 29 52 55 53 38 54 54 55 39 56
REMARK SMILES IDX 42 57 53 58 69 59 40 60 41 61 52 63 70 64 43 65 30 66 31 67
REMARK SMILES IDX 36 68 32 69 33 70 35 71 37 72 34 73 56 74 57 75 62 76 58 77
REMARK SMILES IDX 59 78 61 79 63 80 60 81 44 82 45 83 50 84 46 85 47 86 49 87
REMARK SMILES IDX 51 88 48 89
REMARK H PARENT 14 5 84 23 18 32 68 51 42 62
REMARK Flexibility Score: inf
ROOT
ATOM      1  C   UNL A   1      31.300  29.812  25.041  1.00  0.00     0.117 C 
ENDROOT
BRANCH   1   2
ATOM      2  N   UNL A   1      30.709  29.705  23.722  1.00  0.00    -0.353 N 
ATOM      3  C   UNL A   1      30.674  28.601  22.911  1.00  0.00     0.257 C 
ATOM      4  O   UNL A   1      29.891  28.567  21.958  1.00  0.00    -0.271 OA
ATOM      5  H   UNL A   1      30.285  30.520  23.367  1.00  0.00     0.163 HD
BRANCH   3   6
ATOM      6  C   UNL A   1      31.583  27.407  23.215  1.00  0.00     0.329 C 
BRANCH   6   7
ATOM      7  O   UNL A   1      30.930  26.157  23.373  1.00  0.00    -0.484 OA
BRANCH   7   8
ATOM      8  C   UNL A   1      31.625  25.023  23.045  1.00  0.00     0.120 A 
ATOM      9  C   UNL A   1      32.247  22.673  23.188  1.00  0.00    -0.021 A 
ATOM     10  C   UNL A   1      33.120  22.842  22.109  1.00  0.00     0.008 A 
ATOM     11  C   UNL A   1      31.523  23.777  23.670  1.00  0.00     0.054 A 
ATOM     12  C   UNL A   1      33.247  24.090  21.501  1.00  0.00     0.004 A 
ATOM     13  C   UNL A   1      32.499  25.172  21.966  1.00  0.00     0.046 A 
BRANCH   9  14
ATOM     14  C   UNL A   1      32.102  21.341  23.802  1.00  0.00     0.031 C 
ATOM     15  C   UNL A   1      33.002  20.739  24.603  1.00  0.00     0.095 C 
BRANCH  15  16
ATOM     16  C   UNL A   1      32.707  19.362  25.175  1.00  0.00     0.103 C 
ATOM     17  N   UNL A   1      32.462  18.220  25.650  1.00  0.00    -0.192 NA
ENDBRANCH  15  16
BRANCH  15  18
ATOM     18  C   UNL A   1      34.210  21.378  25.008  1.00  0.00     0.149 A 
ATOM     19  N   UNL A   1      34.424  22.587  25.496  1.00  0.00    -0.228 NA
ATOM     20  N   UNL A   1      35.398  20.688  24.894  1.00  0.00    -0.337 N 
ATOM     21  C   UNL A   1      35.782  22.688  25.664  1.00  0.00     0.089 A 
ATOM     22  C   UNL A   1      36.420  21.515  25.288  1.00  0.00     0.066 A 
ATOM     23  H   UNL A   1      35.496  19.759  24.582  1.00  0.00     0.168 HD
ATOM     24  C   UNL A   1      36.553  23.764  26.122  1.00  0.00     0.030 A 
ATOM     25  C   UNL A   1      37.807  21.350  25.313  1.00  0.00     0.028 A 
ATOM     26  C   UNL A   1      37.949  23.638  26.142  1.00  0.00     0.002 A 
ATOM     27  C   UNL A   1      38.563  22.449  25.739  1.00  0.00     0.002 A 
ENDBRANCH  15  18
ENDBRANCH   9  14
ENDBRANCH   7   8
ENDBRANCH   6   7
ENDBRANCH   3   6
ENDBRANCH   1   2
BRANCH   1  28
ATOM     28  C   UNL A   1      31.143  31.172  25.715  1.00  0.00     0.042 C 
BRANCH  28  29
ATOM     29  C   UNL A   1      32.058  31.475  26.901  1.00  0.00     0.118 C 
BRANCH  29  30
ATOM     30  N   UNL A   1      32.153  32.877  27.280  1.00  0.00    -0.352 N 
ATOM     31  C   UNL A   1      33.213  33.558  27.835  1.00  0.00     0.251 C 
ATOM     32  H   UNL A   1      31.346  33.415  27.115  1.00  0.00     0.163 HD
ATOM     33  O   UNL A   1      33.112  34.755  28.086  1.00  0.00    -0.269 OA
BRANCH  31  34
ATOM     34  C   UNL A   1      34.459  32.839  28.177  1.00  0.00     0.039 A 
ATOM     35  C   UNL A   1      35.663  33.548  28.148  1.00  0.00     0.014 A 
ATOM     36  C   UNL A   1      34.440  31.494  28.554  1.00  0.00     0.014 A 
ATOM     37  C   UNL A   1      36.835  32.941  28.607  1.00  0.00     0.010 A 
ATOM     38  C   UNL A   1      35.605  30.898  29.043  1.00  0.00     0.010 A 
ATOM     39  C   UNL A   1      36.800  31.632  29.113  1.00  0.00    -0.014 A 
BRANCH  39  40
ATOM     40  C   UNL A   1      37.964  31.070  29.845  1.00  0.00     0.031 A 
ATOM     41  C   UNL A   1      38.861  30.044  29.222  1.00  0.00     0.074 A 
ATOM     42  C   UNL A   1      38.155  31.443  31.126  1.00  0.00     0.049 A 
ATOM     43  N   UNL A   1      39.867  29.399  29.756  1.00  0.00    -0.248 NA
ATOM     44  C   UNL A   1      38.589  29.687  27.823  1.00  0.00     0.031 C 
ATOM     45  C   UNL A   1      37.330  32.408  31.857  1.00  0.00     0.029 A 
ATOM     46  N   UNL A   1      39.091  31.042  32.048  1.00  0.00    -0.354 N 
ATOM     47  C   UNL A   1      40.352  28.561  28.762  1.00  0.00     0.074 A 
ATOM     48  C   UNL A   1      39.508  28.756  27.600  1.00  0.00     0.031 C 
ATOM     49  C   UNL A   1      37.798  32.528  33.109  1.00  0.00     0.029 A 
ATOM     50  C   UNL A   1      38.929  31.624  33.282  1.00  0.00     0.049 A 
ATOM     51  H   UNL A   1      39.809  30.401  31.843  1.00  0.00     0.167 HD
ATOM     52  C   UNL A   1      41.412  27.718  28.811  1.00  0.00     0.037 A 
ATOM     53  C   UNL A   1      39.601  31.435  34.432  1.00  0.00     0.037 A 
ATOM     54  C   UNL A   1      42.252  27.525  29.966  1.00  0.00     0.049 A 
ATOM     55  C   UNL A   1      40.739  30.455  34.471  1.00  0.00     0.074 A 
ATOM     56  C   UNL A   1      43.384  26.737  30.086  1.00  0.00     0.029 A 
ATOM     57  N   UNL A   1      42.046  28.118  31.202  1.00  0.00    -0.354 N 
ATOM     58  N   UNL A   1      41.225  29.718  33.504  1.00  0.00    -0.248 NA
ATOM     59  C   UNL A   1      41.414  30.275  35.764  1.00  0.00     0.031 C 
ATOM     60  C   UNL A   1      43.838  26.818  31.407  1.00  0.00     0.029 A 
ATOM     61  C   UNL A   1      43.010  27.686  32.100  1.00  0.00     0.049 A 
ATOM     62  H   UNL A   1      41.321  28.750  31.412  1.00  0.00     0.167 HD
ATOM     63  C   UNL A   1      42.271  28.999  34.065  1.00  0.00     0.074 A 
ATOM     64  C   UNL A   1      42.360  29.399  35.454  1.00  0.00     0.031 C 
ATOM     65  C   UNL A   1      43.082  28.085  33.481  1.00  0.00     0.037 A 
BRANCH  52  66
ATOM     66  C   UNL A   1      41.732  26.935  27.573  1.00  0.00     0.057 A 
ATOM     67  C   UNL A   1      42.589  27.440  26.589  1.00  0.00     0.134 A 
ATOM     68  C   UNL A   1      41.232  25.640  27.395  1.00  0.00     0.134 A 
ATOM     69  F   UNL A   1      43.097  28.677  26.699  1.00  0.00    -0.206 F 
ATOM     70  C   UNL A   1      42.926  26.690  25.461  1.00  0.00     0.040 A 
ATOM     71  C   UNL A   1      41.576  24.872  26.282  1.00  0.00     0.040 A 
ATOM     72  F   UNL A   1      40.413  25.094  28.307  1.00  0.00    -0.206 F 
ATOM     73  C   UNL A   1      42.424  25.399  25.309  1.00  0.00     0.006 A 
ENDBRANCH  52  66
BRANCH  53  74
ATOM     74  C   UNL A   1      39.213  32.187  35.650  1.00  0.00     0.057 A 
ATOM     75  C   UNL A   1      39.728  33.463  35.902  1.00  0.00     0.134 A 
ATOM     76  C   UNL A   1      38.333  31.646  36.593  1.00  0.00     0.134 A 
ATOM     77  F   UNL A   1      40.592  34.024  35.044  1.00  0.00    -0.206 F 
ATOM     78  C   UNL A   1      39.394  34.169  37.059  1.00  0.00     0.040 A 
ATOM     79  C   UNL A   1      37.973  32.348  37.744  1.00  0.00     0.040 A 
ATOM     80  F   UNL A   1      37.803  30.427  36.405  1.00  0.00    -0.206 F 
ATOM     81  C   UNL A   1      38.510  33.613  37.982  1.00  0.00     0.006 A 
ENDBRANCH  53  74
BRANCH  65  82
ATOM     82  C   UNL A   1      44.140  27.464  34.343  1.00  0.00     0.057 A 
ATOM     83  C   UNL A   1      45.388  28.073  34.522  1.00  0.00     0.134 A 
ATOM     84  C   UNL A   1      43.901  26.264  35.022  1.00  0.00     0.134 A 
ATOM     85  F   UNL A   1      45.685  29.216  33.883  1.00  0.00    -0.206 F 
ATOM     86  C   UNL A   1      46.368  27.503  35.336  1.00  0.00     0.040 A 
ATOM     87  C   UNL A   1      44.864  25.693  35.855  1.00  0.00     0.040 A 
ATOM     88  F   UNL A   1      42.725  25.632  34.894  1.00  0.00    -0.206 F 
ATOM     89  C   UNL A   1      46.103  26.311  36.010  1.00  0.00     0.006 A 
ENDBRANCH  65  82
ENDBRANCH  39  40
ENDBRANCH  31  34
ENDBRANCH  29  30
ENDBRANCH  28  29
ENDBRANCH   1  28
TORSDOF 15
ENDMDL
MODEL 3
REMARK VINA RESULT:     -11.9      3.194      8.518
REMARK SMILES N#C/C(=C/c1cccc(OCC(=O)NCCCNC(=O)c2ccc(-c3c4nc(c(-c5c(F)cccc5F)c5ccc([nH]5)c(-c5c(F)cccc5F)c5nc(c(-c6c(F)cccc6F)c6ccc3[nH]6)C=C5)C=C4)cc2)c1)c1nc2ccccc2[nH]1
REMARK SMILES IDX 15 1 14 2 12 3 13 4 11 6 10 7 9 8 5 9 6 10 75 11 7 12 8 13
REMARK SMILES IDX 4 14 3 15 2 16 1 17 76 18 77 19 84 20 78 21 83 22 79 24
REMARK SMILES IDX 82 25 80 26 81 27 16 28 17 29 18 30 19 31 20 33 21 34 22 35
REMARK SMILES IDX 74 36 23 37 73 38 24 39 25 40 26 41 67 42 27 43 72 44 66 45
REMARK SMILES IDX 68 46 28 47 71 48 65 49 64 50 29 52 55 53 38 54 54 55 39 56
REMARK SMILES IDX 42 57 53 58 69 59 40 60 41 61 52 63 70 64 43 65 30 66 31 67
REMARK SMILES IDX 36 68 32 69 33 70 35 71 37 72 34 73 56 74 57 75 62 76 58 77
REMARK SMILES IDX 59 78 61 79 63 80 60 81 44 82 45 83 50 84 46 85 47 86 49 87
REMARK SMILES IDX 51 88 48 89
REMARK H PARENT 14 5 84 23 18 32 68 51 42 62
REMARK Flexibility Score: inf
ROOT
ATOM      1  C   UNL A   1      35.307  21.538  25.900  1.00  0.00     0.117 C 
ENDROOT
BRANCH   1   2
ATOM      2  N   UNL A   1      34.653  20.357  25.373  1.00  0.00    -0.353 N 
ATOM      3  C   UNL A   1      33.368  20.251  24.910  1.00  0.00     0.257 C 
ATOM      4  O   UNL A   1      33.042  19.279  24.225  1.00  0.00    -0.271 OA
ATOM      5  H   UNL A   1      35.194  19.535  25.344  1.00  0.00     0.163 HD
BRANCH   3   6
ATOM      6  C   UNL A   1      32.356  21.359  25.221  1.00  0.00     0.329 C 
BRANCH   6   7
ATOM      7  O   UNL A   1      32.338  22.451  24.315  1.00  0.00    -0.484 OA
BRANCH   7   8
ATOM      8  C   UNL A   1      31.574  23.542  24.640  1.00  0.00     0.120 A 
ATOM      9  C   UNL A   1      30.379  25.624  24.232  1.00  0.00    -0.021 A 
ATOM     10  C   UNL A   1      29.924  25.617  25.554  1.00  0.00     0.008 A 
ATOM     11  C   UNL A   1      31.229  24.596  23.790  1.00  0.00     0.054 A 
ATOM     12  C   UNL A   1      30.290  24.583  26.415  1.00  0.00     0.004 A 
ATOM     13  C   UNL A   1      31.107  23.549  25.955  1.00  0.00     0.046 A 
BRANCH   9  14
ATOM     14  C   UNL A   1      29.961  26.708  23.327  1.00  0.00     0.031 C 
ATOM     15  C   UNL A   1      30.398  27.982  23.366  1.00  0.00     0.095 C 
BRANCH  15  16
ATOM     16  C   UNL A   1      29.883  28.992  22.353  1.00  0.00     0.103 C 
ATOM     17  N   UNL A   1      29.456  29.829  21.513  1.00  0.00    -0.192 NA
ENDBRANCH  15  16
BRANCH  15  18
ATOM     18  C   UNL A   1      31.396  28.417  24.285  1.00  0.00     0.149 A 
ATOM     19  N   UNL A   1      32.561  27.885  24.608  1.00  0.00    -0.228 NA
ATOM     20  N   UNL A   1      31.181  29.575  25.002  1.00  0.00    -0.337 N 
ATOM     21  C   UNL A   1      33.088  28.698  25.579  1.00  0.00     0.089 A 
ATOM     22  C   UNL A   1      32.242  29.762  25.853  1.00  0.00     0.066 A 
ATOM     23  H   UNL A   1      30.399  30.167  24.918  1.00  0.00     0.168 HD
ATOM     24  C   UNL A   1      34.289  28.583  26.293  1.00  0.00     0.030 A 
ATOM     25  C   UNL A   1      32.505  30.725  26.830  1.00  0.00     0.028 A 
ATOM     26  C   UNL A   1      34.573  29.522  27.294  1.00  0.00     0.002 A 
ATOM     27  C   UNL A   1      33.692  30.573  27.558  1.00  0.00     0.002 A 
ENDBRANCH  15  18
ENDBRANCH   9  14
ENDBRANCH   7   8
ENDBRANCH   6   7
ENDBRANCH   3   6
ENDBRANCH   1   2
BRANCH   1  28
ATOM     28  C   UNL A   1      36.383  22.140  25.003  1.00  0.00     0.042 C 
BRANCH  28  29
ATOM     29  C   UNL A   1      37.456  22.997  25.675  1.00  0.00     0.118 C 
BRANCH  29  30
ATOM     30  N   UNL A   1      38.792  22.421  25.710  1.00  0.00    -0.352 N 
ATOM     31  C   UNL A   1      39.952  22.945  26.232  1.00  0.00     0.251 C 
ATOM     32  H   UNL A   1      38.878  21.529  25.302  1.00  0.00     0.163 HD
ATOM     33  O   UNL A   1      40.998  22.305  26.174  1.00  0.00    -0.269 OA
BRANCH  31  34
ATOM     34  C   UNL A   1      39.954  24.301  26.822  1.00  0.00     0.039 A 
ATOM     35  C   UNL A   1      39.368  24.479  28.079  1.00  0.00     0.014 A 
ATOM     36  C   UNL A   1      40.552  25.378  26.163  1.00  0.00     0.014 A 
ATOM     37  C   UNL A   1      39.483  25.711  28.728  1.00  0.00     0.010 A 
ATOM     38  C   UNL A   1      40.695  26.599  26.826  1.00  0.00     0.010 A 
ATOM     39  C   UNL A   1      40.199  26.760  28.129  1.00  0.00    -0.014 A 
BRANCH  39  40
ATOM     40  C   UNL A   1      40.559  27.973  28.906  1.00  0.00     0.031 A 
ATOM     41  C   UNL A   1      41.866  28.081  29.631  1.00  0.00     0.074 A 
ATOM     42  C   UNL A   1      39.644  28.957  29.017  1.00  0.00     0.049 A 
ATOM     43  N   UNL A   1      42.295  29.037  30.415  1.00  0.00    -0.248 NA
ATOM     44  C   UNL A   1      42.811  26.967  29.464  1.00  0.00     0.031 C 
ATOM     45  C   UNL A   1      38.322  28.957  28.386  1.00  0.00     0.029 A 
ATOM     46  N   UNL A   1      39.679  30.140  29.713  1.00  0.00    -0.354 N 
ATOM     47  C   UNL A   1      43.558  28.646  30.835  1.00  0.00     0.074 A 
ATOM     48  C   UNL A   1      43.814  27.348  30.244  1.00  0.00     0.031 C 
ATOM     49  C   UNL A   1      37.674  30.083  28.720  1.00  0.00     0.029 A 
ATOM     50  C   UNL A   1      38.517  30.868  29.615  1.00  0.00     0.049 A 
ATOM     51  H   UNL A   1      40.460  30.439  30.231  1.00  0.00     0.167 HD
ATOM     52  C   UNL A   1      44.428  29.316  31.629  1.00  0.00     0.037 A 
ATOM     53  C   UNL A   1      38.160  32.027  30.198  1.00  0.00     0.037 A 
ATOM     54  C   UNL A   1      44.174  30.607  32.216  1.00  0.00     0.049 A 
ATOM     55  C   UNL A   1      39.125  32.721  31.116  1.00  0.00     0.074 A 
ATOM     56  C   UNL A   1      45.022  31.386  32.985  1.00  0.00     0.029 A 
ATOM     57  N   UNL A   1      42.980  31.304  32.110  1.00  0.00    -0.354 N 
ATOM     58  N   UNL A   1      40.341  32.369  31.451  1.00  0.00    -0.248 NA
ATOM     59  C   UNL A   1      38.664  33.968  31.742  1.00  0.00     0.031 C 
ATOM     60  C   UNL A   1      44.327  32.535  33.379  1.00  0.00     0.029 A 
ATOM     61  C   UNL A   1      43.058  32.489  32.826  1.00  0.00     0.049 A 
ATOM     62  H   UNL A   1      42.193  31.001  31.602  1.00  0.00     0.167 HD
ATOM     63  C   UNL A   1      40.796  33.356  32.314  1.00  0.00     0.074 A 
ATOM     64  C   UNL A   1      39.732  34.330  32.439  1.00  0.00     0.031 C 
ATOM     65  C   UNL A   1      41.990  33.444  32.950  1.00  0.00     0.037 A 
BRANCH  52  66
ATOM     66  C   UNL A   1      45.749  28.666  31.913  1.00  0.00     0.057 A 
ATOM     67  C   UNL A   1      46.856  28.865  31.080  1.00  0.00     0.134 A 
ATOM     68  C   UNL A   1      45.933  27.887  33.061  1.00  0.00     0.134 A 
ATOM     69  F   UNL A   1      46.743  29.597  29.961  1.00  0.00    -0.206 F 
ATOM     70  C   UNL A   1      48.099  28.300  31.371  1.00  0.00     0.040 A 
ATOM     71  C   UNL A   1      47.175  27.332  33.374  1.00  0.00     0.040 A 
ATOM     72  F   UNL A   1      44.914  27.665  33.905  1.00  0.00    -0.206 F 
ATOM     73  C   UNL A   1      48.262  27.536  32.525  1.00  0.00     0.006 A 
ENDBRANCH  52  66
BRANCH  53  74
ATOM     74  C   UNL A   1      36.820  32.606  29.938  1.00  0.00     0.057 A 
ATOM     75  C   UNL A   1      35.729  32.294  30.757  1.00  0.00     0.134 A 
ATOM     76  C   UNL A   1      36.594  33.469  28.860  1.00  0.00     0.134 A 
ATOM     77  F   UNL A   1      35.881  31.455  31.792  1.00  0.00    -0.206 F 
ATOM     78  C   UNL A   1      34.457  32.809  30.505  1.00  0.00     0.040 A 
ATOM     79  C   UNL A   1      35.332  34.009  28.608  1.00  0.00     0.040 A 
ATOM     80  F   UNL A   1      37.602  33.809  28.041  1.00  0.00    -0.206 F 
ATOM     81  C   UNL A   1      34.257  33.673  29.430  1.00  0.00     0.006 A 
ENDBRANCH  53  74
BRANCH  65  82
ATOM     82  C   UNL A   1      42.207  34.639  33.829  1.00  0.00     0.057 A 
ATOM     83  C   UNL A   1      41.904  34.606  35.196  1.00  0.00     0.134 A 
ATOM     84  C   UNL A   1      42.751  35.821  33.314  1.00  0.00     0.134 A 
ATOM     85  F   UNL A   1      41.363  33.508  35.746  1.00  0.00    -0.206 F 
ATOM     86  C   UNL A   1      42.120  35.713  36.017  1.00  0.00     0.040 A 
ATOM     87  C   UNL A   1      42.992  36.929  34.128  1.00  0.00     0.040 A 
ATOM     88  F   UNL A   1      43.066  35.915  32.013  1.00  0.00    -0.206 F 
ATOM     89  C   UNL A   1      42.672  36.877  35.483  1.00  0.00     0.006 A 
ENDBRANCH  65  82
ENDBRANCH  39  40
ENDBRANCH  31  34
ENDBRANCH  29  30
ENDBRANCH  28  29
ENDBRANCH   1  28
TORSDOF 15
ENDMDL
