MODEL 1
REMARK VINA RESULT:     -12.3      0.000      0.000
REMARK SMILES CC[C@@H](NC(=O)c1ccc(CNC(=O)[C@H]2CCCO2)cc1)C(=O)NCCCNC(=O)c1ccc(-c2c3nc(c(-c4c(F)cccc4F)c4ccc([nH]4)c(-c4c(F)cccc4F)c4nc(c(-c5c(F)cccc5F)c5ccc2[nH]5)C=C4)C=C3)cc1
REMARK SMILES IDX 22 1 23 2 24 3 3 5 2 6 1 7 4 8 5 9 6 11 7 12 8 13 21 14 9 15
REMARK SMILES IDX 20 16 10 17 11 18 12 19 13 20 14 22 15 23 16 24 19 25 17 26
REMARK SMILES IDX 18 27 25 28 26 29 27 30 28 31 29 32 30 34 31 35 32 36 84 37
REMARK SMILES IDX 33 38 83 39 34 40 35 41 36 42 77 43 37 44 82 45 76 46 78 47
REMARK SMILES IDX 38 48 81 49 75 50 74 51 39 53 65 54 48 55 64 56 49 57 52 58
REMARK SMILES IDX 63 59 79 60 50 61 51 62 62 64 80 65 53 66 40 67 41 68 46 69
REMARK SMILES IDX 42 70 43 71 45 72 47 73 44 74 66 75 67 76 72 77 68 78 69 79
REMARK SMILES IDX 71 80 73 81 70 82 54 83 55 84 60 85 56 86 57 87 59 88 61 89
REMARK SMILES IDX 58 90
REMARK H PARENT 24 4 4 10 12 21 28 33 78 52 52 63
REMARK Flexibility Score: inf
ROOT
ATOM      1  C   UNL A   1      33.228  29.039  23.457  1.00  0.00     0.242 C 
ATOM      2  O   UNL A   1      34.337  29.266  22.959  1.00  0.00    -0.273 OA
ATOM      3  N   UNL A   1      32.968  29.579  24.677  1.00  0.00    -0.354 N 
ATOM      4  H   UNL A   1      33.667  30.177  25.027  1.00  0.00     0.163 HD
ENDROOT
BRANCH   1   5
ATOM      5  C   UNL A   1      32.256  28.045  22.793  1.00  0.00     0.171 C 
BRANCH   5   6
ATOM      6  C   UNL A   1      30.998  28.879  22.453  1.00  0.00     0.032 C 
ATOM      7  C   UNL A   1      29.668  28.212  22.756  1.00  0.00     0.006 C 
ENDBRANCH   5   6
BRANCH   5   8
ATOM      8  N   UNL A   1      32.776  27.302  21.633  1.00  0.00    -0.340 N 
ATOM      9  C   UNL A   1      32.725  25.953  21.344  1.00  0.00     0.251 C 
ATOM     10  H   UNL A   1      33.230  27.855  20.957  1.00  0.00     0.164 HD
ATOM     11  O   UNL A   1      32.909  25.575  20.191  1.00  0.00    -0.269 OA
BRANCH   9  12
ATOM     12  C   UNL A   1      32.658  24.954  22.433  1.00  0.00     0.039 A 
ATOM     13  C   UNL A   1      31.387  24.483  22.789  1.00  0.00     0.014 A 
ATOM     14  C   UNL A   1      33.793  24.394  23.013  1.00  0.00     0.014 A 
ATOM     15  C   UNL A   1      31.258  23.348  23.593  1.00  0.00     0.006 A 
ATOM     16  C   UNL A   1      33.661  23.259  23.822  1.00  0.00     0.006 A 
ATOM     17  C   UNL A   1      32.398  22.696  24.083  1.00  0.00    -0.029 A 
BRANCH  17  18
ATOM     18  C   UNL A   1      32.290  21.359  24.778  1.00  0.00     0.151 C 
BRANCH  18  19
ATOM     19  N   UNL A   1      33.564  20.685  24.879  1.00  0.00    -0.350 N 
ATOM     20  C   UNL A   1      33.880  19.368  24.701  1.00  0.00     0.249 C 
ATOM     21  H   UNL A   1      34.324  21.266  25.112  1.00  0.00     0.163 HD
ATOM     22  O   UNL A   1      35.070  19.051  24.776  1.00  0.00    -0.272 OA
BRANCH  20  23
ATOM     23  C   UNL A   1      32.770  18.339  24.393  1.00  0.00     0.207 C 
ATOM     24  C   UNL A   1      32.938  17.764  22.996  1.00  0.00     0.044 C 
ATOM     25  O   UNL A   1      32.817  17.217  25.283  1.00  0.00    -0.368 OA
ATOM     26  C   UNL A   1      33.840  16.577  23.238  1.00  0.00     0.032 C 
ATOM     27  C   UNL A   1      33.393  16.096  24.602  1.00  0.00     0.161 C 
ENDBRANCH  20  23
ENDBRANCH  18  19
ENDBRANCH  17  18
ENDBRANCH   9  12
ENDBRANCH   5   8
ENDBRANCH   1   5
BRANCH   3  28
ATOM     28  C   UNL A   1      31.814  29.406  25.542  1.00  0.00     0.117 C 
BRANCH  28  29
ATOM     29  C   UNL A   1      32.216  28.864  26.901  1.00  0.00     0.042 C 
BRANCH  29  30
ATOM     30  C   UNL A   1      33.659  29.177  27.276  1.00  0.00     0.118 C 
BRANCH  30  31
ATOM     31  N   UNL A   1      33.810  30.459  27.954  1.00  0.00    -0.352 N 
ATOM     32  C   UNL A   1      34.891  30.930  28.665  1.00  0.00     0.251 C 
ATOM     33  H   UNL A   1      33.040  31.068  27.896  1.00  0.00     0.163 HD
ATOM     34  O   UNL A   1      34.807  31.960  29.325  1.00  0.00    -0.269 OA
BRANCH  32  35
ATOM     35  C   UNL A   1      36.135  30.136  28.669  1.00  0.00     0.039 A 
ATOM     36  C   UNL A   1      36.983  30.203  27.563  1.00  0.00     0.014 A 
ATOM     37  C   UNL A   1      36.512  29.433  29.817  1.00  0.00     0.014 A 
ATOM     38  C   UNL A   1      38.268  29.664  27.653  1.00  0.00     0.010 A 
ATOM     39  C   UNL A   1      37.818  28.970  29.932  1.00  0.00     0.010 A 
ATOM     40  C   UNL A   1      38.716  29.106  28.860  1.00  0.00    -0.014 A 
BRANCH  40  41
ATOM     41  C   UNL A   1      40.133  28.709  29.057  1.00  0.00     0.031 A 
ATOM     42  C   UNL A   1      41.135  29.717  29.541  1.00  0.00     0.074 A 
ATOM     43  C   UNL A   1      40.537  27.478  28.681  1.00  0.00     0.049 A 
ATOM     44  N   UNL A   1      42.435  29.609  29.629  1.00  0.00    -0.248 NA
ATOM     45  C   UNL A   1      40.610  31.031  29.946  1.00  0.00     0.031 C 
ATOM     46  C   UNL A   1      39.673  26.429  28.134  1.00  0.00     0.029 A 
ATOM     47  N   UNL A   1      41.787  26.909  28.676  1.00  0.00    -0.354 N 
ATOM     48  C   UNL A   1      42.886  30.848  30.067  1.00  0.00     0.074 A 
ATOM     49  C   UNL A   1      41.726  31.702  30.196  1.00  0.00     0.031 C 
ATOM     50  C   UNL A   1      40.415  25.345  27.854  1.00  0.00     0.029 A 
ATOM     51  C   UNL A   1      41.811  25.634  28.163  1.00  0.00     0.049 A 
ATOM     52  H   UNL A   1      42.591  27.372  29.009  1.00  0.00     0.167 HD
ATOM     53  C   UNL A   1      44.152  31.231  30.350  1.00  0.00     0.037 A 
ATOM     54  C   UNL A   1      42.845  24.799  27.945  1.00  0.00     0.037 A 
ATOM     55  C   UNL A   1      45.295  30.361  30.283  1.00  0.00     0.049 A 
ATOM     56  C   UNL A   1      44.238  25.247  28.288  1.00  0.00     0.074 A 
ATOM     57  C   UNL A   1      46.596  30.620  30.680  1.00  0.00     0.029 A 
ATOM     58  N   UNL A   1      45.275  29.068  29.788  1.00  0.00    -0.354 N 
ATOM     59  N   UNL A   1      44.636  26.390  28.790  1.00  0.00    -0.248 NA
ATOM     60  C   UNL A   1      45.326  24.293  28.028  1.00  0.00     0.031 C 
ATOM     61  C   UNL A   1      47.372  29.493  30.388  1.00  0.00     0.029 A 
ATOM     62  C   UNL A   1      46.548  28.526  29.836  1.00  0.00     0.049 A 
ATOM     63  H   UNL A   1      44.475  28.603  29.451  1.00  0.00     0.167 HD
ATOM     64  C   UNL A   1      46.015  26.288  28.918  1.00  0.00     0.074 A 
ATOM     65  C   UNL A   1      46.384  24.966  28.457  1.00  0.00     0.031 C 
ATOM     66  C   UNL A   1      46.896  27.210  29.373  1.00  0.00     0.037 A 
BRANCH  53  67
ATOM     67  C   UNL A   1      44.374  32.649  30.777  1.00  0.00     0.057 A 
ATOM     68  C   UNL A   1      44.558  33.678  29.846  1.00  0.00     0.134 A 
ATOM     69  C   UNL A   1      44.338  32.997  32.132  1.00  0.00     0.134 A 
ATOM     70  F   UNL A   1      44.613  33.405  28.533  1.00  0.00    -0.206 F 
ATOM     71  C   UNL A   1      44.710  35.005  30.250  1.00  0.00     0.040 A 
ATOM     72  C   UNL A   1      44.469  34.323  32.548  1.00  0.00     0.040 A 
ATOM     73  F   UNL A   1      44.162  32.057  33.073  1.00  0.00    -0.206 F 
ATOM     74  C   UNL A   1      44.655  35.331  31.604  1.00  0.00     0.006 A 
ENDBRANCH  53  67
BRANCH  54  75
ATOM     75  C   UNL A   1      42.613  23.454  27.363  1.00  0.00     0.057 A 
ATOM     76  C   UNL A   1      42.703  23.240  25.983  1.00  0.00     0.134 A 
ATOM     77  C   UNL A   1      42.269  22.360  28.165  1.00  0.00     0.134 A 
ATOM     78  F   UNL A   1      43.007  24.256  25.162  1.00  0.00    -0.206 F 
ATOM     79  C   UNL A   1      42.438  21.992  25.417  1.00  0.00     0.040 A 
ATOM     80  C   UNL A   1      42.022  21.101  27.616  1.00  0.00     0.040 A 
ATOM     81  F   UNL A   1      42.171  22.499  29.496  1.00  0.00    -0.206 F 
ATOM     82  C   UNL A   1      42.099  20.916  26.236  1.00  0.00     0.006 A 
ENDBRANCH  54  75
BRANCH  66  83
ATOM     83  C   UNL A   1      48.342  26.819  29.401  1.00  0.00     0.057 A 
ATOM     84  C   UNL A   1      48.879  26.089  30.466  1.00  0.00     0.134 A 
ATOM     85  C   UNL A   1      49.189  27.132  28.331  1.00  0.00     0.134 A 
ATOM     86  F   UNL A   1      48.120  25.772  31.527  1.00  0.00    -0.206 F 
ATOM     87  C   UNL A   1      50.216  25.690  30.473  1.00  0.00     0.040 A 
ATOM     88  C   UNL A   1      50.523  26.722  28.317  1.00  0.00     0.040 A 
ATOM     89  F   UNL A   1      48.730  27.825  27.278  1.00  0.00    -0.206 F 
ATOM     90  C   UNL A   1      51.040  26.000  29.391  1.00  0.00     0.006 A 
ENDBRANCH  66  83
ENDBRANCH  40  41
ENDBRANCH  32  35
ENDBRANCH  30  31
ENDBRANCH  29  30
ENDBRANCH  28  29
ENDBRANCH   3  28
TORSDOF 16
ENDMDL
MODEL 2
REMARK VINA RESULT:     -11.9      2.059      7.660
REMARK SMILES CC[C@@H](NC(=O)c1ccc(CNC(=O)[C@H]2CCCO2)cc1)C(=O)NCCCNC(=O)c1ccc(-c2c3nc(c(-c4c(F)cccc4F)c4ccc([nH]4)c(-c4c(F)cccc4F)c4nc(c(-c5c(F)cccc5F)c5ccc2[nH]5)C=C4)C=C3)cc1
REMARK SMILES IDX 22 1 23 2 24 3 3 5 2 6 1 7 4 8 5 9 6 11 7 12 8 13 21 14 9 15
REMARK SMILES IDX 20 16 10 17 11 18 12 19 13 20 14 22 15 23 16 24 19 25 17 26
REMARK SMILES IDX 18 27 25 28 26 29 27 30 28 31 29 32 30 34 31 35 32 36 84 37
REMARK SMILES IDX 33 38 83 39 34 40 35 41 36 42 77 43 37 44 82 45 76 46 78 47
REMARK SMILES IDX 38 48 81 49 75 50 74 51 39 53 65 54 48 55 64 56 49 57 52 58
REMARK SMILES IDX 63 59 79 60 50 61 51 62 62 64 80 65 53 66 40 67 41 68 46 69
REMARK SMILES IDX 42 70 43 71 45 72 47 73 44 74 66 75 67 76 72 77 68 78 69 79
REMARK SMILES IDX 71 80 73 81 70 82 54 83 55 84 60 85 56 86 57 87 59 88 61 89
REMARK SMILES IDX 58 90
REMARK H PARENT 24 4 4 10 12 21 28 33 78 52 52 63
REMARK Flexibility Score: inf
ROOT
ATOM      1  C   UNL A   1      34.288  23.527  25.862  1.00  0.00     0.242 C 
ATOM      2  O   UNL A   1      34.115  24.720  25.588  1.00  0.00    -0.273 OA
ATOM      3  N   UNL A   1      35.508  22.993  25.589  1.00  0.00    -0.354 N 
ATOM      4  H   UNL A   1      36.182  23.633  25.265  1.00  0.00     0.163 HD
ENDROOT
BRANCH   1   5
ATOM      5  C   UNL A   1      33.113  22.649  26.333  1.00  0.00     0.171 C 
BRANCH   5   6
ATOM      6  C   UNL A   1      31.964  23.641  26.634  1.00  0.00     0.032 C 
ATOM      7  C   UNL A   1      30.637  23.010  27.016  1.00  0.00     0.006 C 
ENDBRANCH   5   6
BRANCH   5   8
ATOM      8  N   UNL A   1      32.704  21.566  25.423  1.00  0.00    -0.340 N 
ATOM      9  C   UNL A   1      32.564  21.563  24.050  1.00  0.00     0.251 C 
ATOM     10  H   UNL A   1      32.498  20.710  25.864  1.00  0.00     0.164 HD
ATOM     11  O   UNL A   1      32.544  20.493  23.448  1.00  0.00    -0.269 OA
BRANCH   9  12
ATOM     12  C   UNL A   1      32.236  22.809  23.324  1.00  0.00     0.039 A 
ATOM     13  C   UNL A   1      30.959  23.348  23.528  1.00  0.00     0.014 A 
ATOM     14  C   UNL A   1      33.170  23.506  22.563  1.00  0.00     0.014 A 
ATOM     15  C   UNL A   1      30.672  24.652  23.115  1.00  0.00     0.006 A 
ATOM     16  C   UNL A   1      32.881  24.811  22.148  1.00  0.00     0.006 A 
ATOM     17  C   UNL A   1      31.648  25.415  22.458  1.00  0.00    -0.029 A 
BRANCH  17  18
ATOM     18  C   UNL A   1      31.433  26.886  22.187  1.00  0.00     0.151 C 
BRANCH  18  19
ATOM     19  N   UNL A   1      32.503  27.706  22.706  1.00  0.00    -0.350 N 
ATOM     20  C   UNL A   1      32.586  28.413  23.872  1.00  0.00     0.249 C 
ATOM     21  H   UNL A   1      33.299  27.763  22.129  1.00  0.00     0.163 HD
ATOM     22  O   UNL A   1      33.650  28.984  24.119  1.00  0.00    -0.272 OA
BRANCH  20  23
ATOM     23  C   UNL A   1      31.382  28.457  24.838  1.00  0.00     0.207 C 
ATOM     24  C   UNL A   1      31.378  27.245  25.754  1.00  0.00     0.044 C 
ATOM     25  O   UNL A   1      31.431  29.598  25.704  1.00  0.00    -0.368 OA
ATOM     26  C   UNL A   1      32.211  27.716  26.922  1.00  0.00     0.032 C 
ATOM     27  C   UNL A   1      31.860  29.185  27.007  1.00  0.00     0.161 C 
ENDBRANCH  20  23
ENDBRANCH  18  19
ENDBRANCH  17  18
ENDBRANCH   9  12
ENDBRANCH   5   8
ENDBRANCH   1   5
BRANCH   3  28
ATOM     28  C   UNL A   1      35.968  21.620  25.705  1.00  0.00     0.117 C 
BRANCH  28  29
ATOM     29  C   UNL A   1      37.216  21.383  24.875  1.00  0.00     0.042 C 
BRANCH  29  30
ATOM     30  C   UNL A   1      38.501  21.407  25.692  1.00  0.00     0.118 C 
BRANCH  30  31
ATOM     31  N   UNL A   1      39.240  20.152  25.640  1.00  0.00    -0.352 N 
ATOM     32  C   UNL A   1      40.560  19.920  25.952  1.00  0.00     0.251 C 
ATOM     33  H   UNL A   1      38.727  19.366  25.343  1.00  0.00     0.163 HD
ATOM     34  O   UNL A   1      41.086  18.843  25.695  1.00  0.00    -0.269 OA
BRANCH  32  35
ATOM     35  C   UNL A   1      41.349  21.017  26.547  1.00  0.00     0.039 A 
ATOM     36  C   UNL A   1      41.918  21.973  25.706  1.00  0.00     0.014 A 
ATOM     37  C   UNL A   1      41.410  21.160  27.936  1.00  0.00     0.014 A 
ATOM     38  C   UNL A   1      42.447  23.141  26.257  1.00  0.00     0.010 A 
ATOM     39  C   UNL A   1      41.863  22.358  28.476  1.00  0.00     0.010 A 
ATOM     40  C   UNL A   1      42.360  23.370  27.640  1.00  0.00    -0.014 A 
BRANCH  40  41
ATOM     41  C   UNL A   1      42.725  24.681  28.236  1.00  0.00     0.031 A 
ATOM     42  C   UNL A   1      41.669  25.724  28.461  1.00  0.00     0.074 A 
ATOM     43  C   UNL A   1      44.023  24.971  28.459  1.00  0.00     0.049 A 
ATOM     44  N   UNL A   1      41.808  26.972  28.824  1.00  0.00    -0.248 NA
ATOM     45  C   UNL A   1      40.275  25.321  28.209  1.00  0.00     0.031 C 
ATOM     46  C   UNL A   1      45.151  24.067  28.219  1.00  0.00     0.029 A 
ATOM     47  N   UNL A   1      44.617  26.124  28.911  1.00  0.00    -0.354 N 
ATOM     48  C   UNL A   1      40.528  27.511  28.814  1.00  0.00     0.074 A 
ATOM     49  C   UNL A   1      39.629  26.466  28.377  1.00  0.00     0.031 C 
ATOM     50  C   UNL A   1      46.296  24.695  28.533  1.00  0.00     0.029 A 
ATOM     51  C   UNL A   1      45.990  26.057  28.957  1.00  0.00     0.049 A 
ATOM     52  H   UNL A   1      44.108  26.924  29.177  1.00  0.00     0.167 HD
ATOM     53  C   UNL A   1      40.138  28.762  29.153  1.00  0.00     0.037 A 
ATOM     54  C   UNL A   1      46.900  26.994  29.282  1.00  0.00     0.037 A 
ATOM     55  C   UNL A   1      41.025  29.779  29.648  1.00  0.00     0.049 A 
ATOM     56  C   UNL A   1      46.435  28.368  29.673  1.00  0.00     0.074 A 
ATOM     57  C   UNL A   1      40.704  31.031  30.145  1.00  0.00     0.029 A 
ATOM     58  N   UNL A   1      42.404  29.663  29.708  1.00  0.00    -0.354 N 
ATOM     59  N   UNL A   1      45.212  28.834  29.748  1.00  0.00    -0.248 NA
ATOM     60  C   UNL A   1      47.474  29.349  30.017  1.00  0.00     0.031 C 
ATOM     61  C   UNL A   1      41.895  31.688  30.471  1.00  0.00     0.029 A 
ATOM     62  C   UNL A   1      42.953  30.835  30.202  1.00  0.00     0.049 A 
ATOM     63  H   UNL A   1      42.918  28.867  29.439  1.00  0.00     0.167 HD
ATOM     64  C   UNL A   1      45.334  30.154  30.159  1.00  0.00     0.074 A 
ATOM     65  C   UNL A   1      46.748  30.412  30.334  1.00  0.00     0.031 C 
ATOM     66  C   UNL A   1      44.361  31.072  30.369  1.00  0.00     0.037 A 
BRANCH  53  67
ATOM     67  C   UNL A   1      38.687  29.101  29.019  1.00  0.00     0.057 A 
ATOM     68  C   UNL A   1      37.811  29.036  30.110  1.00  0.00     0.134 A 
ATOM     69  C   UNL A   1      38.173  29.561  27.801  1.00  0.00     0.134 A 
ATOM     70  F   UNL A   1      38.241  28.592  31.301  1.00  0.00    -0.206 F 
ATOM     71  C   UNL A   1      36.471  29.406  29.990  1.00  0.00     0.040 A 
ATOM     72  C   UNL A   1      36.840  29.954  27.673  1.00  0.00     0.040 A 
ATOM     73  F   UNL A   1      38.962  29.650  26.719  1.00  0.00    -0.206 F 
ATOM     74  C   UNL A   1      35.985  29.876  28.771  1.00  0.00     0.006 A 
ENDBRANCH  53  67
BRANCH  54  75
ATOM     75  C   UNL A   1      48.349  26.676  29.245  1.00  0.00     0.057 A 
ATOM     76  C   UNL A   1      49.120  26.953  28.110  1.00  0.00     0.134 A 
ATOM     77  C   UNL A   1      48.991  26.065  30.329  1.00  0.00     0.134 A 
ATOM     78  F   UNL A   1      48.554  27.518  27.034  1.00  0.00    -0.206 F 
ATOM     79  C   UNL A   1      50.472  26.614  28.044  1.00  0.00     0.040 A 
ATOM     80  C   UNL A   1      50.347  25.740  30.284  1.00  0.00     0.040 A 
ATOM     81  F   UNL A   1      48.308  25.778  31.447  1.00  0.00    -0.206 F 
ATOM     82  C   UNL A   1      51.090  26.007  29.135  1.00  0.00     0.006 A 
ENDBRANCH  54  75
BRANCH  66  83
ATOM     83  C   UNL A   1      44.791  32.435  30.817  1.00  0.00     0.057 A 
ATOM     84  C   UNL A   1      44.987  32.730  32.171  1.00  0.00     0.134 A 
ATOM     85  C   UNL A   1      45.060  33.444  29.884  1.00  0.00     0.134 A 
ATOM     86  F   UNL A   1      44.732  31.808  33.112  1.00  0.00    -0.206 F 
ATOM     87  C   UNL A   1      45.427  33.988  32.584  1.00  0.00     0.040 A 
ATOM     88  C   UNL A   1      45.519  34.700  30.284  1.00  0.00     0.040 A 
ATOM     89  F   UNL A   1      44.897  33.220  28.572  1.00  0.00    -0.206 F 
ATOM     90  C   UNL A   1      45.701  34.975  31.639  1.00  0.00     0.006 A 
ENDBRANCH  66  83
ENDBRANCH  40  41
ENDBRANCH  32  35
ENDBRANCH  30  31
ENDBRANCH  29  30
ENDBRANCH  28  29
ENDBRANCH   3  28
TORSDOF 16
ENDMDL
MODEL 3
REMARK VINA RESULT:     -11.8      4.825      8.174
REMARK SMILES CC[C@@H](NC(=O)c1ccc(CNC(=O)[C@H]2CCCO2)cc1)C(=O)NCCCNC(=O)c1ccc(-c2c3nc(c(-c4c(F)cccc4F)c4ccc([nH]4)c(-c4c(F)cccc4F)c4nc(c(-c5c(F)cccc5F)c5ccc2[nH]5)C=C4)C=C3)cc1
REMARK SMILES IDX 22 1 23 2 24 3 3 5 2 6 1 7 4 8 5 9 6 11 7 12 8 13 21 14 9 15
REMARK SMILES IDX 20 16 10 17 11 18 12 19 13 20 14 22 15 23 16 24 19 25 17 26
REMARK SMILES IDX 18 27 25 28 26 29 27 30 28 31 29 32 30 34 31 35 32 36 84 37
REMARK SMILES IDX 33 38 83 39 34 40 35 41 36 42 77 43 37 44 82 45 76 46 78 47
REMARK SMILES IDX 38 48 81 49 75 50 74 51 39 53 65 54 48 55 64 56 49 57 52 58
REMARK SMILES IDX 63 59 79 60 50 61 51 62 62 64 80 65 53 66 40 67 41 68 46 69
REMARK SMILES IDX 42 70 43 71 45 72 47 73 44 74 66 75 67 76 72 77 68 78 69 79
REMARK SMILES IDX 71 80 73 81 70 82 54 83 55 84 60 85 56 86 57 87 59 88 61 89
REMARK SMILES IDX 58 90
REMARK H PARENT 24 4 4 10 12 21 28 33 78 52 52 63
REMARK Flexibility Score: inf
ROOT
ATOM      1  C   UNL A   1      35.799  34.789  32.636  1.00  0.00     0.242 C 
ATOM      2  O   UNL A   1      35.496  35.701  33.412  1.00  0.00    -0.273 OA
ATOM      3  N   UNL A   1      35.049  34.650  31.510  1.00  0.00    -0.354 N 
ATOM      4  H   UNL A   1      34.369  35.348  31.372  1.00  0.00     0.163 HD
ENDROOT
BRANCH   1   5
ATOM      5  C   UNL A   1      36.874  33.754  33.019  1.00  0.00     0.171 C 
BRANCH   5   6
ATOM      6  C   UNL A   1      38.221  34.501  32.879  1.00  0.00     0.032 C 
ATOM      7  C   UNL A   1      38.785  34.575  31.471  1.00  0.00     0.006 C 
ENDBRANCH   5   6
BRANCH   5   8
ATOM      8  N   UNL A   1      36.716  33.108  34.333  1.00  0.00    -0.340 N 
ATOM      9  C   UNL A   1      37.515  32.179  34.969  1.00  0.00     0.251 C 
ATOM     10  H   UNL A   1      35.916  33.382  34.836  1.00  0.00     0.164 HD
ATOM     11  O   UNL A   1      37.404  32.017  36.181  1.00  0.00    -0.269 OA
BRANCH   9  12
ATOM     12  C   UNL A   1      38.350  31.242  34.186  1.00  0.00     0.039 A 
ATOM     13  C   UNL A   1      39.739  31.357  34.325  1.00  0.00     0.014 A 
ATOM     14  C   UNL A   1      37.811  30.203  33.432  1.00  0.00     0.014 A 
ATOM     15  C   UNL A   1      40.579  30.344  33.854  1.00  0.00     0.006 A 
ATOM     16  C   UNL A   1      38.654  29.192  32.957  1.00  0.00     0.006 A 
ATOM     17  C   UNL A   1      40.039  29.226  33.202  1.00  0.00    -0.029 A 
BRANCH  17  18
ATOM     18  C   UNL A   1      40.901  28.030  32.869  1.00  0.00     0.151 C 
BRANCH  18  19
ATOM     19  N   UNL A   1      42.195  28.087  33.508  1.00  0.00    -0.350 N 
ATOM     20  C   UNL A   1      42.784  27.218  34.383  1.00  0.00     0.249 C 
ATOM     21  H   UNL A   1      42.739  28.875  33.277  1.00  0.00     0.163 HD
ATOM     22  O   UNL A   1      43.940  27.460  34.736  1.00  0.00    -0.272 OA
BRANCH  20  23
ATOM     23  C   UNL A   1      42.013  25.974  34.877  1.00  0.00     0.207 C 
ATOM     24  C   UNL A   1      42.952  24.994  35.562  1.00  0.00     0.044 C 
ATOM     25  O   UNL A   1      41.021  26.310  35.854  1.00  0.00    -0.368 OA
ATOM     26  C   UNL A   1      42.923  25.464  36.997  1.00  0.00     0.032 C 
ATOM     27  C   UNL A   1      41.498  25.950  37.156  1.00  0.00     0.161 C 
ENDBRANCH  20  23
ENDBRANCH  18  19
ENDBRANCH  17  18
ENDBRANCH   9  12
ENDBRANCH   5   8
ENDBRANCH   1   5
BRANCH   3  28
ATOM     28  C   UNL A   1      35.101  33.628  30.480  1.00  0.00     0.117 C 
BRANCH  28  29
ATOM     29  C   UNL A   1      35.556  34.202  29.151  1.00  0.00     0.042 C 
BRANCH  29  30
ATOM     30  C   UNL A   1      35.655  33.161  28.043  1.00  0.00     0.118 C 
BRANCH  30  31
ATOM     31  N   UNL A   1      34.474  32.312  27.946  1.00  0.00    -0.352 N 
ATOM     32  C   UNL A   1      34.407  30.937  27.923  1.00  0.00     0.251 C 
ATOM     33  H   UNL A   1      33.612  32.782  27.891  1.00  0.00     0.163 HD
ATOM     34  O   UNL A   1      33.354  30.364  27.665  1.00  0.00    -0.269 OA
BRANCH  32  35
ATOM     35  C   UNL A   1      35.644  30.165  28.153  1.00  0.00     0.039 A 
ATOM     36  C   UNL A   1      36.544  30.001  27.099  1.00  0.00     0.014 A 
ATOM     37  C   UNL A   1      35.961  29.721  29.440  1.00  0.00     0.014 A 
ATOM     38  C   UNL A   1      37.820  29.497  27.362  1.00  0.00     0.010 A 
ATOM     39  C   UNL A   1      37.257  29.296  29.712  1.00  0.00     0.010 A 
ATOM     40  C   UNL A   1      38.205  29.206  28.680  1.00  0.00    -0.014 A 
BRANCH  40  41
ATOM     41  C   UNL A   1      39.609  28.864  29.023  1.00  0.00     0.031 A 
ATOM     42  C   UNL A   1      40.499  29.892  29.661  1.00  0.00     0.074 A 
ATOM     43  C   UNL A   1      40.113  27.670  28.648  1.00  0.00     0.049 A 
ATOM     44  N   UNL A   1      41.784  29.838  29.894  1.00  0.00    -0.248 NA
ATOM     45  C   UNL A   1      39.867  31.162  30.055  1.00  0.00     0.031 C 
ATOM     46  C   UNL A   1      39.369  26.610  27.963  1.00  0.00     0.029 A 
ATOM     47  N   UNL A   1      41.382  27.158  28.765  1.00  0.00    -0.354 N 
ATOM     48  C   UNL A   1      42.121  31.074  30.431  1.00  0.00     0.074 A 
ATOM     49  C   UNL A   1      40.913  31.869  30.459  1.00  0.00     0.031 C 
ATOM     50  C   UNL A   1      40.191  25.574  27.727  1.00  0.00     0.029 A 
ATOM     51  C   UNL A   1      41.527  25.910  28.207  1.00  0.00     0.049 A 
ATOM     52  H   UNL A   1      42.119  27.640  29.207  1.00  0.00     0.167 HD
ATOM     53  C   UNL A   1      43.326  31.499  30.874  1.00  0.00     0.037 A 
ATOM     54  C   UNL A   1      42.618  25.132  28.077  1.00  0.00     0.037 A 
ATOM     55  C   UNL A   1      44.510  30.685  30.905  1.00  0.00     0.049 A 
ATOM     56  C   UNL A   1      43.940  25.625  28.597  1.00  0.00     0.074 A 
ATOM     57  C   UNL A   1      45.744  30.982  31.460  1.00  0.00     0.029 A 
ATOM     58  N   UNL A   1      44.610  29.416  30.359  1.00  0.00    -0.354 N 
ATOM     59  N   UNL A   1      44.221  26.761  29.187  1.00  0.00    -0.248 NA
ATOM     60  C   UNL A   1      45.096  24.733  28.426  1.00  0.00     0.031 C 
ATOM     61  C   UNL A   1      46.602  29.906  31.215  1.00  0.00     0.029 A 
ATOM     62  C   UNL A   1      45.894  28.929  30.533  1.00  0.00     0.049 A 
ATOM     63  H   UNL A   1      43.877  28.932  29.913  1.00  0.00     0.167 HD
ATOM     64  C   UNL A   1      45.580  26.714  29.470  1.00  0.00     0.074 A 
ATOM     65  C   UNL A   1      46.063  25.432  29.002  1.00  0.00     0.031 C 
ATOM     66  C   UNL A   1      46.357  27.652  30.061  1.00  0.00     0.037 A 
BRANCH  53  67
ATOM     67  C   UNL A   1      43.428  32.904  31.381  1.00  0.00     0.057 A 
ATOM     68  C   UNL A   1      43.370  33.201  32.748  1.00  0.00     0.134 A 
ATOM     69  C   UNL A   1      43.652  33.965  30.495  1.00  0.00     0.134 A 
ATOM     70  F   UNL A   1      43.147  32.228  33.645  1.00  0.00    -0.206 F 
ATOM     71  C   UNL A   1      43.521  34.507  33.216  1.00  0.00     0.040 A 
ATOM     72  C   UNL A   1      43.824  35.272  30.952  1.00  0.00     0.040 A 
ATOM     73  F   UNL A   1      43.721  33.746  29.173  1.00  0.00    -0.206 F 
ATOM     74  C   UNL A   1      43.758  35.545  32.317  1.00  0.00     0.006 A 
ENDBRANCH  53  67
BRANCH  54  75
ATOM     75  C   UNL A   1      42.520  23.807  27.418  1.00  0.00     0.057 A 
ATOM     76  C   UNL A   1      42.324  22.641  28.168  1.00  0.00     0.134 A 
ATOM     77  C   UNL A   1      42.649  23.668  26.031  1.00  0.00     0.134 A 
ATOM     78  F   UNL A   1      42.216  22.709  29.503  1.00  0.00    -0.206 F 
ATOM     79  C   UNL A   1      42.280  21.383  27.566  1.00  0.00     0.040 A 
ATOM     80  C   UNL A   1      42.586  22.419  25.413  1.00  0.00     0.040 A 
ATOM     81  F   UNL A   1      42.834  24.748  25.257  1.00  0.00    -0.206 F 
ATOM     82  C   UNL A   1      42.409  21.269  26.183  1.00  0.00     0.006 A 
ENDBRANCH  54  75
BRANCH  66  83
ATOM     83  C   UNL A   1      47.808  27.325  30.240  1.00  0.00     0.057 A 
ATOM     84  C   UNL A   1      48.759  27.674  29.276  1.00  0.00     0.134 A 
ATOM     85  C   UNL A   1      48.261  26.701  31.408  1.00  0.00     0.134 A 
ATOM     86  F   UNL A   1      48.383  28.261  28.129  1.00  0.00    -0.206 F 
ATOM     87  C   UNL A   1      50.115  27.405  29.462  1.00  0.00     0.040 A 
ATOM     88  C   UNL A   1      49.617  26.444  31.615  1.00  0.00     0.040 A 
ATOM     89  F   UNL A   1      47.398  26.347  32.372  1.00  0.00    -0.206 F 
ATOM     90  C   UNL A   1      50.548  26.794  30.638  1.00  0.00     0.006 A 
ENDBRANCH  66  83
ENDBRANCH  40  41
ENDBRANCH  32  35
ENDBRANCH  30  31
ENDBRANCH  29  30
ENDBRANCH  28  29
ENDBRANCH   3  28
TORSDOF 16
ENDMDL
