MODEL 1
REMARK VINA RESULT:     -13.1      0.000      0.000
REMARK SMILES Cc1cccc(-c2noc(C[N@@H+](C)Cc3ncccc3C(=O)NCCCNC(=O)c3ccc(-c4c5nc(c(-c6c(F)cccc6F)c6ccc([nH]6)c(-c6c(F)cccc6F)c6nc(c(-c7c(F)cccc7F)c7ccc4[nH]7)C=C6)C=C5)cc3)n2)c1
REMARK SMILES IDX 21 1 22 2 23 3 20 5 15 6 16 7 17 8 19 9 18 10 14 11 12 12
REMARK SMILES IDX 13 13 11 15 10 16 7 17 8 18 84 19 9 20 6 21 1 22 2 23 3 24
REMARK SMILES IDX 85 25 4 26 5 27 24 28 25 29 26 30 27 31 28 32 29 34 30 35
REMARK SMILES IDX 31 36 83 37 32 38 82 39 33 40 34 41 35 42 76 43 36 44 81 45
REMARK SMILES IDX 75 46 77 47 37 48 80 49 74 50 73 51 38 53 64 54 47 55 63 56
REMARK SMILES IDX 48 57 51 58 62 59 78 60 49 61 50 62 61 64 79 65 52 66 39 67
REMARK SMILES IDX 40 68 45 69 41 70 42 71 44 72 46 73 43 74 65 75 66 76 71 77
REMARK SMILES IDX 67 78 68 79 70 80 72 81 69 82 53 83 54 84 59 85 55 86 56 87
REMARK SMILES IDX 58 88 60 89 57 90
REMARK H PARENT 23 4 12 14 27 33 77 52 51 63
REMARK Flexibility Score: inf
ROOT
ATOM      1  C   UNL A   1      32.200  29.155  23.911  1.00  0.00     0.253 C 
ATOM      2  O   UNL A   1      33.047  29.044  23.029  1.00  0.00    -0.269 OA
ATOM      3  N   UNL A   1      32.672  29.662  25.102  1.00  0.00    -0.352 N 
ATOM      4  H   UNL A   1      33.638  29.851  25.083  1.00  0.00     0.163 HD
ENDROOT
BRANCH   1   5
ATOM      5  C   UNL A   1      30.769  28.779  23.655  1.00  0.00     0.067 A 
ATOM      6  C   UNL A   1      30.233  27.512  23.963  1.00  0.00     0.107 A 
ATOM      7  N   UNL A   1      28.946  27.172  23.618  1.00  0.00    -0.254 NA
ATOM      8  C   UNL A   1      28.141  28.093  23.063  1.00  0.00     0.111 A 
ATOM      9  C   UNL A   1      29.863  29.712  23.129  1.00  0.00     0.017 A 
ATOM     10  C   UNL A   1      28.547  29.379  22.823  1.00  0.00     0.021 A 
BRANCH   6  11
ATOM     11  C   UNL A   1      30.972  26.389  24.685  1.00  0.00     0.320 C 
BRANCH  11  12
ATOM     12  N   UNL A   1      30.331  25.041  24.687  1.00  0.00    -0.325 N 
ATOM     13  C   UNL A   1      30.416  24.370  25.981  1.00  0.00     0.333 C 
ATOM     14  H   UNL A   1      29.346  25.230  24.503  1.00  0.00     0.348 HD
BRANCH  12  15
ATOM     15  C   UNL A   1      30.811  24.156  23.605  1.00  0.00     0.364 C 
BRANCH  15  16
ATOM     16  C   UNL A   1      32.290  23.958  23.576  1.00  0.00     0.282 A 
ATOM     17  C   UNL A   1      34.323  23.559  23.888  1.00  0.00     0.202 A 
ATOM     18  N   UNL A   1      34.314  24.282  22.756  1.00  0.00    -0.057 NA
ATOM     19  N   UNL A   1      33.071  23.288  24.399  1.00  0.00    -0.186 NA
ATOM     20  O   UNL A   1      32.964  24.547  22.547  1.00  0.00    -0.333 OA
BRANCH  17  21
ATOM     21  C   UNL A   1      35.547  23.081  24.510  1.00  0.00     0.023 A 
ATOM     22  C   UNL A   1      37.582  19.864  24.770  1.00  0.00     0.044 C 
ATOM     23  C   UNL A   1      37.139  21.288  24.940  1.00  0.00    -0.050 A 
ATOM     24  C   UNL A   1      37.952  22.192  25.637  1.00  0.00     0.003 A 
ATOM     25  C   UNL A   1      35.926  21.737  24.393  1.00  0.00     0.015 A 
ATOM     26  C   UNL A   1      37.570  23.526  25.774  1.00  0.00     0.001 A 
ATOM     27  C   UNL A   1      36.375  23.970  25.208  1.00  0.00     0.012 A 
ENDBRANCH  17  21
ENDBRANCH  15  16
ENDBRANCH  12  15
ENDBRANCH  11  12
ENDBRANCH   6  11
ENDBRANCH   1   5
BRANCH   3  28
ATOM     28  C   UNL A   1      32.057  29.979  26.384  1.00  0.00     0.118 C 
BRANCH  28  29
ATOM     29  C   UNL A   1      32.886  31.001  27.165  1.00  0.00     0.042 C 
BRANCH  29  30
ATOM     30  C   UNL A   1      34.184  30.446  27.731  1.00  0.00     0.118 C 
BRANCH  30  31
ATOM     31  N   UNL A   1      34.847  31.332  28.684  1.00  0.00    -0.352 N 
ATOM     32  C   UNL A   1      36.055  31.140  29.339  1.00  0.00     0.251 C 
ATOM     33  H   UNL A   1      34.376  32.172  28.888  1.00  0.00     0.163 HD
ATOM     34  O   UNL A   1      36.507  31.989  30.086  1.00  0.00    -0.269 OA
BRANCH  32  35
ATOM     35  C   UNL A   1      36.846  29.935  28.996  1.00  0.00     0.039 A 
ATOM     36  C   UNL A   1      37.102  29.024  30.024  1.00  0.00     0.014 A 
ATOM     37  C   UNL A   1      37.557  29.882  27.800  1.00  0.00     0.014 A 
ATOM     38  C   UNL A   1      38.254  28.250  29.962  1.00  0.00     0.010 A 
ATOM     39  C   UNL A   1      38.753  29.195  27.783  1.00  0.00     0.010 A 
ATOM     40  C   UNL A   1      39.139  28.446  28.901  1.00  0.00    -0.014 A 
BRANCH  40  41
ATOM     41  C   UNL A   1      40.537  28.030  28.966  1.00  0.00     0.031 A 
ATOM     42  C   UNL A   1      40.954  26.718  28.437  1.00  0.00     0.074 A 
ATOM     43  C   UNL A   1      41.459  28.867  29.492  1.00  0.00     0.049 A 
ATOM     44  N   UNL A   1      42.020  26.091  28.805  1.00  0.00    -0.248 NA
ATOM     45  C   UNL A   1      40.141  25.962  27.496  1.00  0.00     0.031 C 
ATOM     46  C   UNL A   1      42.913  28.736  29.425  1.00  0.00     0.029 A 
ATOM     47  N   UNL A   1      41.245  29.911  30.405  1.00  0.00    -0.354 N 
ATOM     48  C   UNL A   1      42.181  25.001  27.980  1.00  0.00     0.074 A 
ATOM     49  C   UNL A   1      40.934  24.912  27.261  1.00  0.00     0.031 C 
ATOM     50  C   UNL A   1      43.456  29.431  30.435  1.00  0.00     0.029 A 
ATOM     51  C   UNL A   1      42.366  29.915  31.262  1.00  0.00     0.049 A 
ATOM     52  H   UNL A   1      40.470  30.517  30.440  1.00  0.00     0.167 HD
ATOM     53  C   UNL A   1      43.404  24.393  27.923  1.00  0.00     0.037 A 
ATOM     54  C   UNL A   1      42.250  29.700  32.603  1.00  0.00     0.037 A 
ATOM     55  C   UNL A   1      44.292  24.914  28.970  1.00  0.00     0.049 A 
ATOM     56  C   UNL A   1      43.044  28.520  33.110  1.00  0.00     0.074 A 
ATOM     57  C   UNL A   1      45.331  25.830  28.957  1.00  0.00     0.029 A 
ATOM     58  N   UNL A   1      43.985  24.689  30.309  1.00  0.00    -0.354 N 
ATOM     59  N   UNL A   1      43.495  27.566  32.345  1.00  0.00    -0.248 NA
ATOM     60  C   UNL A   1      43.356  28.302  34.520  1.00  0.00     0.031 C 
ATOM     61  C   UNL A   1      45.611  26.197  30.298  1.00  0.00     0.029 A 
ATOM     62  C   UNL A   1      44.758  25.491  31.127  1.00  0.00     0.049 A 
ATOM     63  H   UNL A   1      43.310  24.047  30.629  1.00  0.00     0.167 HD
ATOM     64  C   UNL A   1      44.102  26.609  33.119  1.00  0.00     0.074 A 
ATOM     65  C   UNL A   1      44.013  27.131  34.470  1.00  0.00     0.031 C 
ATOM     66  C   UNL A   1      44.603  25.460  32.576  1.00  0.00     0.037 A 
BRANCH  53  67
ATOM     67  C   UNL A   1      43.908  23.543  26.762  1.00  0.00     0.057 A 
ATOM     68  C   UNL A   1      43.396  22.243  26.553  1.00  0.00     0.134 A 
ATOM     69  C   UNL A   1      44.947  23.879  25.874  1.00  0.00     0.134 A 
ATOM     70  F   UNL A   1      42.336  21.784  27.231  1.00  0.00    -0.206 F 
ATOM     71  C   UNL A   1      43.943  21.333  25.633  1.00  0.00     0.040 A 
ATOM     72  C   UNL A   1      45.521  22.974  24.968  1.00  0.00     0.040 A 
ATOM     73  F   UNL A   1      45.441  25.113  25.783  1.00  0.00    -0.206 F 
ATOM     74  C   UNL A   1      45.032  21.686  24.857  1.00  0.00     0.006 A 
ENDBRANCH  53  67
BRANCH  54  75
ATOM     75  C   UNL A   1      40.965  30.166  33.177  1.00  0.00     0.057 A 
ATOM     76  C   UNL A   1      40.787  31.542  33.405  1.00  0.00     0.134 A 
ATOM     77  C   UNL A   1      39.820  29.368  33.167  1.00  0.00     0.134 A 
ATOM     78  F   UNL A   1      41.849  32.364  33.427  1.00  0.00    -0.206 F 
ATOM     79  C   UNL A   1      39.518  32.114  33.512  1.00  0.00     0.040 A 
ATOM     80  C   UNL A   1      38.541  29.930  33.281  1.00  0.00     0.040 A 
ATOM     81  F   UNL A   1      39.907  28.051  32.933  1.00  0.00    -0.206 F 
ATOM     82  C   UNL A   1      38.388  31.309  33.416  1.00  0.00     0.006 A 
ENDBRANCH  54  75
BRANCH  66  83
ATOM     83  C   UNL A   1      45.073  24.247  33.345  1.00  0.00     0.057 A 
ATOM     84  C   UNL A   1      46.299  24.162  34.021  1.00  0.00     0.134 A 
ATOM     85  C   UNL A   1      44.207  23.147  33.544  1.00  0.00     0.134 A 
ATOM     86  F   UNL A   1      47.173  25.177  34.024  1.00  0.00    -0.206 F 
ATOM     87  C   UNL A   1      46.664  23.043  34.785  1.00  0.00     0.040 A 
ATOM     88  C   UNL A   1      44.539  22.051  34.347  1.00  0.00     0.040 A 
ATOM     89  F   UNL A   1      42.988  23.100  32.987  1.00  0.00    -0.206 F 
ATOM     90  C   UNL A   1      45.780  21.987  34.959  1.00  0.00     0.006 A 
ENDBRANCH  66  83
ENDBRANCH  40  41
ENDBRANCH  32  35
ENDBRANCH  30  31
ENDBRANCH  29  30
ENDBRANCH  28  29
ENDBRANCH   3  28
TORSDOF 15
ENDMDL
MODEL 2
REMARK VINA RESULT:     -13.1      1.649      2.249
REMARK SMILES Cc1cccc(-c2noc(C[N@@H+](C)Cc3ncccc3C(=O)NCCCNC(=O)c3ccc(-c4c5nc(c(-c6c(F)cccc6F)c6ccc([nH]6)c(-c6c(F)cccc6F)c6nc(c(-c7c(F)cccc7F)c7ccc4[nH]7)C=C6)C=C5)cc3)n2)c1
REMARK SMILES IDX 21 1 22 2 23 3 20 5 15 6 16 7 17 8 19 9 18 10 14 11 12 12
REMARK SMILES IDX 13 13 11 15 10 16 7 17 8 18 84 19 9 20 6 21 1 22 2 23 3 24
REMARK SMILES IDX 85 25 4 26 5 27 24 28 25 29 26 30 27 31 28 32 29 34 30 35
REMARK SMILES IDX 31 36 83 37 32 38 82 39 33 40 34 41 35 42 76 43 36 44 81 45
REMARK SMILES IDX 75 46 77 47 37 48 80 49 74 50 73 51 38 53 64 54 47 55 63 56
REMARK SMILES IDX 48 57 51 58 62 59 78 60 49 61 50 62 61 64 79 65 52 66 39 67
REMARK SMILES IDX 40 68 45 69 41 70 42 71 44 72 46 73 43 74 65 75 66 76 71 77
REMARK SMILES IDX 67 78 68 79 70 80 72 81 69 82 53 83 54 84 59 85 55 86 56 87
REMARK SMILES IDX 58 88 60 89 57 90
REMARK H PARENT 23 4 12 14 27 33 77 52 51 63
REMARK Flexibility Score: inf
ROOT
ATOM      1  C   UNL A   1      32.850  28.950  24.362  1.00  0.00     0.253 C 
ATOM      2  O   UNL A   1      33.788  28.697  23.611  1.00  0.00    -0.269 OA
ATOM      3  N   UNL A   1      33.153  29.815  25.391  1.00  0.00    -0.352 N 
ATOM      4  H   UNL A   1      34.096  30.098  25.388  1.00  0.00     0.163 HD
ENDROOT
BRANCH   1   5
ATOM      5  C   UNL A   1      31.490  28.359  24.121  1.00  0.00     0.067 A 
ATOM      6  C   UNL A   1      31.006  27.224  24.802  1.00  0.00     0.107 A 
ATOM      7  N   UNL A   1      29.797  26.653  24.479  1.00  0.00    -0.254 NA
ATOM      8  C   UNL A   1      29.008  27.239  23.563  1.00  0.00     0.111 A 
ATOM      9  C   UNL A   1      30.596  28.957  23.219  1.00  0.00     0.017 A 
ATOM     10  C   UNL A   1      29.354  28.401  22.927  1.00  0.00     0.021 A 
BRANCH   6  11
ATOM     11  C   UNL A   1      31.722  26.499  25.937  1.00  0.00     0.320 C 
BRANCH  11  12
ATOM     12  N   UNL A   1      32.035  25.054  25.735  1.00  0.00    -0.325 N 
ATOM     13  C   UNL A   1      31.525  24.203  26.807  1.00  0.00     0.333 C 
ATOM     14  H   UNL A   1      31.536  24.805  24.881  1.00  0.00     0.348 HD
BRANCH  12  15
ATOM     15  C   UNL A   1      33.468  24.787  25.491  1.00  0.00     0.364 C 
BRANCH  15  16
ATOM     16  C   UNL A   1      33.805  23.346  25.298  1.00  0.00     0.282 A 
ATOM     17  C   UNL A   1      33.945  21.303  24.857  1.00  0.00     0.202 A 
ATOM     18  N   UNL A   1      34.943  21.504  25.733  1.00  0.00    -0.057 NA
ATOM     19  N   UNL A   1      33.248  22.443  24.518  1.00  0.00    -0.186 NA
ATOM     20  O   UNL A   1      34.852  22.861  26.026  1.00  0.00    -0.333 OA
BRANCH  17  21
ATOM     21  C   UNL A   1      33.641  19.997  24.295  1.00  0.00     0.023 A 
ATOM     22  C   UNL A   1      34.789  16.374  24.633  1.00  0.00     0.044 C 
ATOM     23  C   UNL A   1      34.044  17.597  24.183  1.00  0.00    -0.050 A 
ATOM     24  C   UNL A   1      32.987  17.473  23.272  1.00  0.00     0.003 A 
ATOM     25  C   UNL A   1      34.377  18.868  24.678  1.00  0.00     0.015 A 
ATOM     26  C   UNL A   1      32.264  18.595  22.871  1.00  0.00     0.001 A 
ATOM     27  C   UNL A   1      32.586  19.851  23.384  1.00  0.00     0.012 A 
ENDBRANCH  17  21
ENDBRANCH  15  16
ENDBRANCH  12  15
ENDBRANCH  11  12
ENDBRANCH   6  11
ENDBRANCH   1   5
BRANCH   3  28
ATOM     28  C   UNL A   1      32.387  30.400  26.482  1.00  0.00     0.118 C 
BRANCH  28  29
ATOM     29  C   UNL A   1      33.266  31.286  27.370  1.00  0.00     0.042 C 
BRANCH  29  30
ATOM     30  C   UNL A   1      34.576  30.637  27.790  1.00  0.00     0.118 C 
BRANCH  30  31
ATOM     31  N   UNL A   1      35.403  31.472  28.658  1.00  0.00    -0.352 N 
ATOM     32  C   UNL A   1      36.604  31.147  29.273  1.00  0.00     0.251 C 
ATOM     33  H   UNL A   1      35.066  32.382  28.827  1.00  0.00     0.163 HD
ATOM     34  O   UNL A   1      37.207  31.963  29.945  1.00  0.00    -0.269 OA
BRANCH  32  35
ATOM     35  C   UNL A   1      37.199  29.823  28.975  1.00  0.00     0.039 A 
ATOM     36  C   UNL A   1      37.425  28.966  30.054  1.00  0.00     0.014 A 
ATOM     37  C   UNL A   1      37.789  29.585  27.737  1.00  0.00     0.014 A 
ATOM     38  C   UNL A   1      38.458  28.040  29.970  1.00  0.00     0.010 A 
ATOM     39  C   UNL A   1      38.881  28.743  27.686  1.00  0.00     0.010 A 
ATOM     40  C   UNL A   1      39.264  28.034  28.831  1.00  0.00    -0.014 A 
BRANCH  40  41
ATOM     41  C   UNL A   1      40.597  27.439  28.823  1.00  0.00     0.031 A 
ATOM     42  C   UNL A   1      40.779  26.013  28.490  1.00  0.00     0.074 A 
ATOM     43  C   UNL A   1      41.674  28.208  29.099  1.00  0.00     0.049 A 
ATOM     44  N   UNL A   1      41.797  25.307  28.850  1.00  0.00    -0.248 NA
ATOM     45  C   UNL A   1      39.768  25.242  27.783  1.00  0.00     0.031 C 
ATOM     46  C   UNL A   1      43.080  27.862  28.907  1.00  0.00     0.029 A 
ATOM     47  N   UNL A   1      41.706  29.403  29.834  1.00  0.00    -0.354 N 
ATOM     48  C   UNL A   1      41.718  24.088  28.214  1.00  0.00     0.074 A 
ATOM     49  C   UNL A   1      40.389  24.066  27.654  1.00  0.00     0.031 C 
ATOM     50  C   UNL A   1      43.827  28.622  29.720  1.00  0.00     0.029 A 
ATOM     51  C   UNL A   1      42.918  29.382  30.557  1.00  0.00     0.049 A 
ATOM     52  H   UNL A   1      41.022  30.111  29.842  1.00  0.00     0.167 HD
ATOM     53  C   UNL A   1      42.839  23.311  28.139  1.00  0.00     0.037 A 
ATOM     54  C   UNL A   1      42.945  29.400  31.921  1.00  0.00     0.037 A 
ATOM     55  C   UNL A   1      43.908  23.858  28.982  1.00  0.00     0.049 A 
ATOM     56  C   UNL A   1      43.643  28.214  32.540  1.00  0.00     0.074 A 
ATOM     57  C   UNL A   1      45.043  24.604  28.704  1.00  0.00     0.029 A 
ATOM     58  N   UNL A   1      43.746  23.894  30.364  1.00  0.00    -0.354 N 
ATOM     59  N   UNL A   1      43.874  27.097  31.910  1.00  0.00    -0.248 NA
ATOM     60  C   UNL A   1      44.100  28.179  33.928  1.00  0.00     0.031 C 
ATOM     61  C   UNL A   1      45.532  25.134  29.925  1.00  0.00     0.029 A 
ATOM     62  C   UNL A   1      44.708  24.697  30.947  1.00  0.00     0.049 A 
ATOM     63  H   UNL A   1      43.042  23.414  30.859  1.00  0.00     0.167 HD
ATOM     64  C   UNL A   1      44.450  26.197  32.772  1.00  0.00     0.074 A 
ATOM     65  C   UNL A   1      44.596  26.934  34.013  1.00  0.00     0.031 C 
ATOM     66  C   UNL A   1      44.733  24.918  32.388  1.00  0.00     0.037 A 
BRANCH  53  67
ATOM     67  C   UNL A   1      43.086  22.225  27.096  1.00  0.00     0.057 A 
ATOM     68  C   UNL A   1      42.349  21.020  27.133  1.00  0.00     0.134 A 
ATOM     69  C   UNL A   1      44.077  22.238  26.099  1.00  0.00     0.134 A 
ATOM     70  F   UNL A   1      41.295  20.861  27.945  1.00  0.00    -0.206 F 
ATOM     71  C   UNL A   1      42.649  19.904  26.336  1.00  0.00     0.040 A 
ATOM     72  C   UNL A   1      44.407  21.124  25.313  1.00  0.00     0.040 A 
ATOM     73  F   UNL A   1      44.757  23.339  25.779  1.00  0.00    -0.206 F 
ATOM     74  C   UNL A   1      43.704  19.941  25.442  1.00  0.00     0.006 A 
ENDBRANCH  53  67
BRANCH  54  75
ATOM     75  C   UNL A   1      41.809  30.130  32.534  1.00  0.00     0.057 A 
ATOM     76  C   UNL A   1      40.698  29.395  32.985  1.00  0.00     0.134 A 
ATOM     77  C   UNL A   1      41.939  31.440  33.001  1.00  0.00     0.134 A 
ATOM     78  F   UNL A   1      40.515  28.130  32.572  1.00  0.00    -0.206 F 
ATOM     79  C   UNL A   1      39.815  29.904  33.939  1.00  0.00     0.040 A 
ATOM     80  C   UNL A   1      41.056  31.963  33.954  1.00  0.00     0.040 A 
ATOM     81  F   UNL A   1      42.985  32.195  32.635  1.00  0.00    -0.206 F 
ATOM     82  C   UNL A   1      40.013  31.181  34.452  1.00  0.00     0.006 A 
ENDBRANCH  54  75
BRANCH  66  83
ATOM     83  C   UNL A   1      45.142  23.787  33.303  1.00  0.00     0.057 A 
ATOM     84  C   UNL A   1      46.407  23.665  33.899  1.00  0.00     0.134 A 
ATOM     85  C   UNL A   1      44.190  22.834  33.731  1.00  0.00     0.134 A 
ATOM     86  F   UNL A   1      47.376  24.565  33.683  1.00  0.00    -0.206 F 
ATOM     87  C   UNL A   1      46.720  22.638  34.802  1.00  0.00     0.040 A 
ATOM     88  C   UNL A   1      44.476  21.838  34.670  1.00  0.00     0.040 A 
ATOM     89  F   UNL A   1      42.929  22.841  33.273  1.00  0.00    -0.206 F 
ATOM     90  C   UNL A   1      45.752  21.726  35.199  1.00  0.00     0.006 A 
ENDBRANCH  66  83
ENDBRANCH  40  41
ENDBRANCH  32  35
ENDBRANCH  30  31
ENDBRANCH  29  30
ENDBRANCH  28  29
ENDBRANCH   3  28
TORSDOF 15
ENDMDL
MODEL 3
REMARK VINA RESULT:     -13.0      1.304      2.079
REMARK SMILES Cc1cccc(-c2noc(C[N@@H+](C)Cc3ncccc3C(=O)NCCCNC(=O)c3ccc(-c4c5nc(c(-c6c(F)cccc6F)c6ccc([nH]6)c(-c6c(F)cccc6F)c6nc(c(-c7c(F)cccc7F)c7ccc4[nH]7)C=C6)C=C5)cc3)n2)c1
REMARK SMILES IDX 21 1 22 2 23 3 20 5 15 6 16 7 17 8 19 9 18 10 14 11 12 12
REMARK SMILES IDX 13 13 11 15 10 16 7 17 8 18 84 19 9 20 6 21 1 22 2 23 3 24
REMARK SMILES IDX 85 25 4 26 5 27 24 28 25 29 26 30 27 31 28 32 29 34 30 35
REMARK SMILES IDX 31 36 83 37 32 38 82 39 33 40 34 41 35 42 76 43 36 44 81 45
REMARK SMILES IDX 75 46 77 47 37 48 80 49 74 50 73 51 38 53 64 54 47 55 63 56
REMARK SMILES IDX 48 57 51 58 62 59 78 60 49 61 50 62 61 64 79 65 52 66 39 67
REMARK SMILES IDX 40 68 45 69 41 70 42 71 44 72 46 73 43 74 65 75 66 76 71 77
REMARK SMILES IDX 67 78 68 79 70 80 72 81 69 82 53 83 54 84 59 85 55 86 56 87
REMARK SMILES IDX 58 88 60 89 57 90
REMARK H PARENT 23 4 12 14 27 33 77 52 51 63
REMARK Flexibility Score: inf
ROOT
ATOM      1  C   UNL A   1      31.874  29.293  23.725  1.00  0.00     0.253 C 
ATOM      2  O   UNL A   1      32.721  28.978  22.895  1.00  0.00    -0.269 OA
ATOM      3  N   UNL A   1      32.373  29.906  24.854  1.00  0.00    -0.352 N 
ATOM      4  H   UNL A   1      33.354  29.990  24.842  1.00  0.00     0.163 HD
ENDROOT
BRANCH   1   5
ATOM      5  C   UNL A   1      30.416  29.034  23.473  1.00  0.00     0.067 A 
ATOM      6  C   UNL A   1      29.810  27.774  23.654  1.00  0.00     0.107 A 
ATOM      7  N   UNL A   1      28.495  27.554  23.314  1.00  0.00    -0.254 NA
ATOM      8  C   UNL A   1      27.736  28.578  22.891  1.00  0.00     0.111 A 
ATOM      9  C   UNL A   1      29.558  30.073  23.083  1.00  0.00     0.017 A 
ATOM     10  C   UNL A   1      28.216  29.856  22.783  1.00  0.00     0.021 A 
BRANCH   6  11
ATOM     11  C   UNL A   1      30.494  26.535  24.224  1.00  0.00     0.320 C 
BRANCH  11  12
ATOM     12  N   UNL A   1      30.502  26.381  25.708  1.00  0.00    -0.325 N 
ATOM     13  C   UNL A   1      31.812  26.629  26.301  1.00  0.00     0.333 C 
ATOM     14  H   UNL A   1      29.870  27.110  26.040  1.00  0.00     0.348 HD
BRANCH  12  15
ATOM     15  C   UNL A   1      29.952  25.089  26.172  1.00  0.00     0.364 C 
BRANCH  15  16
ATOM     16  C   UNL A   1      30.967  24.006  26.332  1.00  0.00     0.282 A 
ATOM     17  C   UNL A   1      32.321  22.414  26.196  1.00  0.00     0.202 A 
ATOM     18  N   UNL A   1      32.216  22.626  27.518  1.00  0.00    -0.057 NA
ATOM     19  N   UNL A   1      31.598  23.296  25.421  1.00  0.00    -0.186 NA
ATOM     20  O   UNL A   1      31.318  23.684  27.610  1.00  0.00    -0.333 OA
BRANCH  17  21
ATOM     21  C   UNL A   1      33.146  21.361  25.628  1.00  0.00     0.023 A 
ATOM     22  C   UNL A   1      36.831  20.634  24.952  1.00  0.00     0.044 C 
ATOM     23  C   UNL A   1      35.339  20.487  25.024  1.00  0.00    -0.050 A 
ATOM     24  C   UNL A   1      34.737  19.289  24.616  1.00  0.00     0.003 A 
ATOM     25  C   UNL A   1      34.534  21.527  25.514  1.00  0.00     0.015 A 
ATOM     26  C   UNL A   1      33.355  19.125  24.708  1.00  0.00     0.001 A 
ATOM     27  C   UNL A   1      32.564  20.154  25.217  1.00  0.00     0.012 A 
ENDBRANCH  17  21
ENDBRANCH  15  16
ENDBRANCH  12  15
ENDBRANCH  11  12
ENDBRANCH   6  11
ENDBRANCH   1   5
BRANCH   3  28
ATOM     28  C   UNL A   1      31.771  30.454  26.061  1.00  0.00     0.118 C 
BRANCH  28  29
ATOM     29  C   UNL A   1      32.658  30.217  27.286  1.00  0.00     0.042 C 
BRANCH  29  30
ATOM     30  C   UNL A   1      34.076  30.745  27.137  1.00  0.00     0.118 C 
BRANCH  30  31
ATOM     31  N   UNL A   1      34.528  31.564  28.258  1.00  0.00    -0.352 N 
ATOM     32  C   UNL A   1      35.585  31.325  29.126  1.00  0.00     0.251 C 
ATOM     33  H   UNL A   1      34.019  32.391  28.419  1.00  0.00     0.163 HD
ATOM     34  O   UNL A   1      35.872  32.121  30.001  1.00  0.00    -0.269 OA
BRANCH  32  35
ATOM     35  C   UNL A   1      36.439  30.142  28.869  1.00  0.00     0.039 A 
ATOM     36  C   UNL A   1      36.679  29.281  29.943  1.00  0.00     0.014 A 
ATOM     37  C   UNL A   1      37.210  30.075  27.712  1.00  0.00     0.014 A 
ATOM     38  C   UNL A   1      37.863  28.554  29.966  1.00  0.00     0.010 A 
ATOM     39  C   UNL A   1      38.432  29.437  27.779  1.00  0.00     0.010 A 
ATOM     40  C   UNL A   1      38.791  28.747  28.943  1.00  0.00    -0.014 A 
BRANCH  40  41
ATOM     41  C   UNL A   1      40.199  28.393  29.091  1.00  0.00     0.031 A 
ATOM     42  C   UNL A   1      40.708  27.109  28.573  1.00  0.00     0.074 A 
ATOM     43  C   UNL A   1      41.048  29.260  29.686  1.00  0.00     0.049 A 
ATOM     44  N   UNL A   1      41.776  26.524  29.000  1.00  0.00    -0.248 NA
ATOM     45  C   UNL A   1      39.991  26.332  27.572  1.00  0.00     0.031 C 
ATOM     46  C   UNL A   1      42.508  29.195  29.710  1.00  0.00     0.029 A 
ATOM     47  N   UNL A   1      40.729  30.280  30.597  1.00  0.00    -0.354 N 
ATOM     48  C   UNL A   1      42.038  25.455  28.172  1.00  0.00     0.074 A 
ATOM     49  C   UNL A   1      40.843  25.322  27.374  1.00  0.00     0.031 C 
ATOM     50  C   UNL A   1      42.954  29.897  30.762  1.00  0.00     0.029 A 
ATOM     51  C   UNL A   1      41.793  30.319  31.524  1.00  0.00     0.049 A 
ATOM     52  H   UNL A   1      39.928  30.850  30.590  1.00  0.00     0.167 HD
ATOM     53  C   UNL A   1      43.288  24.902  28.186  1.00  0.00     0.037 A 
ATOM     54  C   UNL A   1      41.603  30.078  32.852  1.00  0.00     0.037 A 
ATOM     55  C   UNL A   1      44.083  25.445  29.294  1.00  0.00     0.049 A 
ATOM     56  C   UNL A   1      42.415  28.926  33.392  1.00  0.00     0.074 A 
ATOM     57  C   UNL A   1      45.079  26.407  29.359  1.00  0.00     0.029 A 
ATOM     58  N   UNL A   1      43.703  25.185  30.607  1.00  0.00    -0.354 N 
ATOM     59  N   UNL A   1      42.957  28.006  32.646  1.00  0.00    -0.248 NA
ATOM     60  C   UNL A   1      42.647  28.699  34.817  1.00  0.00     0.031 C 
ATOM     61  C   UNL A   1      45.257  26.764  30.720  1.00  0.00     0.029 A 
ATOM     62  C   UNL A   1      44.386  26.008  31.483  1.00  0.00     0.049 A 
ATOM     63  H   UNL A   1      43.039  24.510  30.875  1.00  0.00     0.167 HD
ATOM     64  C   UNL A   1      43.555  27.064  33.444  1.00  0.00     0.074 A 
ATOM     65  C   UNL A   1      43.359  27.560  34.793  1.00  0.00     0.031 C 
ATOM     66  C   UNL A   1      44.141  25.947  32.919  1.00  0.00     0.037 A 
BRANCH  53  67
ATOM     67  C   UNL A   1      43.902  24.095  27.047  1.00  0.00     0.057 A 
ATOM     68  C   UNL A   1      44.676  24.735  26.054  1.00  0.00     0.134 A 
ATOM     69  C   UNL A   1      43.707  22.724  26.800  1.00  0.00     0.134 A 
ATOM     70  F   UNL A   1      45.056  26.015  26.170  1.00  0.00    -0.206 F 
ATOM     71  C   UNL A   1      45.109  24.099  24.879  1.00  0.00     0.040 A 
ATOM     72  C   UNL A   1      44.110  22.079  25.620  1.00  0.00     0.040 A 
ATOM     73  F   UNL A   1      43.164  21.903  27.698  1.00  0.00    -0.206 F 
ATOM     74  C   UNL A   1      44.799  22.772  24.642  1.00  0.00     0.006 A 
ENDBRANCH  53  67
BRANCH  54  75
ATOM     75  C   UNL A   1      40.264  30.478  33.349  1.00  0.00     0.057 A 
ATOM     76  C   UNL A   1      40.019  31.838  33.607  1.00  0.00     0.134 A 
ATOM     77  C   UNL A   1      39.153  29.640  33.234  1.00  0.00     0.134 A 
ATOM     78  F   UNL A   1      41.044  32.696  33.730  1.00  0.00    -0.206 F 
ATOM     79  C   UNL A   1      38.724  32.359  33.644  1.00  0.00     0.040 A 
ATOM     80  C   UNL A   1      37.850  30.151  33.275  1.00  0.00     0.040 A 
ATOM     81  F   UNL A   1      39.307  28.336  32.964  1.00  0.00    -0.206 F 
ATOM     82  C   UNL A   1      37.635  31.519  33.443  1.00  0.00     0.006 A 
ENDBRANCH  54  75
BRANCH  66  83
ATOM     83  C   UNL A   1      44.616  24.744  33.700  1.00  0.00     0.057 A 
ATOM     84  C   UNL A   1      43.767  23.825  34.337  1.00  0.00     0.134 A 
ATOM     85  C   UNL A   1      45.985  24.392  33.709  1.00  0.00     0.134 A 
ATOM     86  F   UNL A   1      42.435  23.962  34.308  1.00  0.00    -0.206 F 
ATOM     87  C   UNL A   1      44.248  22.680  34.989  1.00  0.00     0.040 A 
ATOM     88  C   UNL A   1      46.469  23.225  34.310  1.00  0.00     0.040 A 
ATOM     89  F   UNL A   1      46.914  25.155  33.113  1.00  0.00    -0.206 F 
ATOM     90  C   UNL A   1      45.601  22.370  34.969  1.00  0.00     0.006 A 
ENDBRANCH  66  83
ENDBRANCH  40  41
ENDBRANCH  32  35
ENDBRANCH  30  31
ENDBRANCH  29  30
ENDBRANCH  28  29
ENDBRANCH   3  28
TORSDOF 15
ENDMDL
