MODEL 1
REMARK VINA RESULT:     -11.1      0.000      0.000
REMARK SMILES C[NH2+]C[C@H](C)C(=O)Nc1snc(C)c1C(=O)NCCCNC(=O)c1ccc(-c2c3nc(c(-c4c(F)cccc4F)c4ccc([nH]4)c(-c4c(F)cccc4F)c4nc(c(-c5c(F)cccc5F)c5ccc2[nH]5)C=C4)C=C3)cc1
REMARK SMILES IDX 18 1 17 2 15 3 16 4 14 6 9 7 10 8 11 9 12 10 13 11 8 12 6 13
REMARK SMILES IDX 7 14 4 16 5 17 3 18 2 19 1 20 19 23 20 24 21 25 22 26 23 28
REMARK SMILES IDX 24 29 25 30 77 31 26 32 76 33 27 34 28 35 29 36 70 37 30 38
REMARK SMILES IDX 75 39 69 40 71 41 31 42 74 43 68 44 67 45 32 47 58 48 41 49
REMARK SMILES IDX 57 50 42 51 45 52 56 53 72 54 43 55 44 56 55 58 73 59 46 60
REMARK SMILES IDX 33 61 34 62 39 63 35 64 36 65 38 66 40 67 37 68 59 69 60 70
REMARK SMILES IDX 65 71 61 72 62 73 64 74 66 75 63 76 47 77 48 78 53 79 49 80
REMARK SMILES IDX 50 81 52 82 54 83 51 84
REMARK H PARENT 17 5 8 15 2 21 2 22 21 27 71 46 45 57
REMARK Flexibility Score: inf
ROOT
ATOM      1  C   UNL A   1      33.058  27.420  26.679  1.00  0.00     0.118 C 
ENDROOT
BRANCH   1   2
ATOM      2  N   UNL A   1      31.704  26.914  26.796  1.00  0.00    -0.352 N 
ATOM      3  C   UNL A   1      31.038  25.934  26.085  1.00  0.00     0.256 C 
ATOM      4  O   UNL A   1      29.915  25.652  26.508  1.00  0.00    -0.269 OA
ATOM      5  H   UNL A   1      31.168  27.342  27.502  1.00  0.00     0.163 HD
BRANCH   3   6
ATOM      6  C   UNL A   1      31.565  25.304  24.864  1.00  0.00     0.097 A 
ATOM      7  C   UNL A   1      32.228  25.854  23.776  1.00  0.00     0.129 A 
ATOM      8  S   UNL A   1      32.129  24.778  22.453  1.00  0.00    -0.017 S 
ATOM      9  N   UNL A   1      31.707  23.468  23.351  1.00  0.00    -0.195 NA
ATOM     10  C   UNL A   1      31.491  23.861  24.609  1.00  0.00     0.066 A 
ATOM     11  C   UNL A   1      31.175  22.772  25.583  1.00  0.00     0.069 C 
BRANCH   7  12
ATOM     12  N   UNL A   1      32.844  27.028  23.443  1.00  0.00    -0.315 N 
ATOM     13  C   UNL A   1      32.317  28.241  23.133  1.00  0.00     0.233 C 
ATOM     14  O   UNL A   1      33.058  29.014  22.511  1.00  0.00    -0.274 OA
ATOM     15  H   UNL A   1      33.828  26.988  23.425  1.00  0.00     0.170 HD
BRANCH  13  16
ATOM     16  C   UNL A   1      30.991  28.763  23.687  1.00  0.00     0.130 C 
ATOM     17  C   UNL A   1      30.997  29.996  24.573  1.00  0.00     0.024 C 
BRANCH  16  18
ATOM     18  C   UNL A   1      29.999  28.934  22.522  1.00  0.00     0.273 C 
BRANCH  18  19
ATOM     19  N   UNL A   1      30.258  30.082  21.645  1.00  0.00    -0.348 N 
ATOM     20  C   UNL A   1      29.074  30.913  21.447  1.00  0.00     0.330 C 
ATOM     21  H   UNL A   1      30.992  30.654  22.062  1.00  0.00     0.346 HD
ATOM     22  H   UNL A   1      30.537  29.720  20.733  1.00  0.00     0.346 HD
ENDBRANCH  18  19
ENDBRANCH  16  18
ENDBRANCH  13  16
ENDBRANCH   7  12
ENDBRANCH   3   6
ENDBRANCH   1   2
BRANCH   1  23
ATOM     23  C   UNL A   1      33.333  28.801  27.265  1.00  0.00     0.042 C 
BRANCH  23  24
ATOM     24  C   UNL A   1      34.815  29.138  27.348  1.00  0.00     0.118 C 
BRANCH  24  25
ATOM     25  N   UNL A   1      35.182  30.097  28.393  1.00  0.00    -0.352 N 
ATOM     26  C   UNL A   1      36.385  30.123  29.100  1.00  0.00     0.251 C 
ATOM     27  H   UNL A   1      34.517  30.789  28.619  1.00  0.00     0.163 HD
ATOM     28  O   UNL A   1      36.545  30.762  30.109  1.00  0.00    -0.269 OA
BRANCH  26  29
ATOM     29  C   UNL A   1      37.472  29.292  28.539  1.00  0.00     0.039 A 
ATOM     30  C   UNL A   1      38.173  29.718  27.412  1.00  0.00     0.014 A 
ATOM     31  C   UNL A   1      37.947  28.266  29.347  1.00  0.00     0.014 A 
ATOM     32  C   UNL A   1      39.451  29.203  27.192  1.00  0.00     0.010 A 
ATOM     33  C   UNL A   1      39.262  27.874  29.202  1.00  0.00     0.010 A 
ATOM     34  C   UNL A   1      40.035  28.331  28.130  1.00  0.00    -0.014 A 
BRANCH  34  35
ATOM     35  C   UNL A   1      41.471  28.016  28.045  1.00  0.00     0.031 A 
ATOM     36  C   UNL A   1      41.862  26.762  27.318  1.00  0.00     0.074 A 
ATOM     37  C   UNL A   1      42.476  28.835  28.425  1.00  0.00     0.049 A 
ATOM     38  N   UNL A   1      42.391  25.692  27.822  1.00  0.00    -0.248 NA
ATOM     39  C   UNL A   1      41.607  26.667  25.873  1.00  0.00     0.031 C 
ATOM     40  C   UNL A   1      42.422  30.218  28.911  1.00  0.00     0.029 A 
ATOM     41  N   UNL A   1      43.820  28.584  28.384  1.00  0.00    -0.354 N 
ATOM     42  C   UNL A   1      42.677  24.841  26.755  1.00  0.00     0.074 A 
ATOM     43  C   UNL A   1      42.091  25.454  25.588  1.00  0.00     0.031 C 
ATOM     44  C   UNL A   1      43.661  30.753  28.908  1.00  0.00     0.029 A 
ATOM     45  C   UNL A   1      44.610  29.693  28.630  1.00  0.00     0.049 A 
ATOM     46  H   UNL A   1      44.192  27.694  28.194  1.00  0.00     0.167 HD
ATOM     47  C   UNL A   1      43.510  23.768  26.886  1.00  0.00     0.037 A 
ATOM     48  C   UNL A   1      45.957  29.756  28.663  1.00  0.00     0.037 A 
ATOM     49  C   UNL A   1      43.777  23.467  28.267  1.00  0.00     0.049 A 
ATOM     50  C   UNL A   1      46.462  28.396  28.947  1.00  0.00     0.074 A 
ATOM     51  C   UNL A   1      43.030  23.063  29.353  1.00  0.00     0.029 A 
ATOM     52  N   UNL A   1      44.982  23.879  28.777  1.00  0.00    -0.354 N 
ATOM     53  N   UNL A   1      46.299  27.782  30.085  1.00  0.00    -0.248 NA
ATOM     54  C   UNL A   1      46.859  27.551  27.834  1.00  0.00     0.031 C 
ATOM     55  C   UNL A   1      43.638  23.697  30.478  1.00  0.00     0.029 A 
ATOM     56  C   UNL A   1      44.733  24.425  30.008  1.00  0.00     0.049 A 
ATOM     57  H   UNL A   1      45.860  23.795  28.340  1.00  0.00     0.167 HD
ATOM     58  C   UNL A   1      46.157  26.446  29.748  1.00  0.00     0.074 A 
ATOM     59  C   UNL A   1      46.657  26.350  28.382  1.00  0.00     0.031 C 
ATOM     60  C   UNL A   1      45.399  25.605  30.511  1.00  0.00     0.037 A 
BRANCH  47  61
ATOM     61  C   UNL A   1      44.345  23.154  25.789  1.00  0.00     0.057 A 
ATOM     62  C   UNL A   1      44.291  21.763  25.564  1.00  0.00     0.134 A 
ATOM     63  C   UNL A   1      45.407  23.823  25.155  1.00  0.00     0.134 A 
ATOM     64  F   UNL A   1      43.335  21.010  26.131  1.00  0.00    -0.206 F 
ATOM     65  C   UNL A   1      45.261  21.082  24.817  1.00  0.00     0.040 A 
ATOM     66  C   UNL A   1      46.355  23.158  24.367  1.00  0.00     0.040 A 
ATOM     67  F   UNL A   1      45.635  25.128  25.348  1.00  0.00    -0.206 F 
ATOM     68  C   UNL A   1      46.302  21.780  24.219  1.00  0.00     0.006 A 
ENDBRANCH  47  61
BRANCH  48  69
ATOM     69  C   UNL A   1      46.829  30.894  28.329  1.00  0.00     0.057 A 
ATOM     70  C   UNL A   1      46.959  31.360  27.017  1.00  0.00     0.134 A 
ATOM     71  C   UNL A   1      47.358  31.714  29.341  1.00  0.00     0.134 A 
ATOM     72  F   UNL A   1      46.458  30.658  25.991  1.00  0.00    -0.206 F 
ATOM     73  C   UNL A   1      47.559  32.592  26.727  1.00  0.00     0.040 A 
ATOM     74  C   UNL A   1      47.963  32.943  29.067  1.00  0.00     0.040 A 
ATOM     75  F   UNL A   1      47.227  31.384  30.635  1.00  0.00    -0.206 F 
ATOM     76  C   UNL A   1      48.051  33.393  27.754  1.00  0.00     0.006 A 
ENDBRANCH  48  69
BRANCH  60  77
ATOM     77  C   UNL A   1      45.002  26.076  31.882  1.00  0.00     0.057 A 
ATOM     78  C   UNL A   1      43.838  26.809  32.153  1.00  0.00     0.134 A 
ATOM     79  C   UNL A   1      45.758  25.660  32.984  1.00  0.00     0.134 A 
ATOM     80  F   UNL A   1      43.000  27.164  31.173  1.00  0.00    -0.206 F 
ATOM     81  C   UNL A   1      43.471  27.156  33.456  1.00  0.00     0.040 A 
ATOM     82  C   UNL A   1      45.385  25.972  34.293  1.00  0.00     0.040 A 
ATOM     83  F   UNL A   1      46.852  24.902  32.806  1.00  0.00    -0.206 F 
ATOM     84  C   UNL A   1      44.245  26.734  34.532  1.00  0.00     0.006 A 
ENDBRANCH  60  77
ENDBRANCH  34  35
ENDBRANCH  26  29
ENDBRANCH  24  25
ENDBRANCH  23  24
ENDBRANCH   1  23
TORSDOF 14
ENDMDL
MODEL 2
REMARK VINA RESULT:     -11.0      1.120      2.688
REMARK SMILES C[NH2+]C[C@H](C)C(=O)Nc1snc(C)c1C(=O)NCCCNC(=O)c1ccc(-c2c3nc(c(-c4c(F)cccc4F)c4ccc([nH]4)c(-c4c(F)cccc4F)c4nc(c(-c5c(F)cccc5F)c5ccc2[nH]5)C=C4)C=C3)cc1
REMARK SMILES IDX 18 1 17 2 15 3 16 4 14 6 9 7 10 8 11 9 12 10 13 11 8 12 6 13
REMARK SMILES IDX 7 14 4 16 5 17 3 18 2 19 1 20 19 23 20 24 21 25 22 26 23 28
REMARK SMILES IDX 24 29 25 30 77 31 26 32 76 33 27 34 28 35 29 36 70 37 30 38
REMARK SMILES IDX 75 39 69 40 71 41 31 42 74 43 68 44 67 45 32 47 58 48 41 49
REMARK SMILES IDX 57 50 42 51 45 52 56 53 72 54 43 55 44 56 55 58 73 59 46 60
REMARK SMILES IDX 33 61 34 62 39 63 35 64 36 65 38 66 40 67 37 68 59 69 60 70
REMARK SMILES IDX 65 71 61 72 62 73 64 74 66 75 63 76 47 77 48 78 53 79 49 80
REMARK SMILES IDX 50 81 52 82 54 83 51 84
REMARK H PARENT 17 5 8 15 2 21 2 22 21 27 71 46 45 57
REMARK Flexibility Score: inf
ROOT
ATOM      1  C   UNL A   1      32.485  29.910  27.150  1.00  0.00     0.118 C 
ENDROOT
BRANCH   1   2
ATOM      2  N   UNL A   1      31.678  28.711  27.267  1.00  0.00    -0.352 N 
ATOM      3  C   UNL A   1      31.513  27.643  26.407  1.00  0.00     0.256 C 
ATOM      4  O   UNL A   1      30.838  26.712  26.852  1.00  0.00    -0.269 OA
ATOM      5  H   UNL A   1      31.158  28.649  28.101  1.00  0.00     0.163 HD
BRANCH   3   6
ATOM      6  C   UNL A   1      32.026  27.611  25.028  1.00  0.00     0.097 A 
ATOM      7  C   UNL A   1      32.975  26.792  24.435  1.00  0.00     0.129 A 
ATOM      8  S   UNL A   1      33.544  27.533  23.004  1.00  0.00    -0.017 S 
ATOM      9  N   UNL A   1      32.296  28.594  22.873  1.00  0.00    -0.195 NA
ATOM     10  C   UNL A   1      31.538  28.504  23.969  1.00  0.00     0.066 A 
ATOM     11  C   UNL A   1      30.305  29.349  23.978  1.00  0.00     0.069 C 
BRANCH   7  12
ATOM     12  N   UNL A   1      33.638  25.630  24.713  1.00  0.00    -0.315 N 
ATOM     13  C   UNL A   1      33.160  24.405  25.053  1.00  0.00     0.233 C 
ATOM     14  O   UNL A   1      33.960  23.644  25.614  1.00  0.00    -0.274 OA
ATOM     15  H   UNL A   1      34.620  25.690  24.658  1.00  0.00     0.170 HD
BRANCH  13  16
ATOM     16  C   UNL A   1      31.807  23.858  24.596  1.00  0.00     0.130 C 
ATOM     17  C   UNL A   1      31.411  23.998  23.136  1.00  0.00     0.024 C 
BRANCH  16  18
ATOM     18  C   UNL A   1      31.682  22.394  25.056  1.00  0.00     0.273 C 
BRANCH  18  19
ATOM     19  N   UNL A   1      31.284  22.213  26.457  1.00  0.00    -0.348 N 
ATOM     20  C   UNL A   1      30.188  23.093  26.847  1.00  0.00     0.330 C 
ATOM     21  H   UNL A   1      30.990  21.245  26.592  1.00  0.00     0.346 HD
ATOM     22  H   UNL A   1      32.089  22.443  27.041  1.00  0.00     0.346 HD
ENDBRANCH  18  19
ENDBRANCH  16  18
ENDBRANCH  13  16
ENDBRANCH   7  12
ENDBRANCH   3   6
ENDBRANCH   1   2
BRANCH   1  23
ATOM     23  C   UNL A   1      33.909  29.737  26.630  1.00  0.00     0.042 C 
BRANCH  23  24
ATOM     24  C   UNL A   1      34.877  29.214  27.681  1.00  0.00     0.118 C 
BRANCH  24  25
ATOM     25  N   UNL A   1      35.299  30.193  28.687  1.00  0.00    -0.352 N 
ATOM     26  C   UNL A   1      36.523  30.207  29.358  1.00  0.00     0.251 C 
ATOM     27  H   UNL A   1      34.660  30.909  28.909  1.00  0.00     0.163 HD
ATOM     28  O   UNL A   1      36.728  30.873  30.343  1.00  0.00    -0.269 OA
BRANCH  26  29
ATOM     29  C   UNL A   1      37.571  29.331  28.792  1.00  0.00     0.039 A 
ATOM     30  C   UNL A   1      38.218  29.682  27.609  1.00  0.00     0.014 A 
ATOM     31  C   UNL A   1      38.076  28.348  29.634  1.00  0.00     0.014 A 
ATOM     32  C   UNL A   1      39.477  29.137  27.355  1.00  0.00     0.010 A 
ATOM     33  C   UNL A   1      39.377  27.930  29.446  1.00  0.00     0.010 A 
ATOM     34  C   UNL A   1      40.099  28.314  28.312  1.00  0.00    -0.014 A 
BRANCH  34  35
ATOM     35  C   UNL A   1      41.526  27.975  28.172  1.00  0.00     0.031 A 
ATOM     36  C   UNL A   1      41.868  26.720  27.423  1.00  0.00     0.074 A 
ATOM     37  C   UNL A   1      42.558  28.773  28.522  1.00  0.00     0.049 A 
ATOM     38  N   UNL A   1      42.397  25.638  27.900  1.00  0.00    -0.248 NA
ATOM     39  C   UNL A   1      41.560  26.642  25.987  1.00  0.00     0.031 C 
ATOM     40  C   UNL A   1      42.545  30.154  29.020  1.00  0.00     0.029 A 
ATOM     41  N   UNL A   1      43.894  28.501  28.431  1.00  0.00    -0.354 N 
ATOM     42  C   UNL A   1      42.630  24.790  26.816  1.00  0.00     0.074 A 
ATOM     43  C   UNL A   1      42.013  25.422  25.676  1.00  0.00     0.031 C 
ATOM     44  C   UNL A   1      43.792  30.667  28.977  1.00  0.00     0.029 A 
ATOM     45  C   UNL A   1      44.712  29.594  28.657  1.00  0.00     0.049 A 
ATOM     46  H   UNL A   1      44.245  27.605  28.222  1.00  0.00     0.167 HD
ATOM     47  C   UNL A   1      43.448  23.702  26.910  1.00  0.00     0.037 A 
ATOM     48  C   UNL A   1      46.061  29.633  28.642  1.00  0.00     0.037 A 
ATOM     49  C   UNL A   1      43.759  23.386  28.277  1.00  0.00     0.049 A 
ATOM     50  C   UNL A   1      46.551  28.263  28.897  1.00  0.00     0.074 A 
ATOM     51  C   UNL A   1      43.044  22.986  29.387  1.00  0.00     0.029 A 
ATOM     52  N   UNL A   1      44.988  23.773  28.747  1.00  0.00    -0.354 N 
ATOM     53  N   UNL A   1      46.419  27.643  30.036  1.00  0.00    -0.248 NA
ATOM     54  C   UNL A   1      46.894  27.420  27.765  1.00  0.00     0.031 C 
ATOM     55  C   UNL A   1      43.704  23.600  30.494  1.00  0.00     0.029 A 
ATOM     56  C   UNL A   1      44.793  24.313  29.990  1.00  0.00     0.049 A 
ATOM     57  H   UNL A   1      45.849  23.678  28.279  1.00  0.00     0.167 HD
ATOM     58  C   UNL A   1      46.242  26.312  29.695  1.00  0.00     0.074 A 
ATOM     59  C   UNL A   1      46.690  26.219  28.310  1.00  0.00     0.031 C 
ATOM     60  C   UNL A   1      45.497  25.478  30.477  1.00  0.00     0.037 A 
BRANCH  47  61
ATOM     61  C   UNL A   1      44.232  23.083  25.778  1.00  0.00     0.057 A 
ATOM     62  C   UNL A   1      44.125  21.699  25.528  1.00  0.00     0.134 A 
ATOM     63  C   UNL A   1      45.301  23.728  25.130  1.00  0.00     0.134 A 
ATOM     64  F   UNL A   1      43.158  20.968  26.104  1.00  0.00    -0.206 F 
ATOM     65  C   UNL A   1      45.050  21.002  24.741  1.00  0.00     0.040 A 
ATOM     66  C   UNL A   1      46.204  23.048  24.304  1.00  0.00     0.040 A 
ATOM     67  F   UNL A   1      45.579  25.020  25.343  1.00  0.00    -0.206 F 
ATOM     68  C   UNL A   1      46.099  21.675  24.130  1.00  0.00     0.006 A 
ENDBRANCH  47  61
BRANCH  48  69
ATOM     69  C   UNL A   1      46.939  30.759  28.285  1.00  0.00     0.057 A 
ATOM     70  C   UNL A   1      46.981  31.276  26.986  1.00  0.00     0.134 A 
ATOM     71  C   UNL A   1      47.572  31.521  29.284  1.00  0.00     0.134 A 
ATOM     72  F   UNL A   1      46.380  30.633  25.976  1.00  0.00    -0.206 F 
ATOM     73  C   UNL A   1      47.596  32.501  26.699  1.00  0.00     0.040 A 
ATOM     74  C   UNL A   1      48.192  32.742  29.011  1.00  0.00     0.040 A 
ATOM     75  F   UNL A   1      47.531  31.141  30.570  1.00  0.00    -0.206 F 
ATOM     76  C   UNL A   1      48.192  33.244  27.715  1.00  0.00     0.006 A 
ENDBRANCH  48  69
BRANCH  60  77
ATOM     77  C   UNL A   1      45.158  25.944  31.865  1.00  0.00     0.057 A 
ATOM     78  C   UNL A   1      46.001  25.785  32.974  1.00  0.00     0.134 A 
ATOM     79  C   UNL A   1      43.994  26.696  32.060  1.00  0.00     0.134 A 
ATOM     80  F   UNL A   1      47.184  25.169  32.862  1.00  0.00    -0.206 F 
ATOM     81  C   UNL A   1      45.676  26.306  34.230  1.00  0.00     0.040 A 
ATOM     82  C   UNL A   1      43.673  27.250  33.301  1.00  0.00     0.040 A 
ATOM     83  F   UNL A   1      43.168  26.942  31.030  1.00  0.00    -0.206 F 
ATOM     84  C   UNL A   1      44.509  27.045  34.395  1.00  0.00     0.006 A 
ENDBRANCH  60  77
ENDBRANCH  34  35
ENDBRANCH  26  29
ENDBRANCH  24  25
ENDBRANCH  23  24
ENDBRANCH   1  23
TORSDOF 14
ENDMDL
MODEL 3
REMARK VINA RESULT:     -10.9      2.179      6.789
REMARK SMILES C[NH2+]C[C@H](C)C(=O)Nc1snc(C)c1C(=O)NCCCNC(=O)c1ccc(-c2c3nc(c(-c4c(F)cccc4F)c4ccc([nH]4)c(-c4c(F)cccc4F)c4nc(c(-c5c(F)cccc5F)c5ccc2[nH]5)C=C4)C=C3)cc1
REMARK SMILES IDX 18 1 17 2 15 3 16 4 14 6 9 7 10 8 11 9 12 10 13 11 8 12 6 13
REMARK SMILES IDX 7 14 4 16 5 17 3 18 2 19 1 20 19 23 20 24 21 25 22 26 23 28
REMARK SMILES IDX 24 29 25 30 77 31 26 32 76 33 27 34 28 35 29 36 70 37 30 38
REMARK SMILES IDX 75 39 69 40 71 41 31 42 74 43 68 44 67 45 32 47 58 48 41 49
REMARK SMILES IDX 57 50 42 51 45 52 56 53 72 54 43 55 44 56 55 58 73 59 46 60
REMARK SMILES IDX 33 61 34 62 39 63 35 64 36 65 38 66 40 67 37 68 59 69 60 70
REMARK SMILES IDX 65 71 61 72 62 73 64 74 66 75 63 76 47 77 48 78 53 79 49 80
REMARK SMILES IDX 50 81 52 82 54 83 51 84
REMARK H PARENT 17 5 8 15 2 21 2 22 21 27 71 46 45 57
REMARK Flexibility Score: inf
ROOT
ATOM      1  C   UNL A   1      32.618  28.534  27.482  1.00  0.00     0.118 C 
ENDROOT
BRANCH   1   2
ATOM      2  N   UNL A   1      33.301  27.671  26.538  1.00  0.00    -0.352 N 
ATOM      3  C   UNL A   1      32.851  27.047  25.391  1.00  0.00     0.256 C 
ATOM      4  O   UNL A   1      33.719  26.467  24.735  1.00  0.00    -0.269 OA
ATOM      5  H   UNL A   1      34.247  27.501  26.752  1.00  0.00     0.163 HD
BRANCH   3   6
ATOM      6  C   UNL A   1      31.437  26.994  24.986  1.00  0.00     0.097 A 
ATOM      7  C   UNL A   1      30.409  26.160  25.400  1.00  0.00     0.129 A 
ATOM      8  S   UNL A   1      29.154  26.193  24.241  1.00  0.00    -0.017 S 
ATOM      9  N   UNL A   1      29.661  27.573  23.505  1.00  0.00    -0.195 NA
ATOM     10  C   UNL A   1      30.843  27.925  24.018  1.00  0.00     0.066 A 
ATOM     11  C   UNL A   1      31.412  29.212  23.515  1.00  0.00     0.069 C 
BRANCH   7  12
ATOM     12  N   UNL A   1      30.161  25.266  26.404  1.00  0.00    -0.315 N 
ATOM     13  C   UNL A   1      30.678  24.030  26.629  1.00  0.00     0.233 C 
ATOM     14  O   UNL A   1      30.020  23.291  27.373  1.00  0.00    -0.274 OA
ATOM     15  H   UNL A   1      29.502  25.566  27.071  1.00  0.00     0.170 HD
BRANCH  13  16
ATOM     16  C   UNL A   1      32.085  23.603  26.209  1.00  0.00     0.130 C 
ATOM     17  C   UNL A   1      32.896  22.720  27.142  1.00  0.00     0.024 C 
BRANCH  16  18
ATOM     18  C   UNL A   1      32.018  22.989  24.799  1.00  0.00     0.273 C 
BRANCH  18  19
ATOM     19  N   UNL A   1      32.807  23.686  23.776  1.00  0.00    -0.348 N 
ATOM     20  C   UNL A   1      34.040  22.980  23.444  1.00  0.00     0.330 C 
ATOM     21  H   UNL A   1      32.243  23.774  22.930  1.00  0.00     0.346 HD
ATOM     22  H   UNL A   1      33.064  24.599  24.151  1.00  0.00     0.346 HD
ENDBRANCH  18  19
ENDBRANCH  16  18
ENDBRANCH  13  16
ENDBRANCH   7  12
ENDBRANCH   3   6
ENDBRANCH   1   2
BRANCH   1  23
ATOM     23  C   UNL A   1      32.435  29.994  27.079  1.00  0.00     0.042 C 
BRANCH  23  24
ATOM     24  C   UNL A   1      33.709  30.818  27.199  1.00  0.00     0.118 C 
BRANCH  24  25
ATOM     25  N   UNL A   1      33.768  31.714  28.357  1.00  0.00    -0.352 N 
ATOM     26  C   UNL A   1      34.839  31.847  29.241  1.00  0.00     0.251 C 
ATOM     27  H   UNL A   1      32.977  32.277  28.527  1.00  0.00     0.163 HD
ATOM     28  O   UNL A   1      34.751  32.403  30.307  1.00  0.00    -0.269 OA
BRANCH  26  29
ATOM     29  C   UNL A   1      36.113  31.242  28.795  1.00  0.00     0.039 A 
ATOM     30  C   UNL A   1      37.320  31.904  29.011  1.00  0.00     0.014 A 
ATOM     31  C   UNL A   1      36.072  29.896  28.454  1.00  0.00     0.014 A 
ATOM     32  C   UNL A   1      38.495  31.151  29.035  1.00  0.00     0.010 A 
ATOM     33  C   UNL A   1      37.215  29.143  28.624  1.00  0.00     0.010 A 
ATOM     34  C   UNL A   1      38.441  29.750  28.916  1.00  0.00    -0.014 A 
BRANCH  34  35
ATOM     35  C   UNL A   1      39.632  28.941  29.222  1.00  0.00     0.031 A 
ATOM     36  C   UNL A   1      39.987  28.750  30.668  1.00  0.00     0.074 A 
ATOM     37  C   UNL A   1      40.343  28.224  28.324  1.00  0.00     0.049 A 
ATOM     38  N   UNL A   1      41.025  29.210  31.292  1.00  0.00    -0.248 NA
ATOM     39  C   UNL A   1      39.071  27.990  31.531  1.00  0.00     0.031 C 
ATOM     40  C   UNL A   1      40.085  27.993  26.898  1.00  0.00     0.029 A 
ATOM     41  N   UNL A   1      41.463  27.474  28.551  1.00  0.00    -0.354 N 
ATOM     42  C   UNL A   1      40.985  28.687  32.585  1.00  0.00     0.074 A 
ATOM     43  C   UNL A   1      39.714  28.017  32.704  1.00  0.00     0.031 C 
ATOM     44  C   UNL A   1      40.878  27.000  26.445  1.00  0.00     0.029 A 
ATOM     45  C   UNL A   1      41.837  26.679  27.482  1.00  0.00     0.049 A 
ATOM     46  H   UNL A   1      41.959  27.496  29.400  1.00  0.00     0.167 HD
ATOM     47  C   UNL A   1      42.069  28.715  33.411  1.00  0.00     0.037 A 
ATOM     48  C   UNL A   1      42.893  25.841  27.406  1.00  0.00     0.037 A 
ATOM     49  C   UNL A   1      43.095  29.592  32.915  1.00  0.00     0.049 A 
ATOM     50  C   UNL A   1      43.895  26.295  28.393  1.00  0.00     0.074 A 
ATOM     51  C   UNL A   1      43.206  30.945  32.669  1.00  0.00     0.029 A 
ATOM     52  N   UNL A   1      44.168  29.012  32.288  1.00  0.00    -0.354 N 
ATOM     53  N   UNL A   1      44.563  27.410  28.293  1.00  0.00    -0.248 NA
ATOM     54  C   UNL A   1      43.918  25.670  29.704  1.00  0.00     0.031 C 
ATOM     55  C   UNL A   1      44.052  31.045  31.524  1.00  0.00     0.029 A 
ATOM     56  C   UNL A   1      44.424  29.749  31.163  1.00  0.00     0.049 A 
ATOM     57  H   UNL A   1      44.661  28.215  32.591  1.00  0.00     0.167 HD
ATOM     58  C   UNL A   1      44.728  27.841  29.598  1.00  0.00     0.074 A 
ATOM     59  C   UNL A   1      44.447  26.667  30.418  1.00  0.00     0.031 C 
ATOM     60  C   UNL A   1      44.810  29.170  29.895  1.00  0.00     0.037 A 
BRANCH  47  61
ATOM     61  C   UNL A   1      42.365  27.733  34.518  1.00  0.00     0.057 A 
ATOM     62  C   UNL A   1      42.934  26.480  34.208  1.00  0.00     0.134 A 
ATOM     63  C   UNL A   1      41.844  27.848  35.819  1.00  0.00     0.134 A 
ATOM     64  F   UNL A   1      43.449  26.239  32.992  1.00  0.00    -0.206 F 
ATOM     65  C   UNL A   1      42.926  25.406  35.106  1.00  0.00     0.040 A 
ATOM     66  C   UNL A   1      41.872  26.794  36.740  1.00  0.00     0.040 A 
ATOM     67  F   UNL A   1      41.195  28.947  36.225  1.00  0.00    -0.206 F 
ATOM     68  C   UNL A   1      42.388  25.558  36.377  1.00  0.00     0.006 A 
ENDBRANCH  47  61
BRANCH  48  69
ATOM     69  C   UNL A   1      43.022  24.599  26.627  1.00  0.00     0.057 A 
ATOM     70  C   UNL A   1      43.717  24.561  25.414  1.00  0.00     0.134 A 
ATOM     71  C   UNL A   1      42.677  23.358  27.192  1.00  0.00     0.134 A 
ATOM     72  F   UNL A   1      44.112  25.694  24.818  1.00  0.00    -0.206 F 
ATOM     73  C   UNL A   1      44.077  23.351  24.807  1.00  0.00     0.040 A 
ATOM     74  C   UNL A   1      43.026  22.144  26.596  1.00  0.00     0.040 A 
ATOM     75  F   UNL A   1      42.065  23.289  28.384  1.00  0.00    -0.206 F 
ATOM     76  C   UNL A   1      43.743  22.139  25.406  1.00  0.00     0.006 A 
ENDBRANCH  48  69
BRANCH  60  77
ATOM     77  C   UNL A   1      45.049  30.124  28.758  1.00  0.00     0.057 A 
ATOM     78  C   UNL A   1      46.315  30.419  28.234  1.00  0.00     0.134 A 
ATOM     79  C   UNL A   1      43.946  30.663  28.086  1.00  0.00     0.134 A 
ATOM     80  F   UNL A   1      47.422  29.869  28.748  1.00  0.00    -0.206 F 
ATOM     81  C   UNL A   1      46.480  31.252  27.124  1.00  0.00     0.040 A 
ATOM     82  C   UNL A   1      44.094  31.470  26.957  1.00  0.00     0.040 A 
ATOM     83  F   UNL A   1      42.700  30.375  28.493  1.00  0.00    -0.206 F 
ATOM     84  C   UNL A   1      45.365  31.778  26.479  1.00  0.00     0.006 A 
ENDBRANCH  60  77
ENDBRANCH  34  35
ENDBRANCH  26  29
ENDBRANCH  24  25
ENDBRANCH  23  24
ENDBRANCH   1  23
TORSDOF 14
ENDMDL
