MODEL 1
REMARK VINA RESULT:     -13.7      0.000      0.000
REMARK SMILES CC(C)[C@@H]1C(=O)Nc2ccccc2N1C(=O)N[C@H](Cc1ccccc1)C(=O)NCCCNC(=O)c1ccc(-c2c3nc(c(-c4c(F)cccc4F)c4ccc([nH]4)c(-c4c(F)cccc4F)c4nc(c(-c5c(F)cccc5F)c5ccc2[nH]5)C=C4)C=C3)cc1
REMARK SMILES IDX 29 1 28 2 26 3 27 4 18 6 17 7 15 8 16 9 14 11 4 12 5 13 6 14
REMARK SMILES IDX 7 15 13 16 8 17 12 19 9 20 11 21 10 22 2 23 1 24 3 25 19 26
REMARK SMILES IDX 20 27 21 28 25 29 22 30 24 31 23 32 30 33 31 34 32 35 33 36
REMARK SMILES IDX 34 38 35 39 36 40 88 41 37 42 87 43 38 44 39 45 40 46 81 47
REMARK SMILES IDX 41 48 86 49 80 50 82 51 42 52 85 53 79 54 78 55 43 57 69 58
REMARK SMILES IDX 52 59 68 60 53 61 56 62 67 63 83 64 54 65 55 66 66 68 84 69
REMARK SMILES IDX 57 70 44 71 45 72 50 73 46 74 47 75 49 76 51 77 48 78 70 79
REMARK SMILES IDX 71 80 76 81 72 82 73 83 75 84 77 85 74 86 58 87 59 88 64 89
REMARK SMILES IDX 60 90 61 91 63 92 65 93 62 94
REMARK H PARENT 28 5 17 10 7 18 32 37 82 56 56 67
REMARK Flexibility Score: inf
ROOT
ATOM      1  C   UNL A   1      38.165  23.153  25.791  1.00  0.00     0.117 C 
ENDROOT
BRANCH   1   2
ATOM      2  N   UNL A   1      36.879  22.947  24.786  1.00  0.00    -0.354 N 
ATOM      3  C   UNL A   1      35.535  22.961  24.412  1.00  0.00     0.242 C 
ATOM      4  O   UNL A   1      35.504  23.044  23.155  1.00  0.00    -0.273 OA
ATOM      5  H   UNL A   1      37.314  22.621  23.965  1.00  0.00     0.163 HD
BRANCH   3   6
ATOM      6  C   UNL A   1      33.920  22.624  25.065  1.00  0.00     0.177 C 
BRANCH   6   7
ATOM      7  N   UNL A   1      32.823  23.413  25.973  1.00  0.00    -0.326 N 
ATOM      8  C   UNL A   1      32.126  24.588  26.251  1.00  0.00     0.323 C 
ATOM      9  O   UNL A   1      31.340  24.482  27.203  1.00  0.00    -0.248 OA
ATOM     10  H   UNL A   1      32.503  22.755  26.632  1.00  0.00     0.166 HD
BRANCH   8  11
ATOM     11  N   UNL A   1      32.153  25.765  25.494  1.00  0.00    -0.280 N 
ATOM     12  C   UNL A   1      31.549  26.054  24.172  1.00  0.00     0.184 C 
ATOM     13  C   UNL A   1      32.674  26.411  23.216  1.00  0.00     0.247 C 
ATOM     14  O   UNL A   1      32.835  25.985  22.084  1.00  0.00    -0.272 OA
ATOM     15  N   UNL A   1      33.315  27.554  23.712  1.00  0.00    -0.322 N 
ATOM     16  C   UNL A   1      32.541  27.070  26.001  1.00  0.00     0.070 A 
ATOM     17  C   UNL A   1      32.981  28.019  25.016  1.00  0.00     0.065 A 
ATOM     18  H   UNL A   1      33.985  28.028  23.168  1.00  0.00     0.170 HD
ATOM     19  C   UNL A   1      31.986  27.534  27.196  1.00  0.00     0.028 A 
ATOM     20  C   UNL A   1      32.779  29.386  25.197  1.00  0.00     0.028 A 
ATOM     21  C   UNL A   1      31.722  28.904  27.334  1.00  0.00     0.002 A 
ATOM     22  C   UNL A   1      32.091  29.815  26.333  1.00  0.00     0.002 A 
BRANCH  12  23
ATOM     23  C   UNL A   1      30.349  25.232  24.008  1.00  0.00     0.015 C 
ATOM     24  C   UNL A   1      29.181  26.423  23.909  1.00  0.00     0.010 C 
ATOM     25  C   UNL A   1      30.530  23.933  23.188  1.00  0.00     0.010 C 
ENDBRANCH  12  23
ENDBRANCH   8  11
ENDBRANCH   6   7
BRANCH   6  26
ATOM     26  C   UNL A   1      33.898  21.083  25.493  1.00  0.00     0.070 C 
BRANCH  26  27
ATOM     27  C   UNL A   1      33.572  19.892  24.615  1.00  0.00    -0.045 A 
ATOM     28  C   UNL A   1      34.484  18.811  24.697  1.00  0.00     0.004 A 
ATOM     29  C   UNL A   1      32.486  19.765  23.753  1.00  0.00     0.004 A 
ATOM     30  C   UNL A   1      34.323  17.648  23.945  1.00  0.00     0.000 A 
ATOM     31  C   UNL A   1      32.324  18.592  22.994  1.00  0.00     0.000 A 
ATOM     32  C   UNL A   1      33.239  17.540  23.088  1.00  0.00     0.000 A 
ENDBRANCH  26  27
ENDBRANCH   6  26
ENDBRANCH   3   6
ENDBRANCH   1   2
BRANCH   1  33
ATOM     33  C   UNL A   1      39.338  22.157  26.246  1.00  0.00     0.042 C 
BRANCH  33  34
ATOM     34  C   UNL A   1      40.601  22.642  26.991  1.00  0.00     0.118 C 
BRANCH  34  35
ATOM     35  N   UNL A   1      41.298  23.662  26.167  1.00  0.00    -0.352 N 
ATOM     36  C   UNL A   1      41.425  25.032  26.106  1.00  0.00     0.251 C 
ATOM     37  H   UNL A   1      41.822  23.233  25.452  1.00  0.00     0.163 HD
ATOM     38  O   UNL A   1      41.982  25.480  25.098  1.00  0.00    -0.269 OA
BRANCH  36  39
ATOM     39  C   UNL A   1      40.992  26.014  27.143  1.00  0.00     0.039 A 
ATOM     40  C   UNL A   1      41.637  27.273  27.177  1.00  0.00     0.014 A 
ATOM     41  C   UNL A   1      40.095  25.719  28.163  1.00  0.00     0.014 A 
ATOM     42  C   UNL A   1      41.402  28.196  28.212  1.00  0.00     0.010 A 
ATOM     43  C   UNL A   1      39.809  26.665  29.161  1.00  0.00     0.010 A 
ATOM     44  C   UNL A   1      40.486  27.895  29.224  1.00  0.00    -0.014 A 
BRANCH  44  45
ATOM     45  C   UNL A   1      40.301  28.774  30.416  1.00  0.00     0.031 A 
ATOM     46  C   UNL A   1      39.234  29.843  30.389  1.00  0.00     0.074 A 
ATOM     47  C   UNL A   1      41.107  28.674  31.492  1.00  0.00     0.049 A 
ATOM     48  N   UNL A   1      38.994  30.809  31.240  1.00  0.00    -0.248 NA
ATOM     49  C   UNL A   1      38.334  29.837  29.225  1.00  0.00     0.031 C 
ATOM     50  C   UNL A   1      42.180  27.696  31.656  1.00  0.00     0.029 A 
ATOM     51  N   UNL A   1      41.161  29.424  32.643  1.00  0.00    -0.354 N 
ATOM     52  C   UNL A   1      37.944  31.542  30.697  1.00  0.00     0.074 A 
ATOM     53  C   UNL A   1      37.623  30.936  29.423  1.00  0.00     0.031 C 
ATOM     54  C   UNL A   1      42.790  27.907  32.834  1.00  0.00     0.029 A 
ATOM     55  C   UNL A   1      42.177  29.058  33.493  1.00  0.00     0.049 A 
ATOM     56  H   UNL A   1      40.531  30.156  32.840  1.00  0.00     0.167 HD
ATOM     57  C   UNL A   1      37.293  32.613  31.214  1.00  0.00     0.037 A 
ATOM     58  C   UNL A   1      42.583  29.600  34.659  1.00  0.00     0.037 A 
ATOM     59  C   UNL A   1      37.590  33.196  32.497  1.00  0.00     0.049 A 
ATOM     60  C   UNL A   1      41.858  30.797  35.213  1.00  0.00     0.074 A 
ATOM     61  C   UNL A   1      36.952  34.244  33.139  1.00  0.00     0.029 A 
ATOM     62  N   UNL A   1      38.614  32.780  33.335  1.00  0.00    -0.354 N 
ATOM     63  N   UNL A   1      40.841  31.455  34.707  1.00  0.00    -0.248 NA
ATOM     64  C   UNL A   1      42.332  31.325  36.500  1.00  0.00     0.031 C 
ATOM     65  C   UNL A   1      37.621  34.493  34.341  1.00  0.00     0.029 A 
ATOM     66  C   UNL A   1      38.642  33.564  34.476  1.00  0.00     0.049 A 
ATOM     67  H   UNL A   1      39.231  32.036  33.146  1.00  0.00     0.167 HD
ATOM     68  C   UNL A   1      40.539  32.454  35.625  1.00  0.00     0.074 A 
ATOM     69  C   UNL A   1      41.471  32.308  36.724  1.00  0.00     0.031 C 
ATOM     70  C   UNL A   1      39.574  33.405  35.564  1.00  0.00     0.037 A 
BRANCH  57  71
ATOM     71  C   UNL A   1      36.201  33.230  30.383  1.00  0.00     0.057 A 
ATOM     72  C   UNL A   1      34.844  33.010  30.654  1.00  0.00     0.134 A 
ATOM     73  C   UNL A   1      36.513  34.067  29.303  1.00  0.00     0.134 A 
ATOM     74  F   UNL A   1      34.473  32.212  31.666  1.00  0.00    -0.206 F 
ATOM     75  C   UNL A   1      33.838  33.566  29.859  1.00  0.00     0.040 A 
ATOM     76  C   UNL A   1      35.516  34.653  28.520  1.00  0.00     0.040 A 
ATOM     77  F   UNL A   1      37.790  34.330  28.990  1.00  0.00    -0.206 F 
ATOM     78  C   UNL A   1      34.174  34.395  28.791  1.00  0.00     0.006 A 
ENDBRANCH  57  71
BRANCH  58  79
ATOM     79  C   UNL A   1      43.731  29.003  35.391  1.00  0.00     0.057 A 
ATOM     80  C   UNL A   1      43.532  28.024  36.373  1.00  0.00     0.134 A 
ATOM     81  C   UNL A   1      45.051  29.386  35.123  1.00  0.00     0.134 A 
ATOM     82  F   UNL A   1      42.290  27.633  36.693  1.00  0.00    -0.206 F 
ATOM     83  C   UNL A   1      44.603  27.453  37.065  1.00  0.00     0.040 A 
ATOM     84  C   UNL A   1      46.132  28.805  35.789  1.00  0.00     0.040 A 
ATOM     85  F   UNL A   1      45.310  30.319  34.195  1.00  0.00    -0.206 F 
ATOM     86  C   UNL A   1      45.908  27.837  36.766  1.00  0.00     0.006 A 
ENDBRANCH  58  79
BRANCH  70  87
ATOM     87  C   UNL A   1      39.453  34.342  36.731  1.00  0.00     0.057 A 
ATOM     88  C   UNL A   1      38.775  33.984  37.903  1.00  0.00     0.134 A 
ATOM     89  C   UNL A   1      40.061  35.604  36.697  1.00  0.00     0.134 A 
ATOM     90  F   UNL A   1      38.162  32.794  37.998  1.00  0.00    -0.206 F 
ATOM     91  C   UNL A   1      38.687  34.856  38.990  1.00  0.00     0.040 A 
ATOM     92  C   UNL A   1      40.003  36.473  37.787  1.00  0.00     0.040 A 
ATOM     93  F   UNL A   1      40.736  36.006  35.609  1.00  0.00    -0.206 F 
ATOM     94  C   UNL A   1      39.309  36.103  38.936  1.00  0.00     0.006 A 
ENDBRANCH  70  87
ENDBRANCH  44  45
ENDBRANCH  36  39
ENDBRANCH  34  35
ENDBRANCH  33  34
ENDBRANCH   1  33
TORSDOF 15
ENDMDL
MODEL 2
REMARK VINA RESULT:     -13.7      0.139      1.353
REMARK SMILES CC(C)[C@@H]1C(=O)Nc2ccccc2N1C(=O)N[C@H](Cc1ccccc1)C(=O)NCCCNC(=O)c1ccc(-c2c3nc(c(-c4c(F)cccc4F)c4ccc([nH]4)c(-c4c(F)cccc4F)c4nc(c(-c5c(F)cccc5F)c5ccc2[nH]5)C=C4)C=C3)cc1
REMARK SMILES IDX 29 1 28 2 26 3 27 4 18 6 17 7 15 8 16 9 14 11 4 12 5 13 6 14
REMARK SMILES IDX 7 15 13 16 8 17 12 19 9 20 11 21 10 22 2 23 1 24 3 25 19 26
REMARK SMILES IDX 20 27 21 28 25 29 22 30 24 31 23 32 30 33 31 34 32 35 33 36
REMARK SMILES IDX 34 38 35 39 36 40 88 41 37 42 87 43 38 44 39 45 40 46 81 47
REMARK SMILES IDX 41 48 86 49 80 50 82 51 42 52 85 53 79 54 78 55 43 57 69 58
REMARK SMILES IDX 52 59 68 60 53 61 56 62 67 63 83 64 54 65 55 66 66 68 84 69
REMARK SMILES IDX 57 70 44 71 45 72 50 73 46 74 47 75 49 76 51 77 48 78 70 79
REMARK SMILES IDX 71 80 76 81 72 82 73 83 75 84 77 85 74 86 58 87 59 88 64 89
REMARK SMILES IDX 60 90 61 91 63 92 65 93 62 94
REMARK H PARENT 28 5 17 10 7 18 32 37 82 56 56 67
REMARK Flexibility Score: inf
ROOT
ATOM      1  C   UNL A   1      38.236  22.991  26.045  1.00  0.00     0.117 C 
ENDROOT
BRANCH   1   2
ATOM      2  N   UNL A   1      36.981  22.778  25.002  1.00  0.00    -0.354 N 
ATOM      3  C   UNL A   1      35.650  22.793  24.585  1.00  0.00     0.242 C 
ATOM      4  O   UNL A   1      35.660  22.863  23.327  1.00  0.00    -0.273 OA
ATOM      5  H   UNL A   1      37.441  22.443  24.198  1.00  0.00     0.163 HD
BRANCH   3   6
ATOM      6  C   UNL A   1      34.015  22.468  25.190  1.00  0.00     0.177 C 
BRANCH   6   7
ATOM      7  N   UNL A   1      32.894  23.269  26.059  1.00  0.00    -0.326 N 
ATOM      8  C   UNL A   1      32.185  24.445  26.299  1.00  0.00     0.323 C 
ATOM      9  O   UNL A   1      31.379  24.352  27.236  1.00  0.00    -0.248 OA
ATOM     10  H   UNL A   1      32.563  22.621  26.723  1.00  0.00     0.166 HD
BRANCH   8  11
ATOM     11  N   UNL A   1      32.223  25.607  25.521  1.00  0.00    -0.280 N 
ATOM     12  C   UNL A   1      31.641  25.869  24.183  1.00  0.00     0.184 C 
ATOM     13  C   UNL A   1      32.781  26.211  23.240  1.00  0.00     0.247 C 
ATOM     14  O   UNL A   1      32.964  25.764  22.120  1.00  0.00    -0.272 OA
ATOM     15  N   UNL A   1      33.411  27.366  23.726  1.00  0.00    -0.322 N 
ATOM     16  C   UNL A   1      32.598  26.923  26.009  1.00  0.00     0.070 A 
ATOM     17  C   UNL A   1      33.052  27.854  25.014  1.00  0.00     0.065 A 
ATOM     18  H   UNL A   1      34.089  27.830  23.184  1.00  0.00     0.170 HD
ATOM     19  C   UNL A   1      32.021  27.408  27.185  1.00  0.00     0.028 A 
ATOM     20  C   UNL A   1      32.843  29.224  25.166  1.00  0.00     0.028 A 
ATOM     21  C   UNL A   1      31.751  28.779  27.292  1.00  0.00     0.002 A 
ATOM     22  C   UNL A   1      32.134  29.672  26.281  1.00  0.00     0.002 A 
BRANCH  12  23
ATOM     23  C   UNL A   1      30.446  25.041  24.014  1.00  0.00     0.015 C 
ATOM     24  C   UNL A   1      29.271  26.225  23.915  1.00  0.00     0.010 C 
ATOM     25  C   UNL A   1      30.637  23.744  23.191  1.00  0.00     0.010 C 
ENDBRANCH  12  23
ENDBRANCH   8  11
ENDBRANCH   6   7
BRANCH   6  26
ATOM     26  C   UNL A   1      33.971  20.930  25.626  1.00  0.00     0.070 C 
BRANCH  26  27
ATOM     27  C   UNL A   1      33.742  19.729  24.730  1.00  0.00    -0.045 A 
ATOM     28  C   UNL A   1      32.596  19.802  23.901  1.00  0.00     0.004 A 
ATOM     29  C   UNL A   1      34.534  18.586  24.651  1.00  0.00     0.004 A 
ATOM     30  C   UNL A   1      32.248  18.773  23.027  1.00  0.00     0.000 A 
ATOM     31  C   UNL A   1      34.182  17.548  23.770  1.00  0.00     0.000 A 
ATOM     32  C   UNL A   1      33.044  17.640  22.964  1.00  0.00     0.000 A 
ENDBRANCH  26  27
ENDBRANCH   6  26
ENDBRANCH   3   6
ENDBRANCH   1   2
BRANCH   1  33
ATOM     33  C   UNL A   1      39.519  22.086  26.374  1.00  0.00     0.042 C 
BRANCH  33  34
ATOM     34  C   UNL A   1      40.796  22.656  27.031  1.00  0.00     0.118 C 
BRANCH  34  35
ATOM     35  N   UNL A   1      41.378  23.700  26.150  1.00  0.00    -0.352 N 
ATOM     36  C   UNL A   1      41.414  25.074  26.059  1.00  0.00     0.251 C 
ATOM     37  H   UNL A   1      41.888  23.290  25.414  1.00  0.00     0.163 HD
ATOM     38  O   UNL A   1      41.884  25.535  25.012  1.00  0.00    -0.269 OA
BRANCH  36  39
ATOM     39  C   UNL A   1      40.980  26.049  27.101  1.00  0.00     0.039 A 
ATOM     40  C   UNL A   1      41.631  27.303  27.152  1.00  0.00     0.014 A 
ATOM     41  C   UNL A   1      40.073  25.749  28.112  1.00  0.00     0.014 A 
ATOM     42  C   UNL A   1      41.394  28.217  28.194  1.00  0.00     0.010 A 
ATOM     43  C   UNL A   1      39.785  26.686  29.116  1.00  0.00     0.010 A 
ATOM     44  C   UNL A   1      40.469  27.912  29.197  1.00  0.00    -0.014 A 
BRANCH  44  45
ATOM     45  C   UNL A   1      40.279  28.781  30.395  1.00  0.00     0.031 A 
ATOM     46  C   UNL A   1      39.219  29.856  30.370  1.00  0.00     0.074 A 
ATOM     47  C   UNL A   1      41.076  28.665  31.477  1.00  0.00     0.049 A 
ATOM     48  N   UNL A   1      38.978  30.815  31.229  1.00  0.00    -0.248 NA
ATOM     49  C   UNL A   1      38.329  29.867  29.199  1.00  0.00     0.031 C 
ATOM     50  C   UNL A   1      42.142  27.679  31.640  1.00  0.00     0.029 A 
ATOM     51  N   UNL A   1      41.126  29.404  32.635  1.00  0.00    -0.354 N 
ATOM     52  C   UNL A   1      37.937  31.561  30.685  1.00  0.00     0.074 A 
ATOM     53  C   UNL A   1      37.623  30.969  29.403  1.00  0.00     0.031 C 
ATOM     54  C   UNL A   1      42.743  27.874  32.825  1.00  0.00     0.029 A 
ATOM     55  C   UNL A   1      42.133  29.023  33.490  1.00  0.00     0.049 A 
ATOM     56  H   UNL A   1      40.499  30.137  32.834  1.00  0.00     0.167 HD
ATOM     57  C   UNL A   1      37.289  32.630  31.207  1.00  0.00     0.037 A 
ATOM     58  C   UNL A   1      42.532  29.551  34.665  1.00  0.00     0.037 A 
ATOM     59  C   UNL A   1      37.579  33.199  32.499  1.00  0.00     0.049 A 
ATOM     60  C   UNL A   1      41.810  30.748  35.224  1.00  0.00     0.074 A 
ATOM     61  C   UNL A   1      36.942  34.244  33.145  1.00  0.00     0.029 A 
ATOM     62  N   UNL A   1      38.594  32.768  33.340  1.00  0.00    -0.354 N 
ATOM     63  N   UNL A   1      40.802  31.416  34.717  1.00  0.00    -0.248 NA
ATOM     64  C   UNL A   1      42.278  31.260  36.520  1.00  0.00     0.031 C 
ATOM     65  C   UNL A   1      37.604  34.478  34.356  1.00  0.00     0.029 A 
ATOM     66  C   UNL A   1      38.617  33.541  34.489  1.00  0.00     0.049 A 
ATOM     67  H   UNL A   1      39.208  32.023  33.149  1.00  0.00     0.167 HD
ATOM     68  C   UNL A   1      40.498  32.408  35.642  1.00  0.00     0.074 A 
ATOM     69  C   UNL A   1      41.420  32.246  36.747  1.00  0.00     0.031 C 
ATOM     70  C   UNL A   1      39.540  33.366  35.582  1.00  0.00     0.037 A 
BRANCH  57  71
ATOM     71  C   UNL A   1      36.207  33.262  30.374  1.00  0.00     0.057 A 
ATOM     72  C   UNL A   1      36.496  34.108  29.295  1.00  0.00     0.134 A 
ATOM     73  C   UNL A   1      34.856  33.010  30.648  1.00  0.00     0.134 A 
ATOM     74  F   UNL A   1      37.767  34.402  28.982  1.00  0.00    -0.206 F 
ATOM     75  C   UNL A   1      35.483  34.711  28.545  1.00  0.00     0.040 A 
ATOM     76  C   UNL A   1      33.835  33.582  29.886  1.00  0.00     0.040 A 
ATOM     77  F   UNL A   1      34.504  32.203  31.660  1.00  0.00    -0.206 F 
ATOM     78  C   UNL A   1      34.148  34.444  28.837  1.00  0.00     0.006 A 
ENDBRANCH  57  71
BRANCH  58  79
ATOM     79  C   UNL A   1      43.671  28.940  35.400  1.00  0.00     0.057 A 
ATOM     80  C   UNL A   1      44.991  29.329  35.141  1.00  0.00     0.134 A 
ATOM     81  C   UNL A   1      43.469  27.964  36.384  1.00  0.00     0.134 A 
ATOM     82  F   UNL A   1      45.250  30.241  34.193  1.00  0.00    -0.206 F 
ATOM     83  C   UNL A   1      46.069  28.766  35.827  1.00  0.00     0.040 A 
ATOM     84  C   UNL A   1      44.536  27.410  37.096  1.00  0.00     0.040 A 
ATOM     85  F   UNL A   1      42.230  27.546  36.680  1.00  0.00    -0.206 F 
ATOM     86  C   UNL A   1      45.841  27.810  36.815  1.00  0.00     0.006 A 
ENDBRANCH  58  79
BRANCH  70  87
ATOM     87  C   UNL A   1      39.416  34.292  36.758  1.00  0.00     0.057 A 
ATOM     88  C   UNL A   1      38.763  33.911  37.937  1.00  0.00     0.134 A 
ATOM     89  C   UNL A   1      39.995  35.567  36.724  1.00  0.00     0.134 A 
ATOM     90  F   UNL A   1      38.177  32.708  38.033  1.00  0.00    -0.206 F 
ATOM     91  C   UNL A   1      38.671  34.774  39.031  1.00  0.00     0.040 A 
ATOM     92  C   UNL A   1      39.934  36.427  37.821  1.00  0.00     0.040 A 
ATOM     93  F   UNL A   1      40.645  35.991  35.629  1.00  0.00    -0.206 F 
ATOM     94  C   UNL A   1      39.265  36.034  38.977  1.00  0.00     0.006 A 
ENDBRANCH  70  87
ENDBRANCH  44  45
ENDBRANCH  36  39
ENDBRANCH  34  35
ENDBRANCH  33  34
ENDBRANCH   1  33
TORSDOF 15
ENDMDL
MODEL 3
REMARK VINA RESULT:     -13.6      1.384      6.183
REMARK SMILES CC(C)[C@@H]1C(=O)Nc2ccccc2N1C(=O)N[C@H](Cc1ccccc1)C(=O)NCCCNC(=O)c1ccc(-c2c3nc(c(-c4c(F)cccc4F)c4ccc([nH]4)c(-c4c(F)cccc4F)c4nc(c(-c5c(F)cccc5F)c5ccc2[nH]5)C=C4)C=C3)cc1
REMARK SMILES IDX 29 1 28 2 26 3 27 4 18 6 17 7 15 8 16 9 14 11 4 12 5 13 6 14
REMARK SMILES IDX 7 15 13 16 8 17 12 19 9 20 11 21 10 22 2 23 1 24 3 25 19 26
REMARK SMILES IDX 20 27 21 28 25 29 22 30 24 31 23 32 30 33 31 34 32 35 33 36
REMARK SMILES IDX 34 38 35 39 36 40 88 41 37 42 87 43 38 44 39 45 40 46 81 47
REMARK SMILES IDX 41 48 86 49 80 50 82 51 42 52 85 53 79 54 78 55 43 57 69 58
REMARK SMILES IDX 52 59 68 60 53 61 56 62 67 63 83 64 54 65 55 66 66 68 84 69
REMARK SMILES IDX 57 70 44 71 45 72 50 73 46 74 47 75 49 76 51 77 48 78 70 79
REMARK SMILES IDX 71 80 76 81 72 82 73 83 75 84 77 85 74 86 58 87 59 88 64 89
REMARK SMILES IDX 60 90 61 91 63 92 65 93 62 94
REMARK H PARENT 28 5 17 10 7 18 32 37 82 56 56 67
REMARK Flexibility Score: inf
ROOT
ATOM      1  C   UNL A   1      38.431  22.146  25.599  1.00  0.00     0.117 C 
ENDROOT
BRANCH   1   2
ATOM      2  N   UNL A   1      37.091  22.374  24.673  1.00  0.00    -0.354 N 
ATOM      3  C   UNL A   1      35.753  22.672  24.413  1.00  0.00     0.242 C 
ATOM      4  O   UNL A   1      35.688  23.057  23.215  1.00  0.00    -0.273 OA
ATOM      5  H   UNL A   1      37.438  22.195  23.768  1.00  0.00     0.163 HD
BRANCH   3   6
ATOM      6  C   UNL A   1      34.132  22.424  25.089  1.00  0.00     0.177 C 
BRANCH   6   7
ATOM      7  N   UNL A   1      33.088  23.278  26.001  1.00  0.00    -0.326 N 
ATOM      8  C   UNL A   1      32.419  24.477  26.246  1.00  0.00     0.323 C 
ATOM      9  O   UNL A   1      31.677  24.433  27.238  1.00  0.00    -0.248 OA
ATOM     10  H   UNL A   1      32.790  22.661  26.708  1.00  0.00     0.166 HD
BRANCH   8  11
ATOM     11  N   UNL A   1      32.427  25.610  25.427  1.00  0.00    -0.280 N 
ATOM     12  C   UNL A   1      31.779  25.832  24.113  1.00  0.00     0.184 C 
ATOM     13  C   UNL A   1      32.872  26.129  23.101  1.00  0.00     0.247 C 
ATOM     14  O   UNL A   1      32.992  25.641  21.988  1.00  0.00    -0.272 OA
ATOM     15  N   UNL A   1      33.537  27.293  23.512  1.00  0.00    -0.322 N 
ATOM     16  C   UNL A   1      32.840  26.938  25.848  1.00  0.00     0.070 A 
ATOM     17  C   UNL A   1      33.250  27.829  24.799  1.00  0.00     0.065 A 
ATOM     18  H   UNL A   1      34.190  27.731  22.920  1.00  0.00     0.170 HD
ATOM     19  C   UNL A   1      32.329  27.470  27.035  1.00  0.00     0.028 A 
ATOM     20  C   UNL A   1      33.062  29.206  24.913  1.00  0.00     0.028 A 
ATOM     21  C   UNL A   1      32.078  28.847  27.108  1.00  0.00     0.002 A 
ATOM     22  C   UNL A   1      32.417  29.700  26.047  1.00  0.00     0.002 A 
BRANCH  12  23
ATOM     23  C   UNL A   1      30.569  25.012  24.034  1.00  0.00     0.015 C 
ATOM     24  C   UNL A   1      29.399  26.205  24.012  1.00  0.00     0.010 C 
ATOM     25  C   UNL A   1      30.692  23.709  23.208  1.00  0.00     0.010 C 
ENDBRANCH  12  23
ENDBRANCH   8  11
ENDBRANCH   6   7
BRANCH   6  26
ATOM     26  C   UNL A   1      34.036  20.891  25.532  1.00  0.00     0.070 C 
BRANCH  26  27
ATOM     27  C   UNL A   1      33.744  19.696  24.647  1.00  0.00    -0.045 A 
ATOM     28  C   UNL A   1      32.587  19.810  23.838  1.00  0.00     0.004 A 
ATOM     29  C   UNL A   1      34.490  18.523  24.557  1.00  0.00     0.004 A 
ATOM     30  C   UNL A   1      32.183  18.791  22.975  1.00  0.00     0.000 A 
ATOM     31  C   UNL A   1      34.082  17.496  23.688  1.00  0.00     0.000 A 
ATOM     32  C   UNL A   1      32.934  17.628  22.902  1.00  0.00     0.000 A 
ENDBRANCH  26  27
ENDBRANCH   6  26
ENDBRANCH   3   6
ENDBRANCH   1   2
BRANCH   1  33
ATOM     33  C   UNL A   1      39.414  20.888  25.769  1.00  0.00     0.042 C 
BRANCH  33  34
ATOM     34  C   UNL A   1      40.708  20.949  26.609  1.00  0.00     0.118 C 
BRANCH  34  35
ATOM     35  N   UNL A   1      41.760  21.663  25.841  1.00  0.00    -0.352 N 
ATOM     36  C   UNL A   1      42.202  22.953  25.646  1.00  0.00     0.251 C 
ATOM     37  H   UNL A   1      42.299  21.028  25.315  1.00  0.00     0.163 HD
ATOM     38  O   UNL A   1      43.027  23.111  24.739  1.00  0.00    -0.269 OA
BRANCH  36  39
ATOM     39  C   UNL A   1      41.816  24.157  26.438  1.00  0.00     0.039 A 
ATOM     40  C   UNL A   1      42.461  25.382  26.145  1.00  0.00     0.014 A 
ATOM     41  C   UNL A   1      40.964  24.122  27.536  1.00  0.00     0.014 A 
ATOM     42  C   UNL A   1      42.272  26.525  26.940  1.00  0.00     0.010 A 
ATOM     43  C   UNL A   1      40.721  25.279  28.292  1.00  0.00     0.010 A 
ATOM     44  C   UNL A   1      41.401  26.483  28.033  1.00  0.00    -0.014 A 
BRANCH  44  45
ATOM     45  C   UNL A   1      41.268  27.621  28.989  1.00  0.00     0.031 A 
ATOM     46  C   UNL A   1      42.224  27.726  30.154  1.00  0.00     0.074 A 
ATOM     47  C   UNL A   1      40.274  28.523  28.868  1.00  0.00     0.049 A 
ATOM     48  N   UNL A   1      42.205  28.536  31.182  1.00  0.00    -0.248 NA
ATOM     49  C   UNL A   1      43.336  26.763  30.172  1.00  0.00     0.031 C 
ATOM     50  C   UNL A   1      39.276  28.545  27.800  1.00  0.00     0.029 A 
ATOM     51  N   UNL A   1      39.925  29.585  29.671  1.00  0.00    -0.354 N 
ATOM     52  C   UNL A   1      43.276  28.157  31.985  1.00  0.00     0.074 A 
ATOM     53  C   UNL A   1      43.897  27.017  31.345  1.00  0.00     0.031 C 
ATOM     54  C   UNL A   1      38.426  29.563  28.014  1.00  0.00     0.029 A 
ATOM     55  C   UNL A   1      38.794  30.244  29.253  1.00  0.00     0.049 A 
ATOM     56  H   UNL A   1      40.438  29.847  30.469  1.00  0.00     0.167 HD
ATOM     57  C   UNL A   1      43.716  28.713  33.140  1.00  0.00     0.037 A 
ATOM     58  C   UNL A   1      38.117  31.267  29.814  1.00  0.00     0.037 A 
ATOM     59  C   UNL A   1      43.120  29.868  33.759  1.00  0.00     0.049 A 
ATOM     60  C   UNL A   1      38.612  31.863  31.105  1.00  0.00     0.074 A 
ATOM     61  C   UNL A   1      43.524  30.545  34.897  1.00  0.00     0.029 A 
ATOM     62  N   UNL A   1      41.986  30.517  33.291  1.00  0.00    -0.354 N 
ATOM     63  N   UNL A   1      39.650  31.520  31.830  1.00  0.00    -0.248 NA
ATOM     64  C   UNL A   1      37.845  32.992  31.652  1.00  0.00     0.031 C 
ATOM     65  C   UNL A   1      42.608  31.573  35.144  1.00  0.00     0.029 A 
ATOM     66  C   UNL A   1      41.664  31.572  34.129  1.00  0.00     0.049 A 
ATOM     67  H   UNL A   1      41.486  30.266  32.481  1.00  0.00     0.167 HD
ATOM     68  C   UNL A   1      39.676  32.405  32.902  1.00  0.00     0.074 A 
ATOM     69  C   UNL A   1      38.558  33.308  32.725  1.00  0.00     0.031 C 
ATOM     70  C   UNL A   1      40.549  32.465  33.938  1.00  0.00     0.037 A 
BRANCH  57  71
ATOM     71  C   UNL A   1      44.897  28.069  33.815  1.00  0.00     0.057 A 
ATOM     72  C   UNL A   1      44.748  27.041  34.756  1.00  0.00     0.134 A 
ATOM     73  C   UNL A   1      46.202  28.476  33.510  1.00  0.00     0.134 A 
ATOM     74  F   UNL A   1      43.527  26.609  35.104  1.00  0.00    -0.206 F 
ATOM     75  C   UNL A   1      45.850  26.469  35.397  1.00  0.00     0.040 A 
ATOM     76  C   UNL A   1      47.314  27.890  34.121  1.00  0.00     0.040 A 
ATOM     77  F   UNL A   1      46.422  29.448  32.613  1.00  0.00    -0.206 F 
ATOM     78  C   UNL A   1      47.138  26.891  35.075  1.00  0.00     0.006 A 
ENDBRANCH  57  71
BRANCH  58  79
ATOM     79  C   UNL A   1      36.901  31.801  29.149  1.00  0.00     0.057 A 
ATOM     80  C   UNL A   1      35.696  31.087  29.161  1.00  0.00     0.134 A 
ATOM     81  C   UNL A   1      36.907  33.040  28.495  1.00  0.00     0.134 A 
ATOM     82  F   UNL A   1      35.633  29.884  29.750  1.00  0.00    -0.206 F 
ATOM     83  C   UNL A   1      34.545  31.580  28.543  1.00  0.00     0.040 A 
ATOM     84  C   UNL A   1      35.756  33.557  27.894  1.00  0.00     0.040 A 
ATOM     85  F   UNL A   1      38.027  33.775  28.446  1.00  0.00    -0.206 F 
ATOM     86  C   UNL A   1      34.571  32.823  27.916  1.00  0.00     0.006 A 
ENDBRANCH  58  79
BRANCH  70  87
ATOM     87  C   UNL A   1      40.352  33.563  34.943  1.00  0.00     0.057 A 
ATOM     88  C   UNL A   1      40.863  34.852  34.745  1.00  0.00     0.134 A 
ATOM     89  C   UNL A   1      39.604  33.338  36.106  1.00  0.00     0.134 A 
ATOM     90  F   UNL A   1      41.598  35.132  33.657  1.00  0.00    -0.206 F 
ATOM     91  C   UNL A   1      40.657  35.870  35.677  1.00  0.00     0.040 A 
ATOM     92  C   UNL A   1      39.368  34.355  37.032  1.00  0.00     0.040 A 
ATOM     93  F   UNL A   1      39.076  32.129  36.354  1.00  0.00    -0.206 F 
ATOM     94  C   UNL A   1      39.901  35.624  36.822  1.00  0.00     0.006 A 
ENDBRANCH  70  87
ENDBRANCH  44  45
ENDBRANCH  36  39
ENDBRANCH  34  35
ENDBRANCH  33  34
ENDBRANCH   1  33
TORSDOF 15
ENDMDL
