MODEL 1
REMARK VINA RESULT:      -8.8      0.000      0.000
REMARK SMILES O=C(Cn1nc(-c2ccccc2)ccc1=O)N[C@@H](C(=O)NCCCNC(=O)c1ccc(-c2c3nc(c(-c4c(F)cccc4F)c4ccc([nH]4)c(-c4c(F)cccc4F)c4nc(c(-c5c(F)cccc5F)c5ccc2[nH]5)C=C4)C=C3)cc1)c1ccccc1
REMARK SMILES IDX 22 1 21 2 19 3 20 4 18 6 17 7 1 8 2 9 3 11 4 12 5 13 15 14
REMARK SMILES IDX 6 15 14 16 16 17 13 18 7 19 8 20 12 21 9 22 11 23 10 24
REMARK SMILES IDX 82 25 83 26 87 27 84 28 86 29 85 30 23 31 24 32 25 33 26 34
REMARK SMILES IDX 27 36 28 37 29 38 81 39 30 40 80 41 31 42 32 43 33 44 74 45
REMARK SMILES IDX 34 46 79 47 73 48 75 49 35 50 78 51 72 52 71 53 36 55 62 56
REMARK SMILES IDX 45 57 61 58 46 59 49 60 60 61 76 62 47 63 48 64 59 66 77 67
REMARK SMILES IDX 50 68 37 69 38 70 43 71 39 72 40 73 42 74 44 75 41 76 63 77
REMARK SMILES IDX 64 78 69 79 65 80 66 81 68 82 70 83 67 84 51 85 52 86 57 87
REMARK SMILES IDX 53 88 54 89 56 90 58 91 55 92
REMARK H PARENT 21 5 17 10 25 35 75 54 49 65
REMARK Flexibility Score: inf
ROOT
ATOM      1  C   UNL A   1      44.731  23.634  26.231  1.00  0.00     0.117 C 
ENDROOT
BRANCH   1   2
ATOM      2  N   UNL A   1      46.061  23.656  26.806  1.00  0.00    -0.354 N 
ATOM      3  C   UNL A   1      46.602  24.545  27.694  1.00  0.00     0.247 C 
ATOM      4  O   UNL A   1      47.827  24.490  27.842  1.00  0.00    -0.272 OA
ATOM      5  H   UNL A   1      46.659  22.929  26.518  1.00  0.00     0.163 HD
BRANCH   3   6
ATOM      6  C   UNL A   1      45.696  25.571  28.435  1.00  0.00     0.202 C 
BRANCH   6   7
ATOM      7  N   UNL A   1      46.268  26.919  28.448  1.00  0.00    -0.339 N 
ATOM      8  O   UNL A   1      45.518  27.531  26.377  1.00  0.00    -0.273 OA
ATOM      9  C   UNL A   1      45.979  27.847  27.473  1.00  0.00     0.242 C 
ATOM     10  H   UNL A   1      46.880  27.169  29.178  1.00  0.00     0.164 HD
BRANCH   9  11
ATOM     11  C   UNL A   1      46.446  29.280  27.739  1.00  0.00     0.248 C 
BRANCH  11  12
ATOM     12  N   UNL A   1      45.410  30.300  27.610  1.00  0.00    -0.220 N 
ATOM     13  N   UNL A   1      44.717  30.598  28.774  1.00  0.00    -0.169 NA
ATOM     14  C   UNL A   1      45.487  31.192  26.541  1.00  0.00     0.267 A 
ATOM     15  C   UNL A   1      43.955  31.647  28.762  1.00  0.00     0.091 A 
ATOM     16  C   UNL A   1      44.463  32.253  26.511  1.00  0.00     0.075 A 
ATOM     17  O   UNL A   1      46.305  31.131  25.629  1.00  0.00    -0.268 OA
ATOM     18  C   UNL A   1      43.700  32.491  27.578  1.00  0.00     0.036 A 
BRANCH  15  19
ATOM     19  C   UNL A   1      43.343  32.135  30.017  1.00  0.00     0.002 A 
ATOM     20  C   UNL A   1      44.001  31.856  31.221  1.00  0.00     0.010 A 
ATOM     21  C   UNL A   1      42.189  32.923  30.003  1.00  0.00     0.010 A 
ATOM     22  C   UNL A   1      43.514  32.388  32.414  1.00  0.00     0.001 A 
ATOM     23  C   UNL A   1      41.702  33.443  31.203  1.00  0.00     0.001 A 
ATOM     24  C   UNL A   1      42.367  33.182  32.404  1.00  0.00     0.000 A 
ENDBRANCH  15  19
ENDBRANCH  11  12
ENDBRANCH   9  11
ENDBRANCH   6   7
BRANCH   6  25
ATOM     25  C   UNL A   1      45.394  25.099  29.860  1.00  0.00    -0.016 A 
ATOM     26  C   UNL A   1      44.335  24.220  30.144  1.00  0.00     0.006 A 
ATOM     27  C   UNL A   1      46.140  25.612  30.935  1.00  0.00     0.006 A 
ATOM     28  C   UNL A   1      44.040  23.854  31.458  1.00  0.00     0.000 A 
ATOM     29  C   UNL A   1      45.837  25.252  32.250  1.00  0.00     0.000 A 
ATOM     30  C   UNL A   1      44.790  24.372  32.512  1.00  0.00     0.000 A 
ENDBRANCH   6  25
ENDBRANCH   3   6
ENDBRANCH   1   2
BRANCH   1  31
ATOM     31  C   UNL A   1      43.826  22.661  26.982  1.00  0.00     0.042 C 
BRANCH  31  32
ATOM     32  C   UNL A   1      42.399  23.175  27.158  1.00  0.00     0.118 C 
BRANCH  32  33
ATOM     33  N   UNL A   1      41.948  23.993  26.039  1.00  0.00    -0.352 N 
ATOM     34  C   UNL A   1      41.434  25.266  26.031  1.00  0.00     0.251 C 
ATOM     35  H   UNL A   1      42.022  23.567  25.154  1.00  0.00     0.163 HD
ATOM     36  O   UNL A   1      40.967  25.736  24.996  1.00  0.00    -0.269 OA
BRANCH  34  37
ATOM     37  C   UNL A   1      41.410  26.063  27.276  1.00  0.00     0.039 A 
ATOM     38  C   UNL A   1      40.423  25.854  28.240  1.00  0.00     0.014 A 
ATOM     39  C   UNL A   1      42.382  27.049  27.469  1.00  0.00     0.014 A 
ATOM     40  C   UNL A   1      40.302  26.741  29.304  1.00  0.00     0.010 A 
ATOM     41  C   UNL A   1      42.308  27.887  28.585  1.00  0.00     0.010 A 
ATOM     42  C   UNL A   1      41.232  27.778  29.480  1.00  0.00    -0.014 A 
BRANCH  42  43
ATOM     43  C   UNL A   1      41.033  28.759  30.578  1.00  0.00     0.031 A 
ATOM     44  C   UNL A   1      39.929  29.780  30.499  1.00  0.00     0.074 A 
ATOM     45  C   UNL A   1      41.806  28.689  31.679  1.00  0.00     0.049 A 
ATOM     46  N   UNL A   1      39.584  30.695  31.372  1.00  0.00    -0.248 NA
ATOM     47  C   UNL A   1      39.106  29.780  29.280  1.00  0.00     0.031 C 
ATOM     48  C   UNL A   1      42.900  27.737  31.883  1.00  0.00     0.029 A 
ATOM     49  N   UNL A   1      41.771  29.413  32.843  1.00  0.00    -0.354 N 
ATOM     50  C   UNL A   1      38.520  31.385  30.803  1.00  0.00     0.074 A 
ATOM     51  C   UNL A   1      38.298  30.808  29.493  1.00  0.00     0.031 C 
ATOM     52  C   UNL A   1      43.401  27.903  33.117  1.00  0.00     0.029 A 
ATOM     53  C   UNL A   1      42.703  29.006  33.768  1.00  0.00     0.049 A 
ATOM     54  H   UNL A   1      41.141  30.152  33.001  1.00  0.00     0.167 HD
ATOM     55  C   UNL A   1      37.783  32.395  31.325  1.00  0.00     0.037 A 
ATOM     56  C   UNL A   1      42.971  29.477  35.000  1.00  0.00     0.037 A 
ATOM     57  C   UNL A   1      37.992  32.959  32.634  1.00  0.00     0.049 A 
ATOM     58  C   UNL A   1      42.170  30.630  35.535  1.00  0.00     0.074 A 
ATOM     59  C   UNL A   1      37.289  33.975  33.259  1.00  0.00     0.029 A 
ATOM     60  N   UNL A   1      38.978  32.553  33.520  1.00  0.00    -0.354 N 
ATOM     61  N   UNL A   1      41.159  31.261  34.990  1.00  0.00    -0.248 NA
ATOM     62  C   UNL A   1      42.555  31.138  36.860  1.00  0.00     0.031 C 
ATOM     63  C   UNL A   1      37.876  34.211  34.508  1.00  0.00     0.029 A 
ATOM     64  C   UNL A   1      38.916  33.311  34.679  1.00  0.00     0.049 A 
ATOM     65  H   UNL A   1      39.628  31.833  33.350  1.00  0.00     0.167 HD
ATOM     66  C   UNL A   1      40.775  32.227  35.910  1.00  0.00     0.074 A 
ATOM     67  C   UNL A   1      41.646  32.083  37.057  1.00  0.00     0.031 C 
ATOM     68  C   UNL A   1      39.789  33.153  35.812  1.00  0.00     0.037 A 
BRANCH  55  69
ATOM     69  C   UNL A   1      36.691  32.967  30.467  1.00  0.00     0.057 A 
ATOM     70  C   UNL A   1      35.360  32.568  30.646  1.00  0.00     0.134 A 
ATOM     71  C   UNL A   1      36.957  33.897  29.453  1.00  0.00     0.134 A 
ATOM     72  F   UNL A   1      35.037  31.677  31.594  1.00  0.00    -0.206 F 
ATOM     73  C   UNL A   1      34.333  33.077  29.849  1.00  0.00     0.040 A 
ATOM     74  C   UNL A   1      35.934  34.431  28.667  1.00  0.00     0.040 A 
ATOM     75  F   UNL A   1      38.208  34.329  29.238  1.00  0.00    -0.206 F 
ATOM     76  C   UNL A   1      34.618  34.018  28.861  1.00  0.00     0.006 A 
ENDBRANCH  55  69
BRANCH  56  77
ATOM     77  C   UNL A   1      44.051  28.866  35.812  1.00  0.00     0.057 A 
ATOM     78  C   UNL A   1      45.371  29.327  35.735  1.00  0.00     0.134 A 
ATOM     79  C   UNL A   1      43.784  27.819  36.701  1.00  0.00     0.134 A 
ATOM     80  F   UNL A   1      45.692  30.326  34.899  1.00  0.00    -0.206 F 
ATOM     81  C   UNL A   1      46.388  28.766  36.508  1.00  0.00     0.040 A 
ATOM     82  C   UNL A   1      44.786  27.266  37.499  1.00  0.00     0.040 A 
ATOM     83  F   UNL A   1      42.535  27.348  36.834  1.00  0.00    -0.206 F 
ATOM     84  C   UNL A   1      46.094  27.737  37.400  1.00  0.00     0.006 A 
ENDBRANCH  56  77
BRANCH  68  85
ATOM     85  C   UNL A   1      39.589  34.055  36.994  1.00  0.00     0.057 A 
ATOM     86  C   UNL A   1      40.173  35.328  37.027  1.00  0.00     0.134 A 
ATOM     87  C   UNL A   1      38.827  33.663  38.102  1.00  0.00     0.134 A 
ATOM     88  F   UNL A   1      40.921  35.761  36.001  1.00  0.00    -0.206 F 
ATOM     89  C   UNL A   1      39.999  36.182  38.116  1.00  0.00     0.040 A 
ATOM     90  C   UNL A   1      38.625  34.519  39.187  1.00  0.00     0.040 A 
ATOM     91  F   UNL A   1      38.229  32.463  38.126  1.00  0.00    -0.206 F 
ATOM     92  C   UNL A   1      39.216  35.781  39.197  1.00  0.00     0.006 A 
ENDBRANCH  68  85
ENDBRANCH  42  43
ENDBRANCH  34  37
ENDBRANCH  32  33
ENDBRANCH  31  32
ENDBRANCH   1  31
TORSDOF 15
ENDMDL
MODEL 2
REMARK VINA RESULT:      -8.7      4.227      7.702
REMARK SMILES O=C(Cn1nc(-c2ccccc2)ccc1=O)N[C@@H](C(=O)NCCCNC(=O)c1ccc(-c2c3nc(c(-c4c(F)cccc4F)c4ccc([nH]4)c(-c4c(F)cccc4F)c4nc(c(-c5c(F)cccc5F)c5ccc2[nH]5)C=C4)C=C3)cc1)c1ccccc1
REMARK SMILES IDX 22 1 21 2 19 3 20 4 18 6 17 7 1 8 2 9 3 11 4 12 5 13 15 14
REMARK SMILES IDX 6 15 14 16 16 17 13 18 7 19 8 20 12 21 9 22 11 23 10 24
REMARK SMILES IDX 82 25 83 26 87 27 84 28 86 29 85 30 23 31 24 32 25 33 26 34
REMARK SMILES IDX 27 36 28 37 29 38 81 39 30 40 80 41 31 42 32 43 33 44 74 45
REMARK SMILES IDX 34 46 79 47 73 48 75 49 35 50 78 51 72 52 71 53 36 55 62 56
REMARK SMILES IDX 45 57 61 58 46 59 49 60 60 61 76 62 47 63 48 64 59 66 77 67
REMARK SMILES IDX 50 68 37 69 38 70 43 71 39 72 40 73 42 74 44 75 41 76 63 77
REMARK SMILES IDX 64 78 69 79 65 80 66 81 68 82 70 83 67 84 51 85 52 86 57 87
REMARK SMILES IDX 53 88 54 89 56 90 58 91 55 92
REMARK H PARENT 21 5 17 10 25 35 75 54 49 65
REMARK Flexibility Score: inf
ROOT
ATOM      1  C   UNL A   1      41.158  25.786  25.383  1.00  0.00     0.117 C 
ENDROOT
BRANCH   1   2
ATOM      2  N   UNL A   1      40.682  25.751  26.751  1.00  0.00    -0.354 N 
ATOM      3  C   UNL A   1      39.672  25.005  27.294  1.00  0.00     0.247 C 
ATOM      4  O   UNL A   1      39.299  25.333  28.425  1.00  0.00    -0.272 OA
ATOM      5  H   UNL A   1      41.153  26.346  27.378  1.00  0.00     0.163 HD
BRANCH   3   6
ATOM      6  C   UNL A   1      39.033  23.835  26.490  1.00  0.00     0.202 C 
BRANCH   6   7
ATOM      7  N   UNL A   1      37.618  23.641  26.809  1.00  0.00    -0.339 N 
ATOM      8  O   UNL A   1      36.863  23.692  24.651  1.00  0.00    -0.273 OA
ATOM      9  C   UNL A   1      36.671  23.416  25.835  1.00  0.00     0.242 C 
ATOM     10  H   UNL A   1      37.333  23.673  27.751  1.00  0.00     0.164 HD
BRANCH   9  11
ATOM     11  C   UNL A   1      35.284  22.991  26.320  1.00  0.00     0.248 C 
BRANCH  11  12
ATOM     12  N   UNL A   1      34.467  22.301  25.326  1.00  0.00    -0.220 N 
ATOM     13  N   UNL A   1      34.570  20.917  25.326  1.00  0.00    -0.169 NA
ATOM     14  C   UNL A   1      33.360  22.965  24.801  1.00  0.00     0.267 A 
ATOM     15  C   UNL A   1      33.701  20.256  24.625  1.00  0.00     0.091 A 
ATOM     16  C   UNL A   1      32.523  22.187  23.867  1.00  0.00     0.075 A 
ATOM     17  O   UNL A   1      33.064  24.133  25.030  1.00  0.00    -0.268 OA
ATOM     18  C   UNL A   1      32.675  20.867  23.758  1.00  0.00     0.036 A 
BRANCH  15  19
ATOM     19  C   UNL A   1      33.628  18.783  24.733  1.00  0.00     0.002 A 
ATOM     20  C   UNL A   1      32.739  18.235  25.664  1.00  0.00     0.010 A 
ATOM     21  C   UNL A   1      34.359  17.956  23.875  1.00  0.00     0.010 A 
ATOM     22  C   UNL A   1      32.562  16.853  25.723  1.00  0.00     0.001 A 
ATOM     23  C   UNL A   1      34.184  16.572  23.947  1.00  0.00     0.001 A 
ATOM     24  C   UNL A   1      33.283  16.023  24.863  1.00  0.00     0.000 A 
ENDBRANCH  15  19
ENDBRANCH  11  12
ENDBRANCH   9  11
ENDBRANCH   6   7
BRANCH   6  25
ATOM     25  C   UNL A   1      39.818  22.538  26.704  1.00  0.00    -0.016 A 
ATOM     26  C   UNL A   1      39.557  21.379  25.952  1.00  0.00     0.006 A 
ATOM     27  C   UNL A   1      40.774  22.465  27.731  1.00  0.00     0.006 A 
ATOM     28  C   UNL A   1      40.242  20.190  26.209  1.00  0.00     0.000 A 
ATOM     29  C   UNL A   1      41.451  21.271  27.992  1.00  0.00     0.000 A 
ATOM     30  C   UNL A   1      41.187  20.135  27.231  1.00  0.00     0.000 A 
ENDBRANCH   6  25
ENDBRANCH   3   6
ENDBRANCH   1   2
BRANCH   1  31
ATOM     31  C   UNL A   1      42.634  25.405  25.306  1.00  0.00     0.042 C 
BRANCH  31  32
ATOM     32  C   UNL A   1      42.877  23.902  25.423  1.00  0.00     0.118 C 
BRANCH  32  33
ATOM     33  N   UNL A   1      44.172  23.581  26.013  1.00  0.00    -0.352 N 
ATOM     34  C   UNL A   1      44.811  24.144  27.090  1.00  0.00     0.251 C 
ATOM     35  H   UNL A   1      44.662  22.850  25.572  1.00  0.00     0.163 HD
ATOM     36  O   UNL A   1      45.973  23.837  27.346  1.00  0.00    -0.269 OA
BRANCH  34  37
ATOM     37  C   UNL A   1      44.116  25.148  27.922  1.00  0.00     0.039 A 
ATOM     38  C   UNL A   1      44.379  26.510  27.769  1.00  0.00     0.014 A 
ATOM     39  C   UNL A   1      43.201  24.714  28.885  1.00  0.00     0.014 A 
ATOM     40  C   UNL A   1      43.866  27.417  28.690  1.00  0.00     0.010 A 
ATOM     41  C   UNL A   1      42.620  25.638  29.757  1.00  0.00     0.010 A 
ATOM     42  C   UNL A   1      42.994  26.991  29.705  1.00  0.00    -0.014 A 
BRANCH  42  43
ATOM     43  C   UNL A   1      42.525  27.966  30.723  1.00  0.00     0.031 A 
ATOM     44  C   UNL A   1      41.288  28.790  30.479  1.00  0.00     0.074 A 
ATOM     45  C   UNL A   1      43.175  28.063  31.899  1.00  0.00     0.049 A 
ATOM     46  N   UNL A   1      40.710  29.667  31.262  1.00  0.00    -0.248 NA
ATOM     47  C   UNL A   1      40.612  28.611  29.184  1.00  0.00     0.031 C 
ATOM     48  C   UNL A   1      44.377  27.310  32.263  1.00  0.00     0.029 A 
ATOM     49  N   UNL A   1      42.901  28.813  33.013  1.00  0.00    -0.354 N 
ATOM     50  C   UNL A   1      39.619  30.153  30.552  1.00  0.00     0.074 A 
ATOM     51  C   UNL A   1      39.634  29.501  29.260  1.00  0.00     0.031 C 
ATOM     52  C   UNL A   1      44.709  27.600  33.531  1.00  0.00     0.029 A 
ATOM     53  C   UNL A   1      43.779  28.598  34.048  1.00  0.00     0.049 A 
ATOM     54  H   UNL A   1      42.148  29.445  33.067  1.00  0.00     0.167 HD
ATOM     55  C   UNL A   1      38.679  31.048  30.942  1.00  0.00     0.037 A 
ATOM     56  C   UNL A   1      43.834  29.151  35.273  1.00  0.00     0.037 A 
ATOM     57  C   UNL A   1      38.653  31.686  32.234  1.00  0.00     0.049 A 
ATOM     58  C   UNL A   1      42.807  30.176  35.663  1.00  0.00     0.074 A 
ATOM     59  C   UNL A   1      37.734  32.596  32.730  1.00  0.00     0.029 A 
ATOM     60  N   UNL A   1      39.589  31.479  33.235  1.00  0.00    -0.354 N 
ATOM     61  N   UNL A   1      41.774  30.614  34.985  1.00  0.00    -0.248 NA
ATOM     62  C   UNL A   1      42.961  30.788  36.990  1.00  0.00     0.031 C 
ATOM     63  C   UNL A   1      38.137  32.969  34.017  1.00  0.00     0.029 A 
ATOM     64  C   UNL A   1      39.282  32.258  34.340  1.00  0.00     0.049 A 
ATOM     65  H   UNL A   1      40.359  30.869  33.171  1.00  0.00     0.167 HD
ATOM     66  C   UNL A   1      41.145  31.537  35.809  1.00  0.00     0.074 A 
ATOM     67  C   UNL A   1      41.898  31.579  37.044  1.00  0.00     0.031 C 
ATOM     68  C   UNL A   1      40.041  32.286  35.562  1.00  0.00     0.037 A 
BRANCH  55  69
ATOM     69  C   UNL A   1      37.610  31.402  29.949  1.00  0.00     0.057 A 
ATOM     70  C   UNL A   1      37.680  32.596  29.219  1.00  0.00     0.134 A 
ATOM     71  C   UNL A   1      36.501  30.574  29.728  1.00  0.00     0.134 A 
ATOM     72  F   UNL A   1      38.710  33.437  29.388  1.00  0.00    -0.206 F 
ATOM     73  C   UNL A   1      36.689  32.950  28.302  1.00  0.00     0.040 A 
ATOM     74  C   UNL A   1      35.517  30.906  28.795  1.00  0.00     0.040 A 
ATOM     75  F   UNL A   1      36.379  29.411  30.385  1.00  0.00    -0.206 F 
ATOM     76  C   UNL A   1      35.607  32.100  28.082  1.00  0.00     0.006 A 
ENDBRANCH  55  69
BRANCH  56  77
ATOM     77  C   UNL A   1      44.903  28.753  36.222  1.00  0.00     0.057 A 
ATOM     78  C   UNL A   1      44.712  27.715  37.142  1.00  0.00     0.134 A 
ATOM     79  C   UNL A   1      46.150  29.388  36.214  1.00  0.00     0.134 A 
ATOM     80  F   UNL A   1      43.537  27.069  37.200  1.00  0.00    -0.206 F 
ATOM     81  C   UNL A   1      45.719  27.328  38.026  1.00  0.00     0.040 A 
ATOM     82  C   UNL A   1      47.175  28.993  37.075  1.00  0.00     0.040 A 
ATOM     83  F   UNL A   1      46.399  30.375  35.341  1.00  0.00    -0.206 F 
ATOM     84  C   UNL A   1      46.959  27.962  37.987  1.00  0.00     0.006 A 
ENDBRANCH  56  77
BRANCH  68  85
ATOM     85  C   UNL A   1      39.575  33.185  36.669  1.00  0.00     0.057 A 
ATOM     86  C   UNL A   1      40.116  34.468  36.821  1.00  0.00     0.134 A 
ATOM     87  C   UNL A   1      38.596  32.782  37.586  1.00  0.00     0.134 A 
ATOM     88  F   UNL A   1      41.062  34.913  35.981  1.00  0.00    -0.206 F 
ATOM     89  C   UNL A   1      39.696  35.321  37.842  1.00  0.00     0.040 A 
ATOM     90  C   UNL A   1      38.149  33.636  38.596  1.00  0.00     0.040 A 
ATOM     91  F   UNL A   1      38.026  31.572  37.485  1.00  0.00    -0.206 F 
ATOM     92  C   UNL A   1      38.703  34.908  38.729  1.00  0.00     0.006 A 
ENDBRANCH  68  85
ENDBRANCH  42  43
ENDBRANCH  34  37
ENDBRANCH  32  33
ENDBRANCH  31  32
ENDBRANCH   1  31
TORSDOF 15
ENDMDL
MODEL 3
REMARK VINA RESULT:      -8.7      5.217     12.122
REMARK SMILES O=C(Cn1nc(-c2ccccc2)ccc1=O)N[C@@H](C(=O)NCCCNC(=O)c1ccc(-c2c3nc(c(-c4c(F)cccc4F)c4ccc([nH]4)c(-c4c(F)cccc4F)c4nc(c(-c5c(F)cccc5F)c5ccc2[nH]5)C=C4)C=C3)cc1)c1ccccc1
REMARK SMILES IDX 22 1 21 2 19 3 20 4 18 6 17 7 1 8 2 9 3 11 4 12 5 13 15 14
REMARK SMILES IDX 6 15 14 16 16 17 13 18 7 19 8 20 12 21 9 22 11 23 10 24
REMARK SMILES IDX 82 25 83 26 87 27 84 28 86 29 85 30 23 31 24 32 25 33 26 34
REMARK SMILES IDX 27 36 28 37 29 38 81 39 30 40 80 41 31 42 32 43 33 44 74 45
REMARK SMILES IDX 34 46 79 47 73 48 75 49 35 50 78 51 72 52 71 53 36 55 62 56
REMARK SMILES IDX 45 57 61 58 46 59 49 60 60 61 76 62 47 63 48 64 59 66 77 67
REMARK SMILES IDX 50 68 37 69 38 70 43 71 39 72 40 73 42 74 44 75 41 76 63 77
REMARK SMILES IDX 64 78 69 79 65 80 66 81 68 82 70 83 67 84 51 85 52 86 57 87
REMARK SMILES IDX 53 88 54 89 56 90 58 91 55 92
REMARK H PARENT 21 5 17 10 25 35 75 54 49 65
REMARK Flexibility Score: inf
ROOT
ATOM      1  C   UNL A   1      36.210  30.126  31.009  1.00  0.00     0.117 C 
ENDROOT
BRANCH   1   2
ATOM      2  N   UNL A   1      37.109  30.162  29.874  1.00  0.00    -0.354 N 
ATOM      3  C   UNL A   1      36.813  30.136  28.538  1.00  0.00     0.247 C 
ATOM      4  O   UNL A   1      37.761  29.929  27.774  1.00  0.00    -0.272 OA
ATOM      5  H   UNL A   1      38.067  30.214  30.094  1.00  0.00     0.163 HD
BRANCH   3   6
ATOM      6  C   UNL A   1      35.348  30.330  28.049  1.00  0.00     0.202 C 
BRANCH   6   7
ATOM      7  N   UNL A   1      35.095  29.683  26.760  1.00  0.00    -0.339 N 
ATOM      8  O   UNL A   1      33.191  28.588  27.395  1.00  0.00    -0.273 OA
ATOM      9  C   UNL A   1      33.931  28.996  26.501  1.00  0.00     0.242 C 
ATOM     10  H   UNL A   1      35.781  29.741  26.056  1.00  0.00     0.164 HD
BRANCH   9  11
ATOM     11  C   UNL A   1      33.696  28.583  25.046  1.00  0.00     0.248 C 
BRANCH  11  12
ATOM     12  N   UNL A   1      32.325  28.190  24.731  1.00  0.00    -0.220 N 
ATOM     13  N   UNL A   1      31.482  29.222  24.344  1.00  0.00    -0.169 NA
ATOM     14  C   UNL A   1      32.078  26.860  24.392  1.00  0.00     0.267 A 
ATOM     15  C   UNL A   1      30.334  28.895  23.838  1.00  0.00     0.091 A 
ATOM     16  C   UNL A   1      30.692  26.542  23.999  1.00  0.00     0.075 A 
ATOM     17  O   UNL A   1      32.906  25.956  24.433  1.00  0.00    -0.268 OA
ATOM     18  C   UNL A   1      29.822  27.514  23.731  1.00  0.00     0.036 A 
BRANCH  15  19
ATOM     19  C   UNL A   1      29.470  29.928  23.228  1.00  0.00     0.002 A 
ATOM     20  C   UNL A   1      29.366  31.164  23.875  1.00  0.00     0.010 A 
ATOM     21  C   UNL A   1      28.842  29.714  21.998  1.00  0.00     0.010 A 
ATOM     22  C   UNL A   1      28.649  32.200  23.278  1.00  0.00     0.001 A 
ATOM     23  C   UNL A   1      28.116  30.752  21.411  1.00  0.00     0.001 A 
ATOM     24  C   UNL A   1      28.026  31.994  22.046  1.00  0.00     0.000 A 
ENDBRANCH  15  19
ENDBRANCH  11  12
ENDBRANCH   9  11
ENDBRANCH   6   7
BRANCH   6  25
ATOM     25  C   UNL A   1      34.989  31.817  27.987  1.00  0.00    -0.016 A 
ATOM     26  C   UNL A   1      35.973  32.821  28.003  1.00  0.00     0.006 A 
ATOM     27  C   UNL A   1      33.639  32.207  27.993  1.00  0.00     0.006 A 
ATOM     28  C   UNL A   1      35.618  34.171  28.010  1.00  0.00     0.000 A 
ATOM     29  C   UNL A   1      33.287  33.558  28.010  1.00  0.00     0.000 A 
ATOM     30  C   UNL A   1      34.275  34.540  28.015  1.00  0.00     0.000 A 
ENDBRANCH   6  25
ENDBRANCH   3   6
ENDBRANCH   1   2
BRANCH   1  31
ATOM     31  C   UNL A   1      35.740  31.530  31.380  1.00  0.00     0.042 C 
BRANCH  31  32
ATOM     32  C   UNL A   1      35.960  31.873  32.852  1.00  0.00     0.118 C 
BRANCH  32  33
ATOM     33  N   UNL A   1      36.517  33.207  33.047  1.00  0.00    -0.352 N 
ATOM     34  C   UNL A   1      37.770  33.688  32.755  1.00  0.00     0.251 C 
ATOM     35  H   UNL A   1      35.901  33.862  33.448  1.00  0.00     0.163 HD
ATOM     36  O   UNL A   1      38.101  34.809  33.133  1.00  0.00    -0.269 OA
BRANCH  34  37
ATOM     37  C   UNL A   1      38.734  32.846  32.017  1.00  0.00     0.039 A 
ATOM     38  C   UNL A   1      39.490  31.878  32.679  1.00  0.00     0.014 A 
ATOM     39  C   UNL A   1      38.896  33.045  30.643  1.00  0.00     0.014 A 
ATOM     40  C   UNL A   1      40.526  31.237  32.008  1.00  0.00     0.010 A 
ATOM     41  C   UNL A   1      39.882  32.338  29.951  1.00  0.00     0.010 A 
ATOM     42  C   UNL A   1      40.745  31.471  30.641  1.00  0.00    -0.014 A 
BRANCH  42  43
ATOM     43  C   UNL A   1      41.907  30.836  29.968  1.00  0.00     0.031 A 
ATOM     44  C   UNL A   1      41.790  29.452  29.384  1.00  0.00     0.074 A 
ATOM     45  C   UNL A   1      43.052  31.531  29.822  1.00  0.00     0.049 A 
ATOM     46  N   UNL A   1      42.685  28.749  28.734  1.00  0.00    -0.248 NA
ATOM     47  C   UNL A   1      40.501  28.764  29.555  1.00  0.00     0.031 C 
ATOM     48  C   UNL A   1      43.288  32.884  30.330  1.00  0.00     0.029 A 
ATOM     49  N   UNL A   1      44.220  31.206  29.181  1.00  0.00    -0.354 N 
ATOM     50  C   UNL A   1      42.075  27.537  28.435  1.00  0.00     0.074 A 
ATOM     51  C   UNL A   1      40.745  27.583  29.005  1.00  0.00     0.031 C 
ATOM     52  C   UNL A   1      44.506  33.292  29.941  1.00  0.00     0.029 A 
ATOM     53  C   UNL A   1      45.155  32.212  29.206  1.00  0.00     0.049 A 
ATOM     54  H   UNL A   1      44.374  30.337  28.747  1.00  0.00     0.167 HD
ATOM     55  C   UNL A   1      42.568  26.485  27.737  1.00  0.00     0.037 A 
ATOM     56  C   UNL A   1      46.402  32.256  28.701  1.00  0.00     0.037 A 
ATOM     57  C   UNL A   1      43.885  26.443  27.154  1.00  0.00     0.049 A 
ATOM     58  C   UNL A   1      46.941  31.058  27.972  1.00  0.00     0.074 A 
ATOM     59  C   UNL A   1      44.471  25.429  26.416  1.00  0.00     0.029 A 
ATOM     60  N   UNL A   1      44.820  27.463  27.245  1.00  0.00    -0.354 N 
ATOM     61  N   UNL A   1      46.347  29.925  27.686  1.00  0.00    -0.248 NA
ATOM     62  C   UNL A   1      48.330  31.145  27.501  1.00  0.00     0.031 C 
ATOM     63  C   UNL A   1      45.776  25.820  26.094  1.00  0.00     0.029 A 
ATOM     64  C   UNL A   1      45.987  27.096  26.593  1.00  0.00     0.049 A 
ATOM     65  H   UNL A   1      44.677  28.321  27.706  1.00  0.00     0.167 HD
ATOM     66  C   UNL A   1      47.280  29.174  26.986  1.00  0.00     0.074 A 
ATOM     67  C   UNL A   1      48.472  29.988  26.871  1.00  0.00     0.031 C 
ATOM     68  C   UNL A   1      47.163  27.919  26.486  1.00  0.00     0.037 A 
BRANCH  55  69
ATOM     69  C   UNL A   1      41.680  25.285  27.580  1.00  0.00     0.057 A 
ATOM     70  C   UNL A   1      41.870  24.147  28.374  1.00  0.00     0.134 A 
ATOM     71  C   UNL A   1      40.648  25.245  26.632  1.00  0.00     0.134 A 
ATOM     72  F   UNL A   1      42.844  24.115  29.296  1.00  0.00    -0.206 F 
ATOM     73  C   UNL A   1      41.065  23.015  28.234  1.00  0.00     0.040 A 
ATOM     74  C   UNL A   1      39.820  24.129  26.500  1.00  0.00     0.040 A 
ATOM     75  F   UNL A   1      40.404  26.306  25.849  1.00  0.00    -0.206 F 
ATOM     76  C   UNL A   1      40.031  23.007  27.300  1.00  0.00     0.006 A 
ENDBRANCH  55  69
BRANCH  56  77
ATOM     77  C   UNL A   1      47.232  33.474  28.870  1.00  0.00     0.057 A 
ATOM     78  C   UNL A   1      47.150  34.543  27.970  1.00  0.00     0.134 A 
ATOM     79  C   UNL A   1      48.111  33.605  29.951  1.00  0.00     0.134 A 
ATOM     80  F   UNL A   1      46.327  34.476  26.912  1.00  0.00    -0.206 F 
ATOM     81  C   UNL A   1      47.917  35.697  28.134  1.00  0.00     0.040 A 
ATOM     82  C   UNL A   1      48.865  34.764  30.142  1.00  0.00     0.040 A 
ATOM     83  F   UNL A   1      48.218  32.623  30.858  1.00  0.00    -0.206 F 
ATOM     84  C   UNL A   1      48.772  35.813  29.228  1.00  0.00     0.006 A 
ENDBRANCH  56  77
BRANCH  68  85
ATOM     85  C   UNL A   1      48.347  27.374  25.743  1.00  0.00     0.057 A 
ATOM     86  C   UNL A   1      48.412  27.457  24.346  1.00  0.00     0.134 A 
ATOM     87  C   UNL A   1      49.418  26.761  26.406  1.00  0.00     0.134 A 
ATOM     88  F   UNL A   1      47.417  28.025  23.650  1.00  0.00    -0.206 F 
ATOM     89  C   UNL A   1      49.504  26.957  23.636  1.00  0.00     0.040 A 
ATOM     90  C   UNL A   1      50.527  26.280  25.709  1.00  0.00     0.040 A 
ATOM     91  F   UNL A   1      49.423  26.663  27.744  1.00  0.00    -0.206 F 
ATOM     92  C   UNL A   1      50.570  26.374  24.319  1.00  0.00     0.006 A 
ENDBRANCH  68  85
ENDBRANCH  42  43
ENDBRANCH  34  37
ENDBRANCH  32  33
ENDBRANCH  31  32
ENDBRANCH   1  31
TORSDOF 15
ENDMDL
