MODEL 1
REMARK VINA RESULT:      -9.4      0.000      0.000
REMARK SMILES COc1ccc([C@@H]2[C@@H](C(=O)c3cccc4c3CCCC4)[C@H](C(=O)NCCCNC(=O)c3ccc(-c4c5nc(c(-c6c(F)cccc6F)c6ccc([nH]6)c(-c6c(F)cccc6F)c6nc(c(-c7c(F)cccc7F)c7ccc4[nH]7)C=C6)C=C5)cc3)SC3=NC(=O)S[C@H]32)cc1
REMARK SMILES IDX 26 1 25 2 24 3 22 4 23 5 21 7 7 8 8 9 91 10 86 11 90 12
REMARK SMILES IDX 85 13 87 14 88 15 89 16 6 17 3 18 4 19 93 20 5 21 92 22 2 23
REMARK SMILES IDX 1 24 9 25 10 26 11 27 12 28 16 29 13 30 15 31 17 32 14 33
REMARK SMILES IDX 20 34 18 35 19 36 27 37 28 38 29 39 30 41 31 42 32 43 84 44
REMARK SMILES IDX 33 45 83 46 34 47 35 48 36 49 77 50 37 51 82 52 76 53 78 54
REMARK SMILES IDX 38 55 81 56 75 57 74 58 39 60 65 61 48 62 64 63 49 64 52 65
REMARK SMILES IDX 63 66 79 67 50 68 51 69 62 71 80 72 53 73 40 74 41 75 46 76
REMARK SMILES IDX 42 77 43 78 45 79 47 80 44 81 66 82 67 83 72 84 68 85 69 86
REMARK SMILES IDX 71 87 73 88 70 89 54 90 55 91 60 92 56 93 57 94 59 95 61 96
REMARK SMILES IDX 58 97
REMARK H PARENT 24 6 28 40 78 59 52 70
REMARK Flexibility Score: inf
ROOT
ATOM      1  C   UNL A   1      39.308  35.659  37.768  1.00  0.00     0.042 C 
ENDROOT
BRANCH   1   2
ATOM      2  C   UNL A   1      39.161  35.114  36.351  1.00  0.00     0.117 C 
BRANCH   2   3
ATOM      3  N   UNL A   1      38.394  33.878  36.305  1.00  0.00    -0.355 N 
ATOM      4  C   UNL A   1      37.454  33.415  35.429  1.00  0.00     0.234 C 
ATOM      5  O   UNL A   1      37.028  32.270  35.607  1.00  0.00    -0.274 OA
ATOM      6  H   UNL A   1      38.588  33.260  37.046  1.00  0.00     0.163 HD
BRANCH   4   7
ATOM      7  C   UNL A   1      36.952  34.251  34.239  1.00  0.00     0.153 C 
ATOM      8  C   UNL A   1      36.217  34.059  31.730  1.00  0.00     0.052 C 
ATOM      9  C   UNL A   1      37.099  33.500  32.895  1.00  0.00     0.093 C 
ATOM     10  C   UNL A   1      34.735  34.234  32.136  1.00  0.00     0.121 C 
ATOM     11  C   UNL A   1      34.552  35.228  33.242  1.00  0.00     0.093 C 
ATOM     12  S   UNL A   1      33.676  34.953  30.823  1.00  0.00    -0.052 SA
ATOM     13  S   UNL A   1      35.333  34.944  34.752  1.00  0.00    -0.095 SA
ATOM     14  N   UNL A   1      33.741  36.219  33.125  1.00  0.00    -0.200 NA
ATOM     15  C   UNL A   1      33.130  36.234  31.899  1.00  0.00     0.306 C 
ATOM     16  O   UNL A   1      32.283  37.028  31.548  1.00  0.00    -0.259 OA
BRANCH   8  17
ATOM     17  C   UNL A   1      36.260  33.149  30.495  1.00  0.00    -0.042 A 
ATOM     18  C   UNL A   1      36.362  31.391  28.288  1.00  0.00     0.118 A 
ATOM     19  C   UNL A   1      35.526  31.120  29.365  1.00  0.00     0.047 A 
ATOM     20  C   UNL A   1      37.159  32.532  28.311  1.00  0.00     0.047 A 
ATOM     21  C   UNL A   1      35.512  31.962  30.476  1.00  0.00     0.008 A 
ATOM     22  C   UNL A   1      37.099  33.412  29.400  1.00  0.00     0.008 A 
BRANCH  18  23
ATOM     23  O   UNL A   1      36.283  30.504  27.250  1.00  0.00    -0.497 OA
ATOM     24  C   UNL A   1      35.237  29.544  27.347  1.00  0.00     0.278 C 
ENDBRANCH  18  23
ENDBRANCH   8  17
BRANCH   9  25
ATOM     25  C   UNL A   1      38.631  33.324  32.595  1.00  0.00     0.168 C 
ATOM     26  O   UNL A   1      39.299  34.279  32.202  1.00  0.00    -0.294 OA
BRANCH  25  27
ATOM     27  C   UNL A   1      39.300  31.987  32.672  1.00  0.00     0.021 A 
ATOM     28  C   UNL A   1      39.725  31.540  33.908  1.00  0.00     0.012 A 
ATOM     29  C   UNL A   1      39.037  31.026  31.696  1.00  0.00    -0.034 A 
ATOM     30  C   UNL A   1      39.442  30.225  34.277  1.00  0.00     0.001 A 
ATOM     31  C   UNL A   1      38.466  29.815  32.108  1.00  0.00    -0.044 A 
ATOM     32  C   UNL A   1      40.192  30.721  30.702  1.00  0.00     0.036 C 
ATOM     33  C   UNL A   1      38.694  29.406  33.421  1.00  0.00     0.004 A 
ATOM     34  C   UNL A   1      37.868  28.918  31.055  1.00  0.00     0.036 C 
ATOM     35  C   UNL A   1      39.831  29.681  29.631  1.00  0.00     0.005 C 
ATOM     36  C   UNL A   1      38.351  29.299  29.646  1.00  0.00     0.005 C 
ENDBRANCH  25  27
ENDBRANCH   9  25
ENDBRANCH   4   7
ENDBRANCH   2   3
ENDBRANCH   1   2
BRANCH   1  37
ATOM     37  C   UNL A   1      40.666  36.286  38.066  1.00  0.00     0.118 C 
BRANCH  37  38
ATOM     38  N   UNL A   1      41.295  35.739  39.259  1.00  0.00    -0.352 N 
ATOM     39  C   UNL A   1      42.013  34.580  39.434  1.00  0.00     0.251 C 
ATOM     40  H   UNL A   1      41.190  36.288  40.070  1.00  0.00     0.163 HD
ATOM     41  O   UNL A   1      42.329  34.231  40.568  1.00  0.00    -0.269 OA
BRANCH  39  42
ATOM     42  C   UNL A   1      42.378  33.731  38.276  1.00  0.00     0.039 A 
ATOM     43  C   UNL A   1      41.471  32.757  37.847  1.00  0.00     0.014 A 
ATOM     44  C   UNL A   1      43.606  33.869  37.626  1.00  0.00     0.014 A 
ATOM     45  C   UNL A   1      41.762  31.981  36.721  1.00  0.00     0.010 A 
ATOM     46  C   UNL A   1      43.860  33.154  36.456  1.00  0.00     0.010 A 
ATOM     47  C   UNL A   1      42.939  32.204  35.988  1.00  0.00    -0.014 A 
BRANCH  47  48
ATOM     48  C   UNL A   1      43.213  31.468  34.726  1.00  0.00     0.031 A 
ATOM     49  C   UNL A   1      43.155  32.179  33.401  1.00  0.00     0.074 A 
ATOM     50  C   UNL A   1      43.447  30.141  34.767  1.00  0.00     0.049 A 
ATOM     51  N   UNL A   1      43.286  31.689  32.194  1.00  0.00    -0.248 NA
ATOM     52  C   UNL A   1      42.893  33.627  33.434  1.00  0.00     0.031 C 
ATOM     53  C   UNL A   1      43.483  29.324  35.983  1.00  0.00     0.029 A 
ATOM     54  N   UNL A   1      43.682  29.239  33.758  1.00  0.00    -0.354 N 
ATOM     55  C   UNL A   1      43.105  32.760  31.327  1.00  0.00     0.074 A 
ATOM     56  C   UNL A   1      42.811  33.918  32.143  1.00  0.00     0.031 C 
ATOM     57  C   UNL A   1      43.740  28.050  35.650  1.00  0.00     0.029 A 
ATOM     58  C   UNL A   1      43.842  27.947  34.198  1.00  0.00     0.049 A 
ATOM     59  H   UNL A   1      43.731  29.495  32.809  1.00  0.00     0.167 HD
ATOM     60  C   UNL A   1      43.195  32.780  29.976  1.00  0.00     0.037 A 
ATOM     61  C   UNL A   1      44.029  26.804  33.510  1.00  0.00     0.037 A 
ATOM     62  C   UNL A   1      43.512  31.632  29.168  1.00  0.00     0.049 A 
ATOM     63  C   UNL A   1      44.113  26.855  32.008  1.00  0.00     0.074 A 
ATOM     64  C   UNL A   1      43.694  31.570  27.797  1.00  0.00     0.029 A 
ATOM     65  N   UNL A   1      43.686  30.345  29.653  1.00  0.00    -0.354 N 
ATOM     66  N   UNL A   1      44.020  27.890  31.210  1.00  0.00    -0.248 NA
ATOM     67  C   UNL A   1      44.335  25.580  31.313  1.00  0.00     0.031 C 
ATOM     68  C   UNL A   1      43.922  30.236  27.445  1.00  0.00     0.029 A 
ATOM     69  C   UNL A   1      43.944  29.477  28.604  1.00  0.00     0.049 A 
ATOM     70  H   UNL A   1      43.635  30.087  30.601  1.00  0.00     0.167 HD
ATOM     71  C   UNL A   1      44.201  27.397  29.924  1.00  0.00     0.074 A 
ATOM     72  C   UNL A   1      44.429  25.973  30.050  1.00  0.00     0.031 C 
ATOM     73  C   UNL A   1      44.178  28.063  28.743  1.00  0.00     0.037 A 
BRANCH  60  74
ATOM     74  C   UNL A   1      42.946  34.085  29.276  1.00  0.00     0.057 A 
ATOM     75  C   UNL A   1      43.994  34.864  28.766  1.00  0.00     0.134 A 
ATOM     76  C   UNL A   1      41.639  34.534  29.048  1.00  0.00     0.134 A 
ATOM     77  F   UNL A   1      45.270  34.497  28.957  1.00  0.00    -0.206 F 
ATOM     78  C   UNL A   1      43.751  36.050  28.071  1.00  0.00     0.040 A 
ATOM     79  C   UNL A   1      41.383  35.703  28.329  1.00  0.00     0.040 A 
ATOM     80  F   UNL A   1      40.589  33.833  29.501  1.00  0.00    -0.206 F 
ATOM     81  C   UNL A   1      42.441  36.467  27.842  1.00  0.00     0.006 A 
ENDBRANCH  60  74
BRANCH  61  82
ATOM     82  C   UNL A   1      44.148  25.508  34.227  1.00  0.00     0.057 A 
ATOM     83  C   UNL A   1      45.382  24.858  34.353  1.00  0.00     0.134 A 
ATOM     84  C   UNL A   1      43.028  24.870  34.773  1.00  0.00     0.134 A 
ATOM     85  F   UNL A   1      46.491  25.407  33.834  1.00  0.00    -0.206 F 
ATOM     86  C   UNL A   1      45.493  23.607  34.965  1.00  0.00     0.040 A 
ATOM     87  C   UNL A   1      43.128  23.635  35.415  1.00  0.00     0.040 A 
ATOM     88  F   UNL A   1      41.818  25.443  34.698  1.00  0.00    -0.206 F 
ATOM     89  C   UNL A   1      44.363  22.994  35.501  1.00  0.00     0.006 A 
ENDBRANCH  61  82
BRANCH  73  90
ATOM     90  C   UNL A   1      44.449  27.268  27.498  1.00  0.00     0.057 A 
ATOM     91  C   UNL A   1      45.748  27.063  27.015  1.00  0.00     0.134 A 
ATOM     92  C   UNL A   1      43.396  26.670  26.794  1.00  0.00     0.134 A 
ATOM     93  F   UNL A   1      46.800  27.620  27.636  1.00  0.00    -0.206 F 
ATOM     94  C   UNL A   1      45.987  26.312  25.863  1.00  0.00     0.040 A 
ATOM     95  C   UNL A   1      43.625  25.891  25.659  1.00  0.00     0.040 A 
ATOM     96  F   UNL A   1      42.128  26.818  27.207  1.00  0.00    -0.206 F 
ATOM     97  C   UNL A   1      44.924  25.718  25.185  1.00  0.00     0.006 A 
ENDBRANCH  73  90
ENDBRANCH  47  48
ENDBRANCH  39  42
ENDBRANCH  37  38
ENDBRANCH   1  37
TORSDOF 14
ENDMDL
MODEL 2
REMARK VINA RESULT:      -9.3      4.752      9.165
REMARK SMILES COc1ccc([C@@H]2[C@@H](C(=O)c3cccc4c3CCCC4)[C@H](C(=O)NCCCNC(=O)c3ccc(-c4c5nc(c(-c6c(F)cccc6F)c6ccc([nH]6)c(-c6c(F)cccc6F)c6nc(c(-c7c(F)cccc7F)c7ccc4[nH]7)C=C6)C=C5)cc3)SC3=NC(=O)S[C@H]32)cc1
REMARK SMILES IDX 26 1 25 2 24 3 22 4 23 5 21 7 7 8 8 9 91 10 86 11 90 12
REMARK SMILES IDX 85 13 87 14 88 15 89 16 6 17 3 18 4 19 93 20 5 21 92 22 2 23
REMARK SMILES IDX 1 24 9 25 10 26 11 27 12 28 16 29 13 30 15 31 17 32 14 33
REMARK SMILES IDX 20 34 18 35 19 36 27 37 28 38 29 39 30 41 31 42 32 43 84 44
REMARK SMILES IDX 33 45 83 46 34 47 35 48 36 49 77 50 37 51 82 52 76 53 78 54
REMARK SMILES IDX 38 55 81 56 75 57 74 58 39 60 65 61 48 62 64 63 49 64 52 65
REMARK SMILES IDX 63 66 79 67 50 68 51 69 62 71 80 72 53 73 40 74 41 75 46 76
REMARK SMILES IDX 42 77 43 78 45 79 47 80 44 81 66 82 67 83 72 84 68 85 69 86
REMARK SMILES IDX 71 87 73 88 70 89 54 90 55 91 60 92 56 93 57 94 59 95 61 96
REMARK SMILES IDX 58 97
REMARK H PARENT 24 6 28 40 78 59 52 70
REMARK Flexibility Score: inf
ROOT
ATOM      1  C   UNL A   1      38.934  25.251  27.654  1.00  0.00     0.042 C 
ENDROOT
BRANCH   1   2
ATOM      2  C   UNL A   1      39.513  26.093  28.785  1.00  0.00     0.117 C 
BRANCH   2   3
ATOM      3  N   UNL A   1      40.101  27.337  28.310  1.00  0.00    -0.355 N 
ATOM      4  C   UNL A   1      39.639  28.622  28.294  1.00  0.00     0.234 C 
ATOM      5  O   UNL A   1      40.411  29.498  27.895  1.00  0.00    -0.274 OA
ATOM      6  H   UNL A   1      41.002  27.232  27.928  1.00  0.00     0.163 HD
BRANCH   4   7
ATOM      7  C   UNL A   1      38.227  28.998  28.779  1.00  0.00     0.153 C 
ATOM      8  C   UNL A   1      36.936  30.718  30.277  1.00  0.00     0.052 C 
ATOM      9  C   UNL A   1      38.262  29.934  30.009  1.00  0.00     0.093 C 
ATOM     10  C   UNL A   1      36.406  31.439  29.015  1.00  0.00     0.121 C 
ATOM     11  C   UNL A   1      36.053  30.490  27.912  1.00  0.00     0.093 C 
ATOM     12  S   UNL A   1      34.814  32.315  29.264  1.00  0.00    -0.052 SA
ATOM     13  S   UNL A   1      37.280  29.460  27.278  1.00  0.00    -0.095 SA
ATOM     14  N   UNL A   1      34.892  30.509  27.356  1.00  0.00    -0.200 NA
ATOM     15  C   UNL A   1      34.077  31.457  27.917  1.00  0.00     0.306 C 
ATOM     16  O   UNL A   1      32.952  31.719  27.547  1.00  0.00    -0.259 OA
BRANCH   8  17
ATOM     17  C   UNL A   1      37.107  31.770  31.381  1.00  0.00    -0.042 A 
ATOM     18  C   UNL A   1      37.531  33.692  33.405  1.00  0.00     0.118 A 
ATOM     19  C   UNL A   1      38.145  33.829  32.166  1.00  0.00     0.047 A 
ATOM     20  C   UNL A   1      36.713  32.591  33.646  1.00  0.00     0.047 A 
ATOM     21  C   UNL A   1      37.975  32.854  31.183  1.00  0.00     0.008 A 
ATOM     22  C   UNL A   1      36.492  31.644  32.637  1.00  0.00     0.008 A 
BRANCH  18  23
ATOM     23  O   UNL A   1      37.759  34.713  34.285  1.00  0.00    -0.497 OA
ATOM     24  C   UNL A   1      39.125  34.951  34.602  1.00  0.00     0.278 C 
ENDBRANCH  18  23
ENDBRANCH   8  17
BRANCH   9  25
ATOM     25  C   UNL A   1      38.862  29.132  31.220  1.00  0.00     0.168 C 
ATOM     26  O   UNL A   1      38.151  28.364  31.868  1.00  0.00    -0.294 OA
BRANCH  25  27
ATOM     27  C   UNL A   1      40.266  29.347  31.690  1.00  0.00     0.021 A 
ATOM     28  C   UNL A   1      41.092  28.246  31.805  1.00  0.00     0.012 A 
ATOM     29  C   UNL A   1      40.874  30.590  31.506  1.00  0.00    -0.034 A 
ATOM     30  C   UNL A   1      42.388  28.325  31.294  1.00  0.00     0.001 A 
ATOM     31  C   UNL A   1      42.031  30.642  30.719  1.00  0.00    -0.044 A 
ATOM     32  C   UNL A   1      41.100  31.441  32.786  1.00  0.00     0.036 C 
ATOM     33  C   UNL A   1      42.807  29.487  30.632  1.00  0.00     0.004 A 
ATOM     34  C   UNL A   1      42.498  31.989  30.232  1.00  0.00     0.036 C 
ATOM     35  C   UNL A   1      41.740  32.811  32.515  1.00  0.00     0.005 C 
ATOM     36  C   UNL A   1      41.848  33.134  31.026  1.00  0.00     0.005 C 
ENDBRANCH  25  27
ENDBRANCH   9  25
ENDBRANCH   4   7
ENDBRANCH   2   3
ENDBRANCH   1   2
BRANCH   1  37
ATOM     37  C   UNL A   1      39.861  25.079  26.456  1.00  0.00     0.118 C 
BRANCH  37  38
ATOM     38  N   UNL A   1      40.656  23.861  26.520  1.00  0.00    -0.352 N 
ATOM     39  C   UNL A   1      42.018  23.686  26.475  1.00  0.00     0.251 C 
ATOM     40  H   UNL A   1      40.134  23.031  26.611  1.00  0.00     0.163 HD
ATOM     41  O   UNL A   1      42.478  22.550  26.392  1.00  0.00    -0.269 OA
BRANCH  39  42
ATOM     42  C   UNL A   1      42.936  24.849  26.489  1.00  0.00     0.039 A 
ATOM     43  C   UNL A   1      43.411  25.312  27.720  1.00  0.00     0.014 A 
ATOM     44  C   UNL A   1      43.315  25.498  25.313  1.00  0.00     0.014 A 
ATOM     45  C   UNL A   1      44.324  26.369  27.763  1.00  0.00     0.010 A 
ATOM     46  C   UNL A   1      44.287  26.496  25.349  1.00  0.00     0.010 A 
ATOM     47  C   UNL A   1      44.806  26.941  26.574  1.00  0.00    -0.014 A 
BRANCH  47  48
ATOM     48  C   UNL A   1      45.860  27.989  26.594  1.00  0.00     0.031 A 
ATOM     49  C   UNL A   1      45.487  29.444  26.695  1.00  0.00     0.074 A 
ATOM     50  C   UNL A   1      47.153  27.635  26.450  1.00  0.00     0.049 A 
ATOM     51  N   UNL A   1      46.260  30.500  26.646  1.00  0.00    -0.248 NA
ATOM     52  C   UNL A   1      44.057  29.755  26.846  1.00  0.00     0.031 C 
ATOM     53  C   UNL A   1      47.644  26.263  26.296  1.00  0.00     0.029 A 
ATOM     54  N   UNL A   1      48.292  28.399  26.394  1.00  0.00    -0.354 N 
ATOM     55  C   UNL A   1      45.411  31.596  26.743  1.00  0.00     0.074 A 
ATOM     56  C   UNL A   1      44.061  31.080  26.809  1.00  0.00     0.031 C 
ATOM     57  C   UNL A   1      48.980  26.284  26.177  1.00  0.00     0.029 A 
ATOM     58  C   UNL A   1      49.440  27.668  26.202  1.00  0.00     0.049 A 
ATOM     59  H   UNL A   1      48.287  29.380  26.483  1.00  0.00     0.167 HD
ATOM     60  C   UNL A   1      45.729  32.911  26.793  1.00  0.00     0.037 A 
ATOM     61  C   UNL A   1      50.717  28.068  26.042  1.00  0.00     0.037 A 
ATOM     62  C   UNL A   1      47.075  33.421  26.753  1.00  0.00     0.049 A 
ATOM     63  C   UNL A   1      51.039  29.537  26.091  1.00  0.00     0.074 A 
ATOM     64  C   UNL A   1      47.500  34.734  26.868  1.00  0.00     0.029 A 
ATOM     65  N   UNL A   1      48.211  32.647  26.577  1.00  0.00    -0.354 N 
ATOM     66  N   UNL A   1      50.233  30.555  26.264  1.00  0.00    -0.248 NA
ATOM     67  C   UNL A   1      52.451  29.911  25.927  1.00  0.00     0.031 C 
ATOM     68  C   UNL A   1      48.889  34.760  26.705  1.00  0.00     0.029 A 
ATOM     69  C   UNL A   1      49.335  33.457  26.551  1.00  0.00     0.049 A 
ATOM     70  H   UNL A   1      48.218  31.667  26.487  1.00  0.00     0.167 HD
ATOM     71  C   UNL A   1      51.040  31.685  26.260  1.00  0.00     0.074 A 
ATOM     72  C   UNL A   1      52.402  31.226  26.088  1.00  0.00     0.031 C 
ATOM     73  C   UNL A   1      50.686  32.987  26.387  1.00  0.00     0.037 A 
BRANCH  60  74
ATOM     74  C   UNL A   1      44.605  33.902  26.895  1.00  0.00     0.057 A 
ATOM     75  C   UNL A   1      43.884  34.323  25.770  1.00  0.00     0.134 A 
ATOM     76  C   UNL A   1      44.194  34.387  28.143  1.00  0.00     0.134 A 
ATOM     77  F   UNL A   1      44.231  33.903  24.543  1.00  0.00    -0.206 F 
ATOM     78  C   UNL A   1      42.807  35.204  25.880  1.00  0.00     0.040 A 
ATOM     79  C   UNL A   1      43.100  35.246  28.269  1.00  0.00     0.040 A 
ATOM     80  F   UNL A   1      44.835  34.019  29.263  1.00  0.00    -0.206 F 
ATOM     81  C   UNL A   1      42.406  35.660  27.134  1.00  0.00     0.006 A 
ENDBRANCH  60  74
BRANCH  61  82
ATOM     82  C   UNL A   1      51.793  27.067  25.819  1.00  0.00     0.057 A 
ATOM     83  C   UNL A   1      52.139  26.649  24.528  1.00  0.00     0.134 A 
ATOM     84  C   UNL A   1      52.475  26.478  26.889  1.00  0.00     0.134 A 
ATOM     85  F   UNL A   1      51.509  27.161  23.460  1.00  0.00    -0.206 F 
ATOM     86  C   UNL A   1      53.100  25.660  24.311  1.00  0.00     0.040 A 
ATOM     87  C   UNL A   1      53.460  25.510  26.687  1.00  0.00     0.040 A 
ATOM     88  F   UNL A   1      52.201  26.840  28.151  1.00  0.00    -0.206 F 
ATOM     89  C   UNL A   1      53.766  25.089  25.394  1.00  0.00     0.006 A 
ENDBRANCH  61  82
BRANCH  73  90
ATOM     90  C   UNL A   1      51.790  34.006  26.387  1.00  0.00     0.057 A 
ATOM     91  C   UNL A   1      52.412  34.427  27.569  1.00  0.00     0.134 A 
ATOM     92  C   UNL A   1      52.260  34.545  25.183  1.00  0.00     0.134 A 
ATOM     93  F   UNL A   1      52.001  33.959  28.758  1.00  0.00    -0.206 F 
ATOM     94  C   UNL A   1      53.446  35.365  27.555  1.00  0.00     0.040 A 
ATOM     95  C   UNL A   1      53.313  35.459  25.153  1.00  0.00     0.040 A 
ATOM     96  F   UNL A   1      51.715  34.178  24.013  1.00  0.00    -0.206 F 
ATOM     97  C   UNL A   1      53.903  35.879  26.343  1.00  0.00     0.006 A 
ENDBRANCH  73  90
ENDBRANCH  47  48
ENDBRANCH  39  42
ENDBRANCH  37  38
ENDBRANCH   1  37
TORSDOF 14
ENDMDL
MODEL 3
REMARK VINA RESULT:      -9.2      4.634      9.019
REMARK SMILES COc1ccc([C@@H]2[C@@H](C(=O)c3cccc4c3CCCC4)[C@H](C(=O)NCCCNC(=O)c3ccc(-c4c5nc(c(-c6c(F)cccc6F)c6ccc([nH]6)c(-c6c(F)cccc6F)c6nc(c(-c7c(F)cccc7F)c7ccc4[nH]7)C=C6)C=C5)cc3)SC3=NC(=O)S[C@H]32)cc1
REMARK SMILES IDX 26 1 25 2 24 3 22 4 23 5 21 7 7 8 8 9 91 10 86 11 90 12
REMARK SMILES IDX 85 13 87 14 88 15 89 16 6 17 3 18 4 19 93 20 5 21 92 22 2 23
REMARK SMILES IDX 1 24 9 25 10 26 11 27 12 28 16 29 13 30 15 31 17 32 14 33
REMARK SMILES IDX 20 34 18 35 19 36 27 37 28 38 29 39 30 41 31 42 32 43 84 44
REMARK SMILES IDX 33 45 83 46 34 47 35 48 36 49 77 50 37 51 82 52 76 53 78 54
REMARK SMILES IDX 38 55 81 56 75 57 74 58 39 60 65 61 48 62 64 63 49 64 52 65
REMARK SMILES IDX 63 66 79 67 50 68 51 69 62 71 80 72 53 73 40 74 41 75 46 76
REMARK SMILES IDX 42 77 43 78 45 79 47 80 44 81 66 82 67 83 72 84 68 85 69 86
REMARK SMILES IDX 71 87 73 88 70 89 54 90 55 91 60 92 56 93 57 94 59 95 61 96
REMARK SMILES IDX 58 97
REMARK H PARENT 24 6 28 40 78 59 52 70
REMARK Flexibility Score: inf
ROOT
ATOM      1  C   UNL A   1      40.192  25.786  28.760  1.00  0.00     0.042 C 
ENDROOT
BRANCH   1   2
ATOM      2  C   UNL A   1      39.297  26.816  29.439  1.00  0.00     0.117 C 
BRANCH   2   3
ATOM      3  N   UNL A   1      39.848  28.162  29.379  1.00  0.00    -0.355 N 
ATOM      4  C   UNL A   1      39.264  29.395  29.437  1.00  0.00     0.234 C 
ATOM      5  O   UNL A   1      40.012  30.376  29.442  1.00  0.00    -0.274 OA
ATOM      6  H   UNL A   1      40.827  28.187  29.277  1.00  0.00     0.163 HD
BRANCH   4   7
ATOM      7  C   UNL A   1      37.740  29.583  29.525  1.00  0.00     0.153 C 
ATOM      8  C   UNL A   1      35.899  31.228  30.407  1.00  0.00     0.052 C 
ATOM      9  C   UNL A   1      37.343  30.651  30.571  1.00  0.00     0.093 C 
ATOM     10  C   UNL A   1      35.605  31.696  28.962  1.00  0.00     0.121 C 
ATOM     11  C   UNL A   1      35.668  30.576  27.968  1.00  0.00     0.093 C 
ATOM     12  S   UNL A   1      33.899  32.316  28.705  1.00  0.00    -0.052 SA
ATOM     13  S   UNL A   1      37.141  29.699  27.796  1.00  0.00    -0.095 SA
ATOM     14  N   UNL A   1      34.689  30.334  27.169  1.00  0.00    -0.200 NA
ATOM     15  C   UNL A   1      33.640  31.192  27.376  1.00  0.00     0.306 C 
ATOM     16  O   UNL A   1      32.617  31.216  26.725  1.00  0.00    -0.259 OA
BRANCH   8  17
ATOM     17  C   UNL A   1      35.649  32.417  31.344  1.00  0.00    -0.042 A 
ATOM     18  C   UNL A   1      35.298  34.616  33.080  1.00  0.00     0.118 A 
ATOM     19  C   UNL A   1      36.093  34.736  31.946  1.00  0.00     0.047 A 
ATOM     20  C   UNL A   1      34.684  33.398  33.360  1.00  0.00     0.047 A 
ATOM     21  C   UNL A   1      36.306  33.635  31.115  1.00  0.00     0.008 A 
ATOM     22  C   UNL A   1      34.848  32.311  32.492  1.00  0.00     0.008 A 
BRANCH  18  23
ATOM     23  O   UNL A   1      35.150  35.761  33.812  1.00  0.00    -0.497 OA
ATOM     24  C   UNL A   1      34.047  36.581  33.445  1.00  0.00     0.278 C 
ENDBRANCH  18  23
ENDBRANCH   8  17
BRANCH   9  25
ATOM     25  C   UNL A   1      37.727  30.110  31.995  1.00  0.00     0.168 C 
ATOM     26  O   UNL A   1      37.031  29.255  32.542  1.00  0.00    -0.294 OA
BRANCH  25  27
ATOM     27  C   UNL A   1      38.871  30.682  32.774  1.00  0.00     0.021 A 
ATOM     28  C   UNL A   1      39.801  29.809  33.303  1.00  0.00     0.012 A 
ATOM     29  C   UNL A   1      39.283  31.993  32.534  1.00  0.00    -0.034 A 
ATOM     30  C   UNL A   1      41.157  30.102  33.147  1.00  0.00     0.001 A 
ATOM     31  C   UNL A   1      40.595  32.196  32.086  1.00  0.00    -0.044 A 
ATOM     32  C   UNL A   1      38.971  33.027  33.652  1.00  0.00     0.036 C 
ATOM     33  C   UNL A   1      41.547  31.234  32.421  1.00  0.00     0.004 A 
ATOM     34  C   UNL A   1      40.947  33.540  31.504  1.00  0.00     0.036 C 
ATOM     35  C   UNL A   1      39.417  34.458  33.315  1.00  0.00     0.005 C 
ATOM     36  C   UNL A   1      39.904  34.607  31.875  1.00  0.00     0.005 C 
ENDBRANCH  25  27
ENDBRANCH   9  25
ENDBRANCH   4   7
ENDBRANCH   2   3
ENDBRANCH   1   2
BRANCH   1  37
ATOM     37  C   UNL A   1      39.814  25.474  27.316  1.00  0.00     0.118 C 
BRANCH  37  38
ATOM     38  N   UNL A   1      40.277  24.166  26.875  1.00  0.00    -0.352 N 
ATOM     39  C   UNL A   1      41.509  23.770  26.412  1.00  0.00     0.251 C 
ATOM     40  H   UNL A   1      39.600  23.452  26.915  1.00  0.00     0.163 HD
ATOM     41  O   UNL A   1      41.644  22.642  25.946  1.00  0.00    -0.269 OA
BRANCH  39  42
ATOM     42  C   UNL A   1      42.665  24.696  26.436  1.00  0.00     0.039 A 
ATOM     43  C   UNL A   1      42.991  25.390  25.267  1.00  0.00     0.014 A 
ATOM     44  C   UNL A   1      43.437  24.873  27.585  1.00  0.00     0.014 A 
ATOM     45  C   UNL A   1      44.038  26.316  25.274  1.00  0.00     0.010 A 
ATOM     46  C   UNL A   1      44.426  25.855  27.616  1.00  0.00     0.010 A 
ATOM     47  C   UNL A   1      44.737  26.590  26.462  1.00  0.00    -0.014 A 
BRANCH  47  48
ATOM     48  C   UNL A   1      45.777  27.650  26.518  1.00  0.00     0.031 A 
ATOM     49  C   UNL A   1      45.386  29.095  26.676  1.00  0.00     0.074 A 
ATOM     50  C   UNL A   1      47.074  27.319  26.356  1.00  0.00     0.049 A 
ATOM     51  N   UNL A   1      46.145  30.162  26.666  1.00  0.00    -0.248 NA
ATOM     52  C   UNL A   1      43.952  29.381  26.845  1.00  0.00     0.031 C 
ATOM     53  C   UNL A   1      47.582  25.961  26.147  1.00  0.00     0.029 A 
ATOM     54  N   UNL A   1      48.203  28.100  26.325  1.00  0.00    -0.354 N 
ATOM     55  C   UNL A   1      45.282  31.242  26.808  1.00  0.00     0.074 A 
ATOM     56  C   UNL A   1      43.939  30.707  26.858  1.00  0.00     0.031 C 
ATOM     57  C   UNL A   1      48.917  26.003  26.025  1.00  0.00     0.029 A 
ATOM     58  C   UNL A   1      49.359  27.392  26.101  1.00  0.00     0.049 A 
ATOM     59  H   UNL A   1      48.186  29.076  26.452  1.00  0.00     0.167 HD
ATOM     60  C   UNL A   1      45.584  32.559  26.908  1.00  0.00     0.037 A 
ATOM     61  C   UNL A   1      50.630  27.814  25.953  1.00  0.00     0.037 A 
ATOM     62  C   UNL A   1      46.922  33.087  26.883  1.00  0.00     0.049 A 
ATOM     63  C   UNL A   1      50.934  29.284  26.057  1.00  0.00     0.074 A 
ATOM     64  C   UNL A   1      47.331  34.400  27.047  1.00  0.00     0.029 A 
ATOM     65  N   UNL A   1      48.068  32.336  26.673  1.00  0.00    -0.354 N 
ATOM     66  N   UNL A   1      50.115  30.284  26.272  1.00  0.00    -0.248 NA
ATOM     67  C   UNL A   1      52.340  29.683  25.902  1.00  0.00     0.031 C 
ATOM     68  C   UNL A   1      48.719  34.451  26.880  1.00  0.00     0.029 A 
ATOM     69  C   UNL A   1      49.181  33.161  26.674  1.00  0.00     0.049 A 
ATOM     70  H   UNL A   1      48.087  31.360  26.544  1.00  0.00     0.167 HD
ATOM     71  C   UNL A   1      50.907  31.424  26.309  1.00  0.00     0.074 A 
ATOM     72  C   UNL A   1      52.275  30.990  26.114  1.00  0.00     0.031 C 
ATOM     73  C   UNL A   1      50.537  32.716  26.488  1.00  0.00     0.037 A 
BRANCH  60  74
ATOM     74  C   UNL A   1      44.447  33.530  27.052  1.00  0.00     0.057 A 
ATOM     75  C   UNL A   1      43.920  33.873  28.305  1.00  0.00     0.134 A 
ATOM     76  C   UNL A   1      43.920  34.182  25.930  1.00  0.00     0.134 A 
ATOM     77  F   UNL A   1      44.374  33.279  29.419  1.00  0.00    -0.206 F 
ATOM     78  C   UNL A   1      42.899  34.815  28.434  1.00  0.00     0.040 A 
ATOM     79  C   UNL A   1      42.918  35.148  26.050  1.00  0.00     0.040 A 
ATOM     80  F   UNL A   1      44.383  33.907  24.702  1.00  0.00    -0.206 F 
ATOM     81  C   UNL A   1      42.402  35.463  27.305  1.00  0.00     0.006 A 
ENDBRANCH  60  74
BRANCH  61  82
ATOM     82  C   UNL A   1      51.718  26.837  25.687  1.00  0.00     0.057 A 
ATOM     83  C   UNL A   1      52.377  26.180  26.733  1.00  0.00     0.134 A 
ATOM     84  C   UNL A   1      52.150  26.561  24.384  1.00  0.00     0.134 A 
ATOM     85  F   UNL A   1      52.024  26.415  28.006  1.00  0.00    -0.206 F 
ATOM     86  C   UNL A   1      53.446  25.313  26.498  1.00  0.00     0.040 A 
ATOM     87  C   UNL A   1      53.196  25.673  24.130  1.00  0.00     0.040 A 
ATOM     88  F   UNL A   1      51.554  27.147  23.334  1.00  0.00    -0.206 F 
ATOM     89  C   UNL A   1      53.855  25.055  25.191  1.00  0.00     0.006 A 
ENDBRANCH  61  82
BRANCH  73  90
ATOM     90  C   UNL A   1      51.628  33.748  26.523  1.00  0.00     0.057 A 
ATOM     91  C   UNL A   1      52.280  34.098  27.712  1.00  0.00     0.134 A 
ATOM     92  C   UNL A   1      52.055  34.372  25.344  1.00  0.00     0.134 A 
ATOM     93  F   UNL A   1      51.911  33.547  28.878  1.00  0.00    -0.206 F 
ATOM     94  C   UNL A   1      53.301  35.051  27.730  1.00  0.00     0.040 A 
ATOM     95  C   UNL A   1      53.095  35.302  25.344  1.00  0.00     0.040 A 
ATOM     96  F   UNL A   1      51.479  34.075  24.169  1.00  0.00    -0.206 F 
ATOM     97  C   UNL A   1      53.715  35.650  26.542  1.00  0.00     0.006 A 
ENDBRANCH  73  90
ENDBRANCH  47  48
ENDBRANCH  39  42
ENDBRANCH  37  38
ENDBRANCH   1  37
TORSDOF 14
ENDMDL
