MODEL 1
REMARK VINA RESULT:     -12.9      0.000      0.000
REMARK SMILES Cc1ccc(C(=O)c2cccc(C)c2C(=O)NCCCNC(=O)c2ccc(-c3c4nc(c(-c5c(F)cccc5F)c5ccc([nH]5)c(-c5c(F)cccc5F)c5nc(c(-c6c(F)cccc6F)c6ccc3[nH]6)C=C5)C=C4)cc2)c(C)c1
REMARK SMILES IDX 19 1 18 2 17 3 15 4 16 5 14 7 8 8 9 9 10 10 12 11 11 12
REMARK SMILES IDX 13 13 6 14 7 15 5 16 1 17 2 18 3 19 80 20 4 21 78 22 79 23
REMARK SMILES IDX 20 24 21 25 22 26 23 28 24 29 25 30 77 31 26 32 76 33 27 34
REMARK SMILES IDX 28 35 29 36 70 37 30 38 75 39 69 40 71 41 31 42 74 43 68 44
REMARK SMILES IDX 67 45 32 47 58 48 41 49 57 50 42 51 45 52 56 53 72 54 43 55
REMARK SMILES IDX 44 56 55 58 73 59 46 60 33 61 34 62 39 63 35 64 36 65 38 66
REMARK SMILES IDX 40 67 37 68 59 69 60 70 65 71 61 72 62 73 64 74 66 75 63 76
REMARK SMILES IDX 47 77 48 78 53 79 49 80 50 81 52 82 54 83 51 84
REMARK H PARENT 17 6 21 27 71 46 45 57
REMARK Flexibility Score: inf
ROOT
ATOM      1  C   UNL A   1      32.854  31.056  27.132  1.00  0.00     0.042 C 
ENDROOT
BRANCH   1   2
ATOM      2  C   UNL A   1      32.159  30.177  26.118  1.00  0.00     0.118 C 
BRANCH   2   3
ATOM      3  N   UNL A   1      33.025  29.487  25.189  1.00  0.00    -0.352 N 
ATOM      4  C   UNL A   1      32.695  28.574  24.210  1.00  0.00     0.252 C 
ATOM      5  O   UNL A   1      33.579  28.221  23.431  1.00  0.00    -0.269 OA
ATOM      6  H   UNL A   1      33.984  29.697  25.268  1.00  0.00     0.163 HD
BRANCH   4   7
ATOM      7  C   UNL A   1      31.346  27.924  24.159  1.00  0.00     0.053 A 
ATOM      8  C   UNL A   1      30.986  26.829  24.973  1.00  0.00     0.036 A 
ATOM      9  C   UNL A   1      29.718  26.236  24.844  1.00  0.00     0.013 A 
ATOM     10  C   UNL A   1      28.814  26.703  23.896  1.00  0.00     0.001 A 
ATOM     11  C   UNL A   1      30.382  28.455  23.260  1.00  0.00    -0.038 A 
ATOM     12  C   UNL A   1      29.136  27.816  23.126  1.00  0.00     0.004 A 
ATOM     13  C   UNL A   1      30.606  29.724  22.476  1.00  0.00     0.045 C 
BRANCH   8  14
ATOM     14  C   UNL A   1      31.845  26.363  26.090  1.00  0.00     0.194 C 
ATOM     15  O   UNL A   1      31.714  26.964  27.150  1.00  0.00    -0.289 OA
BRANCH  14  16
ATOM     16  C   UNL A   1      32.843  25.229  25.939  1.00  0.00     0.025 A 
ATOM     17  C   UNL A   1      35.676  22.000  25.359  1.00  0.00     0.044 C 
ATOM     18  C   UNL A   1      34.730  23.132  25.624  1.00  0.00    -0.051 A 
ATOM     19  C   UNL A   1      35.096  24.453  25.376  1.00  0.00     0.004 A 
ATOM     20  C   UNL A   1      33.439  22.870  26.093  1.00  0.00     0.007 A 
ATOM     21  C   UNL A   1      34.169  25.487  25.541  1.00  0.00     0.013 A 
ATOM     22  C   UNL A   1      32.497  23.902  26.282  1.00  0.00    -0.040 A 
ATOM     23  C   UNL A   1      31.165  23.518  26.875  1.00  0.00     0.045 C 
ENDBRANCH  14  16
ENDBRANCH   8  14
ENDBRANCH   4   7
ENDBRANCH   2   3
ENDBRANCH   1   2
BRANCH   1  24
ATOM     24  C   UNL A   1      34.153  30.439  27.634  1.00  0.00     0.118 C 
BRANCH  24  25
ATOM     25  N   UNL A   1      34.874  31.281  28.602  1.00  0.00    -0.352 N 
ATOM     26  C   UNL A   1      36.148  31.093  29.119  1.00  0.00     0.251 C 
ATOM     27  H   UNL A   1      34.393  32.079  28.922  1.00  0.00     0.163 HD
ATOM     28  O   UNL A   1      36.729  31.972  29.748  1.00  0.00    -0.269 OA
BRANCH  26  29
ATOM     29  C   UNL A   1      36.822  29.817  28.812  1.00  0.00     0.039 A 
ATOM     30  C   UNL A   1      37.073  28.953  29.880  1.00  0.00     0.014 A 
ATOM     31  C   UNL A   1      37.547  29.743  27.626  1.00  0.00     0.014 A 
ATOM     32  C   UNL A   1      38.253  28.219  29.872  1.00  0.00     0.010 A 
ATOM     33  C   UNL A   1      38.764  29.083  27.664  1.00  0.00     0.010 A 
ATOM     34  C   UNL A   1      39.163  28.412  28.831  1.00  0.00    -0.014 A 
BRANCH  34  35
ATOM     35  C   UNL A   1      40.595  28.140  28.992  1.00  0.00     0.031 A 
ATOM     36  C   UNL A   1      41.210  26.937  28.393  1.00  0.00     0.074 A 
ATOM     37  C   UNL A   1      41.392  29.019  29.650  1.00  0.00     0.049 A 
ATOM     38  N   UNL A   1      42.325  26.416  28.788  1.00  0.00    -0.248 NA
ATOM     39  C   UNL A   1      40.583  26.193  27.312  1.00  0.00     0.031 C 
ATOM     40  C   UNL A   1      42.854  29.026  29.696  1.00  0.00     0.029 A 
ATOM     41  N   UNL A   1      41.016  29.957  30.624  1.00  0.00    -0.354 N 
ATOM     42  C   UNL A   1      42.693  25.454  27.878  1.00  0.00     0.074 A 
ATOM     43  C   UNL A   1      41.549  25.324  27.004  1.00  0.00     0.031 C 
ATOM     44  C   UNL A   1      43.247  29.637  30.822  1.00  0.00     0.029 A 
ATOM     45  C   UNL A   1      42.055  29.951  31.587  1.00  0.00     0.049 A 
ATOM     46  H   UNL A   1      40.199  30.506  30.636  1.00  0.00     0.167 HD
ATOM     47  C   UNL A   1      43.963  24.954  27.909  1.00  0.00     0.037 A 
ATOM     48  C   UNL A   1      41.820  29.585  32.878  1.00  0.00     0.037 A 
ATOM     49  C   UNL A   1      44.715  25.446  29.067  1.00  0.00     0.049 A 
ATOM     50  C   UNL A   1      42.580  28.359  33.339  1.00  0.00     0.074 A 
ATOM     51  C   UNL A   1      45.705  26.394  29.269  1.00  0.00     0.029 A 
ATOM     52  N   UNL A   1      44.273  25.095  30.331  1.00  0.00    -0.354 N 
ATOM     53  N   UNL A   1      43.423  27.685  32.605  1.00  0.00    -0.248 NA
ATOM     54  C   UNL A   1      42.358  27.730  34.644  1.00  0.00     0.031 C 
ATOM     55  C   UNL A   1      45.855  26.597  30.672  1.00  0.00     0.029 A 
ATOM     56  C   UNL A   1      44.950  25.779  31.320  1.00  0.00     0.049 A 
ATOM     57  H   UNL A   1      43.561  24.436  30.503  1.00  0.00     0.167 HD
ATOM     58  C   UNL A   1      43.778  26.537  33.265  1.00  0.00     0.074 A 
ATOM     59  C   UNL A   1      43.098  26.615  34.542  1.00  0.00     0.031 C 
ATOM     60  C   UNL A   1      44.556  25.568  32.702  1.00  0.00     0.037 A 
BRANCH  47  61
ATOM     61  C   UNL A   1      44.597  24.187  26.765  1.00  0.00     0.057 A 
ATOM     62  C   UNL A   1      44.317  22.820  26.567  1.00  0.00     0.134 A 
ATOM     63  C   UNL A   1      45.532  24.712  25.857  1.00  0.00     0.134 A 
ATOM     64  F   UNL A   1      43.357  22.188  27.256  1.00  0.00    -0.206 F 
ATOM     65  C   UNL A   1      45.008  22.022  25.646  1.00  0.00     0.040 A 
ATOM     66  C   UNL A   1      46.277  23.916  24.974  1.00  0.00     0.040 A 
ATOM     67  F   UNL A   1      45.718  26.029  25.721  1.00  0.00    -0.206 F 
ATOM     68  C   UNL A   1      46.027  22.558  24.878  1.00  0.00     0.006 A 
ENDBRANCH  47  61
BRANCH  48  69
ATOM     69  C   UNL A   1      40.479  29.996  33.361  1.00  0.00     0.057 A 
ATOM     70  C   UNL A   1      40.263  31.352  33.669  1.00  0.00     0.134 A 
ATOM     71  C   UNL A   1      39.349  29.194  33.195  1.00  0.00     0.134 A 
ATOM     72  F   UNL A   1      41.307  32.177  33.844  1.00  0.00    -0.206 F 
ATOM     73  C   UNL A   1      38.983  31.908  33.694  1.00  0.00     0.040 A 
ATOM     74  C   UNL A   1      38.061  29.736  33.234  1.00  0.00     0.040 A 
ATOM     75  F   UNL A   1      39.475  27.898  32.875  1.00  0.00    -0.206 F 
ATOM     76  C   UNL A   1      37.878  31.102  33.445  1.00  0.00     0.006 A 
ENDBRANCH  48  69
BRANCH  60  77
ATOM     77  C   UNL A   1      44.975  24.319  33.426  1.00  0.00     0.057 A 
ATOM     78  C   UNL A   1      44.187  23.160  33.445  1.00  0.00     0.134 A 
ATOM     79  C   UNL A   1      46.133  24.281  34.227  1.00  0.00     0.134 A 
ATOM     80  F   UNL A   1      43.028  23.102  32.771  1.00  0.00    -0.206 F 
ATOM     81  C   UNL A   1      44.549  22.021  34.175  1.00  0.00     0.040 A 
ATOM     82  C   UNL A   1      46.481  23.168  34.998  1.00  0.00     0.040 A 
ATOM     83  F   UNL A   1      46.987  25.313  34.280  1.00  0.00    -0.206 F 
ATOM     84  C   UNL A   1      45.694  22.026  34.963  1.00  0.00     0.006 A 
ENDBRANCH  60  77
ENDBRANCH  34  35
ENDBRANCH  26  29
ENDBRANCH  24  25
ENDBRANCH   1  24
TORSDOF 12
ENDMDL
MODEL 2
REMARK VINA RESULT:     -12.7      3.875      9.248
REMARK SMILES Cc1ccc(C(=O)c2cccc(C)c2C(=O)NCCCNC(=O)c2ccc(-c3c4nc(c(-c5c(F)cccc5F)c5ccc([nH]5)c(-c5c(F)cccc5F)c5nc(c(-c6c(F)cccc6F)c6ccc3[nH]6)C=C5)C=C4)cc2)c(C)c1
REMARK SMILES IDX 19 1 18 2 17 3 15 4 16 5 14 7 8 8 9 9 10 10 12 11 11 12
REMARK SMILES IDX 13 13 6 14 7 15 5 16 1 17 2 18 3 19 80 20 4 21 78 22 79 23
REMARK SMILES IDX 20 24 21 25 22 26 23 28 24 29 25 30 77 31 26 32 76 33 27 34
REMARK SMILES IDX 28 35 29 36 70 37 30 38 75 39 69 40 71 41 31 42 74 43 68 44
REMARK SMILES IDX 67 45 32 47 58 48 41 49 57 50 42 51 45 52 56 53 72 54 43 55
REMARK SMILES IDX 44 56 55 58 73 59 46 60 33 61 34 62 39 63 35 64 36 65 38 66
REMARK SMILES IDX 40 67 37 68 59 69 60 70 65 71 61 72 62 73 64 74 66 75 63 76
REMARK SMILES IDX 47 77 48 78 53 79 49 80 50 81 52 82 54 83 51 84
REMARK H PARENT 17 6 21 27 71 46 45 57
REMARK Flexibility Score: inf
ROOT
ATOM      1  C   UNL A   1      38.306  21.590  25.428  1.00  0.00     0.042 C 
ENDROOT
BRANCH   1   2
ATOM      2  C   UNL A   1      36.828  21.497  25.123  1.00  0.00     0.118 C 
BRANCH   2   3
ATOM      3  N   UNL A   1      35.949  22.110  26.092  1.00  0.00    -0.352 N 
ATOM      4  C   UNL A   1      34.574  22.221  26.066  1.00  0.00     0.252 C 
ATOM      5  O   UNL A   1      34.014  22.652  27.072  1.00  0.00    -0.269 OA
ATOM      6  H   UNL A   1      36.392  22.502  26.878  1.00  0.00     0.163 HD
BRANCH   4   7
ATOM      7  C   UNL A   1      33.783  21.956  24.823  1.00  0.00     0.053 A 
ATOM      8  C   UNL A   1      33.660  22.890  23.771  1.00  0.00     0.036 A 
ATOM      9  C   UNL A   1      32.865  22.596  22.650  1.00  0.00     0.013 A 
ATOM     10  C   UNL A   1      32.170  21.394  22.574  1.00  0.00     0.001 A 
ATOM     11  C   UNL A   1      33.146  20.692  24.692  1.00  0.00    -0.038 A 
ATOM     12  C   UNL A   1      32.327  20.442  23.577  1.00  0.00     0.004 A 
ATOM     13  C   UNL A   1      33.357  19.565  25.673  1.00  0.00     0.045 C 
BRANCH   8  14
ATOM     14  C   UNL A   1      34.473  24.131  23.724  1.00  0.00     0.194 C 
ATOM     15  O   UNL A   1      35.609  24.008  23.281  1.00  0.00    -0.289 OA
BRANCH  14  16
ATOM     16  C   UNL A   1      33.951  25.472  24.208  1.00  0.00     0.025 A 
ATOM     17  C   UNL A   1      32.347  29.228  25.660  1.00  0.00     0.044 C 
ATOM     18  C   UNL A   1      32.969  27.961  25.156  1.00  0.00    -0.051 A 
ATOM     19  C   UNL A   1      33.644  27.096  26.015  1.00  0.00     0.004 A 
ATOM     20  C   UNL A   1      32.844  27.607  23.809  1.00  0.00     0.007 A 
ATOM     21  C   UNL A   1      34.137  25.875  25.545  1.00  0.00     0.013 A 
ATOM     22  C   UNL A   1      33.350  26.388  23.314  1.00  0.00    -0.040 A 
ATOM     23  C   UNL A   1      33.239  26.148  21.830  1.00  0.00     0.045 C 
ENDBRANCH  14  16
ENDBRANCH   8  14
ENDBRANCH   4   7
ENDBRANCH   2   3
ENDBRANCH   1   2
BRANCH   1  24
ATOM     24  C   UNL A   1      38.661  22.876  26.163  1.00  0.00     0.118 C 
BRANCH  24  25
ATOM     25  N   UNL A   1      40.108  23.071  26.352  1.00  0.00    -0.352 N 
ATOM     26  C   UNL A   1      40.759  24.156  26.921  1.00  0.00     0.251 C 
ATOM     27  H   UNL A   1      40.686  22.339  26.036  1.00  0.00     0.163 HD
ATOM     28  O   UNL A   1      41.947  24.113  27.224  1.00  0.00    -0.269 OA
BRANCH  26  29
ATOM     29  C   UNL A   1      39.946  25.347  27.232  1.00  0.00     0.039 A 
ATOM     30  C   UNL A   1      40.256  26.528  26.553  1.00  0.00     0.014 A 
ATOM     31  C   UNL A   1      39.260  25.360  28.444  1.00  0.00     0.014 A 
ATOM     32  C   UNL A   1      40.148  27.732  27.239  1.00  0.00     0.010 A 
ATOM     33  C   UNL A   1      39.244  26.548  29.153  1.00  0.00     0.010 A 
ATOM     34  C   UNL A   1      39.789  27.712  28.588  1.00  0.00    -0.014 A 
BRANCH  34  35
ATOM     35  C   UNL A   1      40.167  28.790  29.507  1.00  0.00     0.031 A 
ATOM     36  C   UNL A   1      39.192  29.830  29.898  1.00  0.00     0.074 A 
ATOM     37  C   UNL A   1      41.406  28.822  30.058  1.00  0.00     0.049 A 
ATOM     38  N   UNL A   1      39.514  30.992  30.362  1.00  0.00    -0.248 NA
ATOM     39  C   UNL A   1      37.757  29.650  29.753  1.00  0.00     0.031 C 
ATOM     40  C   UNL A   1      41.866  29.670  31.157  1.00  0.00     0.029 A 
ATOM     41  N   UNL A   1      42.584  28.246  29.556  1.00  0.00    -0.354 N 
ATOM     42  C   UNL A   1      38.369  31.604  30.814  1.00  0.00     0.074 A 
ATOM     43  C   UNL A   1      37.297  30.743  30.368  1.00  0.00     0.031 C 
ATOM     44  C   UNL A   1      43.193  29.831  31.052  1.00  0.00     0.029 A 
ATOM     45  C   UNL A   1      43.615  29.178  29.828  1.00  0.00     0.049 A 
ATOM     46  H   UNL A   1      42.676  27.373  29.109  1.00  0.00     0.167 HD
ATOM     47  C   UNL A   1      38.469  32.714  31.602  1.00  0.00     0.037 A 
ATOM     48  C   UNL A   1      44.324  29.762  28.820  1.00  0.00     0.037 A 
ATOM     49  C   UNL A   1      39.855  33.179  31.715  1.00  0.00     0.049 A 
ATOM     50  C   UNL A   1      44.187  31.267  28.737  1.00  0.00     0.074 A 
ATOM     51  C   UNL A   1      40.841  33.113  32.686  1.00  0.00     0.029 A 
ATOM     52  N   UNL A   1      40.491  33.624  30.569  1.00  0.00    -0.354 N 
ATOM     53  N   UNL A   1      43.480  31.997  29.555  1.00  0.00    -0.248 NA
ATOM     54  C   UNL A   1      44.758  32.058  27.643  1.00  0.00     0.031 C 
ATOM     55  C   UNL A   1      42.073  33.532  32.105  1.00  0.00     0.029 A 
ATOM     56  C   UNL A   1      41.836  33.846  30.781  1.00  0.00     0.049 A 
ATOM     57  H   UNL A   1      40.038  33.764  29.706  1.00  0.00     0.167 HD
ATOM     58  C   UNL A   1      43.423  33.282  29.079  1.00  0.00     0.074 A 
ATOM     59  C   UNL A   1      44.248  33.275  27.888  1.00  0.00     0.031 C 
ATOM     60  C   UNL A   1      42.658  34.254  29.655  1.00  0.00     0.037 A 
BRANCH  47  61
ATOM     61  C   UNL A   1      37.334  33.252  32.451  1.00  0.00     0.057 A 
ATOM     62  C   UNL A   1      36.313  34.037  31.881  1.00  0.00     0.134 A 
ATOM     63  C   UNL A   1      37.214  33.085  33.842  1.00  0.00     0.134 A 
ATOM     64  F   UNL A   1      36.198  34.194  30.555  1.00  0.00    -0.206 F 
ATOM     65  C   UNL A   1      35.347  34.709  32.642  1.00  0.00     0.040 A 
ATOM     66  C   UNL A   1      36.293  33.798  34.624  1.00  0.00     0.040 A 
ATOM     67  F   UNL A   1      37.924  32.167  34.505  1.00  0.00    -0.206 F 
ATOM     68  C   UNL A   1      35.363  34.630  34.025  1.00  0.00     0.006 A 
ENDBRANCH  47  61
BRANCH  48  69
ATOM     69  C   UNL A   1      44.544  28.854  27.667  1.00  0.00     0.057 A 
ATOM     70  C   UNL A   1      45.507  27.835  27.789  1.00  0.00     0.134 A 
ATOM     71  C   UNL A   1      43.625  28.739  26.623  1.00  0.00     0.134 A 
ATOM     72  F   UNL A   1      46.422  27.888  28.770  1.00  0.00    -0.206 F 
ATOM     73  C   UNL A   1      45.482  26.696  26.983  1.00  0.00     0.040 A 
ATOM     74  C   UNL A   1      43.600  27.610  25.799  1.00  0.00     0.040 A 
ATOM     75  F   UNL A   1      42.662  29.657  26.459  1.00  0.00    -0.206 F 
ATOM     76  C   UNL A   1      44.504  26.568  26.003  1.00  0.00     0.006 A 
ENDBRANCH  48  69
BRANCH  60  77
ATOM     77  C   UNL A   1      42.610  35.672  29.159  1.00  0.00     0.057 A 
ATOM     78  C   UNL A   1      41.843  36.057  28.050  1.00  0.00     0.134 A 
ATOM     79  C   UNL A   1      43.429  36.677  29.711  1.00  0.00     0.134 A 
ATOM     80  F   UNL A   1      41.074  35.169  27.402  1.00  0.00    -0.206 F 
ATOM     81  C   UNL A   1      41.853  37.365  27.551  1.00  0.00     0.040 A 
ATOM     82  C   UNL A   1      43.484  37.974  29.193  1.00  0.00     0.040 A 
ATOM     83  F   UNL A   1      44.194  36.449  30.789  1.00  0.00    -0.206 F 
ATOM     84  C   UNL A   1      42.684  38.326  28.116  1.00  0.00     0.006 A 
ENDBRANCH  60  77
ENDBRANCH  34  35
ENDBRANCH  26  29
ENDBRANCH  24  25
ENDBRANCH   1  24
TORSDOF 12
ENDMDL
MODEL 3
REMARK VINA RESULT:     -12.6      1.689      2.069
REMARK SMILES Cc1ccc(C(=O)c2cccc(C)c2C(=O)NCCCNC(=O)c2ccc(-c3c4nc(c(-c5c(F)cccc5F)c5ccc([nH]5)c(-c5c(F)cccc5F)c5nc(c(-c6c(F)cccc6F)c6ccc3[nH]6)C=C5)C=C4)cc2)c(C)c1
REMARK SMILES IDX 19 1 18 2 17 3 15 4 16 5 14 7 8 8 9 9 10 10 12 11 11 12
REMARK SMILES IDX 13 13 6 14 7 15 5 16 1 17 2 18 3 19 80 20 4 21 78 22 79 23
REMARK SMILES IDX 20 24 21 25 22 26 23 28 24 29 25 30 77 31 26 32 76 33 27 34
REMARK SMILES IDX 28 35 29 36 70 37 30 38 75 39 69 40 71 41 31 42 74 43 68 44
REMARK SMILES IDX 67 45 32 47 58 48 41 49 57 50 42 51 45 52 56 53 72 54 43 55
REMARK SMILES IDX 44 56 55 58 73 59 46 60 33 61 34 62 39 63 35 64 36 65 38 66
REMARK SMILES IDX 40 67 37 68 59 69 60 70 65 71 61 72 62 73 64 74 66 75 63 76
REMARK SMILES IDX 47 77 48 78 53 79 49 80 50 81 52 82 54 83 51 84
REMARK H PARENT 17 6 21 27 71 46 45 57
REMARK Flexibility Score: inf
ROOT
ATOM      1  C   UNL A   1      31.767  30.370  26.946  1.00  0.00     0.042 C 
ENDROOT
BRANCH   1   2
ATOM      2  C   UNL A   1      31.617  30.450  25.444  1.00  0.00     0.118 C 
BRANCH   2   3
ATOM      3  N   UNL A   1      32.521  29.620  24.679  1.00  0.00    -0.352 N 
ATOM      4  C   UNL A   1      32.242  28.499  23.926  1.00  0.00     0.252 C 
ATOM      5  O   UNL A   1      33.145  28.033  23.234  1.00  0.00    -0.269 OA
ATOM      6  H   UNL A   1      33.467  29.894  24.700  1.00  0.00     0.163 HD
BRANCH   4   7
ATOM      7  C   UNL A   1      30.931  27.783  24.033  1.00  0.00     0.053 A 
ATOM      8  C   UNL A   1      30.693  26.741  24.956  1.00  0.00     0.036 A 
ATOM      9  C   UNL A   1      29.454  26.079  24.974  1.00  0.00     0.013 A 
ATOM     10  C   UNL A   1      28.457  26.423  24.067  1.00  0.00     0.001 A 
ATOM     11  C   UNL A   1      29.875  28.190  23.174  1.00  0.00    -0.038 A 
ATOM     12  C   UNL A   1      28.659  27.483  23.190  1.00  0.00     0.004 A 
ATOM     13  C   UNL A   1      29.969  29.401  22.278  1.00  0.00     0.045 C 
BRANCH   8  14
ATOM     14  C   UNL A   1      31.658  26.412  26.034  1.00  0.00     0.194 C 
ATOM     15  O   UNL A   1      31.546  27.061  27.068  1.00  0.00    -0.289 OA
BRANCH  14  16
ATOM     16  C   UNL A   1      32.735  25.354  25.876  1.00  0.00     0.025 A 
ATOM     17  C   UNL A   1      35.794  22.342  25.272  1.00  0.00     0.044 C 
ATOM     18  C   UNL A   1      34.768  23.400  25.546  1.00  0.00    -0.051 A 
ATOM     19  C   UNL A   1      35.040  24.747  25.314  1.00  0.00     0.004 A 
ATOM     20  C   UNL A   1      33.497  23.041  26.005  1.00  0.00     0.007 A 
ATOM     21  C   UNL A   1      34.041  25.710  25.487  1.00  0.00     0.013 A 
ATOM     22  C   UNL A   1      32.483  24.001  26.202  1.00  0.00    -0.040 A 
ATOM     23  C   UNL A   1      31.180  23.516  26.785  1.00  0.00     0.045 C 
ENDBRANCH  14  16
ENDBRANCH   8  14
ENDBRANCH   4   7
ENDBRANCH   2   3
ENDBRANCH   1   2
BRANCH   1  24
ATOM     24  C   UNL A   1      33.217  30.173  27.370  1.00  0.00     0.118 C 
BRANCH  24  25
ATOM     25  N   UNL A   1      33.774  31.312  28.117  1.00  0.00    -0.352 N 
ATOM     26  C   UNL A   1      35.056  31.454  28.630  1.00  0.00     0.251 C 
ATOM     27  H   UNL A   1      33.163  32.067  28.272  1.00  0.00     0.163 HD
ATOM     28  O   UNL A   1      35.474  32.532  29.041  1.00  0.00    -0.269 OA
BRANCH  26  29
ATOM     29  C   UNL A   1      35.939  30.273  28.584  1.00  0.00     0.039 A 
ATOM     30  C   UNL A   1      36.146  29.583  29.781  1.00  0.00     0.014 A 
ATOM     31  C   UNL A   1      36.836  30.182  27.523  1.00  0.00     0.014 A 
ATOM     32  C   UNL A   1      37.405  29.046  30.024  1.00  0.00     0.010 A 
ATOM     33  C   UNL A   1      38.113  29.728  27.806  1.00  0.00     0.010 A 
ATOM     34  C   UNL A   1      38.424  29.262  29.093  1.00  0.00    -0.014 A 
BRANCH  34  35
ATOM     35  C   UNL A   1      39.840  29.237  29.474  1.00  0.00     0.031 A 
ATOM     36  C   UNL A   1      40.676  28.047  29.207  1.00  0.00     0.074 A 
ATOM     37  C   UNL A   1      40.422  30.328  30.030  1.00  0.00     0.049 A 
ATOM     38  N   UNL A   1      41.776  27.777  29.828  1.00  0.00    -0.248 NA
ATOM     39  C   UNL A   1      40.305  27.034  28.232  1.00  0.00     0.031 C 
ATOM     40  C   UNL A   1      41.850  30.557  30.247  1.00  0.00     0.029 A 
ATOM     41  N   UNL A   1      39.799  31.365  30.744  1.00  0.00    -0.354 N 
ATOM     42  C   UNL A   1      42.385  26.728  29.181  1.00  0.00     0.074 A 
ATOM     43  C   UNL A   1      41.403  26.273  28.222  1.00  0.00     0.031 C 
ATOM     44  C   UNL A   1      42.000  31.416  31.264  1.00  0.00     0.029 A 
ATOM     45  C   UNL A   1      40.681  31.688  31.804  1.00  0.00     0.049 A 
ATOM     46  H   UNL A   1      38.928  31.781  30.548  1.00  0.00     0.167 HD
ATOM     47  C   UNL A   1      43.688  26.433  29.462  1.00  0.00     0.037 A 
ATOM     48  C   UNL A   1      40.308  31.536  33.106  1.00  0.00     0.037 A 
ATOM     49  C   UNL A   1      44.200  27.235  30.578  1.00  0.00     0.049 A 
ATOM     50  C   UNL A   1      41.136  30.540  33.890  1.00  0.00     0.074 A 
ATOM     51  C   UNL A   1      45.029  28.337  30.700  1.00  0.00     0.029 A 
ATOM     52  N   UNL A   1      43.626  27.061  31.825  1.00  0.00    -0.354 N 
ATOM     53  N   UNL A   1      42.150  29.873  33.413  1.00  0.00    -0.248 NA
ATOM     54  C   UNL A   1      40.804  30.137  35.260  1.00  0.00     0.031 C 
ATOM     55  C   UNL A   1      44.949  28.815  32.040  1.00  0.00     0.029 A 
ATOM     56  C   UNL A   1      44.065  28.007  32.729  1.00  0.00     0.049 A 
ATOM     57  H   UNL A   1      42.981  26.349  32.041  1.00  0.00     0.167 HD
ATOM     58  C   UNL A   1      42.542  28.931  34.328  1.00  0.00     0.074 A 
ATOM     59  C   UNL A   1      41.680  29.142  35.474  1.00  0.00     0.031 C 
ATOM     60  C   UNL A   1      43.505  27.999  34.069  1.00  0.00     0.037 A 
BRANCH  47  61
ATOM     61  C   UNL A   1      44.568  25.570  28.580  1.00  0.00     0.057 A 
ATOM     62  C   UNL A   1      44.464  24.165  28.608  1.00  0.00     0.134 A 
ATOM     63  C   UNL A   1      45.575  26.048  27.724  1.00  0.00     0.134 A 
ATOM     64  F   UNL A   1      43.478  23.541  29.267  1.00  0.00    -0.206 F 
ATOM     65  C   UNL A   1      45.368  23.316  27.955  1.00  0.00     0.040 A 
ATOM     66  C   UNL A   1      46.526  25.215  27.116  1.00  0.00     0.040 A 
ATOM     67  F   UNL A   1      45.644  27.335  27.368  1.00  0.00    -0.206 F 
ATOM     68  C   UNL A   1      46.435  23.840  27.244  1.00  0.00     0.006 A 
ENDBRANCH  47  61
BRANCH  48  69
ATOM     69  C   UNL A   1      38.871  31.828  33.333  1.00  0.00     0.057 A 
ATOM     70  C   UNL A   1      38.457  33.173  33.366  1.00  0.00     0.134 A 
ATOM     71  C   UNL A   1      37.879  30.860  33.171  1.00  0.00     0.134 A 
ATOM     72  F   UNL A   1      39.361  34.152  33.523  1.00  0.00    -0.206 F 
ATOM     73  C   UNL A   1      37.132  33.541  33.130  1.00  0.00     0.040 A 
ATOM     74  C   UNL A   1      36.546  31.217  32.949  1.00  0.00     0.040 A 
ATOM     75  F   UNL A   1      38.200  29.560  33.104  1.00  0.00    -0.206 F 
ATOM     76  C   UNL A   1      36.176  32.560  32.888  1.00  0.00     0.006 A 
ENDBRANCH  48  69
BRANCH  60  77
ATOM     77  C   UNL A   1      43.962  26.980  35.074  1.00  0.00     0.057 A 
ATOM     78  C   UNL A   1      43.197  25.851  35.403  1.00  0.00     0.134 A 
ATOM     79  C   UNL A   1      45.135  27.162  35.832  1.00  0.00     0.134 A 
ATOM     80  F   UNL A   1      42.028  25.608  34.792  1.00  0.00    -0.206 F 
ATOM     81  C   UNL A   1      43.596  24.939  36.387  1.00  0.00     0.040 A 
ATOM     82  C   UNL A   1      45.519  26.284  36.850  1.00  0.00     0.040 A 
ATOM     83  F   UNL A   1      45.969  28.186  35.603  1.00  0.00    -0.206 F 
ATOM     84  C   UNL A   1      44.755  25.159  37.122  1.00  0.00     0.006 A 
ENDBRANCH  60  77
ENDBRANCH  34  35
ENDBRANCH  26  29
ENDBRANCH  24  25
ENDBRANCH   1  24
TORSDOF 12
ENDMDL
