MODEL 1
REMARK VINA RESULT:     -11.7      0.000      0.000
REMARK SMILES O=C(CN1C(=O)/C(=C2/Sc3ccccc3N2CCCS(=O)(=O)[O-])SC1=S)NCCCNC(=O)c1ccc(-c2c3nc(c(-c4c(F)cccc4F)c4ccc([nH]4)c(-c4c(F)cccc4F)c4nc(c(-c5c(F)cccc5F)c5ccc2[nH]5)C=C4)C=C3)cc1
REMARK SMILES IDX 1 1 2 2 27 3 3 5 4 6 5 7 25 8 6 9 7 10 24 11 26 12 8 13 9 14
REMARK SMILES IDX 16 15 10 16 15 17 11 18 14 19 12 20 13 21 17 22 18 23 19 24
REMARK SMILES IDX 20 25 21 26 22 27 23 28 28 29 29 30 30 31 31 32 32 33 33 35
REMARK SMILES IDX 34 36 35 37 87 38 36 39 86 40 37 41 38 42 39 43 80 44 40 45
REMARK SMILES IDX 85 46 79 47 81 48 41 49 84 50 78 51 77 52 42 54 68 55 51 56
REMARK SMILES IDX 67 57 52 58 55 59 66 60 82 61 53 62 54 63 65 65 83 66 56 67
REMARK SMILES IDX 43 68 44 69 49 70 45 71 46 72 48 73 50 74 47 75 69 76 70 77
REMARK SMILES IDX 75 78 71 79 72 80 74 81 76 82 73 83 57 84 58 85 63 86 59 87
REMARK SMILES IDX 60 88 62 89 64 90 61 91
REMARK H PARENT 27 4 31 34 81 53 55 64
REMARK Flexibility Score: inf
ROOT
ATOM      1  O   UNL A   1      31.339  27.052  27.192  1.00  0.00    -0.273 OA
ATOM      2  C   UNL A   1      32.294  27.550  26.603  1.00  0.00     0.240 C 
ATOM      3  N   UNL A   1      32.620  28.887  26.723  1.00  0.00    -0.354 N 
ATOM      4  H   UNL A   1      33.539  29.177  26.521  1.00  0.00     0.163 HD
ENDROOT
BRANCH   2   5
ATOM      5  C   UNL A   1      33.221  26.699  25.715  1.00  0.00     0.227 C 
BRANCH   5   6
ATOM      6  N   UNL A   1      32.519  25.701  24.895  1.00  0.00    -0.283 N 
ATOM      7  C   UNL A   1      32.379  24.412  25.367  1.00  0.00     0.269 C 
ATOM      8  C   UNL A   1      31.699  25.998  23.834  1.00  0.00     0.148 C 
ATOM      9  O   UNL A   1      32.405  24.113  26.551  1.00  0.00    -0.268 OA
ATOM     10  C   UNL A   1      31.990  23.495  24.265  1.00  0.00     0.111 C 
ATOM     11  S   UNL A   1      31.163  24.500  23.097  1.00  0.00    -0.052 SA
ATOM     12  S   UNL A   1      31.268  27.492  23.238  1.00  0.00    -0.052 S 
ATOM     13  C   UNL A   1      32.295  22.180  24.129  1.00  0.00     0.100 C 
ATOM     14  S   UNL A   1      31.751  21.383  22.579  1.00  0.00    -0.068 SA
ATOM     15  N   UNL A   1      33.011  21.271  24.956  1.00  0.00    -0.334 N 
ATOM     16  C   UNL A   1      32.480  19.860  23.110  1.00  0.00     0.037 A 
ATOM     17  C   UNL A   1      33.119  19.979  24.357  1.00  0.00     0.056 A 
ATOM     18  C   UNL A   1      32.405  18.657  22.416  1.00  0.00     0.017 A 
ATOM     19  C   UNL A   1      33.747  18.848  24.879  1.00  0.00     0.027 A 
ATOM     20  C   UNL A   1      33.002  17.529  22.972  1.00  0.00     0.001 A 
ATOM     21  C   UNL A   1      33.678  17.628  24.191  1.00  0.00     0.002 A 
BRANCH  15  22
ATOM     22  C   UNL A   1      33.239  21.331  26.408  1.00  0.00     0.124 C 
BRANCH  22  23
ATOM     23  C   UNL A   1      34.702  21.614  26.796  1.00  0.00     0.037 C 
BRANCH  23  24
ATOM     24  C   UNL A   1      35.535  22.470  25.846  1.00  0.00     0.124 C 
BRANCH  24  25
ATOM     25  S   UNL A   1      36.987  21.688  25.128  1.00  0.00     0.095 S 
ATOM     26  O   UNL A   1      38.164  22.184  25.799  1.00  0.00    -0.243 OA
ATOM     27  O   UNL A   1      36.726  20.272  24.971  1.00  0.00    -0.243 OA
ATOM     28  O   UNL A   1      36.965  22.311  23.643  1.00  0.00    -0.748 OA
ENDBRANCH  24  25
ENDBRANCH  23  24
ENDBRANCH  22  23
ENDBRANCH  15  22
ENDBRANCH   5   6
ENDBRANCH   2   5
BRANCH   3  29
ATOM     29  C   UNL A   1      31.640  29.875  27.138  1.00  0.00     0.117 C 
BRANCH  29  30
ATOM     30  C   UNL A   1      31.832  31.244  26.506  1.00  0.00     0.042 C 
BRANCH  30  31
ATOM     31  C   UNL A   1      32.960  32.071  27.109  1.00  0.00     0.118 C 
BRANCH  31  32
ATOM     32  N   UNL A   1      32.559  33.412  27.527  1.00  0.00    -0.352 N 
ATOM     33  C   UNL A   1      33.149  34.291  28.406  1.00  0.00     0.251 C 
ATOM     34  H   UNL A   1      31.728  33.740  27.112  1.00  0.00     0.163 HD
ATOM     35  O   UNL A   1      32.587  35.345  28.684  1.00  0.00    -0.269 OA
BRANCH  33  36
ATOM     36  C   UNL A   1      34.429  33.946  29.059  1.00  0.00     0.039 A 
ATOM     37  C   UNL A   1      35.648  34.288  28.474  1.00  0.00     0.014 A 
ATOM     38  C   UNL A   1      34.403  33.227  30.258  1.00  0.00     0.014 A 
ATOM     39  C   UNL A   1      36.824  33.729  28.964  1.00  0.00     0.010 A 
ATOM     40  C   UNL A   1      35.597  32.745  30.801  1.00  0.00     0.010 A 
ATOM     41  C   UNL A   1      36.809  32.932  30.118  1.00  0.00    -0.014 A 
BRANCH  41  42
ATOM     42  C   UNL A   1      38.056  32.263  30.572  1.00  0.00     0.031 A 
ATOM     43  C   UNL A   1      38.855  32.834  31.716  1.00  0.00     0.074 A 
ATOM     44  C   UNL A   1      38.446  31.112  29.992  1.00  0.00     0.049 A 
ATOM     45  N   UNL A   1      39.985  32.415  32.229  1.00  0.00    -0.248 NA
ATOM     46  C   UNL A   1      38.313  34.036  32.370  1.00  0.00     0.031 C 
ATOM     47  C   UNL A   1      37.747  30.439  28.897  1.00  0.00     0.029 A 
ATOM     48  N   UNL A   1      39.521  30.300  30.250  1.00  0.00    -0.354 N 
ATOM     49  C   UNL A   1      40.299  33.308  33.246  1.00  0.00     0.074 A 
ATOM     50  C   UNL A   1      39.256  34.313  33.260  1.00  0.00     0.031 C 
ATOM     51  C   UNL A   1      38.389  29.299  28.601  1.00  0.00     0.029 A 
ATOM     52  C   UNL A   1      39.582  29.197  29.435  1.00  0.00     0.049 A 
ATOM     53  H   UNL A   1      40.184  30.490  30.952  1.00  0.00     0.167 HD
ATOM     54  C   UNL A   1      41.351  33.290  34.099  1.00  0.00     0.037 A 
ATOM     55  C   UNL A   1      40.512  28.229  29.345  1.00  0.00     0.037 A 
ATOM     56  C   UNL A   1      42.379  32.281  34.097  1.00  0.00     0.049 A 
ATOM     57  C   UNL A   1      41.714  28.281  30.244  1.00  0.00     0.074 A 
ATOM     58  C   UNL A   1      43.473  32.160  34.938  1.00  0.00     0.029 A 
ATOM     59  N   UNL A   1      42.443  31.221  33.205  1.00  0.00    -0.354 N 
ATOM     60  N   UNL A   1      41.994  29.129  31.203  1.00  0.00    -0.248 NA
ATOM     61  C   UNL A   1      42.737  27.247  30.034  1.00  0.00     0.031 C 
ATOM     62  C   UNL A   1      44.224  31.054  34.523  1.00  0.00     0.029 A 
ATOM     63  C   UNL A   1      43.574  30.460  33.453  1.00  0.00     0.049 A 
ATOM     64  H   UNL A   1      41.782  31.037  32.500  1.00  0.00     0.167 HD
ATOM     65  C   UNL A   1      43.220  28.727  31.717  1.00  0.00     0.074 A 
ATOM     66  C   UNL A   1      43.614  27.543  30.981  1.00  0.00     0.031 C 
ATOM     67  C   UNL A   1      43.958  29.292  32.704  1.00  0.00     0.037 A 
BRANCH  54  68
ATOM     68  C   UNL A   1      41.456  34.409  35.097  1.00  0.00     0.057 A 
ATOM     69  C   UNL A   1      40.848  34.302  36.354  1.00  0.00     0.134 A 
ATOM     70  C   UNL A   1      42.135  35.600  34.808  1.00  0.00     0.134 A 
ATOM     71  F   UNL A   1      40.176  33.192  36.694  1.00  0.00    -0.206 F 
ATOM     72  C   UNL A   1      40.911  35.340  37.287  1.00  0.00     0.040 A 
ATOM     73  C   UNL A   1      42.226  36.634  35.743  1.00  0.00     0.040 A 
ATOM     74  F   UNL A   1      42.752  35.762  33.628  1.00  0.00    -0.206 F 
ATOM     75  C   UNL A   1      41.608  36.507  36.985  1.00  0.00     0.006 A 
ENDBRANCH  54  68
BRANCH  55  76
ATOM     76  C   UNL A   1      40.365  27.147  28.339  1.00  0.00     0.057 A 
ATOM     77  C   UNL A   1      39.593  26.009  28.602  1.00  0.00     0.134 A 
ATOM     78  C   UNL A   1      40.976  27.238  27.084  1.00  0.00     0.134 A 
ATOM     79  F   UNL A   1      38.983  25.862  29.787  1.00  0.00    -0.206 F 
ATOM     80  C   UNL A   1      39.440  24.995  27.657  1.00  0.00     0.040 A 
ATOM     81  C   UNL A   1      40.809  26.244  26.119  1.00  0.00     0.040 A 
ATOM     82  F   UNL A   1      41.710  28.314  26.766  1.00  0.00    -0.206 F 
ATOM     83  C   UNL A   1      40.044  25.115  26.406  1.00  0.00     0.006 A 
ENDBRANCH  55  76
BRANCH  67  84
ATOM     84  C   UNL A   1      45.258  28.625  33.043  1.00  0.00     0.057 A 
ATOM     85  C   UNL A   1      45.315  27.611  34.007  1.00  0.00     0.134 A 
ATOM     86  C   UNL A   1      46.457  28.991  32.417  1.00  0.00     0.134 A 
ATOM     87  F   UNL A   1      44.203  27.217  34.648  1.00  0.00    -0.206 F 
ATOM     88  C   UNL A   1      46.517  26.985  34.338  1.00  0.00     0.040 A 
ATOM     89  C   UNL A   1      47.661  28.354  32.720  1.00  0.00     0.040 A 
ATOM     90  F   UNL A   1      46.468  29.941  31.471  1.00  0.00    -0.206 F 
ATOM     91  C   UNL A   1      47.694  27.350  33.687  1.00  0.00     0.006 A 
ENDBRANCH  67  84
ENDBRANCH  41  42
ENDBRANCH  33  36
ENDBRANCH  31  32
ENDBRANCH  30  31
ENDBRANCH  29  30
ENDBRANCH   3  29
TORSDOF 15
ENDMDL
MODEL 2
REMARK VINA RESULT:     -11.7      0.376      5.959
REMARK SMILES O=C(CN1C(=O)/C(=C2/Sc3ccccc3N2CCCS(=O)(=O)[O-])SC1=S)NCCCNC(=O)c1ccc(-c2c3nc(c(-c4c(F)cccc4F)c4ccc([nH]4)c(-c4c(F)cccc4F)c4nc(c(-c5c(F)cccc5F)c5ccc2[nH]5)C=C4)C=C3)cc1
REMARK SMILES IDX 1 1 2 2 27 3 3 5 4 6 5 7 25 8 6 9 7 10 24 11 26 12 8 13 9 14
REMARK SMILES IDX 16 15 10 16 15 17 11 18 14 19 12 20 13 21 17 22 18 23 19 24
REMARK SMILES IDX 20 25 21 26 22 27 23 28 28 29 29 30 30 31 31 32 32 33 33 35
REMARK SMILES IDX 34 36 35 37 87 38 36 39 86 40 37 41 38 42 39 43 80 44 40 45
REMARK SMILES IDX 85 46 79 47 81 48 41 49 84 50 78 51 77 52 42 54 68 55 51 56
REMARK SMILES IDX 67 57 52 58 55 59 66 60 82 61 53 62 54 63 65 65 83 66 56 67
REMARK SMILES IDX 43 68 44 69 49 70 45 71 46 72 48 73 50 74 47 75 69 76 70 77
REMARK SMILES IDX 75 78 71 79 72 80 74 81 76 82 73 83 57 84 58 85 63 86 59 87
REMARK SMILES IDX 60 88 62 89 64 90 61 91
REMARK H PARENT 27 4 31 34 81 53 55 64
REMARK Flexibility Score: inf
ROOT
ATOM      1  O   UNL A   1      31.423  26.998  27.226  1.00  0.00    -0.273 OA
ATOM      2  C   UNL A   1      32.400  27.476  26.656  1.00  0.00     0.240 C 
ATOM      3  N   UNL A   1      32.754  28.805  26.784  1.00  0.00    -0.354 N 
ATOM      4  H   UNL A   1      33.682  29.076  26.601  1.00  0.00     0.163 HD
ENDROOT
BRANCH   2   5
ATOM      5  C   UNL A   1      33.326  26.606  25.785  1.00  0.00     0.227 C 
BRANCH   5   6
ATOM      6  N   UNL A   1      32.617  25.630  24.945  1.00  0.00    -0.283 N 
ATOM      7  C   UNL A   1      32.452  24.338  25.398  1.00  0.00     0.269 C 
ATOM      8  C   UNL A   1      31.815  25.954  23.877  1.00  0.00     0.148 C 
ATOM      9  O   UNL A   1      32.459  24.022  26.578  1.00  0.00    -0.268 OA
ATOM     10  C   UNL A   1      32.062  23.441  24.279  1.00  0.00     0.111 C 
ATOM     11  S   UNL A   1      31.264  24.474  23.115  1.00  0.00    -0.052 SA
ATOM     12  S   UNL A   1      31.415  27.462  23.296  1.00  0.00    -0.052 S 
ATOM     13  C   UNL A   1      32.347  22.123  24.130  1.00  0.00     0.100 C 
ATOM     14  S   UNL A   1      31.809  21.355  22.563  1.00  0.00    -0.068 SA
ATOM     15  N   UNL A   1      33.039  21.192  24.953  1.00  0.00    -0.334 N 
ATOM     16  C   UNL A   1      32.507  19.814  23.082  1.00  0.00     0.037 A 
ATOM     17  C   UNL A   1      33.133  19.907  24.338  1.00  0.00     0.056 A 
ATOM     18  C   UNL A   1      32.421  18.621  22.372  1.00  0.00     0.017 A 
ATOM     19  C   UNL A   1      33.737  18.759  24.853  1.00  0.00     0.027 A 
ATOM     20  C   UNL A   1      32.994  17.477  22.920  1.00  0.00     0.001 A 
ATOM     21  C   UNL A   1      33.657  17.549  24.148  1.00  0.00     0.002 A 
BRANCH  15  22
ATOM     22  C   UNL A   1      33.250  21.230  26.408  1.00  0.00     0.124 C 
BRANCH  22  23
ATOM     23  C   UNL A   1      34.719  21.442  26.817  1.00  0.00     0.037 C 
BRANCH  23  24
ATOM     24  C   UNL A   1      35.551  22.421  25.993  1.00  0.00     0.124 C 
BRANCH  24  25
ATOM     25  S   UNL A   1      36.927  21.724  25.069  1.00  0.00     0.095 S 
ATOM     26  O   UNL A   1      38.154  22.324  25.535  1.00  0.00    -0.243 OA
ATOM     27  O   UNL A   1      36.752  20.289  24.981  1.00  0.00    -0.243 OA
ATOM     28  O   UNL A   1      36.625  22.299  23.594  1.00  0.00    -0.748 OA
ENDBRANCH  24  25
ENDBRANCH  23  24
ENDBRANCH  22  23
ENDBRANCH  15  22
ENDBRANCH   5   6
ENDBRANCH   2   5
BRANCH   3  29
ATOM     29  C   UNL A   1      31.787  29.815  27.182  1.00  0.00     0.117 C 
BRANCH  29  30
ATOM     30  C   UNL A   1      32.029  31.183  26.565  1.00  0.00     0.042 C 
BRANCH  30  31
ATOM     31  C   UNL A   1      33.101  32.013  27.258  1.00  0.00     0.118 C 
BRANCH  31  32
ATOM     32  N   UNL A   1      32.670  33.359  27.624  1.00  0.00    -0.352 N 
ATOM     33  C   UNL A   1      33.223  34.274  28.490  1.00  0.00     0.251 C 
ATOM     34  H   UNL A   1      31.846  33.662  27.176  1.00  0.00     0.163 HD
ATOM     35  O   UNL A   1      32.639  35.328  28.719  1.00  0.00    -0.269 OA
BRANCH  33  36
ATOM     36  C   UNL A   1      34.491  33.969  29.186  1.00  0.00     0.039 A 
ATOM     37  C   UNL A   1      35.720  34.315  28.625  1.00  0.00     0.014 A 
ATOM     38  C   UNL A   1      34.444  33.283  30.403  1.00  0.00     0.014 A 
ATOM     39  C   UNL A   1      36.890  33.790  29.161  1.00  0.00     0.010 A 
ATOM     40  C   UNL A   1      35.629  32.837  30.992  1.00  0.00     0.010 A 
ATOM     41  C   UNL A   1      36.857  33.025  30.338  1.00  0.00    -0.014 A 
BRANCH  41  42
ATOM     42  C   UNL A   1      38.101  32.390  30.843  1.00  0.00     0.031 A 
ATOM     43  C   UNL A   1      38.631  31.133  30.200  1.00  0.00     0.074 A 
ATOM     44  C   UNL A   1      38.788  32.968  31.847  1.00  0.00     0.049 A 
ATOM     45  N   UNL A   1      39.677  30.414  30.523  1.00  0.00    -0.248 NA
ATOM     46  C   UNL A   1      37.885  30.615  29.042  1.00  0.00     0.031 C 
ATOM     47  C   UNL A   1      38.401  34.201  32.534  1.00  0.00     0.029 A 
ATOM     48  N   UNL A   1      39.960  32.601  32.456  1.00  0.00    -0.354 N 
ATOM     49  C   UNL A   1      39.703  29.352  29.626  1.00  0.00     0.074 A 
ATOM     50  C   UNL A   1      38.550  29.503  28.763  1.00  0.00     0.031 C 
ATOM     51  C   UNL A   1      39.336  34.508  33.445  1.00  0.00     0.029 A 
ATOM     52  C   UNL A   1      40.350  33.458  33.455  1.00  0.00     0.049 A 
ATOM     53  H   UNL A   1      40.473  31.801  32.201  1.00  0.00     0.167 HD
ATOM     54  C   UNL A   1      40.609  28.350  29.521  1.00  0.00     0.037 A 
ATOM     55  C   UNL A   1      41.389  33.391  34.307  1.00  0.00     0.037 A 
ATOM     56  C   UNL A   1      41.765  28.210  30.369  1.00  0.00     0.049 A 
ATOM     57  C   UNL A   1      42.329  32.222  34.226  1.00  0.00     0.074 A 
ATOM     58  C   UNL A   1      42.757  27.244  30.326  1.00  0.00     0.029 A 
ATOM     59  N   UNL A   1      42.083  29.061  31.417  1.00  0.00    -0.354 N 
ATOM     60  N   UNL A   1      42.344  31.230  33.370  1.00  0.00    -0.248 NA
ATOM     61  C   UNL A   1      43.388  32.159  35.242  1.00  0.00     0.031 C 
ATOM     62  C   UNL A   1      43.647  27.483  31.380  1.00  0.00     0.029 A 
ATOM     63  C   UNL A   1      43.235  28.623  32.050  1.00  0.00     0.049 A 
ATOM     64  H   UNL A   1      41.564  29.857  31.674  1.00  0.00     0.167 HD
ATOM     65  C   UNL A   1      43.417  30.428  33.739  1.00  0.00     0.074 A 
ATOM     66  C   UNL A   1      44.044  31.068  34.877  1.00  0.00     0.031 C 
ATOM     67  C   UNL A   1      43.840  29.264  33.189  1.00  0.00     0.037 A 
BRANCH  54  68
ATOM     68  C   UNL A   1      40.375  27.310  28.462  1.00  0.00     0.057 A 
ATOM     69  C   UNL A   1      39.550  26.207  28.718  1.00  0.00     0.134 A 
ATOM     70  C   UNL A   1      40.981  27.383  27.202  1.00  0.00     0.134 A 
ATOM     71  F   UNL A   1      38.944  26.070  29.907  1.00  0.00    -0.206 F 
ATOM     72  C   UNL A   1      39.338  25.214  27.759  1.00  0.00     0.040 A 
ATOM     73  C   UNL A   1      40.755  26.409  26.225  1.00  0.00     0.040 A 
ATOM     74  F   UNL A   1      41.770  28.420  26.886  1.00  0.00    -0.206 F 
ATOM     75  C   UNL A   1      39.935  25.318  26.505  1.00  0.00     0.006 A 
ENDBRANCH  54  68
BRANCH  55  76
ATOM     76  C   UNL A   1      41.575  34.441  35.340  1.00  0.00     0.057 A 
ATOM     77  C   UNL A   1      42.238  35.639  35.047  1.00  0.00     0.134 A 
ATOM     78  C   UNL A   1      41.073  34.280  36.635  1.00  0.00     0.134 A 
ATOM     79  F   UNL A   1      42.743  35.854  33.824  1.00  0.00    -0.206 F 
ATOM     80  C   UNL A   1      42.405  36.636  36.009  1.00  0.00     0.040 A 
ATOM     81  C   UNL A   1      41.208  35.279  37.599  1.00  0.00     0.040 A 
ATOM     82  F   UNL A   1      40.410  33.163  36.968  1.00  0.00    -0.206 F 
ATOM     83  C   UNL A   1      41.881  36.460  37.288  1.00  0.00     0.006 A 
ENDBRANCH  55  76
BRANCH  67  84
ATOM     84  C   UNL A   1      45.042  28.619  33.813  1.00  0.00     0.057 A 
ATOM     85  C   UNL A   1      44.900  27.665  34.828  1.00  0.00     0.134 A 
ATOM     86  C   UNL A   1      46.343  28.948  33.412  1.00  0.00     0.134 A 
ATOM     87  F   UNL A   1      43.681  27.308  35.263  1.00  0.00    -0.206 F 
ATOM     88  C   UNL A   1      46.009  27.061  35.422  1.00  0.00     0.040 A 
ATOM     89  C   UNL A   1      47.459  28.332  33.980  1.00  0.00     0.040 A 
ATOM     90  F   UNL A   1      46.547  29.841  32.431  1.00  0.00    -0.206 F 
ATOM     91  C   UNL A   1      47.293  27.388  34.992  1.00  0.00     0.006 A 
ENDBRANCH  67  84
ENDBRANCH  41  42
ENDBRANCH  33  36
ENDBRANCH  31  32
ENDBRANCH  30  31
ENDBRANCH  29  30
ENDBRANCH   3  29
TORSDOF 15
ENDMDL
MODEL 3
REMARK VINA RESULT:     -11.7      1.874      2.476
REMARK SMILES O=C(CN1C(=O)/C(=C2/Sc3ccccc3N2CCCS(=O)(=O)[O-])SC1=S)NCCCNC(=O)c1ccc(-c2c3nc(c(-c4c(F)cccc4F)c4ccc([nH]4)c(-c4c(F)cccc4F)c4nc(c(-c5c(F)cccc5F)c5ccc2[nH]5)C=C4)C=C3)cc1
REMARK SMILES IDX 1 1 2 2 27 3 3 5 4 6 5 7 25 8 6 9 7 10 24 11 26 12 8 13 9 14
REMARK SMILES IDX 16 15 10 16 15 17 11 18 14 19 12 20 13 21 17 22 18 23 19 24
REMARK SMILES IDX 20 25 21 26 22 27 23 28 28 29 29 30 30 31 31 32 32 33 33 35
REMARK SMILES IDX 34 36 35 37 87 38 36 39 86 40 37 41 38 42 39 43 80 44 40 45
REMARK SMILES IDX 85 46 79 47 81 48 41 49 84 50 78 51 77 52 42 54 68 55 51 56
REMARK SMILES IDX 67 57 52 58 55 59 66 60 82 61 53 62 54 63 65 65 83 66 56 67
REMARK SMILES IDX 43 68 44 69 49 70 45 71 46 72 48 73 50 74 47 75 69 76 70 77
REMARK SMILES IDX 75 78 71 79 72 80 74 81 76 82 73 83 57 84 58 85 63 86 59 87
REMARK SMILES IDX 60 88 62 89 64 90 61 91
REMARK H PARENT 27 4 31 34 81 53 55 64
REMARK Flexibility Score: inf
ROOT
ATOM      1  O   UNL A   1      34.141  28.673  26.871  1.00  0.00    -0.273 OA
ATOM      2  C   UNL A   1      33.667  28.862  25.754  1.00  0.00     0.240 C 
ATOM      3  N   UNL A   1      32.678  29.797  25.519  1.00  0.00    -0.354 N 
ATOM      4  H   UNL A   1      32.557  30.150  24.609  1.00  0.00     0.163 HD
ENDROOT
BRANCH   2   5
ATOM      5  C   UNL A   1      34.178  28.086  24.525  1.00  0.00     0.227 C 
BRANCH   5   6
ATOM      6  N   UNL A   1      33.259  27.044  24.047  1.00  0.00    -0.283 N 
ATOM      7  C   UNL A   1      33.161  25.856  24.741  1.00  0.00     0.269 C 
ATOM      8  C   UNL A   1      32.239  27.251  23.150  1.00  0.00     0.148 C 
ATOM      9  O   UNL A   1      33.435  25.733  25.926  1.00  0.00    -0.268 OA
ATOM     10  C   UNL A   1      32.488  24.823  23.912  1.00  0.00     0.111 C 
ATOM     11  S   UNL A   1      31.474  25.713  22.798  1.00  0.00    -0.052 SA
ATOM     12  S   UNL A   1      31.765  28.673  22.424  1.00  0.00    -0.052 S 
ATOM     13  C   UNL A   1      32.685  23.481  23.930  1.00  0.00     0.100 C 
ATOM     14  S   UNL A   1      31.768  22.515  22.682  1.00  0.00    -0.068 SA
ATOM     15  N   UNL A   1      33.520  22.645  24.723  1.00  0.00    -0.334 N 
ATOM     16  C   UNL A   1      32.516  21.029  23.287  1.00  0.00     0.037 A 
ATOM     17  C   UNL A   1      33.423  21.275  24.334  1.00  0.00     0.056 A 
ATOM     18  C   UNL A   1      32.224  19.747  22.831  1.00  0.00     0.017 A 
ATOM     19  C   UNL A   1      34.091  20.183  24.888  1.00  0.00     0.027 A 
ATOM     20  C   UNL A   1      32.871  18.667  23.423  1.00  0.00     0.001 A 
ATOM     21  C   UNL A   1      33.806  18.885  24.439  1.00  0.00     0.002 A 
BRANCH  15  22
ATOM     22  C   UNL A   1      34.068  22.899  26.064  1.00  0.00     0.124 C 
BRANCH  22  23
ATOM     23  C   UNL A   1      33.143  22.449  27.209  1.00  0.00     0.037 C 
BRANCH  23  24
ATOM     24  C   UNL A   1      31.994  23.375  27.599  1.00  0.00     0.124 C 
BRANCH  24  25
ATOM     25  S   UNL A   1      30.433  23.119  26.743  1.00  0.00     0.095 S 
ATOM     26  O   UNL A   1      30.035  24.357  26.119  1.00  0.00    -0.243 OA
ATOM     27  O   UNL A   1      30.499  21.871  26.013  1.00  0.00    -0.243 OA
ATOM     28  O   UNL A   1      29.444  22.854  27.988  1.00  0.00    -0.748 OA
ENDBRANCH  24  25
ENDBRANCH  23  24
ENDBRANCH  22  23
ENDBRANCH  15  22
ENDBRANCH   5   6
ENDBRANCH   2   5
BRANCH   3  29
ATOM     29  C   UNL A   1      31.810  30.271  26.584  1.00  0.00     0.117 C 
BRANCH  29  30
ATOM     30  C   UNL A   1      31.650  31.782  26.628  1.00  0.00     0.042 C 
BRANCH  30  31
ATOM     31  C   UNL A   1      32.793  32.523  27.310  1.00  0.00     0.118 C 
BRANCH  31  32
ATOM     32  N   UNL A   1      32.486  33.910  27.647  1.00  0.00    -0.352 N 
ATOM     33  C   UNL A   1      33.087  34.770  28.538  1.00  0.00     0.251 C 
ATOM     34  H   UNL A   1      31.723  34.294  27.156  1.00  0.00     0.163 HD
ATOM     35  O   UNL A   1      32.605  35.881  28.733  1.00  0.00    -0.269 OA
BRANCH  33  36
ATOM     36  C   UNL A   1      34.277  34.340  29.301  1.00  0.00     0.039 A 
ATOM     37  C   UNL A   1      35.562  34.526  28.793  1.00  0.00     0.014 A 
ATOM     38  C   UNL A   1      34.095  33.699  30.531  1.00  0.00     0.014 A 
ATOM     39  C   UNL A   1      36.638  33.884  29.397  1.00  0.00     0.010 A 
ATOM     40  C   UNL A   1      35.193  33.135  31.186  1.00  0.00     0.010 A 
ATOM     41  C   UNL A   1      36.462  33.162  30.587  1.00  0.00    -0.014 A 
BRANCH  41  42
ATOM     42  C   UNL A   1      37.600  32.401  31.167  1.00  0.00     0.031 A 
ATOM     43  C   UNL A   1      38.095  32.712  32.556  1.00  0.00     0.074 A 
ATOM     44  C   UNL A   1      38.157  31.395  30.467  1.00  0.00     0.049 A 
ATOM     45  N   UNL A   1      39.096  32.185  33.217  1.00  0.00    -0.248 NA
ATOM     46  C   UNL A   1      37.373  33.755  33.302  1.00  0.00     0.031 C 
ATOM     47  C   UNL A   1      37.750  30.972  29.126  1.00  0.00     0.029 A 
ATOM     48  N   UNL A   1      39.177  30.538  30.792  1.00  0.00    -0.354 N 
ATOM     49  C   UNL A   1      39.136  32.842  34.441  1.00  0.00     0.074 A 
ATOM     50  C   UNL A   1      38.078  33.831  34.421  1.00  0.00     0.031 C 
ATOM     51  C   UNL A   1      38.488  29.914  28.757  1.00  0.00     0.029 A 
ATOM     52  C   UNL A   1      39.465  29.629  29.803  1.00  0.00     0.049 A 
ATOM     53  H   UNL A   1      39.656  30.570  31.651  1.00  0.00     0.167 HD
ATOM     54  C   UNL A   1      39.967  32.636  35.490  1.00  0.00     0.037 A 
ATOM     55  C   UNL A   1      40.428  28.694  29.731  1.00  0.00     0.037 A 
ATOM     56  C   UNL A   1      41.009  31.642  35.516  1.00  0.00     0.049 A 
ATOM     57  C   UNL A   1      41.392  28.545  30.873  1.00  0.00     0.074 A 
ATOM     58  C   UNL A   1      41.888  31.337  36.542  1.00  0.00     0.029 A 
ATOM     59  N   UNL A   1      41.315  30.791  34.463  1.00  0.00    -0.354 N 
ATOM     60  N   UNL A   1      41.414  29.170  32.024  1.00  0.00    -0.248 NA
ATOM     61  C   UNL A   1      42.477  27.570  30.695  1.00  0.00     0.031 C 
ATOM     62  C   UNL A   1      42.757  30.336  36.091  1.00  0.00     0.029 A 
ATOM     63  C   UNL A   1      42.390  29.986  34.802  1.00  0.00     0.049 A 
ATOM     64  H   UNL A   1      40.838  30.766  33.603  1.00  0.00     0.167 HD
ATOM     65  C   UNL A   1      42.508  28.659  32.712  1.00  0.00     0.074 A 
ATOM     66  C   UNL A   1      43.105  27.652  31.858  1.00  0.00     0.031 C 
ATOM     67  C   UNL A   1      42.980  28.998  33.937  1.00  0.00     0.037 A 
BRANCH  54  68
ATOM     68  C   UNL A   1      39.800  33.520  36.694  1.00  0.00     0.057 A 
ATOM     69  C   UNL A   1      38.900  33.176  37.710  1.00  0.00     0.134 A 
ATOM     70  C   UNL A   1      40.506  34.721  36.837  1.00  0.00     0.134 A 
ATOM     71  F   UNL A   1      38.185  32.044  37.633  1.00  0.00    -0.206 F 
ATOM     72  C   UNL A   1      38.708  33.995  38.825  1.00  0.00     0.040 A 
ATOM     73  C   UNL A   1      40.343  35.536  37.961  1.00  0.00     0.040 A 
ATOM     74  F   UNL A   1      41.395  35.103  35.908  1.00  0.00    -0.206 F 
ATOM     75  C   UNL A   1      39.437  35.175  38.956  1.00  0.00     0.006 A 
ENDBRANCH  54  68
BRANCH  55  76
ATOM     76  C   UNL A   1      40.556  27.848  28.518  1.00  0.00     0.057 A 
ATOM     77  C   UNL A   1      39.918  26.605  28.426  1.00  0.00     0.134 A 
ATOM     78  C   UNL A   1      41.300  28.275  27.413  1.00  0.00     0.134 A 
ATOM     79  F   UNL A   1      39.190  26.139  29.452  1.00  0.00    -0.206 F 
ATOM     80  C   UNL A   1      40.023  25.811  27.285  1.00  0.00     0.040 A 
ATOM     81  C   UNL A   1      41.392  27.504  26.254  1.00  0.00     0.040 A 
ATOM     82  F   UNL A   1      41.916  29.466  27.433  1.00  0.00    -0.206 F 
ATOM     83  C   UNL A   1      40.756  26.265  26.189  1.00  0.00     0.006 A 
ENDBRANCH  55  76
BRANCH  67  84
ATOM     84  C   UNL A   1      44.195  28.263  34.420  1.00  0.00     0.057 A 
ATOM     85  C   UNL A   1      45.479  28.773  34.196  1.00  0.00     0.134 A 
ATOM     86  C   UNL A   1      44.093  27.044  35.103  1.00  0.00     0.134 A 
ATOM     87  F   UNL A   1      45.647  29.934  33.543  1.00  0.00    -0.206 F 
ATOM     88  C   UNL A   1      46.619  28.098  34.634  1.00  0.00     0.040 A 
ATOM     89  C   UNL A   1      45.224  26.373  35.569  1.00  0.00     0.040 A 
ATOM     90  F   UNL A   1      42.890  26.510  35.366  1.00  0.00    -0.206 F 
ATOM     91  C   UNL A   1      46.493  26.898  35.331  1.00  0.00     0.006 A 
ENDBRANCH  67  84
ENDBRANCH  41  42
ENDBRANCH  33  36
ENDBRANCH  31  32
ENDBRANCH  30  31
ENDBRANCH  29  30
ENDBRANCH   3  29
TORSDOF 15
ENDMDL
