MODEL 1
REMARK VINA RESULT:     -12.7      0.000      0.000
REMARK SMILES Cc1ccc(Nc2c(C)cccc2Cl)c(CC(=O)NCCCNC(=O)c2ccc(-c3c4nc(c(-c5c(F)cccc5F)c5ccc([nH]5)c(-c5c(F)cccc5F)c5nc(c(-c6c(F)cccc6F)c6ccc3[nH]6)C=C5)C=C4)cc2)c1
REMARK SMILES IDX 20 1 19 2 17 3 18 4 16 6 15 7 1 8 2 9 3 10 80 11 4 12 5 13
REMARK SMILES IDX 6 14 7 16 8 17 13 18 9 19 10 20 12 21 14 22 11 23 21 24
REMARK SMILES IDX 22 25 23 26 24 27 25 29 26 30 27 31 79 32 28 33 78 34 29 35
REMARK SMILES IDX 30 36 31 37 72 38 32 39 77 40 71 41 73 42 33 43 76 44 70 45
REMARK SMILES IDX 69 46 34 48 60 49 43 50 59 51 44 52 47 53 58 54 74 55 45 56
REMARK SMILES IDX 46 57 57 59 75 60 48 61 35 62 36 63 41 64 37 65 38 66 40 67
REMARK SMILES IDX 42 68 39 69 61 70 62 71 67 72 63 73 64 74 66 75 68 76 65 77
REMARK SMILES IDX 49 78 50 79 55 80 51 81 52 82 54 83 56 84 53 85
REMARK H PARENT 19 5 6 15 23 28 73 47 47 58
REMARK Flexibility Score: inf
ROOT
ATOM      1  C   UNL A   1      37.880  21.027  25.376  1.00  0.00     0.117 C 
ENDROOT
BRANCH   1   2
ATOM      2  N   UNL A   1      37.697  21.883  24.214  1.00  0.00    -0.356 N 
ATOM      3  C   UNL A   1      36.647  22.702  23.904  1.00  0.00     0.224 C 
ATOM      4  O   UNL A   1      36.658  23.284  22.815  1.00  0.00    -0.275 OA
ATOM      5  H   UNL A   1      38.432  21.872  23.560  1.00  0.00     0.163 HD
BRANCH   3   6
ATOM      6  C   UNL A   1      35.473  22.875  24.855  1.00  0.00     0.137 C 
BRANCH   6   7
ATOM      7  C   UNL A   1      34.198  22.232  24.351  1.00  0.00    -0.015 A 
ATOM      8  C   UNL A   1      32.790  18.674  24.270  1.00  0.00     0.044 C 
ATOM      9  C   UNL A   1      32.935  20.153  24.065  1.00  0.00    -0.051 A 
ATOM     10  C   UNL A   1      32.015  20.840  23.278  1.00  0.00     0.005 A 
ATOM     11  C   UNL A   1      34.002  20.860  24.626  1.00  0.00     0.009 A 
ATOM     12  C   UNL A   1      32.165  22.210  23.050  1.00  0.00     0.026 A 
ATOM     13  C   UNL A   1      33.253  22.932  23.569  1.00  0.00     0.042 A 
BRANCH  13  14
ATOM     14  N   UNL A   1      33.364  24.324  23.355  1.00  0.00    -0.354 N 
ATOM     15  H   UNL A   1      34.272  24.649  23.155  1.00  0.00     0.167 HD
BRANCH  14  16
ATOM     16  C   UNL A   1      32.355  25.318  23.388  1.00  0.00     0.060 A 
ATOM     17  C   UNL A   1      31.955  26.020  22.229  1.00  0.00    -0.026 A 
ATOM     18  C   UNL A   1      31.777  25.683  24.626  1.00  0.00     0.064 A 
ATOM     19  C   UNL A   1      32.463  25.680  20.853  1.00  0.00     0.046 C 
ATOM     20  C   UNL A   1      31.040  27.083  22.343  1.00  0.00     0.005 A 
ATOM     21  C   UNL A   1      30.851  26.725  24.718  1.00  0.00     0.023 A 
ATOM     22  Cl  UNL A   1      32.228  24.879  26.093  1.00  0.00    -0.082 Cl
ATOM     23  C   UNL A   1      30.491  27.432  23.576  1.00  0.00     0.002 A 
ENDBRANCH  14  16
ENDBRANCH  13  14
ENDBRANCH   6   7
ENDBRANCH   3   6
ENDBRANCH   1   2
BRANCH   1  24
ATOM     24  C   UNL A   1      39.156  21.353  26.149  1.00  0.00     0.042 C 
BRANCH  24  25
ATOM     25  C   UNL A   1      39.460  22.835  26.277  1.00  0.00     0.118 C 
BRANCH  25  26
ATOM     26  N   UNL A   1      40.884  23.142  26.394  1.00  0.00    -0.352 N 
ATOM     27  C   UNL A   1      41.482  24.356  26.696  1.00  0.00     0.251 C 
ATOM     28  H   UNL A   1      41.499  22.389  26.240  1.00  0.00     0.163 HD
ATOM     29  O   UNL A   1      42.693  24.445  26.807  1.00  0.00    -0.269 OA
BRANCH  27  30
ATOM     30  C   UNL A   1      40.611  25.512  27.015  1.00  0.00     0.039 A 
ATOM     31  C   UNL A   1      40.778  26.679  26.264  1.00  0.00     0.014 A 
ATOM     32  C   UNL A   1      39.845  25.521  28.178  1.00  0.00     0.014 A 
ATOM     33  C   UNL A   1      40.410  27.900  26.822  1.00  0.00     0.010 A 
ATOM     34  C   UNL A   1      39.571  26.737  28.776  1.00  0.00     0.010 A 
ATOM     35  C   UNL A   1      39.929  27.925  28.131  1.00  0.00    -0.014 A 
BRANCH  35  36
ATOM     36  C   UNL A   1      39.926  29.136  28.947  1.00  0.00     0.031 A 
ATOM     37  C   UNL A   1      38.864  30.149  28.807  1.00  0.00     0.074 A 
ATOM     38  C   UNL A   1      40.869  29.287  29.903  1.00  0.00     0.049 A 
ATOM     39  N   UNL A   1      38.972  31.375  29.195  1.00  0.00    -0.248 NA
ATOM     40  C   UNL A   1      37.590  29.857  28.167  1.00  0.00     0.031 C 
ATOM     41  C   UNL A   1      40.894  30.268  30.984  1.00  0.00     0.029 A 
ATOM     42  N   UNL A   1      42.143  28.700  29.939  1.00  0.00    -0.354 N 
ATOM     43  C   UNL A   1      37.724  31.952  29.122  1.00  0.00     0.074 A 
ATOM     44  C   UNL A   1      36.916  30.984  28.413  1.00  0.00     0.031 C 
ATOM     45  C   UNL A   1      42.167  30.454  31.364  1.00  0.00     0.029 A 
ATOM     46  C   UNL A   1      43.005  29.703  30.445  1.00  0.00     0.049 A 
ATOM     47  H   UNL A   1      42.387  27.785  29.669  1.00  0.00     0.167 HD
ATOM     48  C   UNL A   1      37.494  33.127  29.779  1.00  0.00     0.037 A 
ATOM     49  C   UNL A   1      43.998  30.227  29.670  1.00  0.00     0.037 A 
ATOM     50  C   UNL A   1      38.722  33.670  30.363  1.00  0.00     0.049 A 
ATOM     51  C   UNL A   1      43.888  31.716  29.414  1.00  0.00     0.074 A 
ATOM     52  C   UNL A   1      39.273  33.688  31.634  1.00  0.00     0.029 A 
ATOM     53  N   UNL A   1      39.729  34.085  29.511  1.00  0.00    -0.354 N 
ATOM     54  N   UNL A   1      42.902  32.466  29.821  1.00  0.00    -0.248 NA
ATOM     55  C   UNL A   1      44.841  32.458  28.584  1.00  0.00     0.031 C 
ATOM     56  C   UNL A   1      40.632  34.105  31.528  1.00  0.00     0.029 A 
ATOM     57  C   UNL A   1      40.903  34.337  30.193  1.00  0.00     0.049 A 
ATOM     58  H   UNL A   1      39.622  34.190  28.538  1.00  0.00     0.167 HD
ATOM     59  C   UNL A   1      43.029  33.715  29.277  1.00  0.00     0.074 A 
ATOM     60  C   UNL A   1      44.265  33.670  28.521  1.00  0.00     0.031 C 
ATOM     61  C   UNL A   1      42.090  34.689  29.434  1.00  0.00     0.037 A 
BRANCH  48  62
ATOM     62  C   UNL A   1      36.113  33.662  30.098  1.00  0.00     0.057 A 
ATOM     63  C   UNL A   1      35.286  34.179  29.080  1.00  0.00     0.134 A 
ATOM     64  C   UNL A   1      35.557  33.752  31.385  1.00  0.00     0.134 A 
ATOM     65  F   UNL A   1      35.601  34.060  27.783  1.00  0.00    -0.206 F 
ATOM     66  C   UNL A   1      34.081  34.848  29.337  1.00  0.00     0.040 A 
ATOM     67  C   UNL A   1      34.384  34.470  31.665  1.00  0.00     0.040 A 
ATOM     68  F   UNL A   1      36.081  33.095  32.425  1.00  0.00    -0.206 F 
ATOM     69  C   UNL A   1      33.648  35.037  30.639  1.00  0.00     0.006 A 
ENDBRANCH  48  62
BRANCH  49  70
ATOM     70  C   UNL A   1      44.569  29.242  28.715  1.00  0.00     0.057 A 
ATOM     71  C   UNL A   1      45.504  28.302  29.186  1.00  0.00     0.134 A 
ATOM     72  C   UNL A   1      43.976  28.984  27.476  1.00  0.00     0.134 A 
ATOM     73  F   UNL A   1      46.110  28.487  30.370  1.00  0.00    -0.206 F 
ATOM     74  C   UNL A   1      45.751  27.104  28.512  1.00  0.00     0.040 A 
ATOM     75  C   UNL A   1      44.230  27.796  26.782  1.00  0.00     0.040 A 
ATOM     76  F   UNL A   1      43.058  29.819  26.970  1.00  0.00    -0.206 F 
ATOM     77  C   UNL A   1      45.088  26.836  27.319  1.00  0.00     0.006 A 
ENDBRANCH  49  70
BRANCH  61  78
ATOM     78  C   UNL A   1      42.231  36.064  28.857  1.00  0.00     0.057 A 
ATOM     79  C   UNL A   1      41.760  36.388  27.578  1.00  0.00     0.134 A 
ATOM     80  C   UNL A   1      42.963  37.067  29.519  1.00  0.00     0.134 A 
ATOM     81  F   UNL A   1      41.085  35.489  26.845  1.00  0.00    -0.206 F 
ATOM     82  C   UNL A   1      41.983  37.643  27.001  1.00  0.00     0.040 A 
ATOM     83  C   UNL A   1      43.230  38.309  28.935  1.00  0.00     0.040 A 
ATOM     84  F   UNL A   1      43.427  36.889  30.764  1.00  0.00    -0.206 F 
ATOM     85  C   UNL A   1      42.733  38.603  27.673  1.00  0.00     0.006 A 
ENDBRANCH  61  78
ENDBRANCH  35  36
ENDBRANCH  27  30
ENDBRANCH  25  26
ENDBRANCH  24  25
ENDBRANCH   1  24
TORSDOF 13
ENDMDL
MODEL 2
REMARK VINA RESULT:     -12.7      3.927      9.271
REMARK SMILES Cc1ccc(Nc2c(C)cccc2Cl)c(CC(=O)NCCCNC(=O)c2ccc(-c3c4nc(c(-c5c(F)cccc5F)c5ccc([nH]5)c(-c5c(F)cccc5F)c5nc(c(-c6c(F)cccc6F)c6ccc3[nH]6)C=C5)C=C4)cc2)c1
REMARK SMILES IDX 20 1 19 2 17 3 18 4 16 6 15 7 1 8 2 9 3 10 80 11 4 12 5 13
REMARK SMILES IDX 6 14 7 16 8 17 13 18 9 19 10 20 12 21 14 22 11 23 21 24
REMARK SMILES IDX 22 25 23 26 24 27 25 29 26 30 27 31 79 32 28 33 78 34 29 35
REMARK SMILES IDX 30 36 31 37 72 38 32 39 77 40 71 41 73 42 33 43 76 44 70 45
REMARK SMILES IDX 69 46 34 48 60 49 43 50 59 51 44 52 47 53 58 54 74 55 45 56
REMARK SMILES IDX 46 57 57 59 75 60 48 61 35 62 36 63 41 64 37 65 38 66 40 67
REMARK SMILES IDX 42 68 39 69 61 70 62 71 67 72 63 73 64 74 66 75 68 76 65 77
REMARK SMILES IDX 49 78 50 79 55 80 51 81 52 82 54 83 56 84 53 85
REMARK H PARENT 19 5 6 15 23 28 73 47 47 58
REMARK Flexibility Score: inf
ROOT
ATOM      1  C   UNL A   1      33.809  28.558  26.951  1.00  0.00     0.117 C 
ENDROOT
BRANCH   1   2
ATOM      2  N   UNL A   1      32.698  27.628  26.823  1.00  0.00    -0.356 N 
ATOM      3  C   UNL A   1      32.686  26.365  26.301  1.00  0.00     0.224 C 
ATOM      4  O   UNL A   1      31.606  25.775  26.212  1.00  0.00    -0.275 OA
ATOM      5  H   UNL A   1      31.832  27.954  27.159  1.00  0.00     0.163 HD
BRANCH   3   6
ATOM      6  C   UNL A   1      33.965  25.703  25.808  1.00  0.00     0.137 C 
BRANCH   6   7
ATOM      7  C   UNL A   1      33.795  24.996  24.479  1.00  0.00    -0.015 A 
ATOM      8  C   UNL A   1      32.358  25.935  21.058  1.00  0.00     0.044 C 
ATOM      9  C   UNL A   1      32.975  25.148  22.176  1.00  0.00    -0.051 A 
ATOM     10  C   UNL A   1      33.193  23.781  22.026  1.00  0.00     0.005 A 
ATOM     11  C   UNL A   1      33.309  25.754  23.390  1.00  0.00     0.009 A 
ATOM     12  C   UNL A   1      33.730  23.033  23.077  1.00  0.00     0.026 A 
ATOM     13  C   UNL A   1      34.035  23.614  24.319  1.00  0.00     0.042 A 
BRANCH  13  14
ATOM     14  N   UNL A   1      34.611  22.844  25.355  1.00  0.00    -0.354 N 
ATOM     15  H   UNL A   1      34.191  22.945  26.239  1.00  0.00     0.167 HD
BRANCH  14  16
ATOM     16  C   UNL A   1      35.708  21.949  25.300  1.00  0.00     0.060 A 
ATOM     17  C   UNL A   1      37.043  22.388  25.443  1.00  0.00    -0.026 A 
ATOM     18  C   UNL A   1      35.478  20.583  25.016  1.00  0.00     0.064 A 
ATOM     19  C   UNL A   1      37.403  23.807  25.798  1.00  0.00     0.046 C 
ATOM     20  C   UNL A   1      38.098  21.476  25.252  1.00  0.00     0.005 A 
ATOM     21  C   UNL A   1      36.536  19.685  24.855  1.00  0.00     0.023 A 
ATOM     22  Cl  UNL A   1      33.870  19.972  24.813  1.00  0.00    -0.082 Cl
ATOM     23  C   UNL A   1      37.848  20.136  24.963  1.00  0.00     0.002 A 
ENDBRANCH  14  16
ENDBRANCH  13  14
ENDBRANCH   6   7
ENDBRANCH   3   6
ENDBRANCH   1   2
BRANCH   1  24
ATOM     24  C   UNL A   1      33.378  29.912  27.511  1.00  0.00     0.042 C 
BRANCH  24  25
ATOM     25  C   UNL A   1      34.440  30.995  27.441  1.00  0.00     0.118 C 
BRANCH  25  26
ATOM     26  N   UNL A   1      34.804  31.556  28.740  1.00  0.00    -0.352 N 
ATOM     27  C   UNL A   1      35.788  31.129  29.619  1.00  0.00     0.251 C 
ATOM     28  H   UNL A   1      34.283  32.340  29.030  1.00  0.00     0.163 HD
ATOM     29  O   UNL A   1      36.007  31.736  30.654  1.00  0.00    -0.269 OA
BRANCH  27  30
ATOM     30  C   UNL A   1      36.658  30.001  29.210  1.00  0.00     0.039 A 
ATOM     31  C   UNL A   1      36.915  29.003  30.153  1.00  0.00     0.014 A 
ATOM     32  C   UNL A   1      37.395  30.068  28.030  1.00  0.00     0.014 A 
ATOM     33  C   UNL A   1      38.081  28.250  30.040  1.00  0.00     0.010 A 
ATOM     34  C   UNL A   1      38.600  29.395  27.967  1.00  0.00     0.010 A 
ATOM     35  C   UNL A   1      38.978  28.547  29.014  1.00  0.00    -0.014 A 
BRANCH  35  36
ATOM     36  C   UNL A   1      40.380  28.142  29.050  1.00  0.00     0.031 A 
ATOM     37  C   UNL A   1      40.819  26.858  28.475  1.00  0.00     0.074 A 
ATOM     38  C   UNL A   1      41.299  28.999  29.548  1.00  0.00     0.049 A 
ATOM     39  N   UNL A   1      41.924  26.264  28.778  1.00  0.00    -0.248 NA
ATOM     40  C   UNL A   1      40.007  26.113  27.524  1.00  0.00     0.031 C 
ATOM     41  C   UNL A   1      42.752  28.910  29.439  1.00  0.00     0.029 A 
ATOM     42  N   UNL A   1      41.084  30.030  30.475  1.00  0.00    -0.354 N 
ATOM     43  C   UNL A   1      42.107  25.232  27.886  1.00  0.00     0.074 A 
ATOM     44  C   UNL A   1      40.853  25.141  27.172  1.00  0.00     0.031 C 
ATOM     45  C   UNL A   1      43.301  29.587  30.458  1.00  0.00     0.029 A 
ATOM     46  C   UNL A   1      42.215  30.012  31.325  1.00  0.00     0.049 A 
ATOM     47  H   UNL A   1      40.310  30.638  30.524  1.00  0.00     0.167 HD
ATOM     48  C   UNL A   1      43.341  24.658  27.775  1.00  0.00     0.037 A 
ATOM     49  C   UNL A   1      42.091  29.700  32.648  1.00  0.00     0.037 A 
ATOM     50  C   UNL A   1      44.271  25.176  28.781  1.00  0.00     0.049 A 
ATOM     51  C   UNL A   1      42.862  28.473  33.089  1.00  0.00     0.074 A 
ATOM     52  C   UNL A   1      45.296  26.110  28.774  1.00  0.00     0.029 A 
ATOM     53  N   UNL A   1      44.019  24.904  30.113  1.00  0.00    -0.354 N 
ATOM     54  N   UNL A   1      43.546  27.703  32.289  1.00  0.00    -0.248 NA
ATOM     55  C   UNL A   1      42.833  27.960  34.461  1.00  0.00     0.031 C 
ATOM     56  C   UNL A   1      45.641  26.405  30.125  1.00  0.00     0.029 A 
ATOM     57  C   UNL A   1      44.825  25.652  30.949  1.00  0.00     0.049 A 
ATOM     58  H   UNL A   1      43.348  24.257  30.428  1.00  0.00     0.167 HD
ATOM     59  C   UNL A   1      43.971  26.599  32.978  1.00  0.00     0.074 A 
ATOM     60  C   UNL A   1      43.514  26.809  34.338  1.00  0.00     0.031 C 
ATOM     61  C   UNL A   1      44.621  25.561  32.383  1.00  0.00     0.037 A 
BRANCH  48  62
ATOM     62  C   UNL A   1      43.776  23.804  26.602  1.00  0.00     0.057 A 
ATOM     63  C   UNL A   1      43.548  22.413  26.599  1.00  0.00     0.134 A 
ATOM     64  C   UNL A   1      44.472  24.270  25.474  1.00  0.00     0.134 A 
ATOM     65  F   UNL A   1      42.791  21.818  27.531  1.00  0.00    -0.206 F 
ATOM     66  C   UNL A   1      44.082  21.550  25.633  1.00  0.00     0.040 A 
ATOM     67  C   UNL A   1      45.064  23.415  24.531  1.00  0.00     0.040 A 
ATOM     68  F   UNL A   1      44.555  25.573  25.189  1.00  0.00    -0.206 F 
ATOM     69  C   UNL A   1      44.885  22.045  24.617  1.00  0.00     0.006 A 
ENDBRANCH  48  62
BRANCH  49  70
ATOM     70  C   UNL A   1      40.795  30.142  33.228  1.00  0.00     0.057 A 
ATOM     71  C   UNL A   1      40.608  31.508  33.511  1.00  0.00     0.134 A 
ATOM     72  C   UNL A   1      39.653  29.339  33.183  1.00  0.00     0.134 A 
ATOM     73  F   UNL A   1      41.663  32.337  33.567  1.00  0.00    -0.206 F 
ATOM     74  C   UNL A   1      39.335  32.070  33.628  1.00  0.00     0.040 A 
ATOM     75  C   UNL A   1      38.373  29.888  33.318  1.00  0.00     0.040 A 
ATOM     76  F   UNL A   1      39.745  28.033  32.896  1.00  0.00    -0.206 F 
ATOM     77  C   UNL A   1      38.211  31.261  33.501  1.00  0.00     0.006 A 
ENDBRANCH  49  70
BRANCH  61  78
ATOM     78  C   UNL A   1      45.105  24.359  33.134  1.00  0.00     0.057 A 
ATOM     79  C   UNL A   1      44.281  23.254  33.385  1.00  0.00     0.134 A 
ATOM     80  C   UNL A   1      46.374  24.334  33.741  1.00  0.00     0.134 A 
ATOM     81  F   UNL A   1      43.037  23.196  32.886  1.00  0.00    -0.206 F 
ATOM     82  C   UNL A   1      44.702  22.177  34.173  1.00  0.00     0.040 A 
ATOM     83  C   UNL A   1      46.790  23.285  34.567  1.00  0.00     0.040 A 
ATOM     84  F   UNL A   1      47.266  25.314  33.540  1.00  0.00    -0.206 F 
ATOM     85  C   UNL A   1      45.954  22.198  34.780  1.00  0.00     0.006 A 
ENDBRANCH  61  78
ENDBRANCH  35  36
ENDBRANCH  27  30
ENDBRANCH  25  26
ENDBRANCH  24  25
ENDBRANCH   1  24
TORSDOF 13
ENDMDL
MODEL 3
REMARK VINA RESULT:     -12.7      3.884      9.500
REMARK SMILES Cc1ccc(Nc2c(C)cccc2Cl)c(CC(=O)NCCCNC(=O)c2ccc(-c3c4nc(c(-c5c(F)cccc5F)c5ccc([nH]5)c(-c5c(F)cccc5F)c5nc(c(-c6c(F)cccc6F)c6ccc3[nH]6)C=C5)C=C4)cc2)c1
REMARK SMILES IDX 20 1 19 2 17 3 18 4 16 6 15 7 1 8 2 9 3 10 80 11 4 12 5 13
REMARK SMILES IDX 6 14 7 16 8 17 13 18 9 19 10 20 12 21 14 22 11 23 21 24
REMARK SMILES IDX 22 25 23 26 24 27 25 29 26 30 27 31 79 32 28 33 78 34 29 35
REMARK SMILES IDX 30 36 31 37 72 38 32 39 77 40 71 41 73 42 33 43 76 44 70 45
REMARK SMILES IDX 69 46 34 48 60 49 43 50 59 51 44 52 47 53 58 54 74 55 45 56
REMARK SMILES IDX 46 57 57 59 75 60 48 61 35 62 36 63 41 64 37 65 38 66 40 67
REMARK SMILES IDX 42 68 39 69 61 70 62 71 67 72 63 73 64 74 66 75 68 76 65 77
REMARK SMILES IDX 49 78 50 79 55 80 51 81 52 82 54 83 56 84 53 85
REMARK H PARENT 19 5 6 15 23 28 73 47 47 58
REMARK Flexibility Score: inf
ROOT
ATOM      1  C   UNL A   1      32.538  30.631  26.731  1.00  0.00     0.117 C 
ENDROOT
BRANCH   1   2
ATOM      2  N   UNL A   1      33.268  30.103  25.589  1.00  0.00    -0.356 N 
ATOM      3  C   UNL A   1      33.359  28.813  25.145  1.00  0.00     0.224 C 
ATOM      4  O   UNL A   1      34.107  28.570  24.194  1.00  0.00    -0.275 OA
ATOM      5  H   UNL A   1      33.765  30.768  25.060  1.00  0.00     0.163 HD
BRANCH   3   6
ATOM      6  C   UNL A   1      32.586  27.690  25.820  1.00  0.00     0.137 C 
BRANCH   6   7
ATOM      7  C   UNL A   1      31.431  27.178  24.986  1.00  0.00    -0.015 A 
ATOM      8  C   UNL A   1      28.626  28.788  22.939  1.00  0.00     0.044 C 
ATOM      9  C   UNL A   1      29.493  27.761  23.605  1.00  0.00    -0.051 A 
ATOM     10  C   UNL A   1      29.116  26.421  23.598  1.00  0.00     0.005 A 
ATOM     11  C   UNL A   1      30.666  28.127  24.270  1.00  0.00     0.009 A 
ATOM     12  C   UNL A   1      29.897  25.465  24.252  1.00  0.00     0.026 A 
ATOM     13  C   UNL A   1      31.058  25.816  24.960  1.00  0.00     0.042 A 
BRANCH  13  14
ATOM     14  N   UNL A   1      31.852  24.826  25.583  1.00  0.00    -0.354 N 
ATOM     15  H   UNL A   1      32.209  25.067  26.468  1.00  0.00     0.167 HD
BRANCH  14  16
ATOM     16  C   UNL A   1      32.205  23.537  25.113  1.00  0.00     0.060 A 
ATOM     17  C   UNL A   1      31.526  22.372  25.535  1.00  0.00    -0.026 A 
ATOM     18  C   UNL A   1      33.320  23.390  24.256  1.00  0.00     0.064 A 
ATOM     19  C   UNL A   1      30.296  22.414  26.403  1.00  0.00     0.046 C 
ATOM     20  C   UNL A   1      32.001  21.109  25.135  1.00  0.00     0.005 A 
ATOM     21  C   UNL A   1      33.763  22.129  23.849  1.00  0.00     0.023 A 
ATOM     22  Cl  UNL A   1      34.212  24.769  23.707  1.00  0.00    -0.082 Cl
ATOM     23  C   UNL A   1      33.108  20.987  24.298  1.00  0.00     0.002 A 
ENDBRANCH  14  16
ENDBRANCH  13  14
ENDBRANCH   6   7
ENDBRANCH   3   6
ENDBRANCH   1   2
BRANCH   1  24
ATOM     24  C   UNL A   1      33.399  31.539  27.607  1.00  0.00     0.042 C 
BRANCH  24  25
ATOM     25  C   UNL A   1      34.826  31.061  27.807  1.00  0.00     0.118 C 
BRANCH  25  26
ATOM     26  N   UNL A   1      35.546  31.767  28.865  1.00  0.00    -0.352 N 
ATOM     27  C   UNL A   1      36.677  31.360  29.558  1.00  0.00     0.251 C 
ATOM     28  H   UNL A   1      35.183  32.646  29.119  1.00  0.00     0.163 HD
ATOM     29  O   UNL A   1      37.196  32.088  30.388  1.00  0.00    -0.269 OA
BRANCH  27  30
ATOM     30  C   UNL A   1      37.319  30.081  29.172  1.00  0.00     0.039 A 
ATOM     31  C   UNL A   1      37.444  29.094  30.153  1.00  0.00     0.014 A 
ATOM     32  C   UNL A   1      38.000  29.969  27.963  1.00  0.00     0.014 A 
ATOM     33  C   UNL A   1      38.455  28.145  30.032  1.00  0.00     0.010 A 
ATOM     34  C   UNL A   1      39.067  29.093  27.887  1.00  0.00     0.010 A 
ATOM     35  C   UNL A   1      39.341  28.237  28.959  1.00  0.00    -0.014 A 
BRANCH  35  36
ATOM     36  C   UNL A   1      40.652  27.596  28.961  1.00  0.00     0.031 A 
ATOM     37  C   UNL A   1      40.805  26.169  28.621  1.00  0.00     0.074 A 
ATOM     38  C   UNL A   1      41.751  28.345  29.201  1.00  0.00     0.049 A 
ATOM     39  N   UNL A   1      41.824  25.448  28.947  1.00  0.00    -0.248 NA
ATOM     40  C   UNL A   1      39.777  25.425  27.908  1.00  0.00     0.031 C 
ATOM     41  C   UNL A   1      43.147  27.972  28.994  1.00  0.00     0.029 A 
ATOM     42  N   UNL A   1      41.817  29.550  29.917  1.00  0.00    -0.354 N 
ATOM     43  C   UNL A   1      41.732  24.255  28.267  1.00  0.00     0.074 A 
ATOM     44  C   UNL A   1      40.406  24.266  27.690  1.00  0.00     0.031 C 
ATOM     45  C   UNL A   1      43.914  28.712  29.809  1.00  0.00     0.029 A 
ATOM     46  C   UNL A   1      43.020  29.481  30.659  1.00  0.00     0.049 A 
ATOM     47  H   UNL A   1      41.164  30.288  29.906  1.00  0.00     0.167 HD
ATOM     48  C   UNL A   1      42.833  23.453  28.173  1.00  0.00     0.037 A 
ATOM     49  C   UNL A   1      42.999  29.443  32.023  1.00  0.00     0.037 A 
ATOM     50  C   UNL A   1      43.946  23.967  28.976  1.00  0.00     0.049 A 
ATOM     51  C   UNL A   1      43.604  28.198  32.636  1.00  0.00     0.074 A 
ATOM     52  C   UNL A   1      45.102  24.679  28.699  1.00  0.00     0.029 A 
ATOM     53  N   UNL A   1      43.807  23.994  30.352  1.00  0.00    -0.354 N 
ATOM     54  N   UNL A   1      44.055  27.182  31.954  1.00  0.00    -0.248 NA
ATOM     55  C   UNL A   1      43.650  27.958  34.081  1.00  0.00     0.031 C 
ATOM     56  C   UNL A   1      45.645  25.148  29.931  1.00  0.00     0.029 A 
ATOM     57  C   UNL A   1      44.817  24.722  30.952  1.00  0.00     0.049 A 
ATOM     58  H   UNL A   1      43.080  23.550  30.844  1.00  0.00     0.167 HD
ATOM     59  C   UNL A   1      44.370  26.164  32.813  1.00  0.00     0.074 A 
ATOM     60  C   UNL A   1      44.114  26.699  34.136  1.00  0.00     0.031 C 
ATOM     61  C   UNL A   1      44.767  24.933  32.387  1.00  0.00     0.037 A 
BRANCH  48  62
ATOM     62  C   UNL A   1      42.984  22.334  27.164  1.00  0.00     0.057 A 
ATOM     63  C   UNL A   1      42.198  21.167  27.258  1.00  0.00     0.134 A 
ATOM     64  C   UNL A   1      43.915  22.310  26.113  1.00  0.00     0.134 A 
ATOM     65  F   UNL A   1      41.177  21.069  28.120  1.00  0.00    -0.206 F 
ATOM     66  C   UNL A   1      42.416  20.030  26.468  1.00  0.00     0.040 A 
ATOM     67  C   UNL A   1      44.185  21.162  25.353  1.00  0.00     0.040 A 
ATOM     68  F   UNL A   1      44.560  23.414  25.721  1.00  0.00    -0.206 F 
ATOM     69  C   UNL A   1      43.445  20.008  25.541  1.00  0.00     0.006 A 
ENDBRANCH  48  62
BRANCH  49  70
ATOM     70  C   UNL A   1      41.870  30.215  32.606  1.00  0.00     0.057 A 
ATOM     71  C   UNL A   1      41.973  31.616  32.687  1.00  0.00     0.134 A 
ATOM     72  C   UNL A   1      40.595  29.661  32.754  1.00  0.00     0.134 A 
ATOM     73  F   UNL A   1      43.168  32.214  32.552  1.00  0.00    -0.206 F 
ATOM     74  C   UNL A   1      40.847  32.435  32.794  1.00  0.00     0.040 A 
ATOM     75  C   UNL A   1      39.462  30.471  32.881  1.00  0.00     0.040 A 
ATOM     76  F   UNL A   1      40.410  28.337  32.664  1.00  0.00    -0.206 F 
ATOM     77  C   UNL A   1      39.583  31.860  32.861  1.00  0.00     0.006 A 
ENDBRANCH  49  70
BRANCH  61  78
ATOM     78  C   UNL A   1      45.130  23.821  33.322  1.00  0.00     0.057 A 
ATOM     79  C   UNL A   1      44.203  22.850  33.723  1.00  0.00     0.134 A 
ATOM     80  C   UNL A   1      46.389  23.770  33.950  1.00  0.00     0.134 A 
ATOM     81  F   UNL A   1      42.961  22.834  33.215  1.00  0.00    -0.206 F 
ATOM     82  C   UNL A   1      44.516  21.872  34.674  1.00  0.00     0.040 A 
ATOM     83  C   UNL A   1      46.699  22.826  34.933  1.00  0.00     0.040 A 
ATOM     84  F   UNL A   1      47.372  24.619  33.618  1.00  0.00    -0.206 F 
ATOM     85  C   UNL A   1      45.762  21.868  35.294  1.00  0.00     0.006 A 
ENDBRANCH  61  78
ENDBRANCH  35  36
ENDBRANCH  27  30
ENDBRANCH  25  26
ENDBRANCH  24  25
ENDBRANCH   1  24
TORSDOF 13
ENDMDL
