MODEL 1
REMARK VINA RESULT:     -11.6      0.000      0.000
REMARK SMILES Cc1onc2c(=O)n(C)nc(C(=O)NCCCNC(=O)c3ccc(-c4c5nc(c(-c6c(F)cccc6F)c6ccc([nH]6)c(-c6c(F)cccc6F)c6nc(c(-c7c(F)cccc7F)c7ccc4[nH]7)C=C6)C=C5)cc3)c12
REMARK SMILES IDX 17 1 16 2 15 3 14 4 12 5 13 6 11 8 1 9 2 10 3 11 75 12 4 13
REMARK SMILES IDX 5 14 6 15 10 16 7 17 8 18 9 19 18 20 19 21 20 23 21 24 22 25
REMARK SMILES IDX 74 26 23 27 73 28 24 29 25 30 26 31 67 32 27 33 72 34 66 35
REMARK SMILES IDX 68 36 28 37 71 38 65 39 64 40 29 42 55 43 38 44 54 45 39 46
REMARK SMILES IDX 42 47 53 48 69 49 40 50 41 51 52 53 70 54 43 55 30 56 31 57
REMARK SMILES IDX 36 58 32 59 33 60 35 61 37 62 34 63 56 64 57 65 62 66 58 67
REMARK SMILES IDX 59 68 61 69 63 70 60 71 44 72 45 73 50 74 46 75 47 76 49 77
REMARK SMILES IDX 51 78 48 79
REMARK H PARENT 14 7 18 22 68 41 42 52
REMARK Flexibility Score: inf
ROOT
ATOM      1  C   UNL A   1      38.184  22.039  25.346  1.00  0.00     0.118 C 
ENDROOT
BRANCH   1   2
ATOM      2  C   UNL A   1      36.684  22.063  25.686  1.00  0.00     0.042 C 
BRANCH   2   3
ATOM      3  C   UNL A   1      36.087  23.466  25.869  1.00  0.00     0.118 C 
BRANCH   3   4
ATOM      4  N   UNL A   1      34.708  23.409  26.320  1.00  0.00    -0.351 N 
ATOM      5  C   UNL A   1      33.617  24.216  26.090  1.00  0.00     0.272 C 
ATOM      6  O   UNL A   1      32.599  23.976  26.731  1.00  0.00    -0.267 OA
ATOM      7  H   UNL A   1      34.515  22.642  26.907  1.00  0.00     0.163 HD
BRANCH   5   8
ATOM      8  C   UNL A   1      33.612  25.370  25.072  1.00  0.00     0.161 A 
ATOM      9  C   UNL A   1      33.613  22.602  22.949  1.00  0.00     0.091 C 
ATOM     10  C   UNL A   1      33.565  24.069  22.802  1.00  0.00     0.144 A 
ATOM     11  O   UNL A   1      33.503  24.507  21.510  1.00  0.00    -0.360 OA
ATOM     12  C   UNL A   1      33.571  25.164  23.639  1.00  0.00     0.083 A 
ATOM     13  N   UNL A   1      33.488  25.890  21.480  1.00  0.00    -0.074 NA
ATOM     14  C   UNL A   1      33.539  26.266  22.760  1.00  0.00     0.183 A 
ATOM     15  C   UNL A   1      33.579  27.627  23.240  1.00  0.00     0.296 A 
ATOM     16  N   UNL A   1      33.641  26.602  25.510  1.00  0.00    -0.164 NA
ATOM     17  O   UNL A   1      33.564  28.620  22.506  1.00  0.00    -0.265 OA
ATOM     18  N   UNL A   1      33.653  27.700  24.641  1.00  0.00    -0.230 N 
ATOM     19  C   UNL A   1      33.762  29.010  25.253  1.00  0.00     0.178 C 
ENDBRANCH   5   8
ENDBRANCH   3   4
ENDBRANCH   2   3
ENDBRANCH   1   2
BRANCH   1  20
ATOM     20  N   UNL A   1      38.956  21.495  26.450  1.00  0.00    -0.352 N 
ATOM     21  C   UNL A   1      39.999  21.997  27.173  1.00  0.00     0.251 C 
ATOM     22  H   UNL A   1      38.673  20.594  26.730  1.00  0.00     0.163 HD
ATOM     23  O   UNL A   1      40.712  21.194  27.775  1.00  0.00    -0.269 OA
BRANCH  21  24
ATOM     24  C   UNL A   1      40.283  23.442  27.305  1.00  0.00     0.039 A 
ATOM     25  C   UNL A   1      41.567  23.869  26.938  1.00  0.00     0.014 A 
ATOM     26  C   UNL A   1      39.418  24.330  27.951  1.00  0.00     0.014 A 
ATOM     27  C   UNL A   1      41.984  25.170  27.211  1.00  0.00     0.010 A 
ATOM     28  C   UNL A   1      39.837  25.641  28.219  1.00  0.00     0.010 A 
ATOM     29  C   UNL A   1      41.122  26.067  27.853  1.00  0.00    -0.014 A 
BRANCH  29  30
ATOM     30  C   UNL A   1      41.591  27.459  27.999  1.00  0.00     0.031 A 
ATOM     31  C   UNL A   1      40.541  28.512  27.869  1.00  0.00     0.074 A 
ATOM     32  C   UNL A   1      42.698  27.772  28.706  1.00  0.00     0.049 A 
ATOM     33  N   UNL A   1      39.769  28.875  28.852  1.00  0.00    -0.248 NA
ATOM     34  C   UNL A   1      40.130  29.038  26.568  1.00  0.00     0.031 C 
ATOM     35  C   UNL A   1      43.070  27.117  29.966  1.00  0.00     0.029 A 
ATOM     36  N   UNL A   1      43.539  28.859  28.623  1.00  0.00    -0.354 N 
ATOM     37  C   UNL A   1      38.745  29.631  28.310  1.00  0.00     0.074 A 
ATOM     38  C   UNL A   1      39.016  29.714  26.891  1.00  0.00     0.031 C 
ATOM     39  C   UNL A   1      43.943  27.911  30.620  1.00  0.00     0.029 A 
ATOM     40  C   UNL A   1      44.303  29.045  29.771  1.00  0.00     0.049 A 
ATOM     41  H   UNL A   1      43.592  29.444  27.833  1.00  0.00     0.167 HD
ATOM     42  C   UNL A   1      37.729  30.140  29.055  1.00  0.00     0.037 A 
ATOM     43  C   UNL A   1      44.738  30.254  30.219  1.00  0.00     0.037 A 
ATOM     44  C   UNL A   1      37.807  29.890  30.461  1.00  0.00     0.049 A 
ATOM     45  C   UNL A   1      43.458  30.818  30.781  1.00  0.00     0.074 A 
ATOM     46  C   UNL A   1      37.319  28.965  31.358  1.00  0.00     0.029 A 
ATOM     47  N   UNL A   1      38.615  30.713  31.211  1.00  0.00    -0.354 N 
ATOM     48  N   UNL A   1      42.917  30.500  31.927  1.00  0.00    -0.248 NA
ATOM     49  C   UNL A   1      42.553  31.496  29.850  1.00  0.00     0.031 C 
ATOM     50  C   UNL A   1      38.219  29.005  32.471  1.00  0.00     0.029 A 
ATOM     51  C   UNL A   1      39.220  29.921  32.152  1.00  0.00     0.049 A 
ATOM     52  H   UNL A   1      38.735  31.683  31.094  1.00  0.00     0.167 HD
ATOM     53  C   UNL A   1      41.542  30.671  31.747  1.00  0.00     0.074 A 
ATOM     54  C   UNL A   1      41.391  31.330  30.466  1.00  0.00     0.031 C 
ATOM     55  C   UNL A   1      40.599  30.090  32.545  1.00  0.00     0.037 A 
BRANCH  42  56
ATOM     56  C   UNL A   1      36.675  31.037  28.547  1.00  0.00     0.057 A 
ATOM     57  C   UNL A   1      36.909  32.419  28.573  1.00  0.00     0.134 A 
ATOM     58  C   UNL A   1      35.383  30.597  28.263  1.00  0.00     0.134 A 
ATOM     59  F   UNL A   1      38.136  32.890  28.854  1.00  0.00    -0.206 F 
ATOM     60  C   UNL A   1      35.881  33.337  28.372  1.00  0.00     0.040 A 
ATOM     61  C   UNL A   1      34.344  31.508  28.052  1.00  0.00     0.040 A 
ATOM     62  F   UNL A   1      35.097  29.287  28.241  1.00  0.00    -0.206 F 
ATOM     63  C   UNL A   1      34.589  32.881  28.124  1.00  0.00     0.006 A 
ENDBRANCH  42  56
BRANCH  43  64
ATOM     64  C   UNL A   1      45.641  31.004  29.286  1.00  0.00     0.057 A 
ATOM     65  C   UNL A   1      46.969  31.246  29.691  1.00  0.00     0.134 A 
ATOM     66  C   UNL A   1      45.293  31.508  28.026  1.00  0.00     0.134 A 
ATOM     67  F   UNL A   1      47.371  30.928  30.932  1.00  0.00    -0.206 F 
ATOM     68  C   UNL A   1      47.924  31.816  28.843  1.00  0.00     0.040 A 
ATOM     69  C   UNL A   1      46.245  32.058  27.156  1.00  0.00     0.040 A 
ATOM     70  F   UNL A   1      44.029  31.477  27.586  1.00  0.00    -0.206 F 
ATOM     71  C   UNL A   1      47.570  32.191  27.555  1.00  0.00     0.006 A 
ENDBRANCH  43  64
BRANCH  55  72
ATOM     72  C   UNL A   1      41.121  29.374  33.742  1.00  0.00     0.057 A 
ATOM     73  C   UNL A   1      41.295  30.047  34.954  1.00  0.00     0.134 A 
ATOM     74  C   UNL A   1      41.420  28.005  33.710  1.00  0.00     0.134 A 
ATOM     75  F   UNL A   1      41.021  31.357  35.052  1.00  0.00    -0.206 F 
ATOM     76  C   UNL A   1      41.729  29.379  36.100  1.00  0.00     0.040 A 
ATOM     77  C   UNL A   1      41.828  27.321  34.855  1.00  0.00     0.040 A 
ATOM     78  F   UNL A   1      41.300  27.297  32.576  1.00  0.00    -0.206 F 
ATOM     79  C   UNL A   1      41.984  28.009  36.056  1.00  0.00     0.006 A 
ENDBRANCH  55  72
ENDBRANCH  29  30
ENDBRANCH  21  24
ENDBRANCH   1  20
TORSDOF 10
ENDMDL
MODEL 2
REMARK VINA RESULT:     -11.6      9.188     12.937
REMARK SMILES Cc1onc2c(=O)n(C)nc(C(=O)NCCCNC(=O)c3ccc(-c4c5nc(c(-c6c(F)cccc6F)c6ccc([nH]6)c(-c6c(F)cccc6F)c6nc(c(-c7c(F)cccc7F)c7ccc4[nH]7)C=C6)C=C5)cc3)c12
REMARK SMILES IDX 17 1 16 2 15 3 14 4 12 5 13 6 11 8 1 9 2 10 3 11 75 12 4 13
REMARK SMILES IDX 5 14 6 15 10 16 7 17 8 18 9 19 18 20 19 21 20 23 21 24 22 25
REMARK SMILES IDX 74 26 23 27 73 28 24 29 25 30 26 31 67 32 27 33 72 34 66 35
REMARK SMILES IDX 68 36 28 37 71 38 65 39 64 40 29 42 55 43 38 44 54 45 39 46
REMARK SMILES IDX 42 47 53 48 69 49 40 50 41 51 52 53 70 54 43 55 30 56 31 57
REMARK SMILES IDX 36 58 32 59 33 60 35 61 37 62 34 63 56 64 57 65 62 66 58 67
REMARK SMILES IDX 59 68 61 69 63 70 60 71 44 72 45 73 50 74 46 75 47 76 49 77
REMARK SMILES IDX 51 78 48 79
REMARK H PARENT 14 7 18 22 68 41 42 52
REMARK Flexibility Score: inf
ROOT
ATOM      1  C   UNL A   1      40.877  34.098  30.926  1.00  0.00     0.118 C 
ENDROOT
BRANCH   1   2
ATOM      2  C   UNL A   1      39.645  33.918  30.021  1.00  0.00     0.042 C 
BRANCH   2   3
ATOM      3  C   UNL A   1      38.301  34.237  30.691  1.00  0.00     0.118 C 
BRANCH   3   4
ATOM      4  N   UNL A   1      37.549  33.030  30.988  1.00  0.00    -0.351 N 
ATOM      5  C   UNL A   1      36.219  32.803  31.260  1.00  0.00     0.272 C 
ATOM      6  O   UNL A   1      35.905  31.669  31.608  1.00  0.00    -0.267 OA
ATOM      7  H   UNL A   1      38.098  32.213  30.995  1.00  0.00     0.163 HD
BRANCH   5   8
ATOM      8  C   UNL A   1      35.128  33.881  31.133  1.00  0.00     0.161 A 
ATOM      9  C   UNL A   1      34.936  32.359  28.000  1.00  0.00     0.091 C 
ATOM     10  C   UNL A   1      34.226  33.434  28.718  1.00  0.00     0.144 A 
ATOM     11  O   UNL A   1      33.215  34.017  28.008  1.00  0.00    -0.360 OA
ATOM     12  C   UNL A   1      34.304  34.040  29.953  1.00  0.00     0.083 A 
ATOM     13  N   UNL A   1      32.632  35.024  28.756  1.00  0.00    -0.074 NA
ATOM     14  C   UNL A   1      33.301  35.031  29.912  1.00  0.00     0.183 A 
ATOM     15  C   UNL A   1      33.077  35.937  31.013  1.00  0.00     0.296 A 
ATOM     16  N   UNL A   1      34.923  34.696  32.135  1.00  0.00    -0.164 NA
ATOM     17  O   UNL A   1      32.219  36.825  31.014  1.00  0.00    -0.265 OA
ATOM     18  N   UNL A   1      33.958  35.709  32.083  1.00  0.00    -0.230 N 
ATOM     19  C   UNL A   1      33.882  36.592  33.231  1.00  0.00     0.178 C 
ENDBRANCH   5   8
ENDBRANCH   3   4
ENDBRANCH   2   3
ENDBRANCH   1   2
BRANCH   1  20
ATOM     20  N   UNL A   1      42.018  33.373  30.395  1.00  0.00    -0.352 N 
ATOM     21  C   UNL A   1      42.836  33.608  29.328  1.00  0.00     0.251 C 
ATOM     22  H   UNL A   1      42.244  32.558  30.899  1.00  0.00     0.163 HD
ATOM     23  O   UNL A   1      43.464  32.652  28.871  1.00  0.00    -0.269 OA
BRANCH  21  24
ATOM     24  C   UNL A   1      43.039  34.945  28.731  1.00  0.00     0.039 A 
ATOM     25  C   UNL A   1      43.743  35.881  29.501  1.00  0.00     0.014 A 
ATOM     26  C   UNL A   1      42.400  35.357  27.557  1.00  0.00     0.014 A 
ATOM     27  C   UNL A   1      43.811  37.215  29.104  1.00  0.00     0.010 A 
ATOM     28  C   UNL A   1      42.475  36.699  27.156  1.00  0.00     0.010 A 
ATOM     29  C   UNL A   1      43.179  37.634  27.927  1.00  0.00    -0.014 A 
BRANCH  29  30
ATOM     30  C   UNL A   1      43.398  39.034  27.512  1.00  0.00     0.031 A 
ATOM     31  C   UNL A   1      43.043  40.071  28.524  1.00  0.00     0.074 A 
ATOM     32  C   UNL A   1      44.310  39.369  26.575  1.00  0.00     0.049 A 
ATOM     33  N   UNL A   1      43.844  40.435  29.484  1.00  0.00    -0.248 NA
ATOM     34  C   UNL A   1      41.679  40.577  28.669  1.00  0.00     0.031 C 
ATOM     35  C   UNL A   1      45.629  38.734  26.459  1.00  0.00     0.029 A 
ATOM     36  N   UNL A   1      44.384  40.466  25.746  1.00  0.00    -0.354 N 
ATOM     37  C   UNL A   1      43.096  41.172  30.384  1.00  0.00     0.074 A 
ATOM     38  C   UNL A   1      41.760  41.241  29.832  1.00  0.00     0.031 C 
ATOM     39  C   UNL A   1      46.435  39.547  25.746  1.00  0.00     0.029 A 
ATOM     40  C   UNL A   1      45.661  40.675  25.232  1.00  0.00     0.049 A 
ATOM     41  H   UNL A   1      43.613  41.042  25.539  1.00  0.00     0.167 HD
ATOM     42  C   UNL A   1      43.611  41.676  31.535  1.00  0.00     0.037 A 
ATOM     43  C   UNL A   1      46.170  41.896  24.909  1.00  0.00     0.037 A 
ATOM     44  C   UNL A   1      45.008  41.444  31.742  1.00  0.00     0.049 A 
ATOM     45  C   UNL A   1      46.453  42.449  26.283  1.00  0.00     0.074 A 
ATOM     46  C   UNL A   1      45.800  40.523  32.392  1.00  0.00     0.029 A 
ATOM     47  N   UNL A   1      45.894  42.286  31.111  1.00  0.00    -0.354 N 
ATOM     48  N   UNL A   1      47.471  42.137  27.042  1.00  0.00    -0.248 NA
ATOM     49  C   UNL A   1      45.349  43.104  26.988  1.00  0.00     0.031 C 
ATOM     50  C   UNL A   1      47.071  40.588  31.737  1.00  0.00     0.029 A 
ATOM     51  C   UNL A   1      46.950  41.513  30.702  1.00  0.00     0.049 A 
ATOM     52  H   UNL A   1      45.790  43.256  30.980  1.00  0.00     0.167 HD
ATOM     53  C   UNL A   1      47.013  42.289  28.353  1.00  0.00     0.074 A 
ATOM     54  C   UNL A   1      45.718  42.930  28.249  1.00  0.00     0.031 C 
ATOM     55  C   UNL A   1      47.611  41.705  29.432  1.00  0.00     0.037 A 
BRANCH  42  56
ATOM     56  C   UNL A   1      42.888  42.553  32.474  1.00  0.00     0.057 A 
ATOM     57  C   UNL A   1      42.754  43.910  32.147  1.00  0.00     0.134 A 
ATOM     58  C   UNL A   1      42.539  42.152  33.763  1.00  0.00     0.134 A 
ATOM     59  F   UNL A   1      43.090  44.344  30.921  1.00  0.00    -0.206 F 
ATOM     60  C   UNL A   1      42.333  44.848  33.086  1.00  0.00     0.040 A 
ATOM     61  C   UNL A   1      42.107  43.083  34.712  1.00  0.00     0.040 A 
ATOM     62  F   UNL A   1      42.661  40.870  34.136  1.00  0.00    -0.206 F 
ATOM     63  C   UNL A   1      42.021  44.437  34.379  1.00  0.00     0.006 A 
ENDBRANCH  42  56
BRANCH  43  64
ATOM     64  C   UNL A   1      45.429  42.646  23.845  1.00  0.00     0.057 A 
ATOM     65  C   UNL A   1      46.105  42.948  22.645  1.00  0.00     0.134 A 
ATOM     66  C   UNL A   1      44.105  43.096  23.919  1.00  0.00     0.134 A 
ATOM     67  F   UNL A   1      47.416  42.685  22.519  1.00  0.00    -0.206 F 
ATOM     68  C   UNL A   1      45.466  43.524  21.543  1.00  0.00     0.040 A 
ATOM     69  C   UNL A   1      43.444  43.651  22.815  1.00  0.00     0.040 A 
ATOM     70  F   UNL A   1      43.400  43.006  25.054  1.00  0.00    -0.206 F 
ATOM     71  C   UNL A   1      44.118  43.844  21.615  1.00  0.00     0.006 A 
ENDBRANCH  43  64
BRANCH  55  72
ATOM     72  C   UNL A   1      48.899  41.010  29.157  1.00  0.00     0.057 A 
ATOM     73  C   UNL A   1      50.113  41.697  29.247  1.00  0.00     0.134 A 
ATOM     74  C   UNL A   1      48.947  39.646  28.835  1.00  0.00     0.134 A 
ATOM     75  F   UNL A   1      50.135  43.003  29.557  1.00  0.00    -0.206 F 
ATOM     76  C   UNL A   1      51.332  41.048  29.048  1.00  0.00     0.040 A 
ATOM     77  C   UNL A   1      50.161  38.980  28.660  1.00  0.00     0.040 A 
ATOM     78  F   UNL A   1      47.822  38.926  28.707  1.00  0.00    -0.206 F 
ATOM     79  C   UNL A   1      51.358  39.682  28.767  1.00  0.00     0.006 A 
ENDBRANCH  55  72
ENDBRANCH  29  30
ENDBRANCH  21  24
ENDBRANCH   1  20
TORSDOF 10
ENDMDL
MODEL 3
REMARK VINA RESULT:     -11.6      9.145     13.006
REMARK SMILES Cc1onc2c(=O)n(C)nc(C(=O)NCCCNC(=O)c3ccc(-c4c5nc(c(-c6c(F)cccc6F)c6ccc([nH]6)c(-c6c(F)cccc6F)c6nc(c(-c7c(F)cccc7F)c7ccc4[nH]7)C=C6)C=C5)cc3)c12
REMARK SMILES IDX 17 1 16 2 15 3 14 4 12 5 13 6 11 8 1 9 2 10 3 11 75 12 4 13
REMARK SMILES IDX 5 14 6 15 10 16 7 17 8 18 9 19 18 20 19 21 20 23 21 24 22 25
REMARK SMILES IDX 74 26 23 27 73 28 24 29 25 30 26 31 67 32 27 33 72 34 66 35
REMARK SMILES IDX 68 36 28 37 71 38 65 39 64 40 29 42 55 43 38 44 54 45 39 46
REMARK SMILES IDX 42 47 53 48 69 49 40 50 41 51 52 53 70 54 43 55 30 56 31 57
REMARK SMILES IDX 36 58 32 59 33 60 35 61 37 62 34 63 56 64 57 65 62 66 58 67
REMARK SMILES IDX 59 68 61 69 63 70 60 71 44 72 45 73 50 74 46 75 47 76 49 77
REMARK SMILES IDX 51 78 48 79
REMARK H PARENT 14 7 18 22 68 41 42 52
REMARK Flexibility Score: inf
ROOT
ATOM      1  C   UNL A   1      39.950  34.009  31.208  1.00  0.00     0.118 C 
ENDROOT
BRANCH   1   2
ATOM      2  C   UNL A   1      38.717  33.425  30.497  1.00  0.00     0.042 C 
BRANCH   2   3
ATOM      3  C   UNL A   1      38.226  34.235  29.288  1.00  0.00     0.118 C 
BRANCH   3   4
ATOM      4  N   UNL A   1      37.345  33.453  28.439  1.00  0.00    -0.351 N 
ATOM      5  C   UNL A   1      35.976  33.330  28.378  1.00  0.00     0.272 C 
ATOM      6  O   UNL A   1      35.524  32.472  27.626  1.00  0.00    -0.267 OA
ATOM      7  H   UNL A   1      37.821  32.902  27.776  1.00  0.00     0.163 HD
BRANCH   5   8
ATOM      8  C   UNL A   1      35.006  34.215  29.180  1.00  0.00     0.161 A 
ATOM      9  C   UNL A   1      35.528  31.591  31.418  1.00  0.00     0.091 C 
ATOM     10  C   UNL A   1      34.782  32.864  31.409  1.00  0.00     0.144 A 
ATOM     11  O   UNL A   1      34.101  33.129  32.563  1.00  0.00    -0.360 OA
ATOM     12  C   UNL A   1      34.570  33.899  30.524  1.00  0.00     0.083 A 
ATOM     13  N   UNL A   1      33.418  34.325  32.444  1.00  0.00    -0.074 NA
ATOM     14  C   UNL A   1      33.702  34.767  31.216  1.00  0.00     0.183 A 
ATOM     15  C   UNL A   1      33.189  35.975  30.613  1.00  0.00     0.296 A 
ATOM     16  N   UNL A   1      34.549  35.312  28.634  1.00  0.00    -0.164 NA
ATOM     17  O   UNL A   1      32.420  36.758  31.179  1.00  0.00    -0.265 OA
ATOM     18  N   UNL A   1      33.653  36.157  29.300  1.00  0.00    -0.230 N 
ATOM     19  C   UNL A   1      33.165  37.302  28.555  1.00  0.00     0.178 C 
ENDBRANCH   5   8
ENDBRANCH   3   4
ENDBRANCH   2   3
ENDBRANCH   1   2
BRANCH   1  20
ATOM     20  N   UNL A   1      41.165  33.353  30.758  1.00  0.00    -0.352 N 
ATOM     21  C   UNL A   1      42.143  33.735  29.885  1.00  0.00     0.251 C 
ATOM     22  H   UNL A   1      41.311  32.464  31.156  1.00  0.00     0.163 HD
ATOM     23  O   UNL A   1      42.840  32.850  29.389  1.00  0.00    -0.269 OA
BRANCH  21  24
ATOM     24  C   UNL A   1      42.433  35.145  29.547  1.00  0.00     0.039 A 
ATOM     25  C   UNL A   1      41.837  35.651  28.384  1.00  0.00     0.014 A 
ATOM     26  C   UNL A   1      43.408  35.899  30.208  1.00  0.00     0.014 A 
ATOM     27  C   UNL A   1      42.205  36.898  27.886  1.00  0.00     0.010 A 
ATOM     28  C   UNL A   1      43.774  37.157  29.708  1.00  0.00     0.010 A 
ATOM     29  C   UNL A   1      43.176  37.662  28.545  1.00  0.00    -0.014 A 
BRANCH  29  30
ATOM     30  C   UNL A   1      43.426  39.021  28.025  1.00  0.00     0.031 A 
ATOM     31  C   UNL A   1      43.213  40.134  28.996  1.00  0.00     0.074 A 
ATOM     32  C   UNL A   1      44.267  39.251  26.994  1.00  0.00     0.049 A 
ATOM     33  N   UNL A   1      44.112  40.510  29.859  1.00  0.00    -0.248 NA
ATOM     34  C   UNL A   1      41.894  40.721  29.224  1.00  0.00     0.031 C 
ATOM     35  C   UNL A   1      45.538  38.539  26.807  1.00  0.00     0.029 A 
ATOM     36  N   UNL A   1      44.322  40.291  26.095  1.00  0.00    -0.354 N 
ATOM     37  C   UNL A   1      43.483  41.337  30.771  1.00  0.00     0.074 A 
ATOM     38  C   UNL A   1      42.109  41.447  30.332  1.00  0.00     0.031 C 
ATOM     39  C   UNL A   1      46.317  39.264  25.978  1.00  0.00     0.029 A 
ATOM     40  C   UNL A   1      45.557  40.401  25.462  1.00  0.00     0.049 A 
ATOM     41  H   UNL A   1      43.565  40.896  25.918  1.00  0.00     0.167 HD
ATOM     42  C   UNL A   1      44.123  41.880  31.840  1.00  0.00     0.037 A 
ATOM     43  C   UNL A   1      46.096  41.570  25.021  1.00  0.00     0.037 A 
ATOM     44  C   UNL A   1      45.519  41.584  31.942  1.00  0.00     0.049 A 
ATOM     45  C   UNL A   1      46.525  42.187  26.328  1.00  0.00     0.074 A 
ATOM     46  C   UNL A   1      46.319  40.661  32.579  1.00  0.00     0.029 A 
ATOM     47  N   UNL A   1      46.386  42.338  31.187  1.00  0.00    -0.354 N 
ATOM     48  N   UNL A   1      47.589  41.865  27.016  1.00  0.00    -0.248 NA
ATOM     49  C   UNL A   1      45.521  42.942  27.081  1.00  0.00     0.031 C 
ATOM     50  C   UNL A   1      47.529  40.618  31.816  1.00  0.00     0.029 A 
ATOM     51  C   UNL A   1      47.362  41.486  30.739  1.00  0.00     0.049 A 
ATOM     52  H   UNL A   1      46.319  43.302  31.004  1.00  0.00     0.167 HD
ATOM     53  C   UNL A   1      47.257  42.118  28.349  1.00  0.00     0.074 A 
ATOM     54  C   UNL A   1      45.991  42.822  28.315  1.00  0.00     0.031 C 
ATOM     55  C   UNL A   1      47.918  41.567  29.408  1.00  0.00     0.037 A 
BRANCH  42  56
ATOM     56  C   UNL A   1      43.529  42.848  32.780  1.00  0.00     0.057 A 
ATOM     57  C   UNL A   1      42.902  42.358  33.933  1.00  0.00     0.134 A 
ATOM     58  C   UNL A   1      43.359  44.196  32.465  1.00  0.00     0.134 A 
ATOM     59  F   UNL A   1      43.028  41.063  34.269  1.00  0.00    -0.206 F 
ATOM     60  C   UNL A   1      42.090  43.168  34.723  1.00  0.00     0.040 A 
ATOM     61  C   UNL A   1      42.554  45.022  33.254  1.00  0.00     0.040 A 
ATOM     62  F   UNL A   1      43.923  44.717  31.365  1.00  0.00    -0.206 F 
ATOM     63  C   UNL A   1      41.903  44.503  34.376  1.00  0.00     0.006 A 
ENDBRANCH  42  56
BRANCH  43  64
ATOM     64  C   UNL A   1      45.301  42.296  23.978  1.00  0.00     0.057 A 
ATOM     65  C   UNL A   1      45.886  42.494  22.710  1.00  0.00     0.134 A 
ATOM     66  C   UNL A   1      44.011  42.817  24.135  1.00  0.00     0.134 A 
ATOM     67  F   UNL A   1      47.167  42.157  22.491  1.00  0.00    -0.206 F 
ATOM     68  C   UNL A   1      45.181  43.039  21.632  1.00  0.00     0.040 A 
ATOM     69  C   UNL A   1      43.284  43.343  23.057  1.00  0.00     0.040 A 
ATOM     70  F   UNL A   1      43.403  42.829  25.327  1.00  0.00    -0.206 F 
ATOM     71  C   UNL A   1      43.861  43.431  21.795  1.00  0.00     0.006 A 
ENDBRANCH  43  64
BRANCH  55  72
ATOM     72  C   UNL A   1      49.141  40.787  29.069  1.00  0.00     0.057 A 
ATOM     73  C   UNL A   1      50.390  41.412  29.012  1.00  0.00     0.134 A 
ATOM     74  C   UNL A   1      49.094  39.406  28.831  1.00  0.00     0.134 A 
ATOM     75  F   UNL A   1      50.504  42.730  29.236  1.00  0.00    -0.206 F 
ATOM     76  C   UNL A   1      51.553  40.686  28.751  1.00  0.00     0.040 A 
ATOM     77  C   UNL A   1      50.253  38.666  28.597  1.00  0.00     0.040 A 
ATOM     78  F   UNL A   1      47.927  38.742  28.845  1.00  0.00    -0.206 F 
ATOM     79  C   UNL A   1      51.488  39.307  28.556  1.00  0.00     0.006 A 
ENDBRANCH  55  72
ENDBRANCH  29  30
ENDBRANCH  21  24
ENDBRANCH   1  20
TORSDOF 10
ENDMDL
