MODEL 1
REMARK VINA RESULT:     -13.1      0.000      0.000
REMARK SMILES N#CCCn1cc(/C=C/c2cc(C(=O)NCCCNC(=O)c3ccc(-c4c5nc(c(-c6c(F)cccc6F)c6ccc([nH]6)c(-c6c(F)cccc6F)c6nc(c(-c7c(F)cccc7F)c7ccc4[nH]7)C=C6)C=C5)cc3)c3ccccc3n2)c(-c2ccccc2)n1
REMARK SMILES IDX 13 1 14 2 15 3 12 5 10 6 11 7 82 8 81 9 76 10 80 11 77 12
REMARK SMILES IDX 79 13 78 14 9 15 8 16 7 17 5 18 6 19 90 20 83 21 4 22 3 23
REMARK SMILES IDX 2 24 1 25 84 26 85 27 89 28 86 29 88 30 87 31 16 32 17 33
REMARK SMILES IDX 18 34 19 35 20 36 21 38 22 39 23 40 75 41 24 42 74 43 25 44
REMARK SMILES IDX 26 45 27 46 68 47 28 48 73 49 67 50 69 51 29 52 72 53 66 54
REMARK SMILES IDX 65 55 30 57 56 58 39 59 55 60 40 61 43 62 54 63 70 64 41 65
REMARK SMILES IDX 42 66 53 68 71 69 44 70 31 71 32 72 37 73 33 74 34 75 36 76
REMARK SMILES IDX 38 77 35 78 57 79 58 80 63 81 59 82 60 83 62 84 64 85 61 86
REMARK SMILES IDX 45 87 46 88 51 89 47 90 48 91 50 92 52 93 49 94
REMARK H PARENT 15 4 19 37 69 56 43 67
REMARK Flexibility Score: inf
ROOT
ATOM      1  C   UNL A   1      36.493  22.888  23.536  1.00  0.00     0.252 C 
ATOM      2  O   UNL A   1      36.735  23.002  22.330  1.00  0.00    -0.269 OA
ATOM      3  N   UNL A   1      37.589  22.790  24.350  1.00  0.00    -0.352 N 
ATOM      4  H   UNL A   1      38.438  22.990  23.894  1.00  0.00     0.163 HD
ENDROOT
BRANCH   1   5
ATOM      5  C   UNL A   1      35.075  23.029  23.996  1.00  0.00     0.051 A 
ATOM      6  C   UNL A   1      33.392  24.683  24.337  1.00  0.00     0.065 A 
ATOM      7  C   UNL A   1      34.656  24.355  23.909  1.00  0.00     0.042 A 
ATOM      8  N   UNL A   1      32.551  23.807  24.911  1.00  0.00    -0.248 NA
ATOM      9  C   UNL A   1      32.917  22.535  24.986  1.00  0.00     0.072 A 
ATOM     10  C   UNL A   1      34.142  22.062  24.477  1.00  0.00     0.013 A 
ATOM     11  C   UNL A   1      32.003  21.664  25.567  1.00  0.00     0.029 A 
ATOM     12  C   UNL A   1      34.266  20.662  24.442  1.00  0.00     0.011 A 
ATOM     13  C   UNL A   1      32.253  20.301  25.678  1.00  0.00     0.002 A 
ATOM     14  C   UNL A   1      33.392  19.791  25.092  1.00  0.00     0.001 A 
BRANCH   6  15
ATOM     15  C   UNL A   1      32.902  26.027  24.120  1.00  0.00     0.029 C 
ATOM     16  C   UNL A   1      31.935  26.580  24.860  1.00  0.00     0.014 C 
BRANCH  16  17
ATOM     17  C   UNL A   1      31.411  27.867  24.606  1.00  0.00     0.021 A 
ATOM     18  N   UNL A   1      30.146  29.422  23.808  1.00  0.00    -0.270 N 
ATOM     19  C   UNL A   1      30.403  28.096  23.708  1.00  0.00     0.117 A 
ATOM     20  N   UNL A   1      30.870  30.060  24.745  1.00  0.00    -0.172 NA
ATOM     21  C   UNL A   1      31.735  29.132  25.182  1.00  0.00     0.100 A 
BRANCH  18  22
ATOM     22  C   UNL A   1      29.190  30.138  22.995  1.00  0.00     0.159 C 
BRANCH  22  23
ATOM     23  C   UNL A   1      28.573  31.312  23.709  1.00  0.00     0.144 C 
BRANCH  23  24
ATOM     24  C   UNL A   1      28.304  32.467  22.759  1.00  0.00     0.064 C 
ATOM     25  N   UNL A   1      28.081  33.426  21.970  1.00  0.00    -0.198 NA
ENDBRANCH  23  24
ENDBRANCH  22  23
ENDBRANCH  18  22
BRANCH  21  26
ATOM     26  C   UNL A   1      32.778  29.437  26.163  1.00  0.00     0.003 A 
ATOM     27  C   UNL A   1      32.703  30.603  26.941  1.00  0.00     0.010 A 
ATOM     28  C   UNL A   1      33.930  28.646  26.228  1.00  0.00     0.010 A 
ATOM     29  C   UNL A   1      33.792  31.008  27.715  1.00  0.00     0.001 A 
ATOM     30  C   UNL A   1      35.018  29.052  27.006  1.00  0.00     0.001 A 
ATOM     31  C   UNL A   1      34.955  30.240  27.734  1.00  0.00     0.000 A 
ENDBRANCH  21  26
ENDBRANCH  16  17
ENDBRANCH   6  15
ENDBRANCH   1   5
BRANCH   3  32
ATOM     32  C   UNL A   1      37.745  22.449  25.748  1.00  0.00     0.118 C 
BRANCH  32  33
ATOM     33  C   UNL A   1      38.953  21.517  25.911  1.00  0.00     0.042 C 
BRANCH  33  34
ATOM     34  C   UNL A   1      40.038  22.072  26.782  1.00  0.00     0.118 C 
BRANCH  34  35
ATOM     35  N   UNL A   1      41.314  22.195  26.080  1.00  0.00    -0.352 N 
ATOM     36  C   UNL A   1      42.051  23.358  25.890  1.00  0.00     0.251 C 
ATOM     37  H   UNL A   1      41.690  21.368  25.702  1.00  0.00     0.163 HD
ATOM     38  O   UNL A   1      42.874  23.455  25.005  1.00  0.00    -0.269 OA
BRANCH  36  39
ATOM     39  C   UNL A   1      41.774  24.474  26.817  1.00  0.00     0.039 A 
ATOM     40  C   UNL A   1      42.494  24.693  27.988  1.00  0.00     0.014 A 
ATOM     41  C   UNL A   1      40.849  25.402  26.368  1.00  0.00     0.014 A 
ATOM     42  C   UNL A   1      42.296  25.904  28.647  1.00  0.00     0.010 A 
ATOM     43  C   UNL A   1      40.995  26.691  26.767  1.00  0.00     0.010 A 
ATOM     44  C   UNL A   1      41.555  26.911  28.003  1.00  0.00    -0.014 A 
BRANCH  44  45
ATOM     45  C   UNL A   1      41.371  28.245  28.542  1.00  0.00     0.031 A 
ATOM     46  C   UNL A   1      42.462  29.168  28.190  1.00  0.00     0.074 A 
ATOM     47  C   UNL A   1      40.241  28.657  29.162  1.00  0.00     0.049 A 
ATOM     48  N   UNL A   1      43.478  29.457  28.926  1.00  0.00    -0.248 NA
ATOM     49  C   UNL A   1      42.563  29.652  26.807  1.00  0.00     0.031 C 
ATOM     50  C   UNL A   1      38.943  27.984  29.316  1.00  0.00     0.029 A 
ATOM     51  N   UNL A   1      40.022  29.848  29.779  1.00  0.00    -0.354 N 
ATOM     52  C   UNL A   1      44.222  30.370  28.195  1.00  0.00     0.074 A 
ATOM     53  C   UNL A   1      43.747  30.270  26.840  1.00  0.00     0.031 C 
ATOM     54  C   UNL A   1      38.024  28.854  29.795  1.00  0.00     0.029 A 
ATOM     55  C   UNL A   1      38.705  30.079  30.164  1.00  0.00     0.049 A 
ATOM     56  H   UNL A   1      40.742  30.500  29.941  1.00  0.00     0.167 HD
ATOM     57  C   UNL A   1      44.957  31.315  28.841  1.00  0.00     0.037 A 
ATOM     58  C   UNL A   1      38.228  31.200  30.761  1.00  0.00     0.037 A 
ATOM     59  C   UNL A   1      45.082  30.992  30.246  1.00  0.00     0.049 A 
ATOM     60  C   UNL A   1      39.393  31.884  31.380  1.00  0.00     0.074 A 
ATOM     61  C   UNL A   1      45.596  29.922  30.954  1.00  0.00     0.029 A 
ATOM     62  N   UNL A   1      44.240  31.642  31.118  1.00  0.00    -0.354 N 
ATOM     63  N   UNL A   1      40.058  31.394  32.391  1.00  0.00    -0.248 NA
ATOM     64  C   UNL A   1      40.115  32.846  30.563  1.00  0.00     0.031 C 
ATOM     65  C   UNL A   1      44.676  29.709  32.025  1.00  0.00     0.029 A 
ATOM     66  C   UNL A   1      43.703  30.708  31.967  1.00  0.00     0.049 A 
ATOM     67  H   UNL A   1      44.056  32.609  31.132  1.00  0.00     0.167 HD
ATOM     68  C   UNL A   1      41.391  31.633  32.085  1.00  0.00     0.074 A 
ATOM     69  C   UNL A   1      41.359  32.596  30.984  1.00  0.00     0.031 C 
ATOM     70  C   UNL A   1      42.381  30.811  32.545  1.00  0.00     0.037 A 
BRANCH  57  71
ATOM     71  C   UNL A   1      45.194  32.712  28.324  1.00  0.00     0.057 A 
ATOM     72  C   UNL A   1      46.519  33.159  28.183  1.00  0.00     0.134 A 
ATOM     73  C   UNL A   1      44.210  33.720  28.244  1.00  0.00     0.134 A 
ATOM     74  F   UNL A   1      47.547  32.298  28.237  1.00  0.00    -0.206 F 
ATOM     75  C   UNL A   1      46.846  34.515  28.073  1.00  0.00     0.040 A 
ATOM     76  C   UNL A   1      44.524  35.072  28.084  1.00  0.00     0.040 A 
ATOM     77  F   UNL A   1      42.907  33.479  28.416  1.00  0.00    -0.206 F 
ATOM     78  C   UNL A   1      45.847  35.478  28.036  1.00  0.00     0.006 A 
ENDBRANCH  57  71
BRANCH  58  79
ATOM     79  C   UNL A   1      36.928  31.879  30.558  1.00  0.00     0.057 A 
ATOM     80  C   UNL A   1      35.925  31.836  31.538  1.00  0.00     0.134 A 
ATOM     81  C   UNL A   1      36.757  32.834  29.541  1.00  0.00     0.134 A 
ATOM     82  F   UNL A   1      36.019  30.986  32.570  1.00  0.00    -0.206 F 
ATOM     83  C   UNL A   1      34.833  32.717  31.528  1.00  0.00     0.040 A 
ATOM     84  C   UNL A   1      35.672  33.718  29.518  1.00  0.00     0.040 A 
ATOM     85  F   UNL A   1      37.686  33.004  28.590  1.00  0.00    -0.206 F 
ATOM     86  C   UNL A   1      34.713  33.673  30.523  1.00  0.00     0.006 A 
ENDBRANCH  58  79
BRANCH  70  87
ATOM     87  C   UNL A   1      42.014  29.786  33.590  1.00  0.00     0.057 A 
ATOM     88  C   UNL A   1      41.642  28.461  33.310  1.00  0.00     0.134 A 
ATOM     89  C   UNL A   1      42.189  30.115  34.938  1.00  0.00     0.134 A 
ATOM     90  F   UNL A   1      41.537  28.020  32.051  1.00  0.00    -0.206 F 
ATOM     91  C   UNL A   1      41.419  27.523  34.325  1.00  0.00     0.040 A 
ATOM     92  C   UNL A   1      42.001  29.181  35.959  1.00  0.00     0.040 A 
ATOM     93  F   UNL A   1      42.594  31.347  35.283  1.00  0.00    -0.206 F 
ATOM     94  C   UNL A   1      41.607  27.881  35.656  1.00  0.00     0.006 A 
ENDBRANCH  70  87
ENDBRANCH  44  45
ENDBRANCH  36  39
ENDBRANCH  34  35
ENDBRANCH  33  34
ENDBRANCH  32  33
ENDBRANCH   3  32
TORSDOF 16
ENDMDL
MODEL 2
REMARK VINA RESULT:     -12.1      3.162      5.684
REMARK SMILES N#CCCn1cc(/C=C/c2cc(C(=O)NCCCNC(=O)c3ccc(-c4c5nc(c(-c6c(F)cccc6F)c6ccc([nH]6)c(-c6c(F)cccc6F)c6nc(c(-c7c(F)cccc7F)c7ccc4[nH]7)C=C6)C=C5)cc3)c3ccccc3n2)c(-c2ccccc2)n1
REMARK SMILES IDX 13 1 14 2 15 3 12 5 10 6 11 7 82 8 81 9 76 10 80 11 77 12
REMARK SMILES IDX 79 13 78 14 9 15 8 16 7 17 5 18 6 19 90 20 83 21 4 22 3 23
REMARK SMILES IDX 2 24 1 25 84 26 85 27 89 28 86 29 88 30 87 31 16 32 17 33
REMARK SMILES IDX 18 34 19 35 20 36 21 38 22 39 23 40 75 41 24 42 74 43 25 44
REMARK SMILES IDX 26 45 27 46 68 47 28 48 73 49 67 50 69 51 29 52 72 53 66 54
REMARK SMILES IDX 65 55 30 57 56 58 39 59 55 60 40 61 43 62 54 63 70 64 41 65
REMARK SMILES IDX 42 66 53 68 71 69 44 70 31 71 32 72 37 73 33 74 34 75 36 76
REMARK SMILES IDX 38 77 35 78 57 79 58 80 63 81 59 82 60 83 62 84 64 85 61 86
REMARK SMILES IDX 45 87 46 88 51 89 47 90 48 91 50 92 52 93 49 94
REMARK H PARENT 15 4 19 37 69 56 43 67
REMARK Flexibility Score: inf
ROOT
ATOM      1  C   UNL A   1      41.519  20.581  27.076  1.00  0.00     0.252 C 
ATOM      2  O   UNL A   1      41.306  19.670  27.882  1.00  0.00    -0.269 OA
ATOM      3  N   UNL A   1      42.685  20.478  26.366  1.00  0.00    -0.352 N 
ATOM      4  H   UNL A   1      43.131  19.606  26.463  1.00  0.00     0.163 HD
ENDROOT
BRANCH   1   5
ATOM      5  C   UNL A   1      40.440  21.592  26.838  1.00  0.00     0.051 A 
ATOM      6  C   UNL A   1      38.327  21.829  25.760  1.00  0.00     0.065 A 
ATOM      7  C   UNL A   1      39.389  21.032  26.114  1.00  0.00     0.042 A 
ATOM      8  N   UNL A   1      38.273  23.148  26.006  1.00  0.00    -0.248 NA
ATOM      9  C   UNL A   1      39.250  23.701  26.713  1.00  0.00     0.072 A 
ATOM     10  C   UNL A   1      40.333  22.960  27.226  1.00  0.00     0.013 A 
ATOM     11  C   UNL A   1      39.137  25.063  26.960  1.00  0.00     0.029 A 
ATOM     12  C   UNL A   1      41.150  23.660  28.131  1.00  0.00     0.011 A 
ATOM     13  C   UNL A   1      40.078  25.755  27.714  1.00  0.00     0.002 A 
ATOM     14  C   UNL A   1      41.089  25.041  28.322  1.00  0.00     0.001 A 
BRANCH   6  15
ATOM     15  C   UNL A   1      37.172  21.224  25.133  1.00  0.00     0.029 C 
ATOM     16  C   UNL A   1      35.916  21.602  25.398  1.00  0.00     0.014 C 
BRANCH  16  17
ATOM     17  C   UNL A   1      34.786  20.967  24.836  1.00  0.00     0.021 A 
ATOM     18  N   UNL A   1      33.429  19.403  24.230  1.00  0.00    -0.270 N 
ATOM     19  C   UNL A   1      34.660  19.606  24.758  1.00  0.00     0.117 A 
ATOM     20  N   UNL A   1      32.723  20.528  24.014  1.00  0.00    -0.172 NA
ATOM     21  C   UNL A   1      33.588  21.517  24.289  1.00  0.00     0.100 A 
BRANCH  18  22
ATOM     22  C   UNL A   1      32.877  18.109  23.902  1.00  0.00     0.159 C 
BRANCH  22  23
ATOM     23  C   UNL A   1      33.934  17.059  23.676  1.00  0.00     0.144 C 
BRANCH  23  24
ATOM     24  C   UNL A   1      33.746  15.868  24.601  1.00  0.00     0.064 C 
ATOM     25  N   UNL A   1      33.591  14.879  25.368  1.00  0.00    -0.198 NA
ENDBRANCH  23  24
ENDBRANCH  22  23
ENDBRANCH  18  22
BRANCH  21  26
ATOM     26  C   UNL A   1      33.247  22.928  24.099  1.00  0.00     0.003 A 
ATOM     27  C   UNL A   1      33.745  23.637  22.994  1.00  0.00     0.010 A 
ATOM     28  C   UNL A   1      32.542  23.618  25.091  1.00  0.00     0.010 A 
ATOM     29  C   UNL A   1      33.604  25.024  22.923  1.00  0.00     0.001 A 
ATOM     30  C   UNL A   1      32.400  25.006  25.016  1.00  0.00     0.001 A 
ATOM     31  C   UNL A   1      32.946  25.709  23.942  1.00  0.00     0.000 A 
ENDBRANCH  21  26
ENDBRANCH  16  17
ENDBRANCH   6  15
ENDBRANCH   1   5
BRANCH   3  32
ATOM     32  C   UNL A   1      43.392  21.400  25.502  1.00  0.00     0.118 C 
BRANCH  32  33
ATOM     33  C   UNL A   1      44.020  22.512  26.353  1.00  0.00     0.042 C 
BRANCH  33  34
ATOM     34  C   UNL A   1      43.682  23.896  25.894  1.00  0.00     0.118 C 
BRANCH  34  35
ATOM     35  N   UNL A   1      44.838  24.607  25.353  1.00  0.00    -0.352 N 
ATOM     36  C   UNL A   1      45.066  25.977  25.391  1.00  0.00     0.251 C 
ATOM     37  H   UNL A   1      45.528  24.058  24.915  1.00  0.00     0.163 HD
ATOM     38  O   UNL A   1      45.826  26.521  24.618  1.00  0.00    -0.269 OA
BRANCH  36  39
ATOM     39  C   UNL A   1      44.328  26.741  26.417  1.00  0.00     0.039 A 
ATOM     40  C   UNL A   1      44.649  26.713  27.772  1.00  0.00     0.014 A 
ATOM     41  C   UNL A   1      43.383  27.629  25.930  1.00  0.00     0.014 A 
ATOM     42  C   UNL A   1      44.036  27.653  28.597  1.00  0.00     0.010 A 
ATOM     43  C   UNL A   1      43.146  28.761  26.640  1.00  0.00     0.010 A 
ATOM     44  C   UNL A   1      43.300  28.695  28.005  1.00  0.00    -0.014 A 
BRANCH  44  45
ATOM     45  C   UNL A   1      42.706  29.787  28.752  1.00  0.00     0.031 A 
ATOM     46  C   UNL A   1      43.595  30.954  28.879  1.00  0.00     0.074 A 
ATOM     47  C   UNL A   1      41.414  29.811  29.153  1.00  0.00     0.049 A 
ATOM     48  N   UNL A   1      44.354  31.224  29.883  1.00  0.00    -0.248 NA
ATOM     49  C   UNL A   1      43.840  31.788  27.695  1.00  0.00     0.031 C 
ATOM     50  C   UNL A   1      40.307  28.894  28.841  1.00  0.00     0.029 A 
ATOM     51  N   UNL A   1      40.806  30.740  29.935  1.00  0.00    -0.354 N 
ATOM     52  C   UNL A   1      44.986  32.415  29.563  1.00  0.00     0.074 A 
ATOM     53  C   UNL A   1      44.817  32.583  28.143  1.00  0.00     0.031 C 
ATOM     54  C   UNL A   1      39.134  29.426  29.256  1.00  0.00     0.029 A 
ATOM     55  C   UNL A   1      39.423  30.618  30.029  1.00  0.00     0.049 A 
ATOM     56  H   UNL A   1      41.306  31.449  30.401  1.00  0.00     0.167 HD
ATOM     57  C   UNL A   1      45.339  33.280  30.552  1.00  0.00     0.037 A 
ATOM     58  C   UNL A   1      38.590  31.439  30.715  1.00  0.00     0.037 A 
ATOM     59  C   UNL A   1      45.266  32.633  31.845  1.00  0.00     0.049 A 
ATOM     60  C   UNL A   1      39.419  32.142  31.729  1.00  0.00     0.074 A 
ATOM     61  C   UNL A   1      45.874  31.529  32.415  1.00  0.00     0.029 A 
ATOM     62  N   UNL A   1      44.144  32.870  32.604  1.00  0.00    -0.354 N 
ATOM     63  N   UNL A   1      39.975  31.538  32.743  1.00  0.00    -0.248 NA
ATOM     64  C   UNL A   1      40.036  33.398  31.333  1.00  0.00     0.031 C 
ATOM     65  C   UNL A   1      44.843  30.882  33.161  1.00  0.00     0.029 A 
ATOM     66  C   UNL A   1      43.691  31.666  33.080  1.00  0.00     0.049 A 
ATOM     67  H   UNL A   1      43.738  33.750  32.777  1.00  0.00     0.167 HD
ATOM     68  C   UNL A   1      41.247  32.088  32.828  1.00  0.00     0.074 A 
ATOM     69  C   UNL A   1      41.200  33.280  31.980  1.00  0.00     0.031 C 
ATOM     70  C   UNL A   1      42.297  31.371  33.329  1.00  0.00     0.037 A 
BRANCH  57  71
ATOM     71  C   UNL A   1      45.334  34.781  30.415  1.00  0.00     0.057 A 
ATOM     72  C   UNL A   1      46.464  35.499  30.846  1.00  0.00     0.134 A 
ATOM     73  C   UNL A   1      44.187  35.565  30.167  1.00  0.00     0.134 A 
ATOM     74  F   UNL A   1      47.618  34.871  31.114  1.00  0.00    -0.206 F 
ATOM     75  C   UNL A   1      46.425  36.873  31.107  1.00  0.00     0.040 A 
ATOM     76  C   UNL A   1      44.154  36.945  30.376  1.00  0.00     0.040 A 
ATOM     77  F   UNL A   1      43.012  35.038  29.810  1.00  0.00    -0.206 F 
ATOM     78  C   UNL A   1      45.263  37.599  30.883  1.00  0.00     0.006 A 
ENDBRANCH  57  71
BRANCH  58  79
ATOM     79  C   UNL A   1      37.229  31.897  30.352  1.00  0.00     0.057 A 
ATOM     80  C   UNL A   1      36.129  31.637  31.182  1.00  0.00     0.134 A 
ATOM     81  C   UNL A   1      37.030  32.858  29.346  1.00  0.00     0.134 A 
ATOM     82  F   UNL A   1      36.232  30.765  32.195  1.00  0.00    -0.206 F 
ATOM     83  C   UNL A   1      34.911  32.319  31.043  1.00  0.00     0.040 A 
ATOM     84  C   UNL A   1      35.820  33.546  29.196  1.00  0.00     0.040 A 
ATOM     85  F   UNL A   1      38.032  33.230  28.537  1.00  0.00    -0.206 F 
ATOM     86  C   UNL A   1      34.759  33.289  30.057  1.00  0.00     0.006 A 
ENDBRANCH  58  79
BRANCH  70  87
ATOM     87  C   UNL A   1      41.990  30.062  34.014  1.00  0.00     0.057 A 
ATOM     88  C   UNL A   1      41.922  28.820  33.362  1.00  0.00     0.134 A 
ATOM     89  C   UNL A   1      41.906  30.042  35.409  1.00  0.00     0.134 A 
ATOM     90  F   UNL A   1      42.082  28.720  32.038  1.00  0.00    -0.206 F 
ATOM     91  C   UNL A   1      41.743  27.623  34.065  1.00  0.00     0.040 A 
ATOM     92  C   UNL A   1      41.759  28.852  36.126  1.00  0.00     0.040 A 
ATOM     93  F   UNL A   1      42.015  31.183  36.107  1.00  0.00    -0.206 F 
ATOM     94  C   UNL A   1      41.668  27.636  35.454  1.00  0.00     0.006 A 
ENDBRANCH  70  87
ENDBRANCH  44  45
ENDBRANCH  36  39
ENDBRANCH  34  35
ENDBRANCH  33  34
ENDBRANCH  32  33
ENDBRANCH   3  32
TORSDOF 16
ENDMDL
MODEL 3
REMARK VINA RESULT:     -12.0      3.558      8.565
REMARK SMILES N#CCCn1cc(/C=C/c2cc(C(=O)NCCCNC(=O)c3ccc(-c4c5nc(c(-c6c(F)cccc6F)c6ccc([nH]6)c(-c6c(F)cccc6F)c6nc(c(-c7c(F)cccc7F)c7ccc4[nH]7)C=C6)C=C5)cc3)c3ccccc3n2)c(-c2ccccc2)n1
REMARK SMILES IDX 13 1 14 2 15 3 12 5 10 6 11 7 82 8 81 9 76 10 80 11 77 12
REMARK SMILES IDX 79 13 78 14 9 15 8 16 7 17 5 18 6 19 90 20 83 21 4 22 3 23
REMARK SMILES IDX 2 24 1 25 84 26 85 27 89 28 86 29 88 30 87 31 16 32 17 33
REMARK SMILES IDX 18 34 19 35 20 36 21 38 22 39 23 40 75 41 24 42 74 43 25 44
REMARK SMILES IDX 26 45 27 46 68 47 28 48 73 49 67 50 69 51 29 52 72 53 66 54
REMARK SMILES IDX 65 55 30 57 56 58 39 59 55 60 40 61 43 62 54 63 70 64 41 65
REMARK SMILES IDX 42 66 53 68 71 69 44 70 31 71 32 72 37 73 33 74 34 75 36 76
REMARK SMILES IDX 38 77 35 78 57 79 58 80 63 81 59 82 60 83 62 84 64 85 61 86
REMARK SMILES IDX 45 87 46 88 51 89 47 90 48 91 50 92 52 93 49 94
REMARK H PARENT 15 4 19 37 69 56 43 67
REMARK Flexibility Score: inf
ROOT
ATOM      1  C   UNL A   1      34.625  33.468  29.360  1.00  0.00     0.252 C 
ATOM      2  O   UNL A   1      34.460  34.486  28.680  1.00  0.00    -0.269 OA
ATOM      3  N   UNL A   1      34.303  33.586  30.684  1.00  0.00    -0.352 N 
ATOM      4  H   UNL A   1      33.822  34.418  30.901  1.00  0.00     0.163 HD
ENDROOT
BRANCH   1   5
ATOM      5  C   UNL A   1      34.993  32.195  28.662  1.00  0.00     0.051 A 
ATOM      6  C   UNL A   1      34.070  30.540  27.214  1.00  0.00     0.065 A 
ATOM      7  C   UNL A   1      33.930  31.729  27.890  1.00  0.00     0.042 A 
ATOM      8  N   UNL A   1      35.153  29.752  27.313  1.00  0.00    -0.248 NA
ATOM      9  C   UNL A   1      36.187  30.183  28.023  1.00  0.00     0.072 A 
ATOM     10  C   UNL A   1      36.201  31.436  28.666  1.00  0.00     0.013 A 
ATOM     11  C   UNL A   1      37.291  29.342  28.075  1.00  0.00     0.029 A 
ATOM     12  C   UNL A   1      37.452  31.820  29.182  1.00  0.00     0.011 A 
ATOM     13  C   UNL A   1      38.450  29.691  28.760  1.00  0.00     0.002 A 
ATOM     14  C   UNL A   1      38.537  30.953  29.306  1.00  0.00     0.001 A 
BRANCH   6  15
ATOM     15  C   UNL A   1      33.027  30.123  26.302  1.00  0.00     0.029 C 
ATOM     16  C   UNL A   1      32.670  28.844  26.137  1.00  0.00     0.014 C 
BRANCH  16  17
ATOM     17  C   UNL A   1      31.699  28.430  25.200  1.00  0.00     0.021 A 
ATOM     18  N   UNL A   1      30.310  28.503  23.550  1.00  0.00    -0.270 N 
ATOM     19  C   UNL A   1      31.118  29.287  24.303  1.00  0.00     0.117 A 
ATOM     20  N   UNL A   1      30.366  27.193  23.852  1.00  0.00    -0.172 NA
ATOM     21  C   UNL A   1      31.147  27.139  24.942  1.00  0.00     0.100 A 
BRANCH  18  22
ATOM     22  C   UNL A   1      29.437  28.985  22.505  1.00  0.00     0.159 C 
BRANCH  22  23
ATOM     23  C   UNL A   1      27.992  29.048  22.927  1.00  0.00     0.144 C 
BRANCH  23  24
ATOM     24  C   UNL A   1      27.574  30.465  23.283  1.00  0.00     0.064 C 
ATOM     25  N   UNL A   1      27.227  31.641  23.578  1.00  0.00    -0.198 NA
ENDBRANCH  23  24
ENDBRANCH  22  23
ENDBRANCH  18  22
BRANCH  21  26
ATOM     26  C   UNL A   1      31.403  25.889  25.658  1.00  0.00     0.003 A 
ATOM     27  C   UNL A   1      32.714  25.403  25.793  1.00  0.00     0.010 A 
ATOM     28  C   UNL A   1      30.334  25.095  26.087  1.00  0.00     0.010 A 
ATOM     29  C   UNL A   1      32.944  24.114  26.280  1.00  0.00     0.001 A 
ATOM     30  C   UNL A   1      30.567  23.807  26.577  1.00  0.00     0.001 A 
ATOM     31  C   UNL A   1      31.868  23.312  26.656  1.00  0.00     0.000 A 
ENDBRANCH  21  26
ENDBRANCH  16  17
ENDBRANCH   6  15
ENDBRANCH   1   5
BRANCH   3  32
ATOM     32  C   UNL A   1      34.533  32.731  31.830  1.00  0.00     0.118 C 
BRANCH  32  33
ATOM     33  C   UNL A   1      35.978  32.908  32.313  1.00  0.00     0.042 C 
BRANCH  33  34
ATOM     34  C   UNL A   1      36.683  31.620  32.610  1.00  0.00     0.118 C 
BRANCH  34  35
ATOM     35  N   UNL A   1      37.116  31.525  34.003  1.00  0.00    -0.352 N 
ATOM     36  C   UNL A   1      38.143  30.734  34.503  1.00  0.00     0.251 C 
ATOM     37  H   UNL A   1      36.628  32.079  34.655  1.00  0.00     0.163 HD
ATOM     38  O   UNL A   1      38.196  30.422  35.674  1.00  0.00    -0.269 OA
BRANCH  36  39
ATOM     39  C   UNL A   1      39.162  30.284  33.534  1.00  0.00     0.039 A 
ATOM     40  C   UNL A   1      40.263  31.054  33.168  1.00  0.00     0.014 A 
ATOM     41  C   UNL A   1      39.049  28.966  33.124  1.00  0.00     0.014 A 
ATOM     42  C   UNL A   1      41.269  30.428  32.436  1.00  0.00     0.010 A 
ATOM     43  C   UNL A   1      40.187  28.298  32.806  1.00  0.00     0.010 A 
ATOM     44  C   UNL A   1      41.226  29.030  32.284  1.00  0.00    -0.014 A 
BRANCH  44  45
ATOM     45  C   UNL A   1      42.268  28.259  31.634  1.00  0.00     0.031 A 
ATOM     46  C   UNL A   1      43.420  27.987  32.510  1.00  0.00     0.074 A 
ATOM     47  C   UNL A   1      42.138  27.698  30.410  1.00  0.00     0.049 A 
ATOM     48  N   UNL A   1      44.517  28.660  32.552  1.00  0.00    -0.248 NA
ATOM     49  C   UNL A   1      43.266  27.016  33.601  1.00  0.00     0.031 C 
ATOM     50  C   UNL A   1      40.960  27.590  29.536  1.00  0.00     0.029 A 
ATOM     51  N   UNL A   1      43.090  27.048  29.691  1.00  0.00    -0.354 N 
ATOM     52  C   UNL A   1      45.304  28.033  33.505  1.00  0.00     0.074 A 
ATOM     53  C   UNL A   1      44.412  27.196  34.265  1.00  0.00     0.031 C 
ATOM     54  C   UNL A   1      41.219  26.744  28.512  1.00  0.00     0.029 A 
ATOM     55  C   UNL A   1      42.628  26.405  28.547  1.00  0.00     0.049 A 
ATOM     56  H   UNL A   1      44.037  27.032  29.960  1.00  0.00     0.167 HD
ATOM     57  C   UNL A   1      46.659  28.055  33.383  1.00  0.00     0.037 A 
ATOM     58  C   UNL A   1      43.370  25.663  27.687  1.00  0.00     0.037 A 
ATOM     59  C   UNL A   1      47.066  29.039  32.402  1.00  0.00     0.049 A 
ATOM     60  C   UNL A   1      44.785  26.076  27.878  1.00  0.00     0.074 A 
ATOM     61  C   UNL A   1      46.902  30.405  32.271  1.00  0.00     0.029 A 
ATOM     62  N   UNL A   1      47.374  28.580  31.143  1.00  0.00    -0.354 N 
ATOM     63  N   UNL A   1      45.238  27.257  27.556  1.00  0.00    -0.248 NA
ATOM     64  C   UNL A   1      45.561  25.360  28.880  1.00  0.00     0.031 C 
ATOM     65  C   UNL A   1      46.637  30.614  30.884  1.00  0.00     0.029 A 
ATOM     66  C   UNL A   1      46.739  29.385  30.231  1.00  0.00     0.049 A 
ATOM     67  H   UNL A   1      47.949  27.809  30.932  1.00  0.00     0.167 HD
ATOM     68  C   UNL A   1      46.071  27.615  28.608  1.00  0.00     0.074 A 
ATOM     69  C   UNL A   1      46.288  26.376  29.356  1.00  0.00     0.031 C 
ATOM     70  C   UNL A   1      46.262  28.925  28.945  1.00  0.00     0.037 A 
BRANCH  57  71
ATOM     71  C   UNL A   1      47.572  26.933  33.809  1.00  0.00     0.057 A 
ATOM     72  C   UNL A   1      48.695  27.245  34.596  1.00  0.00     0.134 A 
ATOM     73  C   UNL A   1      47.573  25.638  33.252  1.00  0.00     0.134 A 
ATOM     74  F   UNL A   1      48.813  28.444  35.184  1.00  0.00    -0.206 F 
ATOM     75  C   UNL A   1      49.780  26.372  34.733  1.00  0.00     0.040 A 
ATOM     76  C   UNL A   1      48.629  24.741  33.424  1.00  0.00     0.040 A 
ATOM     77  F   UNL A   1      46.613  25.200  32.431  1.00  0.00    -0.206 F 
ATOM     78  C   UNL A   1      49.755  25.120  34.135  1.00  0.00     0.006 A 
ENDBRANCH  57  71
BRANCH  58  79
ATOM     79  C   UNL A   1      42.999  24.423  26.969  1.00  0.00     0.057 A 
ATOM     80  C   UNL A   1      43.265  24.268  25.600  1.00  0.00     0.134 A 
ATOM     81  C   UNL A   1      42.657  23.253  27.668  1.00  0.00     0.134 A 
ATOM     82  F   UNL A   1      43.637  25.319  24.857  1.00  0.00    -0.206 F 
ATOM     83  C   UNL A   1      43.229  23.016  24.970  1.00  0.00     0.040 A 
ATOM     84  C   UNL A   1      42.617  21.996  27.051  1.00  0.00     0.040 A 
ATOM     85  F   UNL A   1      42.445  23.275  28.991  1.00  0.00    -0.206 F 
ATOM     86  C   UNL A   1      42.920  21.872  25.700  1.00  0.00     0.006 A 
ENDBRANCH  58  79
BRANCH  70  87
ATOM     87  C   UNL A   1      45.744  29.977  27.996  1.00  0.00     0.057 A 
ATOM     88  C   UNL A   1      44.444  30.509  28.029  1.00  0.00     0.134 A 
ATOM     89  C   UNL A   1      46.643  30.580  27.111  1.00  0.00     0.134 A 
ATOM     90  F   UNL A   1      43.534  30.065  28.903  1.00  0.00    -0.206 F 
ATOM     91  C   UNL A   1      44.053  31.562  27.195  1.00  0.00     0.040 A 
ATOM     92  C   UNL A   1      46.275  31.652  26.295  1.00  0.00     0.040 A 
ATOM     93  F   UNL A   1      47.918  30.162  27.059  1.00  0.00    -0.206 F 
ATOM     94  C   UNL A   1      44.973  32.143  26.329  1.00  0.00     0.006 A 
ENDBRANCH  70  87
ENDBRANCH  44  45
ENDBRANCH  36  39
ENDBRANCH  34  35
ENDBRANCH  33  34
ENDBRANCH  32  33
ENDBRANCH   3  32
TORSDOF 16
ENDMDL
