MODEL 1
REMARK VINA RESULT:     -11.7      0.000      0.000
REMARK SMILES O=C(NCCCNC(=O)c1ccc(OC[C@H]2C[C@H]3CC[C@@H]2C3)c(Cl)c1)c1ccc(-c2c3nc(c(-c4c(F)cccc4F)c4ccc([nH]4)c(-c4c(F)cccc4F)c4nc(c(-c5c(F)cccc5F)c5ccc2[nH]5)C=C4)C=C3)cc1
REMARK SMILES IDX 5 1 4 2 3 3 1 4 2 5 26 7 27 8 79 9 28 10 78 11 29 12 30 13
REMARK SMILES IDX 31 14 72 15 32 16 77 17 71 18 73 19 33 20 76 21 70 22 69 23
REMARK SMILES IDX 34 25 60 26 43 27 59 28 44 29 47 30 58 31 74 32 45 33 46 34
REMARK SMILES IDX 57 36 75 37 48 38 35 39 36 40 41 41 37 42 38 43 40 44 42 45
REMARK SMILES IDX 39 46 61 47 62 48 67 49 63 50 64 51 66 52 68 53 65 54 49 55
REMARK SMILES IDX 50 56 55 57 51 58 52 59 54 60 56 61 53 62 6 63 7 64 8 65
REMARK SMILES IDX 9 67 10 68 11 69 25 70 12 71 23 72 13 73 24 74 14 75 15 76
REMARK SMILES IDX 16 77 17 78 21 79 18 80 20 81 22 82 19 83
REMARK H PARENT 3 6 73 24 47 35 7 66
REMARK Flexibility Score: inf
ROOT
ATOM      1  C   UNL A   1      37.457  19.707  24.978  1.00  0.00     0.042 C 
ENDROOT
BRANCH   1   2
ATOM      2  C   UNL A   1      38.722  20.362  25.515  1.00  0.00     0.118 C 
BRANCH   2   3
ATOM      3  N   UNL A   1      39.796  19.391  25.705  1.00  0.00    -0.352 N 
ATOM      4  O   UNL A   1      41.926  18.678  25.856  1.00  0.00    -0.269 OA
ATOM      5  C   UNL A   1      41.114  19.581  26.036  1.00  0.00     0.251 C 
ATOM      6  H   UNL A   1      39.532  18.452  25.575  1.00  0.00     0.163 HD
BRANCH   5   7
ATOM      7  C   UNL A   1      41.557  20.873  26.597  1.00  0.00     0.039 A 
ATOM      8  C   UNL A   1      41.519  21.090  27.973  1.00  0.00     0.014 A 
ATOM      9  C   UNL A   1      42.040  21.871  25.746  1.00  0.00     0.014 A 
ATOM     10  C   UNL A   1      41.772  22.356  28.479  1.00  0.00     0.010 A 
ATOM     11  C   UNL A   1      42.416  23.110  26.272  1.00  0.00     0.010 A 
ATOM     12  C   UNL A   1      42.243  23.378  27.638  1.00  0.00    -0.014 A 
BRANCH  12  13
ATOM     13  C   UNL A   1      42.575  24.696  28.238  1.00  0.00     0.031 A 
ATOM     14  C   UNL A   1      43.994  25.062  28.571  1.00  0.00     0.074 A 
ATOM     15  C   UNL A   1      41.582  25.589  28.421  1.00  0.00     0.049 A 
ATOM     16  N   UNL A   1      44.463  26.190  29.043  1.00  0.00    -0.248 NA
ATOM     17  C   UNL A   1      45.022  24.031  28.357  1.00  0.00     0.031 C 
ATOM     18  C   UNL A   1      40.165  25.342  28.144  1.00  0.00     0.029 A 
ATOM     19  N   UNL A   1      41.613  26.891  28.847  1.00  0.00    -0.354 N 
ATOM     20  C   UNL A   1      45.829  25.995  29.211  1.00  0.00     0.074 A 
ATOM     21  C   UNL A   1      46.111  24.634  28.813  1.00  0.00     0.031 C 
ATOM     22  C   UNL A   1      39.474  26.474  28.337  1.00  0.00     0.029 A 
ATOM     23  C   UNL A   1      40.385  27.505  28.820  1.00  0.00     0.049 A 
ATOM     24  H   UNL A   1      42.436  27.343  29.145  1.00  0.00     0.167 HD
ATOM     25  C   UNL A   1      46.760  26.875  29.651  1.00  0.00     0.037 A 
ATOM     26  C   UNL A   1      40.025  28.756  29.155  1.00  0.00     0.037 A 
ATOM     27  C   UNL A   1      46.475  28.239  30.019  1.00  0.00     0.049 A 
ATOM     28  C   UNL A   1      41.078  29.708  29.641  1.00  0.00     0.074 A 
ATOM     29  C   UNL A   1      47.356  29.220  30.441  1.00  0.00     0.029 A 
ATOM     30  N   UNL A   1      45.213  28.814  30.008  1.00  0.00    -0.354 N 
ATOM     31  N   UNL A   1      42.369  29.516  29.767  1.00  0.00    -0.248 NA
ATOM     32  C   UNL A   1      40.624  31.047  30.034  1.00  0.00     0.031 C 
ATOM     33  C   UNL A   1      46.620  30.376  30.728  1.00  0.00     0.029 A 
ATOM     34  C   UNL A   1      45.288  30.130  30.435  1.00  0.00     0.049 A 
ATOM     35  H   UNL A   1      44.385  28.355  29.737  1.00  0.00     0.167 HD
ATOM     36  C   UNL A   1      42.886  30.718  30.230  1.00  0.00     0.074 A 
ATOM     37  C   UNL A   1      41.771  31.636  30.346  1.00  0.00     0.031 C 
ATOM     38  C   UNL A   1      44.168  31.032  30.535  1.00  0.00     0.037 A 
BRANCH  25  39
ATOM     39  C   UNL A   1      48.174  26.385  29.782  1.00  0.00     0.057 A 
ATOM     40  C   UNL A   1      49.109  26.519  28.748  1.00  0.00     0.134 A 
ATOM     41  C   UNL A   1      48.615  25.801  30.978  1.00  0.00     0.134 A 
ATOM     42  F   UNL A   1      48.750  27.057  27.572  1.00  0.00    -0.206 F 
ATOM     43  C   UNL A   1      50.424  26.070  28.889  1.00  0.00     0.040 A 
ATOM     44  C   UNL A   1      49.934  25.373  31.140  1.00  0.00     0.040 A 
ATOM     45  F   UNL A   1      47.774  25.648  32.012  1.00  0.00    -0.206 F 
ATOM     46  C   UNL A   1      50.842  25.501  30.091  1.00  0.00     0.006 A 
ENDBRANCH  25  39
BRANCH  26  47
ATOM     47  C   UNL A   1      38.608  29.178  29.034  1.00  0.00     0.057 A 
ATOM     48  C   UNL A   1      37.745  29.140  30.135  1.00  0.00     0.134 A 
ATOM     49  C   UNL A   1      38.083  29.634  27.818  1.00  0.00     0.134 A 
ATOM     50  F   UNL A   1      38.184  28.698  31.323  1.00  0.00    -0.206 F 
ATOM     51  C   UNL A   1      36.408  29.526  30.029  1.00  0.00     0.040 A 
ATOM     52  C   UNL A   1      36.757  30.050  27.705  1.00  0.00     0.040 A 
ATOM     53  F   UNL A   1      38.862  29.704  26.729  1.00  0.00    -0.206 F 
ATOM     54  C   UNL A   1      35.913  29.988  28.811  1.00  0.00     0.006 A 
ENDBRANCH  26  47
BRANCH  38  55
ATOM     55  C   UNL A   1      44.434  32.441  30.977  1.00  0.00     0.057 A 
ATOM     56  C   UNL A   1      44.391  32.817  32.325  1.00  0.00     0.134 A 
ATOM     57  C   UNL A   1      44.747  33.431  30.038  1.00  0.00     0.134 A 
ATOM     58  F   UNL A   1      44.081  31.918  33.273  1.00  0.00    -0.206 F 
ATOM     59  C   UNL A   1      44.620  34.135  32.722  1.00  0.00     0.040 A 
ATOM     60  C   UNL A   1      45.006  34.747  30.423  1.00  0.00     0.040 A 
ATOM     61  F   UNL A   1      44.812  33.136  28.730  1.00  0.00    -0.206 F 
ATOM     62  C   UNL A   1      44.934  35.104  31.769  1.00  0.00     0.006 A 
ENDBRANCH  38  55
ENDBRANCH  12  13
ENDBRANCH   5   7
ENDBRANCH   2   3
ENDBRANCH   1   2
BRANCH   1  63
ATOM     63  C   UNL A   1      36.274  20.665  24.974  1.00  0.00     0.118 C 
BRANCH  63  64
ATOM     64  N   UNL A   1      35.024  19.937  25.096  1.00  0.00    -0.352 N 
ATOM     65  C   UNL A   1      33.776  20.477  25.250  1.00  0.00     0.251 C 
ATOM     66  H   UNL A   1      35.080  18.954  25.066  1.00  0.00     0.163 HD
ATOM     67  O   UNL A   1      32.823  19.807  25.620  1.00  0.00    -0.269 OA
BRANCH  65  68
ATOM     68  C   UNL A   1      33.598  21.900  24.935  1.00  0.00     0.041 A 
ATOM     69  C   UNL A   1      33.631  22.827  25.977  1.00  0.00     0.018 A 
ATOM     70  C   UNL A   1      33.440  22.306  23.612  1.00  0.00     0.038 A 
ATOM     71  C   UNL A   1      33.617  24.183  25.675  1.00  0.00     0.049 A 
ATOM     72  C   UNL A   1      33.404  23.672  23.319  1.00  0.00     0.083 A 
ATOM     73  C   UNL A   1      33.623  24.607  24.341  1.00  0.00     0.137 A 
ATOM     74  Cl  UNL A   1      33.067  24.117  21.685  1.00  0.00    -0.080 Cl
BRANCH  73  75
ATOM     75  O   UNL A   1      33.862  25.944  24.189  1.00  0.00    -0.492 OA
BRANCH  75  76
ATOM     76  C   UNL A   1      32.713  26.785  24.021  1.00  0.00     0.233 C 
BRANCH  76  77
ATOM     77  C   UNL A   1      32.772  28.231  24.551  1.00  0.00     0.030 C 
ATOM     78  C   UNL A   1      31.477  28.995  24.879  1.00  0.00     0.011 C 
ATOM     79  C   UNL A   1      33.643  28.483  25.816  1.00  0.00    -0.004 C 
ATOM     80  C   UNL A   1      31.794  29.649  26.243  1.00  0.00    -0.010 C 
ATOM     81  C   UNL A   1      33.088  27.804  27.073  1.00  0.00     0.004 C 
ATOM     82  C   UNL A   1      33.289  29.942  26.123  1.00  0.00     0.007 C 
ATOM     83  C   UNL A   1      31.786  28.570  27.338  1.00  0.00     0.004 C 
ENDBRANCH  76  77
ENDBRANCH  75  76
ENDBRANCH  73  75
ENDBRANCH  65  68
ENDBRANCH  63  64
ENDBRANCH   1  63
TORSDOF 13
ENDMDL
MODEL 2
REMARK VINA RESULT:     -11.7      4.398      9.233
REMARK SMILES O=C(NCCCNC(=O)c1ccc(OC[C@H]2C[C@H]3CC[C@@H]2C3)c(Cl)c1)c1ccc(-c2c3nc(c(-c4c(F)cccc4F)c4ccc([nH]4)c(-c4c(F)cccc4F)c4nc(c(-c5c(F)cccc5F)c5ccc2[nH]5)C=C4)C=C3)cc1
REMARK SMILES IDX 5 1 4 2 3 3 1 4 2 5 26 7 27 8 79 9 28 10 78 11 29 12 30 13
REMARK SMILES IDX 31 14 72 15 32 16 77 17 71 18 73 19 33 20 76 21 70 22 69 23
REMARK SMILES IDX 34 25 60 26 43 27 59 28 44 29 47 30 58 31 74 32 45 33 46 34
REMARK SMILES IDX 57 36 75 37 48 38 35 39 36 40 41 41 37 42 38 43 40 44 42 45
REMARK SMILES IDX 39 46 61 47 62 48 67 49 63 50 64 51 66 52 68 53 65 54 49 55
REMARK SMILES IDX 50 56 55 57 51 58 52 59 54 60 56 61 53 62 6 63 7 64 8 65
REMARK SMILES IDX 9 67 10 68 11 69 25 70 12 71 23 72 13 73 24 74 14 75 15 76
REMARK SMILES IDX 16 77 17 78 21 79 18 80 20 81 22 82 19 83
REMARK H PARENT 3 6 73 24 47 35 7 66
REMARK Flexibility Score: inf
ROOT
ATOM      1  C   UNL A   1      30.879  31.397  25.989  1.00  0.00     0.042 C 
ENDROOT
BRANCH   1   2
ATOM      2  C   UNL A   1      32.207  31.835  26.592  1.00  0.00     0.118 C 
BRANCH   2   3
ATOM      3  N   UNL A   1      32.173  33.231  27.017  1.00  0.00    -0.352 N 
ATOM      4  O   UNL A   1      32.529  34.974  28.398  1.00  0.00    -0.269 OA
ATOM      5  C   UNL A   1      32.904  33.883  27.979  1.00  0.00     0.251 C 
ATOM      6  H   UNL A   1      31.521  33.794  26.539  1.00  0.00     0.163 HD
BRANCH   5   7
ATOM      7  C   UNL A   1      34.135  33.268  28.515  1.00  0.00     0.039 A 
ATOM      8  C   UNL A   1      34.086  32.011  29.117  1.00  0.00     0.014 A 
ATOM      9  C   UNL A   1      35.356  33.937  28.395  1.00  0.00     0.014 A 
ATOM     10  C   UNL A   1      35.205  31.514  29.768  1.00  0.00     0.010 A 
ATOM     11  C   UNL A   1      36.512  33.375  28.943  1.00  0.00     0.010 A 
ATOM     12  C   UNL A   1      36.437  32.180  29.674  1.00  0.00    -0.014 A 
BRANCH  12  13
ATOM     13  C   UNL A   1      37.626  31.569  30.322  1.00  0.00     0.031 A 
ATOM     14  C   UNL A   1      37.953  31.845  31.763  1.00  0.00     0.074 A 
ATOM     15  C   UNL A   1      38.377  30.707  29.608  1.00  0.00     0.049 A 
ATOM     16  N   UNL A   1      38.918  31.348  32.496  1.00  0.00    -0.248 NA
ATOM     17  C   UNL A   1      37.098  32.808  32.473  1.00  0.00     0.031 C 
ATOM     18  C   UNL A   1      38.163  30.370  28.198  1.00  0.00     0.029 A 
ATOM     19  N   UNL A   1      39.446  29.932  29.973  1.00  0.00    -0.354 N 
ATOM     20  C   UNL A   1      38.804  31.958  33.740  1.00  0.00     0.074 A 
ATOM     21  C   UNL A   1      37.692  32.879  33.656  1.00  0.00     0.031 C 
ATOM     22  C   UNL A   1      39.021  29.405  27.839  1.00  0.00     0.029 A 
ATOM     23  C   UNL A   1      39.894  29.109  28.969  1.00  0.00     0.049 A 
ATOM     24  H   UNL A   1      39.855  29.961  30.869  1.00  0.00     0.167 HD
ATOM     25  C   UNL A   1      39.555  31.760  34.849  1.00  0.00     0.037 A 
ATOM     26  C   UNL A   1      40.901  28.218  28.952  1.00  0.00     0.037 A 
ATOM     27  C   UNL A   1      40.644  30.820  34.933  1.00  0.00     0.049 A 
ATOM     28  C   UNL A   1      41.717  28.022  30.196  1.00  0.00     0.074 A 
ATOM     29  C   UNL A   1      41.442  30.519  36.024  1.00  0.00     0.029 A 
ATOM     30  N   UNL A   1      41.087  30.027  33.885  1.00  0.00    -0.354 N 
ATOM     31  N   UNL A   1      41.578  28.586  31.371  1.00  0.00    -0.248 NA
ATOM     32  C   UNL A   1      42.831  27.070  30.108  1.00  0.00     0.031 C 
ATOM     33  C   UNL A   1      42.396  29.578  35.623  1.00  0.00     0.029 A 
ATOM     34  C   UNL A   1      42.160  29.253  34.297  1.00  0.00     0.049 A 
ATOM     35  H   UNL A   1      40.697  30.016  32.981  1.00  0.00     0.167 HD
ATOM     36  C   UNL A   1      42.571  28.039  32.172  1.00  0.00     0.074 A 
ATOM     37  C   UNL A   1      43.292  27.087  31.352  1.00  0.00     0.031 C 
ATOM     38  C   UNL A   1      42.860  28.303  33.469  1.00  0.00     0.037 A 
BRANCH  25  39
ATOM     39  C   UNL A   1      39.242  32.594  36.060  1.00  0.00     0.057 A 
ATOM     40  C   UNL A   1      39.791  33.868  36.251  1.00  0.00     0.134 A 
ATOM     41  C   UNL A   1      38.347  32.126  37.032  1.00  0.00     0.134 A 
ATOM     42  F   UNL A   1      40.665  34.372  35.365  1.00  0.00    -0.206 F 
ATOM     43  C   UNL A   1      39.481  34.637  37.375  1.00  0.00     0.040 A 
ATOM     44  C   UNL A   1      38.008  32.896  38.146  1.00  0.00     0.040 A 
ATOM     45  F   UNL A   1      37.778  30.917  36.909  1.00  0.00    -0.206 F 
ATOM     46  C   UNL A   1      38.581  34.154  38.323  1.00  0.00     0.006 A 
ENDBRANCH  25  39
BRANCH  26  47
ATOM     47  C   UNL A   1      41.185  27.443  27.719  1.00  0.00     0.057 A 
ATOM     48  C   UNL A   1      42.027  27.950  26.723  1.00  0.00     0.134 A 
ATOM     49  C   UNL A   1      40.628  26.175  27.509  1.00  0.00     0.134 A 
ATOM     50  F   UNL A   1      42.578  29.165  26.858  1.00  0.00    -0.206 F 
ATOM     51  C   UNL A   1      42.292  27.233  25.556  1.00  0.00     0.040 A 
ATOM     52  C   UNL A   1      40.907  25.435  26.361  1.00  0.00     0.040 A 
ATOM     53  F   UNL A   1      39.822  25.630  28.431  1.00  0.00    -0.206 F 
ATOM     54  C   UNL A   1      41.735  25.968  25.376  1.00  0.00     0.006 A 
ENDBRANCH  26  47
BRANCH  38  55
ATOM     55  C   UNL A   1      43.977  27.515  34.088  1.00  0.00     0.057 A 
ATOM     56  C   UNL A   1      45.298  27.977  34.093  1.00  0.00     0.134 A 
ATOM     57  C   UNL A   1      43.720  26.281  34.697  1.00  0.00     0.134 A 
ATOM     58  F   UNL A   1      45.613  29.146  33.512  1.00  0.00    -0.206 F 
ATOM     59  C   UNL A   1      46.331  27.226  34.654  1.00  0.00     0.040 A 
ATOM     60  C   UNL A   1      44.738  25.532  35.287  1.00  0.00     0.040 A 
ATOM     61  F   UNL A   1      42.473  25.784  34.734  1.00  0.00    -0.206 F 
ATOM     62  C   UNL A   1      46.051  26.001  35.258  1.00  0.00     0.006 A 
ENDBRANCH  38  55
ENDBRANCH  12  13
ENDBRANCH   5   7
ENDBRANCH   2   3
ENDBRANCH   1   2
BRANCH   1  63
ATOM     63  C   UNL A   1      31.056  30.289  24.959  1.00  0.00     0.118 C 
BRANCH  63  64
ATOM     64  N   UNL A   1      30.115  30.451  23.865  1.00  0.00    -0.352 N 
ATOM     65  C   UNL A   1      29.868  29.554  22.862  1.00  0.00     0.251 C 
ATOM     66  H   UNL A   1      29.604  31.292  23.843  1.00  0.00     0.163 HD
ATOM     67  O   UNL A   1      29.277  29.874  21.840  1.00  0.00    -0.269 OA
BRANCH  65  68
ATOM     68  C   UNL A   1      30.317  28.169  23.051  1.00  0.00     0.041 A 
ATOM     69  C   UNL A   1      29.570  27.328  23.876  1.00  0.00     0.018 A 
ATOM     70  C   UNL A   1      31.447  27.706  22.381  1.00  0.00     0.038 A 
ATOM     71  C   UNL A   1      29.898  25.980  23.940  1.00  0.00     0.049 A 
ATOM     72  C   UNL A   1      31.783  26.353  22.469  1.00  0.00     0.083 A 
ATOM     73  C   UNL A   1      30.930  25.468  23.145  1.00  0.00     0.137 A 
ATOM     74  Cl  UNL A   1      33.267  25.862  21.734  1.00  0.00    -0.080 Cl
BRANCH  73  75
ATOM     75  O   UNL A   1      30.979  24.103  23.117  1.00  0.00    -0.492 OA
BRANCH  75  76
ATOM     76  C   UNL A   1      31.035  23.437  24.386  1.00  0.00     0.233 C 
BRANCH  76  77
ATOM     77  C   UNL A   1      32.416  23.157  25.013  1.00  0.00     0.030 C 
ATOM     78  C   UNL A   1      33.698  23.323  24.179  1.00  0.00     0.011 C 
ATOM     79  C   UNL A   1      32.762  23.919  26.324  1.00  0.00    -0.004 C 
ATOM     80  C   UNL A   1      34.640  24.085  25.138  1.00  0.00    -0.010 C 
ATOM     81  C   UNL A   1      32.911  25.431  26.119  1.00  0.00     0.004 C 
ATOM     82  C   UNL A   1      34.234  23.530  26.502  1.00  0.00     0.007 C 
ATOM     83  C   UNL A   1      34.173  25.545  25.256  1.00  0.00     0.004 C 
ENDBRANCH  76  77
ENDBRANCH  75  76
ENDBRANCH  73  75
ENDBRANCH  65  68
ENDBRANCH  63  64
ENDBRANCH   1  63
TORSDOF 13
ENDMDL
MODEL 3
REMARK VINA RESULT:     -11.7      4.222      9.277
REMARK SMILES O=C(NCCCNC(=O)c1ccc(OC[C@H]2C[C@H]3CC[C@@H]2C3)c(Cl)c1)c1ccc(-c2c3nc(c(-c4c(F)cccc4F)c4ccc([nH]4)c(-c4c(F)cccc4F)c4nc(c(-c5c(F)cccc5F)c5ccc2[nH]5)C=C4)C=C3)cc1
REMARK SMILES IDX 5 1 4 2 3 3 1 4 2 5 26 7 27 8 79 9 28 10 78 11 29 12 30 13
REMARK SMILES IDX 31 14 72 15 32 16 77 17 71 18 73 19 33 20 76 21 70 22 69 23
REMARK SMILES IDX 34 25 60 26 43 27 59 28 44 29 47 30 58 31 74 32 45 33 46 34
REMARK SMILES IDX 57 36 75 37 48 38 35 39 36 40 41 41 37 42 38 43 40 44 42 45
REMARK SMILES IDX 39 46 61 47 62 48 67 49 63 50 64 51 66 52 68 53 65 54 49 55
REMARK SMILES IDX 50 56 55 57 51 58 52 59 54 60 56 61 53 62 6 63 7 64 8 65
REMARK SMILES IDX 9 67 10 68 11 69 25 70 12 71 23 72 13 73 24 74 14 75 15 76
REMARK SMILES IDX 16 77 17 78 21 79 18 80 20 81 22 82 19 83
REMARK H PARENT 3 6 73 24 47 35 7 66
REMARK Flexibility Score: inf
ROOT
ATOM      1  C   UNL A   1      31.451  32.034  26.884  1.00  0.00     0.042 C 
ENDROOT
BRANCH   1   2
ATOM      2  C   UNL A   1      32.639  32.977  26.749  1.00  0.00     0.118 C 
BRANCH   2   3
ATOM      3  N   UNL A   1      32.468  34.181  27.556  1.00  0.00    -0.352 N 
ATOM      4  O   UNL A   1      32.588  35.455  29.409  1.00  0.00    -0.269 OA
ATOM      5  C   UNL A   1      33.075  34.557  28.728  1.00  0.00     0.251 C 
ATOM      6  H   UNL A   1      31.813  34.826  27.203  1.00  0.00     0.163 HD
BRANCH   5   7
ATOM      7  C   UNL A   1      34.306  33.875  29.175  1.00  0.00     0.039 A 
ATOM      8  C   UNL A   1      34.227  32.757  30.004  1.00  0.00     0.014 A 
ATOM      9  C   UNL A   1      35.553  34.336  28.742  1.00  0.00     0.014 A 
ATOM     10  C   UNL A   1      35.382  32.226  30.557  1.00  0.00     0.010 A 
ATOM     11  C   UNL A   1      36.719  33.718  29.202  1.00  0.00     0.010 A 
ATOM     12  C   UNL A   1      36.644  32.686  30.148  1.00  0.00    -0.014 A 
BRANCH  12  13
ATOM     13  C   UNL A   1      37.855  32.033  30.709  1.00  0.00     0.031 A 
ATOM     14  C   UNL A   1      38.357  32.376  32.083  1.00  0.00     0.074 A 
ATOM     15  C   UNL A   1      38.464  31.074  29.983  1.00  0.00     0.049 A 
ATOM     16  N   UNL A   1      39.363  31.858  32.744  1.00  0.00    -0.248 NA
ATOM     17  C   UNL A   1      37.651  33.443  32.810  1.00  0.00     0.031 C 
ATOM     18  C   UNL A   1      38.073  30.663  28.632  1.00  0.00     0.029 A 
ATOM     19  N   UNL A   1      39.513  30.248  30.288  1.00  0.00    -0.354 N 
ATOM     20  C   UNL A   1      39.428  32.553  33.946  1.00  0.00     0.074 A 
ATOM     21  C   UNL A   1      38.376  33.546  33.915  1.00  0.00     0.031 C 
ATOM     22  C   UNL A   1      38.821  29.618  28.254  1.00  0.00     0.029 A 
ATOM     23  C   UNL A   1      39.792  29.331  29.303  1.00  0.00     0.049 A 
ATOM     24  H   UNL A   1      40.020  30.305  31.131  1.00  0.00     0.167 HD
ATOM     25  C   UNL A   1      40.282  32.373  34.981  1.00  0.00     0.037 A 
ATOM     26  C   UNL A   1      40.730  28.370  29.244  1.00  0.00     0.037 A 
ATOM     27  C   UNL A   1      41.310  31.363  35.016  1.00  0.00     0.049 A 
ATOM     28  C   UNL A   1      41.664  28.196  30.404  1.00  0.00     0.074 A 
ATOM     29  C   UNL A   1      42.202  31.075  36.035  1.00  0.00     0.029 A 
ATOM     30  N   UNL A   1      41.580  30.474  33.986  1.00  0.00    -0.354 N 
ATOM     31  N   UNL A   1      41.694  28.842  31.544  1.00  0.00    -0.248 NA
ATOM     32  C   UNL A   1      42.696  27.161  30.268  1.00  0.00     0.031 C 
ATOM     33  C   UNL A   1      43.042  30.043  35.604  1.00  0.00     0.029 A 
ATOM     34  C   UNL A   1      42.639  29.651  34.337  1.00  0.00     0.049 A 
ATOM     35  H   UNL A   1      41.093  30.433  33.132  1.00  0.00     0.167 HD
ATOM     36  C   UNL A   1      42.731  28.277  32.272  1.00  0.00     0.074 A 
ATOM     37  C   UNL A   1      43.293  27.224  31.451  1.00  0.00     0.031 C 
ATOM     38  C   UNL A   1      43.179  28.602  33.509  1.00  0.00     0.037 A 
BRANCH  25  39
ATOM     39  C   UNL A   1      40.161  33.303  36.155  1.00  0.00     0.057 A 
ATOM     40  C   UNL A   1      39.313  33.034  37.236  1.00  0.00     0.134 A 
ATOM     41  C   UNL A   1      40.934  34.470  36.218  1.00  0.00     0.134 A 
ATOM     42  F   UNL A   1      38.534  31.940  37.234  1.00  0.00    -0.206 F 
ATOM     43  C   UNL A   1      39.219  33.902  38.326  1.00  0.00     0.040 A 
ATOM     44  C   UNL A   1      40.870  35.332  37.315  1.00  0.00     0.040 A 
ATOM     45  F   UNL A   1      41.773  34.787  35.220  1.00  0.00    -0.206 F 
ATOM     46  C   UNL A   1      40.005  35.052  38.371  1.00  0.00     0.006 A 
ENDBRANCH  25  39
BRANCH  26  47
ATOM     47  C   UNL A   1      40.824  27.499  28.046  1.00  0.00     0.057 A 
ATOM     48  C   UNL A   1      40.130  26.285  27.978  1.00  0.00     0.134 A 
ATOM     49  C   UNL A   1      41.603  27.860  26.940  1.00  0.00     0.134 A 
ATOM     50  F   UNL A   1      39.380  25.876  29.011  1.00  0.00    -0.206 F 
ATOM     51  C   UNL A   1      40.220  25.455  26.859  1.00  0.00     0.040 A 
ATOM     52  C   UNL A   1      41.679  27.054  25.805  1.00  0.00     0.040 A 
ATOM     53  F   UNL A   1      42.283  29.016  26.940  1.00  0.00    -0.206 F 
ATOM     54  C   UNL A   1      40.993  25.843  25.766  1.00  0.00     0.006 A 
ENDBRANCH  26  47
BRANCH  38  55
ATOM     55  C   UNL A   1      44.304  27.776  34.061  1.00  0.00     0.057 A 
ATOM     56  C   UNL A   1      44.077  26.583  34.758  1.00  0.00     0.134 A 
ATOM     57  C   UNL A   1      45.633  28.178  33.880  1.00  0.00     0.134 A 
ATOM     58  F   UNL A   1      42.825  26.151  34.979  1.00  0.00    -0.206 F 
ATOM     59  C   UNL A   1      45.131  25.834  35.284  1.00  0.00     0.040 A 
ATOM     60  C   UNL A   1      46.697  27.424  34.375  1.00  0.00     0.040 A 
ATOM     61  F   UNL A   1      45.920  29.307  33.214  1.00  0.00    -0.206 F 
ATOM     62  C   UNL A   1      46.446  26.252  35.088  1.00  0.00     0.006 A 
ENDBRANCH  38  55
ENDBRANCH  12  13
ENDBRANCH   5   7
ENDBRANCH   2   3
ENDBRANCH   1   2
BRANCH   1  63
ATOM     63  C   UNL A   1      31.871  30.572  26.822  1.00  0.00     0.118 C 
BRANCH  63  64
ATOM     64  N   UNL A   1      33.264  30.422  27.200  1.00  0.00    -0.352 N 
ATOM     65  C   UNL A   1      34.029  29.296  27.066  1.00  0.00     0.251 C 
ATOM     66  H   UNL A   1      33.703  31.211  27.594  1.00  0.00     0.163 HD
ATOM     67  O   UNL A   1      35.093  29.164  27.654  1.00  0.00    -0.269 OA
BRANCH  65  68
ATOM     68  C   UNL A   1      33.547  28.238  26.168  1.00  0.00     0.041 A 
ATOM     69  C   UNL A   1      33.816  28.343  24.803  1.00  0.00     0.018 A 
ATOM     70  C   UNL A   1      32.870  27.138  26.689  1.00  0.00     0.038 A 
ATOM     71  C   UNL A   1      33.500  27.278  23.970  1.00  0.00     0.049 A 
ATOM     72  C   UNL A   1      32.535  26.081  25.839  1.00  0.00     0.083 A 
ATOM     73  C   UNL A   1      32.967  26.099  24.505  1.00  0.00     0.137 A 
ATOM     74  Cl  UNL A   1      31.577  24.809  26.507  1.00  0.00    -0.080 Cl
BRANCH  73  75
ATOM     75  O   UNL A   1      32.941  25.056  23.623  1.00  0.00    -0.492 OA
BRANCH  75  76
ATOM     76  C   UNL A   1      34.196  24.675  23.043  1.00  0.00     0.233 C 
BRANCH  76  77
ATOM     77  C   UNL A   1      34.856  23.361  23.508  1.00  0.00     0.030 C 
ATOM     78  C   UNL A   1      36.293  23.016  23.081  1.00  0.00     0.011 C 
ATOM     79  C   UNL A   1      34.883  23.089  25.040  1.00  0.00    -0.004 C 
ATOM     80  C   UNL A   1      36.937  22.520  24.395  1.00  0.00    -0.010 C 
ATOM     81  C   UNL A   1      35.773  24.072  25.809  1.00  0.00     0.004 C 
ATOM     82  C   UNL A   1      35.764  21.836  25.094  1.00  0.00     0.007 C 
ATOM     83  C   UNL A   1      37.184  23.718  25.325  1.00  0.00     0.004 C 
ENDBRANCH  76  77
ENDBRANCH  75  76
ENDBRANCH  73  75
ENDBRANCH  65  68
ENDBRANCH  63  64
ENDBRANCH   1  63
TORSDOF 13
ENDMDL
