MODEL 1
REMARK VINA RESULT:     -12.1      0.000      0.000
REMARK SMILES CCCC[C@@H](NS(=O)(=O)c1cc2c3c(c1)c(C)cc(=O)n3CC2)C(=O)NCCCNC(=O)c1ccc(-c2c3nc(c(-c4c(F)cccc4F)c4ccc([nH]4)c(-c4c(F)cccc4F)c4nc(c(-c5c(F)cccc5F)c5ccc2[nH]5)C=C4)C=C3)cc1
REMARK SMILES IDX 27 1 26 2 24 3 25 4 5 6 4 7 3 8 2 9 1 10 6 11 7 13 8 14 9 15
REMARK SMILES IDX 10 16 11 17 15 18 12 19 14 20 13 21 23 22 16 23 21 24 22 25
REMARK SMILES IDX 17 26 18 27 19 28 20 29 28 30 29 31 30 32 31 33 32 35 33 36
REMARK SMILES IDX 34 37 86 38 35 39 85 40 36 41 37 42 38 43 79 44 39 45 84 46
REMARK SMILES IDX 78 47 80 48 40 49 83 50 77 51 76 52 41 54 67 55 50 56 66 57
REMARK SMILES IDX 51 58 54 59 65 60 81 61 52 62 53 63 64 65 82 66 55 67 42 68
REMARK SMILES IDX 43 69 48 70 44 71 45 72 47 73 49 74 46 75 68 76 69 77 74 78
REMARK SMILES IDX 70 79 71 80 73 81 75 82 72 83 56 84 57 85 62 86 58 87 59 88
REMARK SMILES IDX 61 89 63 90 60 91
REMARK H PARENT 26 5 6 12 30 34 80 53 54 64
REMARK Flexibility Score: inf
ROOT
ATOM      1  C   UNL A   1      35.909  20.698  25.152  1.00  0.00     0.117 C 
ENDROOT
BRANCH   1   2
ATOM      2  N   UNL A   1      34.730  19.852  25.231  1.00  0.00    -0.355 N 
ATOM      3  C   UNL A   1      33.425  20.201  25.407  1.00  0.00     0.238 C 
ATOM      4  O   UNL A   1      32.638  19.336  25.797  1.00  0.00    -0.273 OA
ATOM      5  H   UNL A   1      34.900  18.886  25.146  1.00  0.00     0.163 HD
BRANCH   3   6
ATOM      6  C   UNL A   1      32.954  21.627  25.134  1.00  0.00     0.159 C 
BRANCH   6   7
ATOM      7  C   UNL A   1      32.949  21.821  23.610  1.00  0.00     0.030 C 
BRANCH   7   8
ATOM      8  C   UNL A   1      32.234  23.071  23.100  1.00  0.00     0.002 C 
BRANCH   8   9
ATOM      9  C   UNL A   1      33.120  24.104  22.403  1.00  0.00    -0.003 C 
ATOM     10  C   UNL A   1      32.342  25.188  21.674  1.00  0.00     0.004 C 
ENDBRANCH   8   9
ENDBRANCH   7   8
ENDBRANCH   6   7
BRANCH   6  11
ATOM     11  N   UNL A   1      31.633  21.892  25.748  1.00  0.00    -0.199 NA
ATOM     12  H   UNL A   1      31.312  21.009  26.147  1.00  0.00     0.142 HD
BRANCH  11  13
ATOM     13  S   UNL A   1      31.484  23.058  26.959  1.00  0.00     0.241 S 
ATOM     14  O   UNL A   1      30.157  22.948  27.515  1.00  0.00    -0.207 OA
ATOM     15  O   UNL A   1      32.661  22.892  27.786  1.00  0.00    -0.207 OA
BRANCH  13  16
ATOM     16  C   UNL A   1      31.629  24.629  26.132  1.00  0.00     0.083 A 
ATOM     17  C   UNL A   1      32.876  25.276  26.036  1.00  0.00     0.027 A 
ATOM     18  C   UNL A   1      30.454  25.192  25.568  1.00  0.00     0.032 A 
ATOM     19  C   UNL A   1      32.935  26.449  25.302  1.00  0.00    -0.020 A 
ATOM     20  C   UNL A   1      30.535  26.332  24.771  1.00  0.00     0.003 A 
ATOM     21  C   UNL A   1      31.784  26.920  24.684  1.00  0.00     0.055 A 
ATOM     22  C   UNL A   1      34.090  27.355  24.988  1.00  0.00     0.060 C 
ATOM     23  C   UNL A   1      29.453  26.934  23.970  1.00  0.00    -0.036 A 
ATOM     24  N   UNL A   1      32.044  28.048  23.923  1.00  0.00    -0.308 N 
ATOM     25  C   UNL A   1      33.447  28.423  24.065  1.00  0.00     0.131 C 
ATOM     26  C   UNL A   1      28.094  26.302  23.968  1.00  0.00     0.045 C 
ATOM     27  C   UNL A   1      29.732  28.024  23.222  1.00  0.00     0.075 A 
ATOM     28  C   UNL A   1      31.086  28.662  23.166  1.00  0.00     0.251 A 
ATOM     29  O   UNL A   1      31.277  29.648  22.463  1.00  0.00    -0.269 OA
ENDBRANCH  13  16
ENDBRANCH  11  13
ENDBRANCH   6  11
ENDBRANCH   3   6
ENDBRANCH   1   2
BRANCH   1  30
ATOM     30  C   UNL A   1      37.131  19.836  24.876  1.00  0.00     0.042 C 
BRANCH  30  31
ATOM     31  C   UNL A   1      38.398  20.445  25.457  1.00  0.00     0.118 C 
BRANCH  31  32
ATOM     32  N   UNL A   1      39.435  19.442  25.650  1.00  0.00    -0.352 N 
ATOM     33  C   UNL A   1      40.738  19.630  26.033  1.00  0.00     0.251 C 
ATOM     34  H   UNL A   1      39.167  18.508  25.483  1.00  0.00     0.163 HD
ATOM     35  O   UNL A   1      41.561  18.729  25.927  1.00  0.00    -0.269 OA
BRANCH  33  36
ATOM     36  C   UNL A   1      41.128  20.949  26.562  1.00  0.00     0.039 A 
ATOM     37  C   UNL A   1      41.039  21.188  27.933  1.00  0.00     0.014 A 
ATOM     38  C   UNL A   1      41.619  21.927  25.690  1.00  0.00     0.014 A 
ATOM     39  C   UNL A   1      41.488  22.406  28.441  1.00  0.00     0.010 A 
ATOM     40  C   UNL A   1      42.132  23.109  26.206  1.00  0.00     0.010 A 
ATOM     41  C   UNL A   1      42.053  23.365  27.583  1.00  0.00    -0.014 A 
BRANCH  41  42
ATOM     42  C   UNL A   1      42.504  24.677  28.099  1.00  0.00     0.031 A 
ATOM     43  C   UNL A   1      41.497  25.775  28.286  1.00  0.00     0.074 A 
ATOM     44  C   UNL A   1      43.807  24.890  28.358  1.00  0.00     0.049 A 
ATOM     45  N   UNL A   1      41.679  27.005  28.691  1.00  0.00    -0.248 NA
ATOM     46  C   UNL A   1      40.099  25.450  27.954  1.00  0.00     0.031 C 
ATOM     47  C   UNL A   1      44.878  23.906  28.190  1.00  0.00     0.029 A 
ATOM     48  N   UNL A   1      44.451  26.011  28.812  1.00  0.00    -0.354 N 
ATOM     49  C   UNL A   1      40.423  27.595  28.670  1.00  0.00     0.074 A 
ATOM     50  C   UNL A   1      39.499  26.615  28.146  1.00  0.00     0.031 C 
ATOM     51  C   UNL A   1      46.044  24.464  28.554  1.00  0.00     0.029 A 
ATOM     52  C   UNL A   1      45.808  25.850  28.946  1.00  0.00     0.049 A 
ATOM     53  H   UNL A   1      43.984  26.852  29.023  1.00  0.00     0.167 HD
ATOM     54  C   UNL A   1      40.065  28.836  29.077  1.00  0.00     0.037 A 
ATOM     55  C   UNL A   1      46.750  26.731  29.334  1.00  0.00     0.037 A 
ATOM     56  C   UNL A   1      40.989  29.812  29.588  1.00  0.00     0.049 A 
ATOM     57  C   UNL A   1      46.333  28.129  29.711  1.00  0.00     0.074 A 
ATOM     58  C   UNL A   1      40.727  31.087  30.055  1.00  0.00     0.029 A 
ATOM     59  N   UNL A   1      42.360  29.624  29.686  1.00  0.00    -0.354 N 
ATOM     60  N   UNL A   1      45.133  28.656  29.754  1.00  0.00    -0.248 NA
ATOM     61  C   UNL A   1      47.408  29.054  30.098  1.00  0.00     0.031 C 
ATOM     62  C   UNL A   1      41.946  31.691  30.380  1.00  0.00     0.029 A 
ATOM     63  C   UNL A   1      42.961  30.771  30.176  1.00  0.00     0.049 A 
ATOM     64  H   UNL A   1      42.835  28.796  29.443  1.00  0.00     0.167 HD
ATOM     65  C   UNL A   1      45.304  29.960  30.203  1.00  0.00     0.074 A 
ATOM     66  C   UNL A   1      46.723  30.136  30.438  1.00  0.00     0.031 C 
ATOM     67  C   UNL A   1      44.376  30.927  30.404  1.00  0.00     0.037 A 
BRANCH  54  68
ATOM     68  C   UNL A   1      38.612  29.198  28.976  1.00  0.00     0.057 A 
ATOM     69  C   UNL A   1      38.070  29.659  27.770  1.00  0.00     0.134 A 
ATOM     70  C   UNL A   1      37.747  29.097  30.075  1.00  0.00     0.134 A 
ATOM     71  F   UNL A   1      38.841  29.782  26.679  1.00  0.00    -0.206 F 
ATOM     72  C   UNL A   1      36.722  30.004  27.660  1.00  0.00     0.040 A 
ATOM     73  C   UNL A   1      36.391  29.409  29.969  1.00  0.00     0.040 A 
ATOM     74  F   UNL A   1      38.198  28.647  31.256  1.00  0.00    -0.206 F 
ATOM     75  C   UNL A   1      35.876  29.870  28.759  1.00  0.00     0.006 A 
ENDBRANCH  54  68
BRANCH  55  76
ATOM     76  C   UNL A   1      48.180  26.333  29.394  1.00  0.00     0.057 A 
ATOM     77  C   UNL A   1      48.731  25.751  30.541  1.00  0.00     0.134 A 
ATOM     78  C   UNL A   1      49.015  26.474  28.279  1.00  0.00     0.134 A 
ATOM     79  F   UNL A   1      47.987  25.594  31.646  1.00  0.00    -0.206 F 
ATOM     80  C   UNL A   1      50.058  25.316  30.576  1.00  0.00     0.040 A 
ATOM     81  C   UNL A   1      50.334  26.017  28.290  1.00  0.00     0.040 A 
ATOM     82  F   UNL A   1      48.542  27.007  27.144  1.00  0.00    -0.206 F 
ATOM     83  C   UNL A   1      50.858  25.435  29.442  1.00  0.00     0.006 A 
ENDBRANCH  55  76
BRANCH  67  84
ATOM     84  C   UNL A   1      44.863  32.244  30.937  1.00  0.00     0.057 A 
ATOM     85  C   UNL A   1      45.163  33.298  30.064  1.00  0.00     0.134 A 
ATOM     86  C   UNL A   1      45.055  32.465  32.307  1.00  0.00     0.134 A 
ATOM     87  F   UNL A   1      45.012  33.151  28.739  1.00  0.00    -0.206 F 
ATOM     88  C   UNL A   1      45.634  34.524  30.534  1.00  0.00     0.040 A 
ATOM     89  C   UNL A   1      45.493  33.699  32.792  1.00  0.00     0.040 A 
ATOM     90  F   UNL A   1      44.774  31.502  33.198  1.00  0.00    -0.206 F 
ATOM     91  C   UNL A   1      45.791  34.730  31.904  1.00  0.00     0.006 A 
ENDBRANCH  67  84
ENDBRANCH  41  42
ENDBRANCH  33  36
ENDBRANCH  31  32
ENDBRANCH  30  31
ENDBRANCH   1  30
TORSDOF 16
ENDMDL
MODEL 2
REMARK VINA RESULT:     -12.1      0.685      6.178
REMARK SMILES CCCC[C@@H](NS(=O)(=O)c1cc2c3c(c1)c(C)cc(=O)n3CC2)C(=O)NCCCNC(=O)c1ccc(-c2c3nc(c(-c4c(F)cccc4F)c4ccc([nH]4)c(-c4c(F)cccc4F)c4nc(c(-c5c(F)cccc5F)c5ccc2[nH]5)C=C4)C=C3)cc1
REMARK SMILES IDX 27 1 26 2 24 3 25 4 5 6 4 7 3 8 2 9 1 10 6 11 7 13 8 14 9 15
REMARK SMILES IDX 10 16 11 17 15 18 12 19 14 20 13 21 23 22 16 23 21 24 22 25
REMARK SMILES IDX 17 26 18 27 19 28 20 29 28 30 29 31 30 32 31 33 32 35 33 36
REMARK SMILES IDX 34 37 86 38 35 39 85 40 36 41 37 42 38 43 79 44 39 45 84 46
REMARK SMILES IDX 78 47 80 48 40 49 83 50 77 51 76 52 41 54 67 55 50 56 66 57
REMARK SMILES IDX 51 58 54 59 65 60 81 61 52 62 53 63 64 65 82 66 55 67 42 68
REMARK SMILES IDX 43 69 48 70 44 71 45 72 47 73 49 74 46 75 68 76 69 77 74 78
REMARK SMILES IDX 70 79 71 80 73 81 75 82 72 83 56 84 57 85 62 86 58 87 59 88
REMARK SMILES IDX 61 89 63 90 60 91
REMARK H PARENT 26 5 6 12 30 34 80 53 54 64
REMARK Flexibility Score: inf
ROOT
ATOM      1  C   UNL A   1      36.235  20.448  25.027  1.00  0.00     0.117 C 
ENDROOT
BRANCH   1   2
ATOM      2  N   UNL A   1      35.137  19.496  25.024  1.00  0.00    -0.355 N 
ATOM      3  C   UNL A   1      33.796  19.721  25.100  1.00  0.00     0.238 C 
ATOM      4  O   UNL A   1      33.066  18.785  25.435  1.00  0.00    -0.273 OA
ATOM      5  H   UNL A   1      35.402  18.550  24.956  1.00  0.00     0.163 HD
BRANCH   3   6
ATOM      6  C   UNL A   1      33.216  21.096  24.785  1.00  0.00     0.159 C 
BRANCH   6   7
ATOM      7  C   UNL A   1      32.492  20.988  23.435  1.00  0.00     0.030 C 
BRANCH   7   8
ATOM      8  C   UNL A   1      32.570  22.220  22.535  1.00  0.00     0.002 C 
BRANCH   8   9
ATOM      9  C   UNL A   1      33.741  23.166  22.806  1.00  0.00    -0.003 C 
ATOM     10  C   UNL A   1      33.465  24.611  22.421  1.00  0.00     0.004 C 
ENDBRANCH   8   9
ENDBRANCH   7   8
ENDBRANCH   6   7
BRANCH   6  11
ATOM     11  N   UNL A   1      32.331  21.577  25.870  1.00  0.00    -0.199 NA
ATOM     12  H   UNL A   1      32.203  20.794  26.513  1.00  0.00     0.142 HD
BRANCH  11  13
ATOM     13  S   UNL A   1      32.786  22.906  26.805  1.00  0.00     0.241 S 
ATOM     14  O   UNL A   1      32.110  22.802  28.076  1.00  0.00    -0.207 OA
ATOM     15  O   UNL A   1      34.231  22.946  26.723  1.00  0.00    -0.207 OA
BRANCH  13  16
ATOM     16  C   UNL A   1      32.162  24.335  25.942  1.00  0.00     0.083 A 
ATOM     17  C   UNL A   1      30.985  24.250  25.173  1.00  0.00     0.027 A 
ATOM     18  C   UNL A   1      32.882  25.551  26.068  1.00  0.00     0.032 A 
ATOM     19  C   UNL A   1      30.506  25.418  24.603  1.00  0.00    -0.020 A 
ATOM     20  C   UNL A   1      32.356  26.734  25.552  1.00  0.00     0.003 A 
ATOM     21  C   UNL A   1      31.186  26.608  24.826  1.00  0.00     0.055 A 
ATOM     22  C   UNL A   1      29.289  25.675  23.763  1.00  0.00     0.060 C 
ATOM     23  C   UNL A   1      32.878  28.099  25.751  1.00  0.00    -0.036 A 
ATOM     24  N   UNL A   1      30.522  27.683  24.259  1.00  0.00    -0.308 N 
ATOM     25  C   UNL A   1      29.340  27.209  23.546  1.00  0.00     0.131 C 
ATOM     26  C   UNL A   1      34.106  28.308  26.587  1.00  0.00     0.045 C 
ATOM     27  C   UNL A   1      32.207  29.135  25.203  1.00  0.00     0.075 A 
ATOM     28  C   UNL A   1      30.956  28.972  24.395  1.00  0.00     0.251 A 
ATOM     29  O   UNL A   1      30.388  29.954  23.928  1.00  0.00    -0.269 OA
ENDBRANCH  13  16
ENDBRANCH  11  13
ENDBRANCH   6  11
ENDBRANCH   3   6
ENDBRANCH   1   2
BRANCH   1  30
ATOM     30  C   UNL A   1      37.538  19.717  24.741  1.00  0.00     0.042 C 
BRANCH  30  31
ATOM     31  C   UNL A   1      38.688  20.259  25.577  1.00  0.00     0.118 C 
BRANCH  31  32
ATOM     32  N   UNL A   1      39.744  19.271  25.739  1.00  0.00    -0.352 N 
ATOM     33  C   UNL A   1      41.059  19.480  26.065  1.00  0.00     0.251 C 
ATOM     34  H   UNL A   1      39.481  18.332  25.595  1.00  0.00     0.163 HD
ATOM     35  O   UNL A   1      41.889  18.587  25.936  1.00  0.00    -0.269 OA
BRANCH  33  36
ATOM     36  C   UNL A   1      41.454  20.810  26.561  1.00  0.00     0.039 A 
ATOM     37  C   UNL A   1      41.990  21.740  25.670  1.00  0.00     0.014 A 
ATOM     38  C   UNL A   1      41.251  21.135  27.906  1.00  0.00     0.014 A 
ATOM     39  C   UNL A   1      42.284  23.024  26.124  1.00  0.00     0.010 A 
ATOM     40  C   UNL A   1      41.477  22.435  28.339  1.00  0.00     0.010 A 
ATOM     41  C   UNL A   1      42.012  23.384  27.455  1.00  0.00    -0.014 A 
BRANCH  41  42
ATOM     42  C   UNL A   1      42.350  24.732  27.964  1.00  0.00     0.031 A 
ATOM     43  C   UNL A   1      43.779  25.053  28.295  1.00  0.00     0.074 A 
ATOM     44  C   UNL A   1      41.379  25.642  28.163  1.00  0.00     0.049 A 
ATOM     45  N   UNL A   1      44.288  26.154  28.783  1.00  0.00    -0.248 NA
ATOM     46  C   UNL A   1      44.765  23.984  28.064  1.00  0.00     0.031 C 
ATOM     47  C   UNL A   1      39.953  25.434  27.900  1.00  0.00     0.029 A 
ATOM     48  N   UNL A   1      41.447  26.925  28.640  1.00  0.00    -0.354 N 
ATOM     49  C   UNL A   1      45.649  25.913  28.909  1.00  0.00     0.074 A 
ATOM     50  C   UNL A   1      45.878  24.541  28.515  1.00  0.00     0.031 C 
ATOM     51  C   UNL A   1      39.285  26.559  28.204  1.00  0.00     0.029 A 
ATOM     52  C   UNL A   1      40.227  27.551  28.714  1.00  0.00     0.049 A 
ATOM     53  H   UNL A   1      42.291  27.357  28.904  1.00  0.00     0.167 HD
ATOM     54  C   UNL A   1      46.627  26.767  29.292  1.00  0.00     0.037 A 
ATOM     55  C   UNL A   1      39.912  28.784  29.153  1.00  0.00     0.037 A 
ATOM     56  C   UNL A   1      46.394  28.128  29.693  1.00  0.00     0.049 A 
ATOM     57  C   UNL A   1      41.011  29.688  29.645  1.00  0.00     0.074 A 
ATOM     58  C   UNL A   1      47.317  29.086  30.072  1.00  0.00     0.029 A 
ATOM     59  N   UNL A   1      45.143  28.721  29.780  1.00  0.00    -0.354 N 
ATOM     60  N   UNL A   1      42.305  29.475  29.694  1.00  0.00    -0.248 NA
ATOM     61  C   UNL A   1      40.605  31.011  30.139  1.00  0.00     0.031 C 
ATOM     62  C   UNL A   1      46.619  30.240  30.445  1.00  0.00     0.029 A 
ATOM     63  C   UNL A   1      45.267  30.021  30.238  1.00  0.00     0.049 A 
ATOM     64  H   UNL A   1      44.292  28.281  29.552  1.00  0.00     0.167 HD
ATOM     65  C   UNL A   1      42.867  30.644  30.192  1.00  0.00     0.074 A 
ATOM     66  C   UNL A   1      41.774  31.570  30.409  1.00  0.00     0.031 C 
ATOM     67  C   UNL A   1      44.167  30.929  30.447  1.00  0.00     0.037 A 
BRANCH  54  68
ATOM     68  C   UNL A   1      48.033  26.241  29.298  1.00  0.00     0.057 A 
ATOM     69  C   UNL A   1      48.589  25.695  30.461  1.00  0.00     0.134 A 
ATOM     70  C   UNL A   1      48.841  26.279  28.153  1.00  0.00     0.134 A 
ATOM     71  F   UNL A   1      47.874  25.629  31.594  1.00  0.00    -0.206 F 
ATOM     72  C   UNL A   1      49.896  25.206  30.485  1.00  0.00     0.040 A 
ATOM     73  C   UNL A   1      50.138  25.764  28.156  1.00  0.00     0.040 A 
ATOM     74  F   UNL A   1      48.364  26.774  27.001  1.00  0.00    -0.206 F 
ATOM     75  C   UNL A   1      50.671  25.231  29.327  1.00  0.00     0.006 A 
ENDBRANCH  54  68
BRANCH  55  76
ATOM     76  C   UNL A   1      38.502  29.251  29.151  1.00  0.00     0.057 A 
ATOM     77  C   UNL A   1      37.700  29.167  30.295  1.00  0.00     0.134 A 
ATOM     78  C   UNL A   1      37.941  29.847  28.015  1.00  0.00     0.134 A 
ATOM     79  F   UNL A   1      38.173  28.601  31.415  1.00  0.00    -0.206 F 
ATOM     80  C   UNL A   1      36.396  29.666  30.313  1.00  0.00     0.040 A 
ATOM     81  C   UNL A   1      36.649  30.376  28.028  1.00  0.00     0.040 A 
ATOM     82  F   UNL A   1      38.664  29.974  26.893  1.00  0.00    -0.206 F 
ATOM     83  C   UNL A   1      35.873  30.286  29.180  1.00  0.00     0.006 A 
ENDBRANCH  55  76
BRANCH  67  84
ATOM     84  C   UNL A   1      44.478  32.309  30.954  1.00  0.00     0.057 A 
ATOM     85  C   UNL A   1      44.738  33.354  30.058  1.00  0.00     0.134 A 
ATOM     86  C   UNL A   1      44.542  32.600  32.323  1.00  0.00     0.134 A 
ATOM     87  F   UNL A   1      44.705  33.143  28.734  1.00  0.00    -0.206 F 
ATOM     88  C   UNL A   1      45.048  34.639  30.505  1.00  0.00     0.040 A 
ATOM     89  C   UNL A   1      44.817  33.890  32.782  1.00  0.00     0.040 A 
ATOM     90  F   UNL A   1      44.291  31.648  33.234  1.00  0.00    -0.206 F 
ATOM     91  C   UNL A   1      45.078  34.912  31.871  1.00  0.00     0.006 A 
ENDBRANCH  67  84
ENDBRANCH  41  42
ENDBRANCH  33  36
ENDBRANCH  31  32
ENDBRANCH  30  31
ENDBRANCH   1  30
TORSDOF 16
ENDMDL
MODEL 3
REMARK VINA RESULT:     -12.0      3.991      8.677
REMARK SMILES CCCC[C@@H](NS(=O)(=O)c1cc2c3c(c1)c(C)cc(=O)n3CC2)C(=O)NCCCNC(=O)c1ccc(-c2c3nc(c(-c4c(F)cccc4F)c4ccc([nH]4)c(-c4c(F)cccc4F)c4nc(c(-c5c(F)cccc5F)c5ccc2[nH]5)C=C4)C=C3)cc1
REMARK SMILES IDX 27 1 26 2 24 3 25 4 5 6 4 7 3 8 2 9 1 10 6 11 7 13 8 14 9 15
REMARK SMILES IDX 10 16 11 17 15 18 12 19 14 20 13 21 23 22 16 23 21 24 22 25
REMARK SMILES IDX 17 26 18 27 19 28 20 29 28 30 29 31 30 32 31 33 32 35 33 36
REMARK SMILES IDX 34 37 86 38 35 39 85 40 36 41 37 42 38 43 79 44 39 45 84 46
REMARK SMILES IDX 78 47 80 48 40 49 83 50 77 51 76 52 41 54 67 55 50 56 66 57
REMARK SMILES IDX 51 58 54 59 65 60 81 61 52 62 53 63 64 65 82 66 55 67 42 68
REMARK SMILES IDX 43 69 48 70 44 71 45 72 47 73 49 74 46 75 68 76 69 77 74 78
REMARK SMILES IDX 70 79 71 80 73 81 75 82 72 83 56 84 57 85 62 86 58 87 59 88
REMARK SMILES IDX 61 89 63 90 60 91
REMARK H PARENT 26 5 6 12 30 34 80 53 54 64
REMARK Flexibility Score: inf
ROOT
ATOM      1  C   UNL A   1      31.418  30.487  25.579  1.00  0.00     0.117 C 
ENDROOT
BRANCH   1   2
ATOM      2  N   UNL A   1      30.556  30.448  24.410  1.00  0.00    -0.355 N 
ATOM      3  C   UNL A   1      30.419  29.475  23.467  1.00  0.00     0.238 C 
ATOM      4  O   UNL A   1      29.910  29.779  22.386  1.00  0.00    -0.273 OA
ATOM      5  H   UNL A   1      29.987  31.242  24.282  1.00  0.00     0.163 HD
BRANCH   3   6
ATOM      6  C   UNL A   1      30.889  28.050  23.741  1.00  0.00     0.159 C 
BRANCH   6   7
ATOM      7  C   UNL A   1      29.638  27.200  24.005  1.00  0.00     0.030 C 
BRANCH   7   8
ATOM      8  C   UNL A   1      29.845  25.958  24.870  1.00  0.00     0.002 C 
BRANCH   8   9
ATOM      9  C   UNL A   1      30.899  26.085  25.971  1.00  0.00    -0.003 C 
ATOM     10  C   UNL A   1      31.409  24.749  26.490  1.00  0.00     0.004 C 
ENDBRANCH   8   9
ENDBRANCH   7   8
ENDBRANCH   6   7
BRANCH   6  11
ATOM     11  N   UNL A   1      31.712  27.523  22.629  1.00  0.00    -0.199 NA
ATOM     12  H   UNL A   1      31.681  28.220  21.884  1.00  0.00     0.142 HD
BRANCH  11  13
ATOM     13  S   UNL A   1      33.340  27.156  22.883  1.00  0.00     0.241 S 
ATOM     14  O   UNL A   1      34.028  27.308  21.624  1.00  0.00    -0.207 OA
ATOM     15  O   UNL A   1      33.722  27.929  24.047  1.00  0.00    -0.207 OA
BRANCH  13  16
ATOM     16  C   UNL A   1      33.375  25.436  23.350  1.00  0.00     0.083 A 
ATOM     17  C   UNL A   1      32.429  24.533  22.828  1.00  0.00     0.027 A 
ATOM     18  C   UNL A   1      34.390  25.014  24.247  1.00  0.00     0.032 A 
ATOM     19  C   UNL A   1      32.569  23.196  23.160  1.00  0.00    -0.020 A 
ATOM     20  C   UNL A   1      34.568  23.659  24.518  1.00  0.00     0.003 A 
ATOM     21  C   UNL A   1      33.631  22.805  23.964  1.00  0.00     0.055 A 
ATOM     22  C   UNL A   1      31.763  21.994  22.761  1.00  0.00     0.060 C 
ATOM     23  C   UNL A   1      35.674  23.042  25.273  1.00  0.00    -0.036 A 
ATOM     24  N   UNL A   1      33.668  21.429  24.121  1.00  0.00    -0.308 N 
ATOM     25  C   UNL A   1      32.530  20.827  23.434  1.00  0.00     0.131 C 
ATOM     26  C   UNL A   1      36.759  23.909  25.839  1.00  0.00     0.045 C 
ATOM     27  C   UNL A   1      35.700  21.697  25.400  1.00  0.00     0.075 A 
ATOM     28  C   UNL A   1      34.658  20.794  24.817  1.00  0.00     0.251 A 
ATOM     29  O   UNL A   1      34.740  19.579  24.961  1.00  0.00    -0.269 OA
ENDBRANCH  13  16
ENDBRANCH  11  13
ENDBRANCH   6  11
ENDBRANCH   3   6
ENDBRANCH   1   2
BRANCH   1  30
ATOM     30  C   UNL A   1      31.242  31.817  26.293  1.00  0.00     0.042 C 
BRANCH  30  31
ATOM     31  C   UNL A   1      32.522  32.264  26.985  1.00  0.00     0.118 C 
BRANCH  31  32
ATOM     32  N   UNL A   1      32.469  33.672  27.350  1.00  0.00    -0.352 N 
ATOM     33  C   UNL A   1      33.180  34.323  28.325  1.00  0.00     0.251 C 
ATOM     34  H   UNL A   1      31.844  34.229  26.830  1.00  0.00     0.163 HD
ATOM     35  O   UNL A   1      32.868  35.453  28.682  1.00  0.00    -0.269 OA
BRANCH  33  36
ATOM     36  C   UNL A   1      34.320  33.625  28.944  1.00  0.00     0.039 A 
ATOM     37  C   UNL A   1      34.079  32.616  29.877  1.00  0.00     0.014 A 
ATOM     38  C   UNL A   1      35.625  33.954  28.560  1.00  0.00     0.014 A 
ATOM     39  C   UNL A   1      35.156  31.901  30.398  1.00  0.00     0.010 A 
ATOM     40  C   UNL A   1      36.689  33.193  29.025  1.00  0.00     0.010 A 
ATOM     41  C   UNL A   1      36.464  32.173  29.961  1.00  0.00    -0.014 A 
BRANCH  41  42
ATOM     42  C   UNL A   1      37.622  31.447  30.528  1.00  0.00     0.031 A 
ATOM     43  C   UNL A   1      38.048  31.736  31.939  1.00  0.00     0.074 A 
ATOM     44  C   UNL A   1      38.306  30.569  29.772  1.00  0.00     0.049 A 
ATOM     45  N   UNL A   1      39.050  31.243  32.618  1.00  0.00    -0.248 NA
ATOM     46  C   UNL A   1      37.249  32.728  32.678  1.00  0.00     0.031 C 
ATOM     47  C   UNL A   1      37.999  30.227  28.381  1.00  0.00     0.029 A 
ATOM     48  N   UNL A   1      39.407  29.809  30.068  1.00  0.00    -0.354 N 
ATOM     49  C   UNL A   1      38.998  31.857  33.861  1.00  0.00     0.074 A 
ATOM     50  C   UNL A   1      37.911  32.810  33.821  1.00  0.00     0.031 C 
ATOM     51  C   UNL A   1      38.883  29.311  27.952  1.00  0.00     0.029 A 
ATOM     52  C   UNL A   1      39.835  29.029  29.022  1.00  0.00     0.049 A 
ATOM     53  H   UNL A   1      39.849  29.821  30.948  1.00  0.00     0.167 HD
ATOM     54  C   UNL A   1      39.767  31.628  34.951  1.00  0.00     0.037 A 
ATOM     55  C   UNL A   1      40.885  28.189  28.941  1.00  0.00     0.037 A 
ATOM     56  C   UNL A   1      40.854  30.686  34.984  1.00  0.00     0.049 A 
ATOM     57  C   UNL A   1      41.771  28.009  30.146  1.00  0.00     0.074 A 
ATOM     58  C   UNL A   1      41.679  30.357  36.044  1.00  0.00     0.029 A 
ATOM     59  N   UNL A   1      41.276  29.931  33.899  1.00  0.00    -0.354 N 
ATOM     60  N   UNL A   1      41.670  28.543  31.340  1.00  0.00    -0.248 NA
ATOM     61  C   UNL A   1      42.918  27.103  29.990  1.00  0.00     0.031 C 
ATOM     62  C   UNL A   1      42.637  29.447  35.585  1.00  0.00     0.029 A 
ATOM     63  C   UNL A   1      42.370  29.161  34.255  1.00  0.00     0.049 A 
ATOM     64  H   UNL A   1      40.859  29.943  33.007  1.00  0.00     0.167 HD
ATOM     65  C   UNL A   1      42.717  28.013  32.085  1.00  0.00     0.074 A 
ATOM     66  C   UNL A   1      43.428  27.101  31.212  1.00  0.00     0.031 C 
ATOM     67  C   UNL A   1      43.063  28.257  33.372  1.00  0.00     0.037 A 
BRANCH  54  68
ATOM     68  C   UNL A   1      39.458  32.419  36.189  1.00  0.00     0.057 A 
ATOM     69  C   UNL A   1      38.468  31.994  37.082  1.00  0.00     0.134 A 
ATOM     70  C   UNL A   1      40.137  33.607  36.495  1.00  0.00     0.134 A 
ATOM     71  F   UNL A   1      37.777  30.868  36.851  1.00  0.00    -0.206 F 
ATOM     72  C   UNL A   1      38.165  32.720  38.235  1.00  0.00     0.040 A 
ATOM     73  C   UNL A   1      39.865  34.325  37.660  1.00  0.00     0.040 A 
ATOM     74  F   UNL A   1      41.109  34.061  35.688  1.00  0.00    -0.206 F 
ATOM     75  C   UNL A   1      38.871  33.885  38.532  1.00  0.00     0.006 A 
ENDBRANCH  54  68
BRANCH  55  76
ATOM     76  C   UNL A   1      41.166  27.447  27.686  1.00  0.00     0.057 A 
ATOM     77  C   UNL A   1      41.994  27.978  26.690  1.00  0.00     0.134 A 
ATOM     78  C   UNL A   1      40.656  26.159  27.480  1.00  0.00     0.134 A 
ATOM     79  F   UNL A   1      42.509  29.209  26.821  1.00  0.00    -0.206 F 
ATOM     80  C   UNL A   1      42.311  27.253  25.539  1.00  0.00     0.040 A 
ATOM     81  C   UNL A   1      40.989  25.412  26.349  1.00  0.00     0.040 A 
ATOM     82  F   UNL A   1      39.872  25.588  28.406  1.00  0.00    -0.206 F 
ATOM     83  C   UNL A   1      41.820  25.960  25.374  1.00  0.00     0.006 A 
ENDBRANCH  55  76
BRANCH  67  84
ATOM     84  C   UNL A   1      44.238  27.498  33.922  1.00  0.00     0.057 A 
ATOM     85  C   UNL A   1      45.526  28.048  33.875  1.00  0.00     0.134 A 
ATOM     86  C   UNL A   1      44.101  26.219  34.477  1.00  0.00     0.134 A 
ATOM     87  F   UNL A   1      45.730  29.264  33.348  1.00  0.00    -0.206 F 
ATOM     88  C   UNL A   1      46.634  27.354  34.363  1.00  0.00     0.040 A 
ATOM     89  C   UNL A   1      45.197  25.530  34.998  1.00  0.00     0.040 A 
ATOM     90  F   UNL A   1      42.894  25.640  34.564  1.00  0.00    -0.206 F 
ATOM     91  C   UNL A   1      46.469  26.095  34.935  1.00  0.00     0.006 A 
ENDBRANCH  67  84
ENDBRANCH  41  42
ENDBRANCH  33  36
ENDBRANCH  31  32
ENDBRANCH  30  31
ENDBRANCH   1  30
TORSDOF 16
ENDMDL
