MODEL 1
REMARK VINA RESULT:     -13.4      0.000      0.000
REMARK SMILES O=C(N/N=C/c1ccccc1O)C(=O)Nc1cccc(C(=O)NCCCNC(=O)c2ccc(-c3c4nc(c(-c5c(F)cccc5F)c5ccc([nH]5)c(-c5c(F)cccc5F)c5nc(c(-c6c(F)cccc6F)c6ccc3[nH]6)C=C5)C=C4)cc2)c1
REMARK SMILES IDX 21 1 22 2 23 3 20 5 16 6 17 7 84 8 18 9 19 10 15 11 13 12
REMARK SMILES IDX 14 13 2 15 1 16 3 17 4 19 5 20 6 21 7 22 11 23 8 24 10 25
REMARK SMILES IDX 9 26 12 27 24 29 25 30 26 31 27 32 28 33 29 35 30 36 31 37
REMARK SMILES IDX 83 38 32 39 82 40 33 41 34 42 35 43 76 44 36 45 81 46 75 47
REMARK SMILES IDX 77 48 37 49 80 50 74 51 73 52 38 54 64 55 47 56 63 57 48 58
REMARK SMILES IDX 51 59 62 60 78 61 49 62 50 63 61 65 79 66 52 67 39 68 40 69
REMARK SMILES IDX 45 70 41 71 42 72 44 73 46 74 43 75 65 76 66 77 71 78 67 79
REMARK SMILES IDX 68 80 70 81 72 82 69 83 53 84 54 85 59 86 55 87 56 88 58 89
REMARK SMILES IDX 60 90 57 91
REMARK H PARENT 23 4 15 14 3 18 12 28 27 34 77 53 51 64
REMARK Flexibility Score: inf
ROOT
ATOM      1  C   UNL A   1      37.132  23.311  25.750  1.00  0.00     0.251 C 
ATOM      2  O   UNL A   1      37.875  24.116  26.315  1.00  0.00    -0.269 OA
ATOM      3  N   UNL A   1      37.660  22.420  24.850  1.00  0.00    -0.352 N 
ATOM      4  H   UNL A   1      38.578  22.622  24.559  1.00  0.00     0.163 HD
ENDROOT
BRANCH   1   5
ATOM      5  C   UNL A   1      35.682  23.413  26.050  1.00  0.00     0.041 A 
ATOM      6  C   UNL A   1      32.852  24.782  25.765  1.00  0.00     0.042 A 
ATOM      7  C   UNL A   1      32.047  23.327  26.530  1.00  0.00     0.026 A 
ATOM      8  C   UNL A   1      34.662  24.870  25.598  1.00  0.00     0.040 A 
ATOM      9  C   UNL A   1      33.097  21.961  27.161  1.00  0.00     0.003 A 
ATOM     10  C   UNL A   1      34.890  21.994  26.876  1.00  0.00     0.014 A 
BRANCH   6  11
ATOM     11  N   UNL A   1      32.079  25.434  24.808  1.00  0.00    -0.318 N 
ATOM     12  C   UNL A   1      32.079  25.207  23.437  1.00  0.00     0.315 C 
ATOM     13  O   UNL A   1      31.255  25.842  22.773  1.00  0.00    -0.263 OA
ATOM     14  H   UNL A   1      31.467  26.131  25.138  1.00  0.00     0.170 HD
BRANCH  12  15
ATOM     15  C   UNL A   1      32.949  24.166  22.675  1.00  0.00     0.329 C 
ATOM     16  O   UNL A   1      34.112  24.464  22.396  1.00  0.00    -0.262 OA
ATOM     17  N   UNL A   1      32.422  22.972  22.169  1.00  0.00    -0.239 N 
ATOM     18  H   UNL A   1      32.354  22.803  21.201  1.00  0.00     0.194 HD
BRANCH  17  19
ATOM     19  N   UNL A   1      32.002  22.050  23.092  1.00  0.00    -0.180 NA
ATOM     20  C   UNL A   1      32.960  21.162  23.511  1.00  0.00     0.145 C 
BRANCH  20  21
ATOM     21  C   UNL A   1      33.078  19.097  24.005  1.00  0.00     0.036 A 
ATOM     22  C   UNL A   1      33.176  17.904  23.055  1.00  0.00     0.013 A 
ATOM     23  C   UNL A   1      33.189  18.317  25.312  1.00  0.00     0.124 A 
ATOM     24  C   UNL A   1      33.653  16.577  23.260  1.00  0.00     0.001 A 
ATOM     25  C   UNL A   1      33.733  17.008  25.540  1.00  0.00     0.047 A 
ATOM     26  C   UNL A   1      34.035  16.163  24.504  1.00  0.00     0.004 A 
BRANCH  23  27
ATOM     27  O   UNL A   1      32.528  18.648  26.501  1.00  0.00    -0.507 OA
ATOM     28  H   UNL A   1      31.912  19.355  26.513  1.00  0.00     0.293 HD
ENDBRANCH  23  27
ENDBRANCH  20  21
ENDBRANCH  17  19
ENDBRANCH  12  15
ENDBRANCH   6  11
ENDBRANCH   1   5
BRANCH   3  29
ATOM     29  C   UNL A   1      37.082  21.226  24.260  1.00  0.00     0.118 C 
BRANCH  29  30
ATOM     30  C   UNL A   1      37.827  19.950  24.626  1.00  0.00     0.042 C 
BRANCH  30  31
ATOM     31  C   UNL A   1      38.775  20.124  25.804  1.00  0.00     0.118 C 
BRANCH  31  32
ATOM     32  N   UNL A   1      39.854  19.141  25.804  1.00  0.00    -0.352 N 
ATOM     33  C   UNL A   1      41.206  19.304  25.969  1.00  0.00     0.251 C 
ATOM     34  H   UNL A   1      39.564  18.212  25.663  1.00  0.00     0.163 HD
ATOM     35  O   UNL A   1      41.962  18.358  25.772  1.00  0.00    -0.269 OA
BRANCH  33  36
ATOM     36  C   UNL A   1      41.764  20.613  26.370  1.00  0.00     0.039 A 
ATOM     37  C   UNL A   1      42.138  21.523  25.376  1.00  0.00     0.014 A 
ATOM     38  C   UNL A   1      41.954  20.935  27.717  1.00  0.00     0.014 A 
ATOM     39  C   UNL A   1      42.640  22.776  25.733  1.00  0.00     0.010 A 
ATOM     40  C   UNL A   1      42.379  22.210  28.073  1.00  0.00     0.010 A 
ATOM     41  C   UNL A   1      42.736  23.140  27.085  1.00  0.00    -0.014 A 
BRANCH  41  42
ATOM     42  C   UNL A   1      43.228  24.477  27.494  1.00  0.00     0.031 A 
ATOM     43  C   UNL A   1      42.253  25.531  27.939  1.00  0.00     0.074 A 
ATOM     44  C   UNL A   1      44.538  24.769  27.389  1.00  0.00     0.049 A 
ATOM     45  N   UNL A   1      42.470  26.787  28.234  1.00  0.00    -0.248 NA
ATOM     46  C   UNL A   1      40.840  25.128  28.031  1.00  0.00     0.031 C 
ATOM     47  C   UNL A   1      45.577  23.849  26.918  1.00  0.00     0.029 A 
ATOM     48  N   UNL A   1      45.218  25.928  27.660  1.00  0.00    -0.354 N 
ATOM     49  C   UNL A   1      41.222  27.329  28.512  1.00  0.00     0.074 A 
ATOM     50  C   UNL A   1      40.248  26.278  28.313  1.00  0.00     0.031 C 
ATOM     51  C   UNL A   1      46.765  24.474  26.956  1.00  0.00     0.029 A 
ATOM     52  C   UNL A   1      46.569  25.843  27.423  1.00  0.00     0.049 A 
ATOM     53  H   UNL A   1      44.780  26.744  27.994  1.00  0.00     0.167 HD
ATOM     54  C   UNL A   1      40.915  28.585  28.918  1.00  0.00     0.037 A 
ATOM     55  C   UNL A   1      47.537  26.766  27.566  1.00  0.00     0.037 A 
ATOM     56  C   UNL A   1      41.889  29.613  29.169  1.00  0.00     0.049 A 
ATOM     57  C   UNL A   1      47.179  28.137  28.064  1.00  0.00     0.074 A 
ATOM     58  C   UNL A   1      41.687  30.892  29.657  1.00  0.00     0.029 A 
ATOM     59  N   UNL A   1      43.252  29.472  28.961  1.00  0.00    -0.354 N 
ATOM     60  N   UNL A   1      46.000  28.620  28.376  1.00  0.00    -0.248 NA
ATOM     61  C   UNL A   1      48.285  29.089  28.236  1.00  0.00     0.031 C 
ATOM     62  C   UNL A   1      42.929  31.533  29.724  1.00  0.00     0.029 A 
ATOM     63  C   UNL A   1      43.905  30.644  29.303  1.00  0.00     0.049 A 
ATOM     64  H   UNL A   1      43.691  28.660  28.620  1.00  0.00     0.167 HD
ATOM     65  C   UNL A   1      46.224  29.923  28.798  1.00  0.00     0.074 A 
ATOM     66  C   UNL A   1      47.653  30.152  28.714  1.00  0.00     0.031 C 
ATOM     67  C   UNL A   1      45.327  30.848  29.218  1.00  0.00     0.037 A 
BRANCH  54  68
ATOM     68  C   UNL A   1      39.466  28.905  29.126  1.00  0.00     0.057 A 
ATOM     69  C   UNL A   1      38.666  29.401  28.088  1.00  0.00     0.134 A 
ATOM     70  C   UNL A   1      38.859  28.700  30.371  1.00  0.00     0.134 A 
ATOM     71  F   UNL A   1      39.192  29.634  26.876  1.00  0.00    -0.206 F 
ATOM     72  C   UNL A   1      37.319  29.709  28.289  1.00  0.00     0.040 A 
ATOM     73  C   UNL A   1      37.508  28.981  30.577  1.00  0.00     0.040 A 
ATOM     74  F   UNL A   1      39.568  28.224  31.405  1.00  0.00    -0.206 F 
ATOM     75  C   UNL A   1      36.735  29.493  29.536  1.00  0.00     0.006 A 
ENDBRANCH  54  68
BRANCH  55  76
ATOM     76  C   UNL A   1      48.945  26.410  27.269  1.00  0.00     0.057 A 
ATOM     77  C   UNL A   1      49.785  25.916  28.273  1.00  0.00     0.134 A 
ATOM     78  C   UNL A   1      49.479  26.545  25.983  1.00  0.00     0.134 A 
ATOM     79  F   UNL A   1      49.330  25.783  29.527  1.00  0.00    -0.206 F 
ATOM     80  C   UNL A   1      51.113  25.577  28.012  1.00  0.00     0.040 A 
ATOM     81  C   UNL A   1      50.802  26.193  25.704  1.00  0.00     0.040 A 
ATOM     82  F   UNL A   1      48.721  27.008  24.979  1.00  0.00    -0.206 F 
ATOM     83  C   UNL A   1      51.623  25.712  26.721  1.00  0.00     0.006 A 
ENDBRANCH  55  76
BRANCH  67  84
ATOM     84  C   UNL A   1      45.868  32.179  29.638  1.00  0.00     0.057 A 
ATOM     85  C   UNL A   1      46.288  32.419  30.950  1.00  0.00     0.134 A 
ATOM     86  C   UNL A   1      46.006  33.217  28.709  1.00  0.00     0.134 A 
ATOM     87  F   UNL A   1      46.168  31.465  31.887  1.00  0.00    -0.206 F 
ATOM     88  C   UNL A   1      46.816  33.653  31.331  1.00  0.00     0.040 A 
ATOM     89  C   UNL A   1      46.549  34.449  29.072  1.00  0.00     0.040 A 
ATOM     90  F   UNL A   1      45.626  33.047  27.434  1.00  0.00    -0.206 F 
ATOM     91  C   UNL A   1      46.952  34.671  30.388  1.00  0.00     0.006 A 
ENDBRANCH  67  84
ENDBRANCH  41  42
ENDBRANCH  33  36
ENDBRANCH  31  32
ENDBRANCH  30  31
ENDBRANCH  29  30
ENDBRANCH   3  29
TORSDOF 15
ENDMDL
MODEL 2
REMARK VINA RESULT:     -13.3      1.320      6.198
REMARK SMILES O=C(N/N=C/c1ccccc1O)C(=O)Nc1cccc(C(=O)NCCCNC(=O)c2ccc(-c3c4nc(c(-c5c(F)cccc5F)c5ccc([nH]5)c(-c5c(F)cccc5F)c5nc(c(-c6c(F)cccc6F)c6ccc3[nH]6)C=C5)C=C4)cc2)c1
REMARK SMILES IDX 21 1 22 2 23 3 20 5 16 6 17 7 84 8 18 9 19 10 15 11 13 12
REMARK SMILES IDX 14 13 2 15 1 16 3 17 4 19 5 20 6 21 7 22 11 23 8 24 10 25
REMARK SMILES IDX 9 26 12 27 24 29 25 30 26 31 27 32 28 33 29 35 30 36 31 37
REMARK SMILES IDX 83 38 32 39 82 40 33 41 34 42 35 43 76 44 36 45 81 46 75 47
REMARK SMILES IDX 77 48 37 49 80 50 74 51 73 52 38 54 64 55 47 56 63 57 48 58
REMARK SMILES IDX 51 59 62 60 78 61 49 62 50 63 61 65 79 66 52 67 39 68 40 69
REMARK SMILES IDX 45 70 41 71 42 72 44 73 46 74 43 75 65 76 66 77 71 78 67 79
REMARK SMILES IDX 68 80 70 81 72 82 69 83 53 84 54 85 59 86 55 87 56 88 58 89
REMARK SMILES IDX 60 90 57 91
REMARK H PARENT 23 4 15 14 3 18 12 28 27 34 77 53 51 64
REMARK Flexibility Score: inf
ROOT
ATOM      1  C   UNL A   1      37.198  23.231  25.615  1.00  0.00     0.251 C 
ATOM      2  O   UNL A   1      37.943  24.104  26.064  1.00  0.00    -0.269 OA
ATOM      3  N   UNL A   1      37.712  22.261  24.792  1.00  0.00    -0.352 N 
ATOM      4  H   UNL A   1      38.613  22.450  24.444  1.00  0.00     0.163 HD
ENDROOT
BRANCH   1   5
ATOM      5  C   UNL A   1      35.759  23.334  25.963  1.00  0.00     0.041 A 
ATOM      6  C   UNL A   1      32.918  24.696  25.755  1.00  0.00     0.042 A 
ATOM      7  C   UNL A   1      32.142  23.250  26.565  1.00  0.00     0.026 A 
ATOM      8  C   UNL A   1      34.721  24.784  25.526  1.00  0.00     0.040 A 
ATOM      9  C   UNL A   1      33.214  21.893  27.178  1.00  0.00     0.003 A 
ATOM     10  C   UNL A   1      34.997  21.925  26.833  1.00  0.00     0.014 A 
BRANCH   6  11
ATOM     11  N   UNL A   1      32.113  25.335  24.816  1.00  0.00    -0.318 N 
ATOM     12  C   UNL A   1      32.071  25.093  23.448  1.00  0.00     0.315 C 
ATOM     13  O   UNL A   1      31.223  25.717  22.804  1.00  0.00    -0.263 OA
ATOM     14  H   UNL A   1      31.508  26.032  25.157  1.00  0.00     0.170 HD
BRANCH  12  15
ATOM     15  C   UNL A   1      32.921  24.048  22.670  1.00  0.00     0.329 C 
ATOM     16  O   UNL A   1      34.071  24.349  22.347  1.00  0.00    -0.262 OA
ATOM     17  N   UNL A   1      32.385  22.843  22.198  1.00  0.00    -0.239 N 
ATOM     18  H   UNL A   1      32.285  22.662  21.235  1.00  0.00     0.194 HD
BRANCH  17  19
ATOM     19  N   UNL A   1      32.004  21.932  23.147  1.00  0.00    -0.180 NA
ATOM     20  C   UNL A   1      32.977  21.043  23.531  1.00  0.00     0.145 C 
BRANCH  20  21
ATOM     21  C   UNL A   1      33.110  18.983  24.038  1.00  0.00     0.036 A 
ATOM     22  C   UNL A   1      33.260  17.788  23.097  1.00  0.00     0.013 A 
ATOM     23  C   UNL A   1      33.189  18.210  25.352  1.00  0.00     0.124 A 
ATOM     24  C   UNL A   1      33.751  16.469  23.324  1.00  0.00     0.001 A 
ATOM     25  C   UNL A   1      33.746  16.910  25.603  1.00  0.00     0.047 A 
ATOM     26  C   UNL A   1      34.096  16.066  24.582  1.00  0.00     0.004 A 
BRANCH  23  27
ATOM     27  O   UNL A   1      32.483  18.535  26.515  1.00  0.00    -0.507 OA
ATOM     28  H   UNL A   1      31.668  18.994  26.456  1.00  0.00     0.293 HD
ENDBRANCH  23  27
ENDBRANCH  20  21
ENDBRANCH  17  19
ENDBRANCH  12  15
ENDBRANCH   6  11
ENDBRANCH   1   5
BRANCH   3  29
ATOM     29  C   UNL A   1      37.140  21.002  24.351  1.00  0.00     0.118 C 
BRANCH  29  30
ATOM     30  C   UNL A   1      37.966  19.790  24.758  1.00  0.00     0.042 C 
BRANCH  30  31
ATOM     31  C   UNL A   1      38.923  20.071  25.907  1.00  0.00     0.118 C 
BRANCH  31  32
ATOM     32  N   UNL A   1      40.135  19.260  25.839  1.00  0.00    -0.352 N 
ATOM     33  C   UNL A   1      41.448  19.602  26.044  1.00  0.00     0.251 C 
ATOM     34  H   UNL A   1      39.985  18.316  25.608  1.00  0.00     0.163 HD
ATOM     35  O   UNL A   1      42.335  18.798  25.776  1.00  0.00    -0.269 OA
BRANCH  33  36
ATOM     36  C   UNL A   1      41.806  20.935  26.573  1.00  0.00     0.039 A 
ATOM     37  C   UNL A   1      42.198  21.935  25.678  1.00  0.00     0.014 A 
ATOM     38  C   UNL A   1      41.791  21.194  27.946  1.00  0.00     0.014 A 
ATOM     39  C   UNL A   1      42.513  23.210  26.153  1.00  0.00     0.010 A 
ATOM     40  C   UNL A   1      42.026  22.484  28.412  1.00  0.00     0.010 A 
ATOM     41  C   UNL A   1      42.399  23.501  27.522  1.00  0.00    -0.014 A 
BRANCH  41  42
ATOM     42  C   UNL A   1      42.689  24.855  28.052  1.00  0.00     0.031 A 
ATOM     43  C   UNL A   1      44.091  25.216  28.460  1.00  0.00     0.074 A 
ATOM     44  C   UNL A   1      41.684  25.730  28.240  1.00  0.00     0.049 A 
ATOM     45  N   UNL A   1      44.530  26.304  29.041  1.00  0.00    -0.248 NA
ATOM     46  C   UNL A   1      45.132  24.204  28.216  1.00  0.00     0.031 C 
ATOM     47  C   UNL A   1      40.274  25.480  27.934  1.00  0.00     0.029 A 
ATOM     48  N   UNL A   1      41.694  27.004  28.746  1.00  0.00    -0.354 N 
ATOM     49  C   UNL A   1      45.885  26.093  29.260  1.00  0.00     0.074 A 
ATOM     50  C   UNL A   1      46.190  24.760  28.787  1.00  0.00     0.031 C 
ATOM     51  C   UNL A   1      39.558  26.575  28.238  1.00  0.00     0.029 A 
ATOM     52  C   UNL A   1      40.451  27.590  28.787  1.00  0.00     0.049 A 
ATOM     53  H   UNL A   1      42.513  27.457  29.051  1.00  0.00     0.167 HD
ATOM     54  C   UNL A   1      46.799  26.941  29.788  1.00  0.00     0.037 A 
ATOM     55  C   UNL A   1      40.078  28.808  29.219  1.00  0.00     0.037 A 
ATOM     56  C   UNL A   1      46.506  28.285  30.207  1.00  0.00     0.049 A 
ATOM     57  C   UNL A   1      41.117  29.750  29.756  1.00  0.00     0.074 A 
ATOM     58  C   UNL A   1      47.377  29.250  30.681  1.00  0.00     0.029 A 
ATOM     59  N   UNL A   1      45.243  28.857  30.188  1.00  0.00    -0.354 N 
ATOM     60  N   UNL A   1      42.406  29.557  29.907  1.00  0.00    -0.248 NA
ATOM     61  C   UNL A   1      40.654  31.079  30.177  1.00  0.00     0.031 C 
ATOM     62  C   UNL A   1      46.636  30.401  30.971  1.00  0.00     0.029 A 
ATOM     63  C   UNL A   1      45.309  30.160  30.651  1.00  0.00     0.049 A 
ATOM     64  H   UNL A   1      44.422  28.404  29.891  1.00  0.00     0.167 HD
ATOM     65  C   UNL A   1      42.909  30.744  30.421  1.00  0.00     0.074 A 
ATOM     66  C   UNL A   1      41.790  31.656  30.545  1.00  0.00     0.031 C 
ATOM     67  C   UNL A   1      44.184  31.051  30.760  1.00  0.00     0.037 A 
BRANCH  54  68
ATOM     68  C   UNL A   1      48.203  26.437  29.929  1.00  0.00     0.057 A 
ATOM     69  C   UNL A   1      48.636  25.778  31.088  1.00  0.00     0.134 A 
ATOM     70  C   UNL A   1      49.128  26.596  28.890  1.00  0.00     0.134 A 
ATOM     71  F   UNL A   1      47.802  25.609  32.125  1.00  0.00    -0.206 F 
ATOM     72  C   UNL A   1      49.948  25.320  31.219  1.00  0.00     0.040 A 
ATOM     73  C   UNL A   1      50.436  26.121  29.001  1.00  0.00     0.040 A 
ATOM     74  F   UNL A   1      48.776  27.214  27.753  1.00  0.00    -0.206 F 
ATOM     75  C   UNL A   1      50.851  25.487  30.169  1.00  0.00     0.006 A 
ENDBRANCH  54  68
BRANCH  55  76
ATOM     76  C   UNL A   1      38.657  29.220  29.125  1.00  0.00     0.057 A 
ATOM     77  C   UNL A   1      38.119  29.663  27.912  1.00  0.00     0.134 A 
ATOM     78  C   UNL A   1      37.806  29.174  30.234  1.00  0.00     0.134 A 
ATOM     79  F   UNL A   1      38.895  29.745  26.821  1.00  0.00    -0.206 F 
ATOM     80  C   UNL A   1      36.784  30.056  27.805  1.00  0.00     0.040 A 
ATOM     81  C   UNL A   1      36.463  29.547  30.138  1.00  0.00     0.040 A 
ATOM     82  F   UNL A   1      38.263  28.753  31.422  1.00  0.00    -0.206 F 
ATOM     83  C   UNL A   1      35.952  29.994  28.922  1.00  0.00     0.006 A 
ENDBRANCH  55  76
BRANCH  67  84
ATOM     84  C   UNL A   1      44.437  32.434  31.275  1.00  0.00     0.057 A 
ATOM     85  C   UNL A   1      44.404  32.725  32.643  1.00  0.00     0.134 A 
ATOM     86  C   UNL A   1      44.754  33.475  30.394  1.00  0.00     0.134 A 
ATOM     87  F   UNL A   1      44.093  31.771  33.533  1.00  0.00    -0.206 F 
ATOM     88  C   UNL A   1      44.666  34.011  33.119  1.00  0.00     0.040 A 
ATOM     89  C   UNL A   1      45.036  34.760  30.859  1.00  0.00     0.040 A 
ATOM     90  F   UNL A   1      44.806  33.258  29.071  1.00  0.00    -0.206 F 
ATOM     91  C   UNL A   1      44.988  35.031  32.226  1.00  0.00     0.006 A 
ENDBRANCH  67  84
ENDBRANCH  41  42
ENDBRANCH  33  36
ENDBRANCH  31  32
ENDBRANCH  30  31
ENDBRANCH  29  30
ENDBRANCH   3  29
TORSDOF 15
ENDMDL
MODEL 3
REMARK VINA RESULT:     -13.2      5.182     10.332
REMARK SMILES O=C(N/N=C/c1ccccc1O)C(=O)Nc1cccc(C(=O)NCCCNC(=O)c2ccc(-c3c4nc(c(-c5c(F)cccc5F)c5ccc([nH]5)c(-c5c(F)cccc5F)c5nc(c(-c6c(F)cccc6F)c6ccc3[nH]6)C=C5)C=C4)cc2)c1
REMARK SMILES IDX 21 1 22 2 23 3 20 5 16 6 17 7 84 8 18 9 19 10 15 11 13 12
REMARK SMILES IDX 14 13 2 15 1 16 3 17 4 19 5 20 6 21 7 22 11 23 8 24 10 25
REMARK SMILES IDX 9 26 12 27 24 29 25 30 26 31 27 32 28 33 29 35 30 36 31 37
REMARK SMILES IDX 83 38 32 39 82 40 33 41 34 42 35 43 76 44 36 45 81 46 75 47
REMARK SMILES IDX 77 48 37 49 80 50 74 51 73 52 38 54 64 55 47 56 63 57 48 58
REMARK SMILES IDX 51 59 62 60 78 61 49 62 50 63 61 65 79 66 52 67 39 68 40 69
REMARK SMILES IDX 45 70 41 71 42 72 44 73 46 74 43 75 65 76 66 77 71 78 67 79
REMARK SMILES IDX 68 80 70 81 72 82 69 83 53 84 54 85 59 86 55 87 56 88 58 89
REMARK SMILES IDX 60 90 57 91
REMARK H PARENT 23 4 15 14 3 18 12 28 27 34 77 53 51 64
REMARK Flexibility Score: inf
ROOT
ATOM      1  C   UNL A   1      33.946  29.043  26.836  1.00  0.00     0.251 C 
ATOM      2  O   UNL A   1      35.045  29.038  27.394  1.00  0.00    -0.269 OA
ATOM      3  N   UNL A   1      32.908  29.744  27.396  1.00  0.00    -0.352 N 
ATOM      4  H   UNL A   1      33.057  30.031  28.326  1.00  0.00     0.163 HD
ENDROOT
BRANCH   1   5
ATOM      5  C   UNL A   1      33.814  28.223  25.606  1.00  0.00     0.041 A 
ATOM      6  C   UNL A   1      33.549  25.465  24.094  1.00  0.00     0.042 A 
ATOM      7  C   UNL A   1      33.079  26.331  22.552  1.00  0.00     0.026 A 
ATOM      8  C   UNL A   1      33.996  26.397  25.591  1.00  0.00     0.040 A 
ATOM      9  C   UNL A   1      33.094  28.166  22.523  1.00  0.00     0.003 A 
ATOM     10  C   UNL A   1      33.415  29.091  24.053  1.00  0.00     0.014 A 
BRANCH   6  11
ATOM     11  N   UNL A   1      32.957  24.216  24.259  1.00  0.00    -0.318 N 
ATOM     12  C   UNL A   1      31.769  23.935  24.922  1.00  0.00     0.315 C 
ATOM     13  O   UNL A   1      31.379  22.764  24.883  1.00  0.00    -0.263 OA
ATOM     14  H   UNL A   1      33.431  23.449  23.864  1.00  0.00     0.170 HD
BRANCH  12  15
ATOM     15  C   UNL A   1      30.839  24.965  25.625  1.00  0.00     0.329 C 
ATOM     16  O   UNL A   1      31.113  25.316  26.774  1.00  0.00    -0.262 OA
ATOM     17  N   UNL A   1      29.632  25.396  25.062  1.00  0.00    -0.239 N 
ATOM     18  H   UNL A   1      28.762  25.167  25.462  1.00  0.00     0.194 HD
BRANCH  17  19
ATOM     19  N   UNL A   1      29.725  26.151  23.922  1.00  0.00    -0.180 NA
ATOM     20  C   UNL A   1      29.826  27.505  24.122  1.00  0.00     0.145 C 
BRANCH  20  21
ATOM     21  C   UNL A   1      29.097  29.284  23.215  1.00  0.00     0.036 A 
ATOM     22  C   UNL A   1      27.749  29.970  23.432  1.00  0.00     0.013 A 
ATOM     23  C   UNL A   1      29.696  30.323  22.270  1.00  0.00     0.124 A 
ATOM     24  C   UNL A   1      27.332  31.314  23.211  1.00  0.00     0.001 A 
ATOM     25  C   UNL A   1      29.329  31.700  22.092  1.00  0.00     0.047 A 
ATOM     26  C   UNL A   1      28.177  32.214  22.628  1.00  0.00     0.004 A 
BRANCH  23  27
ATOM     27  O   UNL A   1      30.556  30.034  21.204  1.00  0.00    -0.507 OA
ATOM     28  H   UNL A   1      31.375  29.609  21.366  1.00  0.00     0.293 HD
ENDBRANCH  23  27
ENDBRANCH  20  21
ENDBRANCH  17  19
ENDBRANCH  12  15
ENDBRANCH   6  11
ENDBRANCH   1   5
BRANCH   3  29
ATOM     29  C   UNL A   1      31.625  30.131  26.837  1.00  0.00     0.118 C 
BRANCH  29  30
ATOM     30  C   UNL A   1      31.442  31.638  26.735  1.00  0.00     0.042 C 
BRANCH  30  31
ATOM     31  C   UNL A   1      32.738  32.416  26.913  1.00  0.00     0.118 C 
BRANCH  31  32
ATOM     32  N   UNL A   1      32.517  33.763  27.430  1.00  0.00    -0.352 N 
ATOM     33  C   UNL A   1      33.128  34.433  28.460  1.00  0.00     0.251 C 
ATOM     34  H   UNL A   1      31.815  34.272  26.964  1.00  0.00     0.163 HD
ATOM     35  O   UNL A   1      32.677  35.510  28.838  1.00  0.00    -0.269 OA
BRANCH  33  36
ATOM     36  C   UNL A   1      34.318  33.864  29.127  1.00  0.00     0.039 A 
ATOM     37  C   UNL A   1      34.142  32.852  30.076  1.00  0.00     0.014 A 
ATOM     38  C   UNL A   1      35.600  34.347  28.851  1.00  0.00     0.014 A 
ATOM     39  C   UNL A   1      35.255  32.280  30.698  1.00  0.00     0.010 A 
ATOM     40  C   UNL A   1      36.711  33.724  29.410  1.00  0.00     0.010 A 
ATOM     41  C   UNL A   1      36.549  32.693  30.346  1.00  0.00    -0.014 A 
BRANCH  41  42
ATOM     42  C   UNL A   1      37.751  32.078  30.960  1.00  0.00     0.031 A 
ATOM     43  C   UNL A   1      38.491  30.989  30.233  1.00  0.00     0.074 A 
ATOM     44  C   UNL A   1      38.129  32.440  32.200  1.00  0.00     0.049 A 
ATOM     45  N   UNL A   1      39.495  30.256  30.641  1.00  0.00    -0.248 NA
ATOM     46  C   UNL A   1      38.016  30.658  28.880  1.00  0.00     0.031 C 
ATOM     47  C   UNL A   1      37.460  33.445  33.031  1.00  0.00     0.029 A 
ATOM     48  N   UNL A   1      39.161  31.994  32.984  1.00  0.00    -0.354 N 
ATOM     49  C   UNL A   1      39.747  29.358  29.612  1.00  0.00     0.074 A 
ATOM     50  C   UNL A   1      38.768  29.610  28.577  1.00  0.00     0.031 C 
ATOM     51  C   UNL A   1      38.115  33.554  34.198  1.00  0.00     0.029 A 
ATOM     52  C   UNL A   1      39.227  32.608  34.211  1.00  0.00     0.049 A 
ATOM     53  H   UNL A   1      39.796  31.299  32.695  1.00  0.00     0.167 HD
ATOM     54  C   UNL A   1      40.721  28.420  29.527  1.00  0.00     0.037 A 
ATOM     55  C   UNL A   1      40.086  32.427  35.230  1.00  0.00     0.037 A 
ATOM     56  C   UNL A   1      41.727  28.207  30.532  1.00  0.00     0.049 A 
ATOM     57  C   UNL A   1      41.188  31.416  35.093  1.00  0.00     0.074 A 
ATOM     58  C   UNL A   1      42.802  27.337  30.505  1.00  0.00     0.029 A 
ATOM     59  N   UNL A   1      41.786  28.883  31.741  1.00  0.00    -0.354 N 
ATOM     60  N   UNL A   1      41.448  30.610  34.091  1.00  0.00    -0.248 NA
ATOM     61  C   UNL A   1      42.118  31.290  36.224  1.00  0.00     0.031 C 
ATOM     62  C   UNL A   1      43.501  27.471  31.710  1.00  0.00     0.029 A 
ATOM     63  C   UNL A   1      42.876  28.443  32.473  1.00  0.00     0.049 A 
ATOM     64  H   UNL A   1      41.148  29.572  32.035  1.00  0.00     0.167 HD
ATOM     65  C   UNL A   1      42.581  29.898  34.461  1.00  0.00     0.074 A 
ATOM     66  C   UNL A   1      42.965  30.375  35.775  1.00  0.00     0.031 C 
ATOM     67  C   UNL A   1      43.243  28.936  33.775  1.00  0.00     0.037 A 
BRANCH  54  68
ATOM     68  C   UNL A   1      40.745  27.565  28.296  1.00  0.00     0.057 A 
ATOM     69  C   UNL A   1      40.039  26.357  28.225  1.00  0.00     0.134 A 
ATOM     70  C   UNL A   1      41.467  27.961  27.165  1.00  0.00     0.134 A 
ATOM     71  F   UNL A   1      39.341  25.915  29.282  1.00  0.00    -0.206 F 
ATOM     72  C   UNL A   1      40.074  25.558  27.081  1.00  0.00     0.040 A 
ATOM     73  C   UNL A   1      41.490  27.182  26.006  1.00  0.00     0.040 A 
ATOM     74  F   UNL A   1      42.162  29.108  27.166  1.00  0.00    -0.206 F 
ATOM     75  C   UNL A   1      40.797  25.974  25.964  1.00  0.00     0.006 A 
ENDBRANCH  54  68
BRANCH  55  76
ATOM     76  C   UNL A   1      39.962  33.252  36.456  1.00  0.00     0.057 A 
ATOM     77  C   UNL A   1      39.122  32.855  37.503  1.00  0.00     0.134 A 
ATOM     78  C   UNL A   1      40.678  34.443  36.613  1.00  0.00     0.134 A 
ATOM     79  F   UNL A   1      38.398  31.731  37.397  1.00  0.00    -0.206 F 
ATOM     80  C   UNL A   1      38.992  33.619  38.663  1.00  0.00     0.040 A 
ATOM     81  C   UNL A   1      40.570  35.209  37.776  1.00  0.00     0.040 A 
ATOM     82  F   UNL A   1      41.501  34.871  35.646  1.00  0.00    -0.206 F 
ATOM     83  C   UNL A   1      39.722  34.799  38.802  1.00  0.00     0.006 A 
ENDBRANCH  55  76
BRANCH  67  84
ATOM     84  C   UNL A   1      44.460  28.353  34.423  1.00  0.00     0.057 A 
ATOM     85  C   UNL A   1      44.388  27.211  35.227  1.00  0.00     0.134 A 
ATOM     86  C   UNL A   1      45.722  28.920  34.208  1.00  0.00     0.134 A 
ATOM     87  F   UNL A   1      43.204  26.632  35.480  1.00  0.00    -0.206 F 
ATOM     88  C   UNL A   1      45.529  26.657  35.808  1.00  0.00     0.040 A 
ATOM     89  C   UNL A   1      46.873  28.365  34.768  1.00  0.00     0.040 A 
ATOM     90  F   UNL A   1      45.857  30.014  33.442  1.00  0.00    -0.206 F 
ATOM     91  C   UNL A   1      46.777  27.232  35.574  1.00  0.00     0.006 A 
ENDBRANCH  67  84
ENDBRANCH  41  42
ENDBRANCH  33  36
ENDBRANCH  31  32
ENDBRANCH  30  31
ENDBRANCH  29  30
ENDBRANCH   3  29
TORSDOF 15
ENDMDL
