MODEL 1
REMARK VINA RESULT:     -11.8      0.000      0.000
REMARK SMILES O=C(NCCCNC(=O)c1ccc(-c2c(F)cccc2F)cn1)c1ccc(-c2c3nc(c(-c4c(F)cccc4F)c4ccc([nH]4)c(-c4c(F)cccc4F)c4nc(c(-c5c(F)cccc5F)c5ccc2[nH]5)C=C4)C=C3)cc1
REMARK SMILES IDX 4 1 3 2 1 3 2 4 24 6 25 7 77 8 26 9 76 10 27 11 28 12 29 13
REMARK SMILES IDX 70 14 30 15 75 16 69 17 71 18 31 19 74 20 68 21 67 22 32 24
REMARK SMILES IDX 58 25 41 26 57 27 42 28 45 29 56 30 72 31 43 32 44 33 55 35
REMARK SMILES IDX 73 36 46 37 33 38 34 39 39 40 35 41 36 42 38 43 40 44 37 45
REMARK SMILES IDX 59 46 60 47 65 48 61 49 62 50 64 51 66 52 63 53 47 54 48 55
REMARK SMILES IDX 53 56 49 57 50 58 52 59 54 60 51 61 5 62 6 63 7 64 8 65 9 67
REMARK SMILES IDX 10 68 11 69 23 70 12 71 22 72 13 73 14 74 15 75 20 76 16 77
REMARK SMILES IDX 17 78 19 79 21 80 18 81
REMARK H PARENT 3 5 71 23 45 34 7 66
REMARK Flexibility Score: inf
ROOT
ATOM      1  C   UNL A   1      38.688  20.082  25.431  1.00  0.00     0.118 C 
ENDROOT
BRANCH   1   2
ATOM      2  N   UNL A   1      39.834  19.204  25.629  1.00  0.00    -0.352 N 
ATOM      3  O   UNL A   1      41.981  18.617  25.955  1.00  0.00    -0.269 OA
ATOM      4  C   UNL A   1      41.112  19.485  26.038  1.00  0.00     0.251 C 
ATOM      5  H   UNL A   1      39.662  18.253  25.439  1.00  0.00     0.163 HD
BRANCH   4   6
ATOM      6  C   UNL A   1      41.465  20.825  26.553  1.00  0.00     0.039 A 
ATOM      7  C   UNL A   1      41.925  21.831  25.700  1.00  0.00     0.014 A 
ATOM      8  C   UNL A   1      41.293  21.091  27.914  1.00  0.00     0.014 A 
ATOM      9  C   UNL A   1      42.359  23.043  26.225  1.00  0.00     0.010 A 
ATOM     10  C   UNL A   1      41.642  22.341  28.427  1.00  0.00     0.010 A 
ATOM     11  C   UNL A   1      42.209  23.316  27.592  1.00  0.00    -0.014 A 
BRANCH  11  12
ATOM     12  C   UNL A   1      42.601  24.640  28.137  1.00  0.00     0.031 A 
ATOM     13  C   UNL A   1      41.571  25.710  28.363  1.00  0.00     0.074 A 
ATOM     14  C   UNL A   1      43.896  24.878  28.412  1.00  0.00     0.049 A 
ATOM     15  N   UNL A   1      41.741  26.949  28.752  1.00  0.00    -0.248 NA
ATOM     16  C   UNL A   1      40.169  25.346  28.110  1.00  0.00     0.031 C 
ATOM     17  C   UNL A   1      44.984  23.912  28.244  1.00  0.00     0.029 A 
ATOM     18  N   UNL A   1      44.521  26.004  28.883  1.00  0.00    -0.354 N 
ATOM     19  C   UNL A   1      40.475  27.517  28.769  1.00  0.00     0.074 A 
ATOM     20  C   UNL A   1      39.548  26.498  28.324  1.00  0.00     0.031 C 
ATOM     21  C   UNL A   1      46.136  24.478  28.628  1.00  0.00     0.029 A 
ATOM     22  C   UNL A   1      45.882  25.864  29.004  1.00  0.00     0.049 A 
ATOM     23  H   UNL A   1      44.041  26.832  29.114  1.00  0.00     0.167 HD
ATOM     24  C   UNL A   1      40.120  28.774  29.130  1.00  0.00     0.037 A 
ATOM     25  C   UNL A   1      46.827  26.758  29.346  1.00  0.00     0.037 A 
ATOM     26  C   UNL A   1      41.052  29.777  29.580  1.00  0.00     0.049 A 
ATOM     27  C   UNL A   1      46.420  28.161  29.687  1.00  0.00     0.074 A 
ATOM     28  C   UNL A   1      40.788  31.069  29.999  1.00  0.00     0.029 A 
ATOM     29  N   UNL A   1      42.426  29.601  29.662  1.00  0.00    -0.354 N 
ATOM     30  N   UNL A   1      45.218  28.683  29.719  1.00  0.00    -0.248 NA
ATOM     31  C   UNL A   1      47.493  29.101  30.036  1.00  0.00     0.031 C 
ATOM     32  C   UNL A   1      42.006  31.694  30.277  1.00  0.00     0.029 A 
ATOM     33  C   UNL A   1      43.025  30.773  30.096  1.00  0.00     0.049 A 
ATOM     34  H   UNL A   1      42.904  28.769  29.444  1.00  0.00     0.167 HD
ATOM     35  C   UNL A   1      45.385  30.002  30.114  1.00  0.00     0.074 A 
ATOM     36  C   UNL A   1      46.807  30.202  30.314  1.00  0.00     0.031 C 
ATOM     37  C   UNL A   1      44.441  30.957  30.301  1.00  0.00     0.037 A 
BRANCH  24  38
ATOM     38  C   UNL A   1      38.668  29.147  29.031  1.00  0.00     0.057 A 
ATOM     39  C   UNL A   1      38.132  29.610  27.822  1.00  0.00     0.134 A 
ATOM     40  C   UNL A   1      37.809  29.096  30.137  1.00  0.00     0.134 A 
ATOM     41  F   UNL A   1      38.899  29.696  26.724  1.00  0.00    -0.206 F 
ATOM     42  C   UNL A   1      36.798  30.011  27.717  1.00  0.00     0.040 A 
ATOM     43  C   UNL A   1      36.466  29.465  30.037  1.00  0.00     0.040 A 
ATOM     44  F   UNL A   1      38.253  28.654  31.324  1.00  0.00    -0.206 F 
ATOM     45  C   UNL A   1      35.959  29.931  28.826  1.00  0.00     0.006 A 
ENDBRANCH  24  38
BRANCH  25  46
ATOM     46  C   UNL A   1      48.247  26.328  29.381  1.00  0.00     0.057 A 
ATOM     47  C   UNL A   1      48.816  25.782  30.540  1.00  0.00     0.134 A 
ATOM     48  C   UNL A   1      49.086  26.528  28.281  1.00  0.00     0.134 A 
ATOM     49  F   UNL A   1      48.065  25.578  31.632  1.00  0.00    -0.206 F 
ATOM     50  C   UNL A   1      50.177  25.479  30.612  1.00  0.00     0.040 A 
ATOM     51  C   UNL A   1      50.444  26.205  28.332  1.00  0.00     0.040 A 
ATOM     52  F   UNL A   1      48.595  27.036  27.141  1.00  0.00    -0.206 F 
ATOM     53  C   UNL A   1      50.994  25.691  29.505  1.00  0.00     0.006 A 
ENDBRANCH  25  46
BRANCH  37  54
ATOM     54  C   UNL A   1      44.895  32.306  30.779  1.00  0.00     0.057 A 
ATOM     55  C   UNL A   1      44.957  32.584  32.151  1.00  0.00     0.134 A 
ATOM     56  C   UNL A   1      45.160  33.354  29.892  1.00  0.00     0.134 A 
ATOM     57  F   UNL A   1      44.705  31.623  33.054  1.00  0.00    -0.206 F 
ATOM     58  C   UNL A   1      45.241  33.865  32.624  1.00  0.00     0.040 A 
ATOM     59  C   UNL A   1      45.470  34.635  30.354  1.00  0.00     0.040 A 
ATOM     60  F   UNL A   1      45.128  33.150  28.567  1.00  0.00    -0.206 F 
ATOM     61  C   UNL A   1      45.497  34.896  31.723  1.00  0.00     0.006 A 
ENDBRANCH  37  54
ENDBRANCH  11  12
ENDBRANCH   4   6
ENDBRANCH   1   2
BRANCH   1  62
ATOM     62  C   UNL A   1      37.454  19.338  24.942  1.00  0.00     0.042 C 
BRANCH  62  63
ATOM     63  C   UNL A   1      36.186  20.180  24.932  1.00  0.00     0.118 C 
BRANCH  63  64
ATOM     64  N   UNL A   1      34.981  19.368  24.899  1.00  0.00    -0.351 N 
ATOM     65  C   UNL A   1      33.674  19.726  25.154  1.00  0.00     0.269 C 
ATOM     66  H   UNL A   1      35.117  18.423  24.659  1.00  0.00     0.163 HD
ATOM     67  O   UNL A   1      32.816  18.850  25.215  1.00  0.00    -0.268 OA
BRANCH  65  68
ATOM     68  C   UNL A   1      33.321  21.163  25.321  1.00  0.00     0.128 A 
ATOM     69  C   UNL A   1      33.009  21.931  24.209  1.00  0.00     0.035 A 
ATOM     70  N   UNL A   1      33.328  21.645  26.587  1.00  0.00    -0.250 NA
ATOM     71  C   UNL A   1      32.747  23.286  24.395  1.00  0.00     0.013 A 
ATOM     72  C   UNL A   1      33.033  22.959  26.732  1.00  0.00     0.120 A 
ATOM     73  C   UNL A   1      32.749  23.838  25.683  1.00  0.00     0.006 A 
BRANCH  73  74
ATOM     74  C   UNL A   1      32.465  25.263  25.910  1.00  0.00     0.055 A 
ATOM     75  C   UNL A   1      33.483  26.227  25.911  1.00  0.00     0.134 A 
ATOM     76  C   UNL A   1      31.163  25.729  26.148  1.00  0.00     0.134 A 
ATOM     77  F   UNL A   1      34.756  25.864  25.685  1.00  0.00    -0.206 F 
ATOM     78  C   UNL A   1      33.226  27.580  26.135  1.00  0.00     0.040 A 
ATOM     79  C   UNL A   1      30.887  27.078  26.376  1.00  0.00     0.040 A 
ATOM     80  F   UNL A   1      30.134  24.866  26.181  1.00  0.00    -0.206 F 
ATOM     81  C   UNL A   1      31.923  28.008  26.369  1.00  0.00     0.006 A 
ENDBRANCH  73  74
ENDBRANCH  65  68
ENDBRANCH  63  64
ENDBRANCH  62  63
ENDBRANCH   1  62
TORSDOF 11
ENDMDL
MODEL 2
REMARK VINA RESULT:     -11.8      1.209      2.229
REMARK SMILES O=C(NCCCNC(=O)c1ccc(-c2c(F)cccc2F)cn1)c1ccc(-c2c3nc(c(-c4c(F)cccc4F)c4ccc([nH]4)c(-c4c(F)cccc4F)c4nc(c(-c5c(F)cccc5F)c5ccc2[nH]5)C=C4)C=C3)cc1
REMARK SMILES IDX 4 1 3 2 1 3 2 4 24 6 25 7 77 8 26 9 76 10 27 11 28 12 29 13
REMARK SMILES IDX 70 14 30 15 75 16 69 17 71 18 31 19 74 20 68 21 67 22 32 24
REMARK SMILES IDX 58 25 41 26 57 27 42 28 45 29 56 30 72 31 43 32 44 33 55 35
REMARK SMILES IDX 73 36 46 37 33 38 34 39 39 40 35 41 36 42 38 43 40 44 37 45
REMARK SMILES IDX 59 46 60 47 65 48 61 49 62 50 64 51 66 52 63 53 47 54 48 55
REMARK SMILES IDX 53 56 49 57 50 58 52 59 54 60 51 61 5 62 6 63 7 64 8 65 9 67
REMARK SMILES IDX 10 68 11 69 23 70 12 71 22 72 13 73 14 74 15 75 20 76 16 77
REMARK SMILES IDX 17 78 19 79 21 80 18 81
REMARK H PARENT 3 5 71 23 45 34 7 66
REMARK Flexibility Score: inf
ROOT
ATOM      1  C   UNL A   1      38.961  19.982  25.647  1.00  0.00     0.118 C 
ENDROOT
BRANCH   1   2
ATOM      2  N   UNL A   1      40.069  19.041  25.751  1.00  0.00    -0.352 N 
ATOM      3  O   UNL A   1      42.202  18.333  25.850  1.00  0.00    -0.269 OA
ATOM      4  C   UNL A   1      41.402  19.257  25.993  1.00  0.00     0.251 C 
ATOM      5  H   UNL A   1      39.821  18.097  25.626  1.00  0.00     0.163 HD
BRANCH   4   6
ATOM      6  C   UNL A   1      41.891  20.590  26.401  1.00  0.00     0.039 A 
ATOM      7  C   UNL A   1      42.066  20.918  27.747  1.00  0.00     0.014 A 
ATOM      8  C   UNL A   1      42.219  21.520  25.410  1.00  0.00     0.014 A 
ATOM      9  C   UNL A   1      42.415  22.214  28.108  1.00  0.00     0.010 A 
ATOM     10  C   UNL A   1      42.660  22.794  25.771  1.00  0.00     0.010 A 
ATOM     11  C   UNL A   1      42.730  23.162  27.123  1.00  0.00    -0.014 A 
BRANCH  11  12
ATOM     12  C   UNL A   1      43.179  24.522  27.512  1.00  0.00     0.031 A 
ATOM     13  C   UNL A   1      42.186  25.562  27.947  1.00  0.00     0.074 A 
ATOM     14  C   UNL A   1      44.490  24.821  27.453  1.00  0.00     0.049 A 
ATOM     15  N   UNL A   1      42.386  26.822  28.241  1.00  0.00    -0.248 NA
ATOM     16  C   UNL A   1      40.783  25.134  28.057  1.00  0.00     0.031 C 
ATOM     17  C   UNL A   1      45.548  23.890  27.056  1.00  0.00     0.029 A 
ATOM     18  N   UNL A   1      45.156  25.990  27.720  1.00  0.00    -0.354 N 
ATOM     19  C   UNL A   1      41.136  27.343  28.548  1.00  0.00     0.074 A 
ATOM     20  C   UNL A   1      40.179  26.270  28.378  1.00  0.00     0.031 C 
ATOM     21  C   UNL A   1      46.731  24.515  27.128  1.00  0.00     0.029 A 
ATOM     22  C   UNL A   1      46.511  25.906  27.508  1.00  0.00     0.049 A 
ATOM     23  H   UNL A   1      44.708  26.808  28.033  1.00  0.00     0.167 HD
ATOM     24  C   UNL A   1      40.821  28.600  28.944  1.00  0.00     0.037 A 
ATOM     25  C   UNL A   1      47.468  26.849  27.578  1.00  0.00     0.037 A 
ATOM     26  C   UNL A   1      41.786  29.655  29.118  1.00  0.00     0.049 A 
ATOM     27  C   UNL A   1      47.090  28.249  27.962  1.00  0.00     0.074 A 
ATOM     28  C   UNL A   1      41.572  30.954  29.546  1.00  0.00     0.029 A 
ATOM     29  N   UNL A   1      43.145  29.536  28.867  1.00  0.00    -0.354 N 
ATOM     30  N   UNL A   1      45.908  28.726  28.269  1.00  0.00    -0.248 NA
ATOM     31  C   UNL A   1      48.170  29.243  28.006  1.00  0.00     0.031 C 
ATOM     32  C   UNL A   1      42.789  31.636  29.496  1.00  0.00     0.029 A 
ATOM     33  C   UNL A   1      43.776  30.747  29.102  1.00  0.00     0.049 A 
ATOM     34  H   UNL A   1      43.595  28.714  28.566  1.00  0.00     0.167 HD
ATOM     35  C   UNL A   1      46.104  30.067  28.567  1.00  0.00     0.074 A 
ATOM     36  C   UNL A   1      47.520  30.329  28.406  1.00  0.00     0.031 C 
ATOM     37  C   UNL A   1      45.190  30.993  28.947  1.00  0.00     0.037 A 
BRANCH  24  38
ATOM     38  C   UNL A   1      39.373  28.913  29.191  1.00  0.00     0.057 A 
ATOM     39  C   UNL A   1      38.572  29.437  28.166  1.00  0.00     0.134 A 
ATOM     40  C   UNL A   1      38.778  28.744  30.448  1.00  0.00     0.134 A 
ATOM     41  F   UNL A   1      39.078  29.636  26.940  1.00  0.00    -0.206 F 
ATOM     42  C   UNL A   1      37.237  29.783  28.385  1.00  0.00     0.040 A 
ATOM     43  C   UNL A   1      37.436  29.058  30.670  1.00  0.00     0.040 A 
ATOM     44  F   UNL A   1      39.484  28.238  31.472  1.00  0.00    -0.206 F 
ATOM     45  C   UNL A   1      36.664  29.587  29.638  1.00  0.00     0.006 A 
ENDBRANCH  24  38
BRANCH  25  46
ATOM     46  C   UNL A   1      48.872  26.475  27.279  1.00  0.00     0.057 A 
ATOM     47  C   UNL A   1      49.357  26.449  25.965  1.00  0.00     0.134 A 
ATOM     48  C   UNL A   1      49.737  26.058  28.296  1.00  0.00     0.134 A 
ATOM     49  F   UNL A   1      48.571  26.825  24.946  1.00  0.00    -0.206 F 
ATOM     50  C   UNL A   1      50.642  25.993  25.670  1.00  0.00     0.040 A 
ATOM     51  C   UNL A   1      51.034  25.623  28.017  1.00  0.00     0.040 A 
ATOM     52  F   UNL A   1      49.333  26.073  29.574  1.00  0.00    -0.206 F 
ATOM     53  C   UNL A   1      51.484  25.578  26.698  1.00  0.00     0.006 A 
ENDBRANCH  25  46
BRANCH  37  54
ATOM     54  C   UNL A   1      45.681  32.378  29.255  1.00  0.00     0.057 A 
ATOM     55  C   UNL A   1      45.767  33.339  28.239  1.00  0.00     0.134 A 
ATOM     56  C   UNL A   1      46.169  32.725  30.519  1.00  0.00     0.134 A 
ATOM     57  F   UNL A   1      45.324  33.065  27.001  1.00  0.00    -0.206 F 
ATOM     58  C   UNL A   1      46.347  34.587  28.463  1.00  0.00     0.040 A 
ATOM     59  C   UNL A   1      46.729  33.981  30.762  1.00  0.00     0.040 A 
ATOM     60  F   UNL A   1      46.105  31.854  31.537  1.00  0.00    -0.206 F 
ATOM     61  C   UNL A   1      46.832  34.911  29.728  1.00  0.00     0.006 A 
ENDBRANCH  37  54
ENDBRANCH  11  12
ENDBRANCH   4   6
ENDBRANCH   1   2
BRANCH   1  62
ATOM     62  C   UNL A   1      37.766  19.405  24.902  1.00  0.00     0.042 C 
BRANCH  62  63
ATOM     63  C   UNL A   1      36.506  20.253  25.000  1.00  0.00     0.118 C 
BRANCH  63  64
ATOM     64  N   UNL A   1      35.294  19.450  24.974  1.00  0.00    -0.351 N 
ATOM     65  C   UNL A   1      33.996  19.812  25.263  1.00  0.00     0.269 C 
ATOM     66  H   UNL A   1      35.418  18.510  24.711  1.00  0.00     0.163 HD
ATOM     67  O   UNL A   1      33.132  18.941  25.322  1.00  0.00    -0.268 OA
BRANCH  65  68
ATOM     68  C   UNL A   1      33.657  21.247  25.469  1.00  0.00     0.128 A 
ATOM     69  C   UNL A   1      33.704  21.792  26.744  1.00  0.00     0.035 A 
ATOM     70  N   UNL A   1      33.310  21.951  24.365  1.00  0.00    -0.250 NA
ATOM     71  C   UNL A   1      33.317  23.120  26.908  1.00  0.00     0.013 A 
ATOM     72  C   UNL A   1      32.974  23.249  24.560  1.00  0.00     0.120 A 
ATOM     73  C   UNL A   1      32.941  23.891  25.801  1.00  0.00     0.006 A 
BRANCH  73  74
ATOM     74  C   UNL A   1      32.539  25.299  25.945  1.00  0.00     0.055 A 
ATOM     75  C   UNL A   1      31.197  25.668  26.119  1.00  0.00     0.134 A 
ATOM     76  C   UNL A   1      33.474  26.343  25.902  1.00  0.00     0.134 A 
ATOM     77  F   UNL A   1      30.241  24.727  26.176  1.00  0.00    -0.206 F 
ATOM     78  C   UNL A   1      30.804  27.001  26.246  1.00  0.00     0.040 A 
ATOM     79  C   UNL A   1      33.098  27.682  26.026  1.00  0.00     0.040 A 
ATOM     80  F   UNL A   1      34.777  26.074  25.720  1.00  0.00    -0.206 F 
ATOM     81  C   UNL A   1      31.757  28.012  26.199  1.00  0.00     0.006 A 
ENDBRANCH  73  74
ENDBRANCH  65  68
ENDBRANCH  63  64
ENDBRANCH  62  63
ENDBRANCH   1  62
TORSDOF 11
ENDMDL
MODEL 3
REMARK VINA RESULT:     -11.8      2.655      7.486
REMARK SMILES O=C(NCCCNC(=O)c1ccc(-c2c(F)cccc2F)cn1)c1ccc(-c2c3nc(c(-c4c(F)cccc4F)c4ccc([nH]4)c(-c4c(F)cccc4F)c4nc(c(-c5c(F)cccc5F)c5ccc2[nH]5)C=C4)C=C3)cc1
REMARK SMILES IDX 4 1 3 2 1 3 2 4 24 6 25 7 77 8 26 9 76 10 27 11 28 12 29 13
REMARK SMILES IDX 70 14 30 15 75 16 69 17 71 18 31 19 74 20 68 21 67 22 32 24
REMARK SMILES IDX 58 25 41 26 57 27 42 28 45 29 56 30 72 31 43 32 44 33 55 35
REMARK SMILES IDX 73 36 46 37 33 38 34 39 39 40 35 41 36 42 38 43 40 44 37 45
REMARK SMILES IDX 59 46 60 47 65 48 61 49 62 50 64 51 66 52 63 53 47 54 48 55
REMARK SMILES IDX 53 56 49 57 50 58 52 59 54 60 51 61 5 62 6 63 7 64 8 65 9 67
REMARK SMILES IDX 10 68 11 69 23 70 12 71 22 72 13 73 14 74 15 75 20 76 16 77
REMARK SMILES IDX 17 78 19 79 21 80 18 81
REMARK H PARENT 3 5 71 23 45 34 7 66
REMARK Flexibility Score: inf
ROOT
ATOM      1  C   UNL A   1      33.984  28.492  27.117  1.00  0.00     0.118 C 
ENDROOT
BRANCH   1   2
ATOM      2  N   UNL A   1      33.903  29.851  27.635  1.00  0.00    -0.352 N 
ATOM      3  O   UNL A   1      34.472  31.658  28.849  1.00  0.00    -0.269 OA
ATOM      4  C   UNL A   1      34.817  30.592  28.340  1.00  0.00     0.251 C 
ATOM      5  H   UNL A   1      33.055  30.314  27.449  1.00  0.00     0.163 HD
BRANCH   4   6
ATOM      6  C   UNL A   1      36.204  30.112  28.519  1.00  0.00     0.039 A 
ATOM      7  C   UNL A   1      36.637  29.588  29.738  1.00  0.00     0.014 A 
ATOM      8  C   UNL A   1      37.077  30.153  27.428  1.00  0.00     0.014 A 
ATOM      9  C   UNL A   1      37.976  29.252  29.915  1.00  0.00     0.010 A 
ATOM     10  C   UNL A   1      38.398  29.728  27.579  1.00  0.00     0.010 A 
ATOM     11  C   UNL A   1      38.866  29.306  28.833  1.00  0.00    -0.014 A 
BRANCH  11  12
ATOM     12  C   UNL A   1      40.275  28.872  29.004  1.00  0.00     0.031 A 
ATOM     13  C   UNL A   1      41.303  29.810  29.570  1.00  0.00     0.074 A 
ATOM     14  C   UNL A   1      40.629  27.629  28.627  1.00  0.00     0.049 A 
ATOM     15  N   UNL A   1      42.592  29.633  29.713  1.00  0.00    -0.248 NA
ATOM     16  C   UNL A   1      40.821  31.123  30.028  1.00  0.00     0.031 C 
ATOM     17  C   UNL A   1      39.716  26.626  28.075  1.00  0.00     0.029 A 
ATOM     18  N   UNL A   1      41.846  26.999  28.645  1.00  0.00    -0.354 N 
ATOM     19  C   UNL A   1      43.079  30.815  30.254  1.00  0.00     0.074 A 
ATOM     20  C   UNL A   1      41.952  31.714  30.388  1.00  0.00     0.031 C 
ATOM     21  C   UNL A   1      40.400  25.500  27.828  1.00  0.00     0.029 A 
ATOM     22  C   UNL A   1      41.808  25.722  28.139  1.00  0.00     0.049 A 
ATOM     23  H   UNL A   1      42.668  27.419  28.988  1.00  0.00     0.167 HD
ATOM     24  C   UNL A   1      44.351  31.117  30.612  1.00  0.00     0.037 A 
ATOM     25  C   UNL A   1      42.797  24.837  27.919  1.00  0.00     0.037 A 
ATOM     26  C   UNL A   1      45.462  30.209  30.482  1.00  0.00     0.049 A 
ATOM     27  C   UNL A   1      44.207  25.212  28.268  1.00  0.00     0.074 A 
ATOM     28  C   UNL A   1      46.782  30.408  30.846  1.00  0.00     0.029 A 
ATOM     29  N   UNL A   1      45.384  28.934  29.940  1.00  0.00    -0.354 N 
ATOM     30  N   UNL A   1      44.654  26.326  28.798  1.00  0.00    -0.248 NA
ATOM     31  C   UNL A   1      45.250  24.217  27.990  1.00  0.00     0.031 C 
ATOM     32  C   UNL A   1      47.513  29.280  30.469  1.00  0.00     0.029 A 
ATOM     33  C   UNL A   1      46.639  28.348  29.932  1.00  0.00     0.049 A 
ATOM     34  H   UNL A   1      44.560  28.509  29.610  1.00  0.00     0.167 HD
ATOM     35  C   UNL A   1      46.023  26.157  28.939  1.00  0.00     0.074 A 
ATOM     36  C   UNL A   1      46.336  24.832  28.442  1.00  0.00     0.031 C 
ATOM     37  C   UNL A   1      46.937  27.023  29.443  1.00  0.00     0.037 A 
BRANCH  24  38
ATOM     38  C   UNL A   1      44.616  32.492  31.156  1.00  0.00     0.057 A 
ATOM     39  C   UNL A   1      44.491  32.753  32.527  1.00  0.00     0.134 A 
ATOM     40  C   UNL A   1      44.947  33.571  30.325  1.00  0.00     0.134 A 
ATOM     41  F   UNL A   1      44.166  31.770  33.381  1.00  0.00    -0.206 F 
ATOM     42  C   UNL A   1      44.684  34.033  33.050  1.00  0.00     0.040 A 
ATOM     43  C   UNL A   1      45.172  34.849  30.840  1.00  0.00     0.040 A 
ATOM     44  F   UNL A   1      45.092  33.391  29.003  1.00  0.00    -0.206 F 
ATOM     45  C   UNL A   1      45.032  35.084  32.206  1.00  0.00     0.006 A 
ENDBRANCH  24  38
BRANCH  25  46
ATOM     46  C   UNL A   1      42.463  23.513  27.340  1.00  0.00     0.057 A 
ATOM     47  C   UNL A   1      42.163  22.414  28.155  1.00  0.00     0.134 A 
ATOM     48  C   UNL A   1      42.516  23.298  25.959  1.00  0.00     0.134 A 
ATOM     49  F   UNL A   1      42.109  22.554  29.488  1.00  0.00    -0.206 F 
ATOM     50  C   UNL A   1      41.956  21.141  27.620  1.00  0.00     0.040 A 
ATOM     51  C   UNL A   1      42.287  22.035  25.409  1.00  0.00     0.040 A 
ATOM     52  F   UNL A   1      42.788  24.314  25.128  1.00  0.00    -0.206 F 
ATOM     53  C   UNL A   1      42.019  20.950  26.243  1.00  0.00     0.006 A 
ENDBRANCH  25  46
BRANCH  37  54
ATOM     54  C   UNL A   1      48.364  26.568  29.524  1.00  0.00     0.057 A 
ATOM     55  C   UNL A   1      48.835  25.922  30.675  1.00  0.00     0.134 A 
ATOM     56  C   UNL A   1      49.293  26.863  28.521  1.00  0.00     0.134 A 
ATOM     57  F   UNL A   1      47.997  25.618  31.679  1.00  0.00    -0.206 F 
ATOM     58  C   UNL A   1      50.186  25.610  30.835  1.00  0.00     0.040 A 
ATOM     59  C   UNL A   1      50.642  26.533  28.659  1.00  0.00     0.040 A 
ATOM     60  F   UNL A   1      48.903  27.470  27.390  1.00  0.00    -0.206 F 
ATOM     61  C   UNL A   1      51.094  25.918  29.826  1.00  0.00     0.006 A 
ENDBRANCH  37  54
ENDBRANCH  11  12
ENDBRANCH   4   6
ENDBRANCH   1   2
BRANCH   1  62
ATOM     62  C   UNL A   1      32.616  27.894  26.819  1.00  0.00     0.042 C 
BRANCH  62  63
ATOM     63  C   UNL A   1      32.163  28.071  25.377  1.00  0.00     0.118 C 
BRANCH  63  64
ATOM     64  N   UNL A   1      31.134  27.117  24.997  1.00  0.00    -0.351 N 
ATOM     65  C   UNL A   1      31.257  25.794  24.632  1.00  0.00     0.269 C 
ATOM     66  H   UNL A   1      30.214  27.467  25.002  1.00  0.00     0.163 HD
ATOM     67  O   UNL A   1      30.272  25.198  24.205  1.00  0.00    -0.268 OA
BRANCH  65  68
ATOM     68  C   UNL A   1      32.565  25.101  24.789  1.00  0.00     0.128 A 
ATOM     69  C   UNL A   1      33.508  25.167  23.772  1.00  0.00     0.035 A 
ATOM     70  N   UNL A   1      32.759  24.429  25.948  1.00  0.00    -0.250 NA
ATOM     71  C   UNL A   1      34.694  24.454  23.926  1.00  0.00     0.013 A 
ATOM     72  C   UNL A   1      33.940  23.776  26.075  1.00  0.00     0.120 A 
ATOM     73  C   UNL A   1      34.942  23.734  25.102  1.00  0.00     0.006 A 
BRANCH  73  74
ATOM     74  C   UNL A   1      36.191  22.982  25.294  1.00  0.00     0.055 A 
ATOM     75  C   UNL A   1      36.323  21.652  24.868  1.00  0.00     0.134 A 
ATOM     76  C   UNL A   1      37.308  23.551  25.923  1.00  0.00     0.134 A 
ATOM     77  F   UNL A   1      35.301  21.036  24.252  1.00  0.00    -0.206 F 
ATOM     78  C   UNL A   1      37.500  20.926  25.056  1.00  0.00     0.040 A 
ATOM     79  C   UNL A   1      38.492  22.838  26.120  1.00  0.00     0.040 A 
ATOM     80  F   UNL A   1      37.255  24.814  26.376  1.00  0.00    -0.206 F 
ATOM     81  C   UNL A   1      38.589  21.520  25.684  1.00  0.00     0.006 A 
ENDBRANCH  73  74
ENDBRANCH  65  68
ENDBRANCH  63  64
ENDBRANCH  62  63
ENDBRANCH   1  62
TORSDOF 11
ENDMDL
