MODEL 1
REMARK VINA RESULT:     -13.0      0.000      0.000
REMARK SMILES O=C(NCCCNC(=O)c1ccc(-c2c3nc(c(-c4c(F)cccc4F)c4ccc([nH]4)c(-c4c(F)cccc4F)c4nc(c(-c5c(F)cccc5F)c5ccc2[nH]5)C=C4)C=C3)cc1)c1ccc(/[NH+]=C2\S[C@@H](Cc3ccc(F)cc3)C(=O)N2Cc2ccccc2)cc1
REMARK SMILES IDX 4 1 3 2 1 3 2 4 64 6 65 7 91 8 66 9 90 10 67 11 68 12 69 13
REMARK SMILES IDX 70 15 82 16 71 17 80 18 81 19 83 20 84 21 85 22 89 23 86 24
REMARK SMILES IDX 88 25 87 26 72 27 73 28 74 29 79 30 75 31 78 32 76 33 77 34
REMARK SMILES IDX 5 35 6 36 7 37 8 38 9 40 10 41 11 42 63 43 12 44 62 45 13 46
REMARK SMILES IDX 14 47 15 48 56 49 16 50 61 51 55 52 57 53 17 54 60 55 54 56
REMARK SMILES IDX 53 57 18 59 44 60 27 61 43 62 28 63 31 64 42 65 58 66 29 67
REMARK SMILES IDX 30 68 41 70 59 71 32 72 19 73 20 74 25 75 21 76 22 77 24 78
REMARK SMILES IDX 26 79 23 80 45 81 46 82 51 83 47 84 48 85 50 86 52 87 49 88
REMARK SMILES IDX 33 89 34 90 39 91 35 92 36 93 38 94 40 95 37 96
REMARK H PARENT 3 5 68 14 7 39 57 58 31 69
REMARK Flexibility Score: inf
ROOT
ATOM      1  C   UNL A   1      41.703  20.104  26.107  1.00  0.00     0.118 C 
ENDROOT
BRANCH   1   2
ATOM      2  N   UNL A   1      41.796  20.947  27.293  1.00  0.00    -0.352 N 
ATOM      3  O   UNL A   1      41.411  22.714  28.635  1.00  0.00    -0.269 OA
ATOM      4  C   UNL A   1      41.049  22.035  27.676  1.00  0.00     0.251 C 
ATOM      5  H   UNL A   1      42.509  20.694  27.923  1.00  0.00     0.163 HD
BRANCH   4   6
ATOM      6  C   UNL A   1      39.830  22.412  26.930  1.00  0.00     0.040 A 
ATOM      7  C   UNL A   1      39.199  21.499  26.087  1.00  0.00     0.018 A 
ATOM      8  C   UNL A   1      39.293  23.693  27.097  1.00  0.00     0.018 A 
ATOM      9  C   UNL A   1      38.141  21.922  25.291  1.00  0.00     0.052 A 
ATOM     10  C   UNL A   1      38.190  24.093  26.333  1.00  0.00     0.052 A 
ATOM     11  C   UNL A   1      37.652  23.230  25.377  1.00  0.00     0.125 A 
BRANCH  11  12
ATOM     12  N   UNL A   1      36.600  23.570  24.522  1.00  0.00    -0.235 N 
ATOM     13  C   UNL A   1      35.537  22.846  24.417  1.00  0.00     0.320 C 
ATOM     14  H   UNL A   1      36.672  24.389  23.981  1.00  0.00     0.313 HD
ATOM     15  S   UNL A   1      35.260  21.256  25.075  1.00  0.00    -0.022 SA
ATOM     16  N   UNL A   1      34.419  23.296  23.765  1.00  0.00    -0.186 N 
ATOM     17  C   UNL A   1      33.770  21.007  24.057  1.00  0.00     0.178 C 
ATOM     18  C   UNL A   1      33.363  22.414  23.646  1.00  0.00     0.324 C 
ATOM     19  O   UNL A   1      32.262  22.708  23.194  1.00  0.00    -0.245 OA
BRANCH  16  20
ATOM     20  C   UNL A   1      34.303  24.667  23.282  1.00  0.00     0.283 C 
BRANCH  20  21
ATOM     21  C   UNL A   1      33.522  25.569  24.219  1.00  0.00    -0.006 A 
ATOM     22  C   UNL A   1      34.046  25.962  25.457  1.00  0.00     0.008 A 
ATOM     23  C   UNL A   1      32.246  26.031  23.859  1.00  0.00     0.008 A 
ATOM     24  C   UNL A   1      33.311  26.795  26.307  1.00  0.00     0.000 A 
ATOM     25  C   UNL A   1      31.526  26.890  24.692  1.00  0.00     0.000 A 
ATOM     26  C   UNL A   1      32.057  27.268  25.920  1.00  0.00     0.000 A 
ENDBRANCH  20  21
ENDBRANCH  16  20
BRANCH  17  27
ATOM     27  C   UNL A   1      32.716  20.226  24.841  1.00  0.00     0.063 C 
BRANCH  27  28
ATOM     28  C   UNL A   1      32.901  18.724  24.825  1.00  0.00    -0.046 A 
ATOM     29  C   UNL A   1      32.540  17.966  25.951  1.00  0.00     0.007 A 
ATOM     30  C   UNL A   1      33.444  18.068  23.708  1.00  0.00     0.007 A 
ATOM     31  C   UNL A   1      32.695  16.581  25.953  1.00  0.00     0.039 A 
ATOM     32  C   UNL A   1      33.594  16.680  23.711  1.00  0.00     0.039 A 
ATOM     33  C   UNL A   1      33.216  15.949  24.831  1.00  0.00     0.123 A 
ATOM     34  F   UNL A   1      33.358  14.617  24.831  1.00  0.00    -0.207 F 
ENDBRANCH  27  28
ENDBRANCH  17  27
ENDBRANCH  11  12
ENDBRANCH   4   6
ENDBRANCH   1   2
BRANCH   1  35
ATOM     35  C   UNL A   1      42.299  18.719  26.315  1.00  0.00     0.042 C 
BRANCH  35  36
ATOM     36  C   UNL A   1      43.810  18.646  26.140  1.00  0.00     0.118 C 
BRANCH  36  37
ATOM     37  N   UNL A   1      44.222  18.638  24.743  1.00  0.00    -0.352 N 
ATOM     38  C   UNL A   1      44.654  19.647  23.921  1.00  0.00     0.251 C 
ATOM     39  H   UNL A   1      44.184  17.753  24.313  1.00  0.00     0.163 HD
ATOM     40  O   UNL A   1      44.795  19.419  22.722  1.00  0.00    -0.269 OA
BRANCH  38  41
ATOM     41  C   UNL A   1      44.929  21.006  24.442  1.00  0.00     0.039 A 
ATOM     42  C   UNL A   1      44.603  22.104  23.637  1.00  0.00     0.014 A 
ATOM     43  C   UNL A   1      45.540  21.218  25.679  1.00  0.00     0.014 A 
ATOM     44  C   UNL A   1      44.829  23.402  24.101  1.00  0.00     0.010 A 
ATOM     45  C   UNL A   1      45.682  22.512  26.178  1.00  0.00     0.010 A 
ATOM     46  C   UNL A   1      45.334  23.618  25.393  1.00  0.00    -0.014 A 
BRANCH  46  47
ATOM     47  C   UNL A   1      45.489  24.996  25.929  1.00  0.00     0.031 A 
ATOM     48  C   UNL A   1      46.834  25.671  25.936  1.00  0.00     0.074 A 
ATOM     49  C   UNL A   1      44.419  25.622  26.457  1.00  0.00     0.049 A 
ATOM     50  N   UNL A   1      47.157  26.860  26.379  1.00  0.00    -0.248 NA
ATOM     51  C   UNL A   1      47.968  24.902  25.401  1.00  0.00     0.031 C 
ATOM     52  C   UNL A   1      43.075  25.052  26.573  1.00  0.00     0.029 A 
ATOM     53  N   UNL A   1      44.294  26.876  27.001  1.00  0.00    -0.354 N 
ATOM     54  C   UNL A   1      48.528  26.974  26.192  1.00  0.00     0.074 A 
ATOM     55  C   UNL A   1      48.985  25.717  25.641  1.00  0.00     0.031 C 
ATOM     56  C   UNL A   1      42.256  25.963  27.124  1.00  0.00     0.029 A 
ATOM     57  C   UNL A   1      43.020  27.167  27.429  1.00  0.00     0.049 A 
ATOM     58  H   UNL A   1      45.045  27.508  27.079  1.00  0.00     0.167 HD
ATOM     59  C   UNL A   1      49.331  28.038  26.434  1.00  0.00     0.037 A 
ATOM     60  C   UNL A   1      42.524  28.280  28.001  1.00  0.00     0.037 A 
ATOM     61  C   UNL A   1      48.871  29.301  26.950  1.00  0.00     0.049 A 
ATOM     62  C   UNL A   1      43.430  29.456  28.230  1.00  0.00     0.074 A 
ATOM     63  C   UNL A   1      49.594  30.464  27.154  1.00  0.00     0.029 A 
ATOM     64  N   UNL A   1      47.568  29.566  27.343  1.00  0.00    -0.354 N 
ATOM     65  N   UNL A   1      44.708  29.577  27.967  1.00  0.00    -0.248 NA
ATOM     66  C   UNL A   1      42.822  30.652  28.827  1.00  0.00     0.031 C 
ATOM     67  C   UNL A   1      48.738  31.420  27.710  1.00  0.00     0.029 A 
ATOM     68  C   UNL A   1      47.472  30.867  27.811  1.00  0.00     0.049 A 
ATOM     69  H   UNL A   1      46.823  28.924  27.298  1.00  0.00     0.167 HD
ATOM     70  C   UNL A   1      45.052  30.868  28.346  1.00  0.00     0.074 A 
ATOM     71  C   UNL A   1      43.843  31.498  28.835  1.00  0.00     0.031 C 
ATOM     72  C   UNL A   1      46.261  31.478  28.296  1.00  0.00     0.037 A 
BRANCH  59  73
ATOM     73  C   UNL A   1      50.794  27.889  26.132  1.00  0.00     0.057 A 
ATOM     74  C   UNL A   1      51.725  27.565  27.127  1.00  0.00     0.134 A 
ATOM     75  C   UNL A   1      51.272  28.027  24.823  1.00  0.00     0.134 A 
ATOM     76  F   UNL A   1      51.334  27.430  28.405  1.00  0.00    -0.206 F 
ATOM     77  C   UNL A   1      53.080  27.399  26.836  1.00  0.00     0.040 A 
ATOM     78  C   UNL A   1      52.621  27.838  24.514  1.00  0.00     0.040 A 
ATOM     79  F   UNL A   1      50.434  28.331  23.820  1.00  0.00    -0.206 F 
ATOM     80  C   UNL A   1      53.530  27.529  25.524  1.00  0.00     0.006 A 
ENDBRANCH  59  73
BRANCH  60  81
ATOM     81  C   UNL A   1      41.088  28.346  28.372  1.00  0.00     0.057 A 
ATOM     82  C   UNL A   1      40.127  28.809  27.465  1.00  0.00     0.134 A 
ATOM     83  C   UNL A   1      40.643  27.961  29.642  1.00  0.00     0.134 A 
ATOM     84  F   UNL A   1      40.495  29.209  26.238  1.00  0.00    -0.206 F 
ATOM     85  C   UNL A   1      38.780  28.909  27.814  1.00  0.00     0.040 A 
ATOM     86  C   UNL A   1      39.296  28.031  29.997  1.00  0.00     0.040 A 
ATOM     87  F   UNL A   1      41.513  27.500  30.553  1.00  0.00    -0.206 F 
ATOM     88  C   UNL A   1      38.360  28.514  29.083  1.00  0.00     0.006 A 
ENDBRANCH  60  81
BRANCH  72  89
ATOM     89  C   UNL A   1      46.327  32.902  28.762  1.00  0.00     0.057 A 
ATOM     90  C   UNL A   1      46.105  33.975  27.890  1.00  0.00     0.134 A 
ATOM     91  C   UNL A   1      46.595  33.204  30.104  1.00  0.00     0.134 A 
ATOM     92  F   UNL A   1      45.857  33.754  26.590  1.00  0.00    -0.206 F 
ATOM     93  C   UNL A   1      46.176  35.299  28.328  1.00  0.00     0.040 A 
ATOM     94  C   UNL A   1      46.643  34.521  30.560  1.00  0.00     0.040 A 
ATOM     95  F   UNL A   1      46.809  32.222  30.993  1.00  0.00    -0.206 F 
ATOM     96  C   UNL A   1      46.440  35.573  29.669  1.00  0.00     0.006 A 
ENDBRANCH  72  89
ENDBRANCH  46  47
ENDBRANCH  38  41
ENDBRANCH  36  37
ENDBRANCH  35  36
ENDBRANCH   1  35
TORSDOF 15
ENDMDL
MODEL 2
REMARK VINA RESULT:     -12.8      4.549      6.806
REMARK SMILES O=C(NCCCNC(=O)c1ccc(-c2c3nc(c(-c4c(F)cccc4F)c4ccc([nH]4)c(-c4c(F)cccc4F)c4nc(c(-c5c(F)cccc5F)c5ccc2[nH]5)C=C4)C=C3)cc1)c1ccc(/[NH+]=C2\S[C@@H](Cc3ccc(F)cc3)C(=O)N2Cc2ccccc2)cc1
REMARK SMILES IDX 4 1 3 2 1 3 2 4 64 6 65 7 91 8 66 9 90 10 67 11 68 12 69 13
REMARK SMILES IDX 70 15 82 16 71 17 80 18 81 19 83 20 84 21 85 22 89 23 86 24
REMARK SMILES IDX 88 25 87 26 72 27 73 28 74 29 79 30 75 31 78 32 76 33 77 34
REMARK SMILES IDX 5 35 6 36 7 37 8 38 9 40 10 41 11 42 63 43 12 44 62 45 13 46
REMARK SMILES IDX 14 47 15 48 56 49 16 50 61 51 55 52 57 53 17 54 60 55 54 56
REMARK SMILES IDX 53 57 18 59 44 60 27 61 43 62 28 63 31 64 42 65 58 66 29 67
REMARK SMILES IDX 30 68 41 70 59 71 32 72 19 73 20 74 25 75 21 76 22 77 24 78
REMARK SMILES IDX 26 79 23 80 45 81 46 82 51 83 47 84 48 85 50 86 52 87 49 88
REMARK SMILES IDX 33 89 34 90 39 91 35 92 36 93 38 94 40 95 37 96
REMARK H PARENT 3 5 68 14 7 39 57 58 31 69
REMARK Flexibility Score: inf
ROOT
ATOM      1  C   UNL A   1      42.480  22.607  25.403  1.00  0.00     0.118 C 
ENDROOT
BRANCH   1   2
ATOM      2  N   UNL A   1      42.052  21.596  26.362  1.00  0.00    -0.352 N 
ATOM      3  O   UNL A   1      40.732  20.581  27.878  1.00  0.00    -0.269 OA
ATOM      4  C   UNL A   1      40.831  21.387  26.956  1.00  0.00     0.251 C 
ATOM      5  H   UNL A   1      42.754  20.958  26.628  1.00  0.00     0.163 HD
BRANCH   4   6
ATOM      6  C   UNL A   1      39.640  22.143  26.514  1.00  0.00     0.040 A 
ATOM      7  C   UNL A   1      39.455  23.470  26.899  1.00  0.00     0.018 A 
ATOM      8  C   UNL A   1      38.705  21.524  25.678  1.00  0.00     0.018 A 
ATOM      9  C   UNL A   1      38.262  24.112  26.590  1.00  0.00     0.052 A 
ATOM     10  C   UNL A   1      37.532  22.199  25.322  1.00  0.00     0.052 A 
ATOM     11  C   UNL A   1      37.274  23.472  25.833  1.00  0.00     0.125 A 
BRANCH  11  12
ATOM     12  N   UNL A   1      36.099  24.188  25.589  1.00  0.00    -0.235 N 
ATOM     13  C   UNL A   1      34.964  23.604  25.398  1.00  0.00     0.320 C 
ATOM     14  H   UNL A   1      36.138  25.171  25.563  1.00  0.00     0.313 HD
ATOM     15  S   UNL A   1      34.666  21.902  25.167  1.00  0.00    -0.022 SA
ATOM     16  N   UNL A   1      33.786  24.301  25.393  1.00  0.00    -0.186 N 
ATOM     17  C   UNL A   1      32.962  22.196  24.594  1.00  0.00     0.178 C 
ATOM     18  C   UNL A   1      32.636  23.593  25.105  1.00  0.00     0.324 C 
ATOM     19  O   UNL A   1      31.502  24.052  25.177  1.00  0.00    -0.245 OA
BRANCH  16  20
ATOM     20  C   UNL A   1      33.719  25.713  25.753  1.00  0.00     0.283 C 
BRANCH  20  21
ATOM     21  C   UNL A   1      33.666  26.638  24.551  1.00  0.00    -0.006 A 
ATOM     22  C   UNL A   1      33.612  26.133  23.246  1.00  0.00     0.008 A 
ATOM     23  C   UNL A   1      33.670  28.031  24.727  1.00  0.00     0.008 A 
ATOM     24  C   UNL A   1      33.562  27.001  22.151  1.00  0.00     0.000 A 
ATOM     25  C   UNL A   1      33.586  28.898  23.636  1.00  0.00     0.000 A 
ATOM     26  C   UNL A   1      33.537  28.382  22.346  1.00  0.00     0.000 A 
ENDBRANCH  20  21
ENDBRANCH  16  20
BRANCH  17  27
ATOM     27  C   UNL A   1      32.036  21.087  25.092  1.00  0.00     0.063 C 
BRANCH  27  28
ATOM     28  C   UNL A   1      32.423  19.694  24.644  1.00  0.00    -0.046 A 
ATOM     29  C   UNL A   1      32.831  18.746  25.596  1.00  0.00     0.007 A 
ATOM     30  C   UNL A   1      32.399  19.330  23.287  1.00  0.00     0.007 A 
ATOM     31  C   UNL A   1      33.185  17.455  25.205  1.00  0.00     0.039 A 
ATOM     32  C   UNL A   1      32.748  18.035  22.899  1.00  0.00     0.039 A 
ATOM     33  C   UNL A   1      33.134  17.109  23.861  1.00  0.00     0.123 A 
ATOM     34  F   UNL A   1      33.467  15.867  23.486  1.00  0.00    -0.207 F 
ENDBRANCH  27  28
ENDBRANCH  17  27
ENDBRANCH  11  12
ENDBRANCH   4   6
ENDBRANCH   1   2
BRANCH   1  35
ATOM     35  C   UNL A   1      43.949  22.484  25.026  1.00  0.00     0.042 C 
BRANCH  35  36
ATOM     36  C   UNL A   1      44.899  23.290  25.902  1.00  0.00     0.118 C 
BRANCH  36  37
ATOM     37  N   UNL A   1      45.645  24.295  25.159  1.00  0.00    -0.352 N 
ATOM     38  C   UNL A   1      45.643  25.665  25.235  1.00  0.00     0.251 C 
ATOM     39  H   UNL A   1      46.260  23.928  24.483  1.00  0.00     0.163 HD
ATOM     40  O   UNL A   1      46.250  26.309  24.383  1.00  0.00    -0.269 OA
BRANCH  38  41
ATOM     41  C   UNL A   1      44.906  26.380  26.303  1.00  0.00     0.039 A 
ATOM     42  C   UNL A   1      43.988  25.658  27.074  1.00  0.00     0.014 A 
ATOM     43  C   UNL A   1      45.068  27.749  26.527  1.00  0.00     0.014 A 
ATOM     44  C   UNL A   1      43.288  26.292  28.103  1.00  0.00     0.010 A 
ATOM     45  C   UNL A   1      44.437  28.360  27.610  1.00  0.00     0.010 A 
ATOM     46  C   UNL A   1      43.536  27.641  28.406  1.00  0.00    -0.014 A 
BRANCH  46  47
ATOM     47  C   UNL A   1      42.866  28.297  29.558  1.00  0.00     0.031 A 
ATOM     48  C   UNL A   1      43.482  28.259  30.930  1.00  0.00     0.074 A 
ATOM     49  C   UNL A   1      41.668  28.890  29.375  1.00  0.00     0.049 A 
ATOM     50  N   UNL A   1      43.030  28.763  32.052  1.00  0.00    -0.248 NA
ATOM     51  C   UNL A   1      44.759  27.541  31.068  1.00  0.00     0.031 C 
ATOM     52  C   UNL A   1      40.932  28.937  28.111  1.00  0.00     0.029 A 
ATOM     53  N   UNL A   1      40.858  29.562  30.255  1.00  0.00    -0.354 N 
ATOM     54  C   UNL A   1      43.955  28.409  33.026  1.00  0.00     0.074 A 
ATOM     55  C   UNL A   1      44.968  27.607  32.375  1.00  0.00     0.031 C 
ATOM     56  C   UNL A   1      39.794  29.627  28.289  1.00  0.00     0.029 A 
ATOM     57  C   UNL A   1      39.704  30.043  29.684  1.00  0.00     0.049 A 
ATOM     58  H   UNL A   1      41.081  29.687  31.206  1.00  0.00     0.167 HD
ATOM     59  C   UNL A   1      43.972  28.741  34.339  1.00  0.00     0.037 A 
ATOM     60  C   UNL A   1      38.689  30.743  30.224  1.00  0.00     0.037 A 
ATOM     61  C   UNL A   1      42.983  29.568  34.979  1.00  0.00     0.049 A 
ATOM     62  C   UNL A   1      38.748  31.124  31.676  1.00  0.00     0.074 A 
ATOM     63  C   UNL A   1      42.956  30.025  36.286  1.00  0.00     0.029 A 
ATOM     64  N   UNL A   1      41.844  30.060  34.361  1.00  0.00    -0.354 N 
ATOM     65  N   UNL A   1      39.673  30.854  32.564  1.00  0.00    -0.248 NA
ATOM     66  C   UNL A   1      37.626  31.916  32.198  1.00  0.00     0.031 C 
ATOM     67  C   UNL A   1      41.780  30.760  36.469  1.00  0.00     0.029 A 
ATOM     68  C   UNL A   1      41.097  30.798  35.265  1.00  0.00     0.049 A 
ATOM     69  H   UNL A   1      41.602  29.907  33.419  1.00  0.00     0.167 HD
ATOM     70  C   UNL A   1      39.257  31.459  33.742  1.00  0.00     0.074 A 
ATOM     71  C   UNL A   1      38.007  32.130  33.450  1.00  0.00     0.031 C 
ATOM     72  C   UNL A   1      39.854  31.458  34.959  1.00  0.00     0.037 A 
BRANCH  59  73
ATOM     73  C   UNL A   1      45.106  28.221  35.174  1.00  0.00     0.057 A 
ATOM     74  C   UNL A   1      46.304  28.932  35.318  1.00  0.00     0.134 A 
ATOM     75  C   UNL A   1      44.981  27.018  35.881  1.00  0.00     0.134 A 
ATOM     76  F   UNL A   1      46.493  30.086  34.660  1.00  0.00    -0.206 F 
ATOM     77  C   UNL A   1      47.345  28.458  36.120  1.00  0.00     0.040 A 
ATOM     78  C   UNL A   1      46.003  26.546  36.706  1.00  0.00     0.040 A 
ATOM     79  F   UNL A   1      43.857  26.289  35.793  1.00  0.00    -0.206 F 
ATOM     80  C   UNL A   1      47.191  27.264  36.823  1.00  0.00     0.006 A 
ENDBRANCH  59  73
BRANCH  60  81
ATOM     81  C   UNL A   1      37.539  31.154  29.380  1.00  0.00     0.057 A 
ATOM     82  C   UNL A   1      37.451  32.451  28.859  1.00  0.00     0.134 A 
ATOM     83  C   UNL A   1      36.497  30.268  29.082  1.00  0.00     0.134 A 
ATOM     84  F   UNL A   1      38.411  33.350  29.125  1.00  0.00    -0.206 F 
ATOM     85  C   UNL A   1      36.359  32.859  28.093  1.00  0.00     0.040 A 
ATOM     86  C   UNL A   1      35.411  30.654  28.296  1.00  0.00     0.040 A 
ATOM     87  F   UNL A   1      36.527  29.008  29.543  1.00  0.00    -0.206 F 
ATOM     88  C   UNL A   1      35.336  31.957  27.805  1.00  0.00     0.006 A 
ENDBRANCH  60  81
BRANCH  72  89
ATOM     89  C   UNL A   1      39.172  32.223  36.054  1.00  0.00     0.057 A 
ATOM     90  C   UNL A   1      39.437  33.579  36.282  1.00  0.00     0.134 A 
ATOM     91  C   UNL A   1      38.224  31.601  36.877  1.00  0.00     0.134 A 
ATOM     92  F   UNL A   1      40.344  34.229  35.537  1.00  0.00    -0.206 F 
ATOM     93  C   UNL A   1      38.805  34.283  37.308  1.00  0.00     0.040 A 
ATOM     94  C   UNL A   1      37.567  32.301  37.890  1.00  0.00     0.040 A 
ATOM     95  F   UNL A   1      37.919  30.306  36.706  1.00  0.00    -0.206 F 
ATOM     96  C   UNL A   1      37.862  33.644  38.112  1.00  0.00     0.006 A 
ENDBRANCH  72  89
ENDBRANCH  46  47
ENDBRANCH  38  41
ENDBRANCH  36  37
ENDBRANCH  35  36
ENDBRANCH   1  35
TORSDOF 15
ENDMDL
MODEL 3
REMARK VINA RESULT:     -12.4      4.500      6.764
REMARK SMILES O=C(NCCCNC(=O)c1ccc(-c2c3nc(c(-c4c(F)cccc4F)c4ccc([nH]4)c(-c4c(F)cccc4F)c4nc(c(-c5c(F)cccc5F)c5ccc2[nH]5)C=C4)C=C3)cc1)c1ccc(/[NH+]=C2\S[C@@H](Cc3ccc(F)cc3)C(=O)N2Cc2ccccc2)cc1
REMARK SMILES IDX 4 1 3 2 1 3 2 4 64 6 65 7 91 8 66 9 90 10 67 11 68 12 69 13
REMARK SMILES IDX 70 15 82 16 71 17 80 18 81 19 83 20 84 21 85 22 89 23 86 24
REMARK SMILES IDX 88 25 87 26 72 27 73 28 74 29 79 30 75 31 78 32 76 33 77 34
REMARK SMILES IDX 5 35 6 36 7 37 8 38 9 40 10 41 11 42 63 43 12 44 62 45 13 46
REMARK SMILES IDX 14 47 15 48 56 49 16 50 61 51 55 52 57 53 17 54 60 55 54 56
REMARK SMILES IDX 53 57 18 59 44 60 27 61 43 62 28 63 31 64 42 65 58 66 29 67
REMARK SMILES IDX 30 68 41 70 59 71 32 72 19 73 20 74 25 75 21 76 22 77 24 78
REMARK SMILES IDX 26 79 23 80 45 81 46 82 51 83 47 84 48 85 50 86 52 87 49 88
REMARK SMILES IDX 33 89 34 90 39 91 35 92 36 93 38 94 40 95 37 96
REMARK H PARENT 3 5 68 14 7 39 57 58 31 69
REMARK Flexibility Score: inf
ROOT
ATOM      1  C   UNL A   1      42.315  22.797  25.421  1.00  0.00     0.118 C 
ENDROOT
BRANCH   1   2
ATOM      2  N   UNL A   1      41.934  21.896  26.502  1.00  0.00    -0.352 N 
ATOM      3  O   UNL A   1      40.628  20.963  28.082  1.00  0.00    -0.269 OA
ATOM      4  C   UNL A   1      40.703  21.629  27.051  1.00  0.00     0.251 C 
ATOM      5  H   UNL A   1      42.681  21.396  26.903  1.00  0.00     0.163 HD
BRANCH   4   6
ATOM      6  C   UNL A   1      39.471  22.157  26.430  1.00  0.00     0.040 A 
ATOM      7  C   UNL A   1      38.730  21.379  25.542  1.00  0.00     0.018 A 
ATOM      8  C   UNL A   1      39.033  23.444  26.761  1.00  0.00     0.018 A 
ATOM      9  C   UNL A   1      37.658  21.948  24.864  1.00  0.00     0.052 A 
ATOM     10  C   UNL A   1      37.916  23.989  26.116  1.00  0.00     0.052 A 
ATOM     11  C   UNL A   1      37.265  23.267  25.115  1.00  0.00     0.125 A 
BRANCH  11  12
ATOM     12  N   UNL A   1      36.190  23.760  24.371  1.00  0.00    -0.235 N 
ATOM     13  C   UNL A   1      35.097  23.092  24.213  1.00  0.00     0.320 C 
ATOM     14  H   UNL A   1      36.268  24.648  23.952  1.00  0.00     0.313 HD
ATOM     15  S   UNL A   1      34.792  21.430  24.646  1.00  0.00    -0.022 SA
ATOM     16  N   UNL A   1      33.970  23.664  23.688  1.00  0.00    -0.186 N 
ATOM     17  C   UNL A   1      33.251  21.377  23.675  1.00  0.00     0.178 C 
ATOM     18  C   UNL A   1      32.878  22.842  23.493  1.00  0.00     0.324 C 
ATOM     19  O   UNL A   1      31.770  23.231  23.143  1.00  0.00    -0.245 OA
BRANCH  16  20
ATOM     20  C   UNL A   1      33.882  25.095  23.417  1.00  0.00     0.283 C 
BRANCH  20  21
ATOM     21  C   UNL A   1      33.007  25.842  24.406  1.00  0.00    -0.006 A 
ATOM     22  C   UNL A   1      33.254  25.785  25.783  1.00  0.00     0.008 A 
ATOM     23  C   UNL A   1      31.921  26.609  23.955  1.00  0.00     0.008 A 
ATOM     24  C   UNL A   1      32.437  26.482  26.680  1.00  0.00     0.000 A 
ATOM     25  C   UNL A   1      31.126  27.331  24.846  1.00  0.00     0.000 A 
ATOM     26  C   UNL A   1      31.381  27.263  26.211  1.00  0.00     0.000 A 
ENDBRANCH  20  21
ENDBRANCH  16  20
BRANCH  17  27
ATOM     27  C   UNL A   1      32.205  20.521  24.387  1.00  0.00     0.063 C 
BRANCH  27  28
ATOM     28  C   UNL A   1      32.564  19.056  24.507  1.00  0.00    -0.046 A 
ATOM     29  C   UNL A   1      32.926  18.333  23.359  1.00  0.00     0.007 A 
ATOM     30  C   UNL A   1      32.529  18.394  25.745  1.00  0.00     0.007 A 
ATOM     31  C   UNL A   1      33.267  16.983  23.449  1.00  0.00     0.039 A 
ATOM     32  C   UNL A   1      32.877  17.045  25.833  1.00  0.00     0.039 A 
ATOM     33  C   UNL A   1      33.246  16.353  24.686  1.00  0.00     0.123 A 
ATOM     34  F   UNL A   1      33.581  15.059  24.773  1.00  0.00    -0.207 F 
ENDBRANCH  27  28
ENDBRANCH  17  27
ENDBRANCH  11  12
ENDBRANCH   4   6
ENDBRANCH   1   2
BRANCH   1  35
ATOM     35  C   UNL A   1      43.760  22.617  24.979  1.00  0.00     0.042 C 
BRANCH  35  36
ATOM     36  C   UNL A   1      44.786  23.312  25.865  1.00  0.00     0.118 C 
BRANCH  36  37
ATOM     37  N   UNL A   1      45.569  24.312  25.153  1.00  0.00    -0.352 N 
ATOM     38  C   UNL A   1      45.600  25.680  25.257  1.00  0.00     0.251 C 
ATOM     39  H   UNL A   1      46.185  23.942  24.480  1.00  0.00     0.163 HD
ATOM     40  O   UNL A   1      46.237  26.324  24.427  1.00  0.00    -0.269 OA
BRANCH  38  41
ATOM     41  C   UNL A   1      44.865  26.393  26.327  1.00  0.00     0.039 A 
ATOM     42  C   UNL A   1      44.010  25.652  27.152  1.00  0.00     0.014 A 
ATOM     43  C   UNL A   1      44.965  27.774  26.502  1.00  0.00     0.014 A 
ATOM     44  C   UNL A   1      43.315  26.285  28.184  1.00  0.00     0.010 A 
ATOM     45  C   UNL A   1      44.341  28.389  27.587  1.00  0.00     0.010 A 
ATOM     46  C   UNL A   1      43.504  27.653  28.437  1.00  0.00    -0.014 A 
BRANCH  46  47
ATOM     47  C   UNL A   1      42.841  28.314  29.590  1.00  0.00     0.031 A 
ATOM     48  C   UNL A   1      43.466  28.282  30.958  1.00  0.00     0.074 A 
ATOM     49  C   UNL A   1      41.642  28.904  29.413  1.00  0.00     0.049 A 
ATOM     50  N   UNL A   1      43.021  28.789  32.081  1.00  0.00    -0.248 NA
ATOM     51  C   UNL A   1      44.745  27.565  31.090  1.00  0.00     0.031 C 
ATOM     52  C   UNL A   1      40.896  28.945  28.153  1.00  0.00     0.029 A 
ATOM     53  N   UNL A   1      40.836  29.578  30.295  1.00  0.00    -0.354 N 
ATOM     54  C   UNL A   1      43.952  28.440  33.050  1.00  0.00     0.074 A 
ATOM     55  C   UNL A   1      44.962  27.637  32.396  1.00  0.00     0.031 C 
ATOM     56  C   UNL A   1      39.759  29.634  28.336  1.00  0.00     0.029 A 
ATOM     57  C   UNL A   1      39.678  30.056  29.730  1.00  0.00     0.049 A 
ATOM     58  H   UNL A   1      41.066  29.708  31.244  1.00  0.00     0.167 HD
ATOM     59  C   UNL A   1      43.978  28.778  34.362  1.00  0.00     0.037 A 
ATOM     60  C   UNL A   1      38.666  30.757  30.274  1.00  0.00     0.037 A 
ATOM     61  C   UNL A   1      42.992  29.606  35.005  1.00  0.00     0.049 A 
ATOM     62  C   UNL A   1      38.734  31.144  31.724  1.00  0.00     0.074 A 
ATOM     63  C   UNL A   1      42.974  30.069  36.310  1.00  0.00     0.029 A 
ATOM     64  N   UNL A   1      41.849  30.095  34.392  1.00  0.00    -0.354 N 
ATOM     65  N   UNL A   1      39.665  30.879  32.607  1.00  0.00    -0.248 NA
ATOM     66  C   UNL A   1      37.614  31.937  32.249  1.00  0.00     0.031 C 
ATOM     67  C   UNL A   1      41.798  30.803  36.498  1.00  0.00     0.029 A 
ATOM     68  C   UNL A   1      41.107  30.835  35.298  1.00  0.00     0.049 A 
ATOM     69  H   UNL A   1      41.601  29.938  33.452  1.00  0.00     0.167 HD
ATOM     70  C   UNL A   1      39.256  31.488  33.785  1.00  0.00     0.074 A 
ATOM     71  C   UNL A   1      38.003  32.156  33.498  1.00  0.00     0.031 C 
ATOM     72  C   UNL A   1      39.861  31.493  34.998  1.00  0.00     0.037 A 
BRANCH  59  73
ATOM     73  C   UNL A   1      45.118  28.262  35.192  1.00  0.00     0.057 A 
ATOM     74  C   UNL A   1      46.299  28.997  35.362  1.00  0.00     0.134 A 
ATOM     75  C   UNL A   1      45.016  27.040  35.867  1.00  0.00     0.134 A 
ATOM     76  F   UNL A   1      46.465  30.171  34.734  1.00  0.00    -0.206 F 
ATOM     77  C   UNL A   1      47.345  28.526  36.159  1.00  0.00     0.040 A 
ATOM     78  C   UNL A   1      46.043  26.570  36.687  1.00  0.00     0.040 A 
ATOM     79  F   UNL A   1      43.910  26.288  35.753  1.00  0.00    -0.206 F 
ATOM     80  C   UNL A   1      47.214  27.312  36.830  1.00  0.00     0.006 A 
ENDBRANCH  59  73
BRANCH  60  81
ATOM     81  C   UNL A   1      37.510  31.163  29.435  1.00  0.00     0.057 A 
ATOM     82  C   UNL A   1      36.459  30.276  29.173  1.00  0.00     0.134 A 
ATOM     83  C   UNL A   1      37.432  32.440  28.866  1.00  0.00     0.134 A 
ATOM     84  F   UNL A   1      36.485  29.032  29.675  1.00  0.00    -0.206 F 
ATOM     85  C   UNL A   1      35.385  30.635  28.358  1.00  0.00     0.040 A 
ATOM     86  C   UNL A   1      36.352  32.821  28.071  1.00  0.00     0.040 A 
ATOM     87  F   UNL A   1      38.403  33.339  29.087  1.00  0.00    -0.206 F 
ATOM     88  C   UNL A   1      35.327  31.914  27.808  1.00  0.00     0.006 A 
ENDBRANCH  60  81
BRANCH  72  89
ATOM     89  C   UNL A   1      39.185  32.261  36.094  1.00  0.00     0.057 A 
ATOM     90  C   UNL A   1      39.473  33.611  36.334  1.00  0.00     0.134 A 
ATOM     91  C   UNL A   1      38.221  31.651  36.906  1.00  0.00     0.134 A 
ATOM     92  F   UNL A   1      40.396  34.250  35.600  1.00  0.00    -0.206 F 
ATOM     93  C   UNL A   1      38.847  34.319  37.362  1.00  0.00     0.040 A 
ATOM     94  C   UNL A   1      37.569  32.354  37.920  1.00  0.00     0.040 A 
ATOM     95  F   UNL A   1      37.894  30.363  36.723  1.00  0.00    -0.206 F 
ATOM     96  C   UNL A   1      37.888  33.690  38.154  1.00  0.00     0.006 A 
ENDBRANCH  72  89
ENDBRANCH  46  47
ENDBRANCH  38  41
ENDBRANCH  36  37
ENDBRANCH  35  36
ENDBRANCH   1  35
TORSDOF 15
ENDMDL
