MODEL 1
REMARK VINA RESULT:     -10.3      0.000      0.000
REMARK SMILES C=CCS(=O)(=O)N[C@H](CC(N)=O)C(=O)NCCCNC(=O)c1ccc(-c2c3nc(c(-c4c(F)cccc4F)c4ccc([nH]4)c(-c4c(F)cccc4F)c4nc(c(-c5c(F)cccc5F)c5ccc2[nH]5)C=C4)C=C3)cc1
REMARK SMILES IDX 16 1 15 2 13 3 14 4 8 6 7 7 4 9 5 10 6 11 3 12 2 13 1 14
REMARK SMILES IDX 9 15 10 16 11 17 12 18 17 21 18 22 19 23 20 24 21 26 22 27
REMARK SMILES IDX 23 28 75 29 24 30 74 31 25 32 26 33 27 34 68 35 28 36 73 37
REMARK SMILES IDX 67 38 69 39 29 40 72 41 66 42 65 43 30 45 56 46 39 47 55 48
REMARK SMILES IDX 40 49 43 50 54 51 70 52 41 53 42 54 53 56 71 57 44 58 31 59
REMARK SMILES IDX 32 60 37 61 33 62 34 63 36 64 38 65 35 66 57 67 58 68 63 69
REMARK SMILES IDX 59 70 60 71 62 72 64 73 61 74 45 75 46 76 51 77 47 78 48 79
REMARK SMILES IDX 50 80 52 81 49 82
REMARK H PARENT 15 5 7 8 11 19 11 20 19 25 69 44 43 55
REMARK Flexibility Score: inf
ROOT
ATOM      1  C   UNL A   1      36.699  20.989  24.830  1.00  0.00     0.117 C 
ENDROOT
BRANCH   1   2
ATOM      2  N   UNL A   1      35.936  21.161  26.052  1.00  0.00    -0.355 N 
ATOM      3  C   UNL A   1      34.616  21.382  26.251  1.00  0.00     0.238 C 
ATOM      4  O   UNL A   1      34.246  21.560  27.417  1.00  0.00    -0.273 OA
ATOM      5  H   UNL A   1      36.471  21.107  26.877  1.00  0.00     0.163 HD
BRANCH   3   6
ATOM      6  C   UNL A   1      33.613  21.440  25.112  1.00  0.00     0.168 C 
BRANCH   6   7
ATOM      7  N   UNL A   1      33.657  20.429  24.038  1.00  0.00    -0.202 NA
ATOM      8  H   UNL A   1      33.277  20.891  23.212  1.00  0.00     0.141 HD
BRANCH   7   9
ATOM      9  S   UNL A   1      32.910  18.934  24.093  1.00  0.00     0.215 S 
ATOM     10  O   UNL A   1      32.207  18.699  22.852  1.00  0.00    -0.212 OA
ATOM     11  O   UNL A   1      32.160  18.984  25.330  1.00  0.00    -0.212 OA
BRANCH   9  12
ATOM     12  C   UNL A   1      34.197  17.680  24.277  1.00  0.00     0.180 C 
BRANCH  12  13
ATOM     13  C   UNL A   1      33.643  16.299  24.090  1.00  0.00    -0.017 C 
ATOM     14  C   UNL A   1      33.058  15.586  25.061  1.00  0.00     0.005 C 
ENDBRANCH  12  13
ENDBRANCH   9  12
ENDBRANCH   7   9
ENDBRANCH   6   7
BRANCH   6  15
ATOM     15  C   UNL A   1      33.437  22.862  24.558  1.00  0.00     0.129 C 
BRANCH  15  16
ATOM     16  C   UNL A   1      33.723  23.040  23.090  1.00  0.00     0.219 C 
ATOM     17  N   UNL A   1      32.647  22.989  22.255  1.00  0.00    -0.370 N 
ATOM     18  O   UNL A   1      34.848  23.227  22.644  1.00  0.00    -0.275 OA
ATOM     19  H   UNL A   1      31.746  22.838  22.622  1.00  0.00     0.159 HD
ATOM     20  H   UNL A   1      32.771  23.104  21.285  1.00  0.00     0.159 HD
ENDBRANCH  15  16
ENDBRANCH   6  15
ENDBRANCH   3   6
ENDBRANCH   1   2
BRANCH   1  21
ATOM     21  C   UNL A   1      37.729  19.889  24.988  1.00  0.00     0.042 C 
BRANCH  21  22
ATOM     22  C   UNL A   1      38.922  20.353  25.806  1.00  0.00     0.118 C 
BRANCH  22  23
ATOM     23  N   UNL A   1      39.997  19.367  25.820  1.00  0.00    -0.352 N 
ATOM     24  C   UNL A   1      41.337  19.560  26.048  1.00  0.00     0.251 C 
ATOM     25  H   UNL A   1      39.725  18.438  25.642  1.00  0.00     0.163 HD
ATOM     26  O   UNL A   1      42.151  18.678  25.800  1.00  0.00    -0.269 OA
BRANCH  24  27
ATOM     27  C   UNL A   1      41.788  20.863  26.574  1.00  0.00     0.039 A 
ATOM     28  C   UNL A   1      42.172  21.864  25.682  1.00  0.00     0.014 A 
ATOM     29  C   UNL A   1      41.780  21.102  27.951  1.00  0.00     0.014 A 
ATOM     30  C   UNL A   1      42.485  23.131  26.173  1.00  0.00     0.010 A 
ATOM     31  C   UNL A   1      41.965  22.393  28.422  1.00  0.00     0.010 A 
ATOM     32  C   UNL A   1      42.345  23.415  27.543  1.00  0.00    -0.014 A 
BRANCH  32  33
ATOM     33  C   UNL A   1      42.628  24.766  28.085  1.00  0.00     0.031 A 
ATOM     34  C   UNL A   1      44.029  25.121  28.506  1.00  0.00     0.074 A 
ATOM     35  C   UNL A   1      41.623  25.647  28.251  1.00  0.00     0.049 A 
ATOM     36  N   UNL A   1      44.473  26.223  29.054  1.00  0.00    -0.248 NA
ATOM     37  C   UNL A   1      45.062  24.089  28.318  1.00  0.00     0.031 C 
ATOM     38  C   UNL A   1      40.215  25.398  27.935  1.00  0.00     0.029 A 
ATOM     39  N   UNL A   1      41.631  26.931  28.731  1.00  0.00    -0.354 N 
ATOM     40  C   UNL A   1      45.825  26.006  29.289  1.00  0.00     0.074 A 
ATOM     41  C   UNL A   1      46.114  24.647  28.895  1.00  0.00     0.031 C 
ATOM     42  C   UNL A   1      39.503  26.506  28.194  1.00  0.00     0.029 A 
ATOM     43  C   UNL A   1      40.393  27.527  28.736  1.00  0.00     0.049 A 
ATOM     44  H   UNL A   1      42.448  27.385  29.043  1.00  0.00     0.167 HD
ATOM     45  C   UNL A   1      46.752  26.873  29.759  1.00  0.00     0.037 A 
ATOM     46  C   UNL A   1      40.020  28.756  29.140  1.00  0.00     0.037 A 
ATOM     47  C   UNL A   1      46.463  28.233  30.125  1.00  0.00     0.049 A 
ATOM     48  C   UNL A   1      41.067  29.697  29.670  1.00  0.00     0.074 A 
ATOM     49  C   UNL A   1      47.338  29.214  30.557  1.00  0.00     0.029 A 
ATOM     50  N   UNL A   1      45.198  28.803  30.105  1.00  0.00    -0.354 N 
ATOM     51  N   UNL A   1      42.355  29.506  29.815  1.00  0.00    -0.248 NA
ATOM     52  C   UNL A   1      40.607  31.029  30.086  1.00  0.00     0.031 C 
ATOM     53  C   UNL A   1      46.595  30.360  30.851  1.00  0.00     0.029 A 
ATOM     54  C   UNL A   1      45.266  30.115  30.543  1.00  0.00     0.049 A 
ATOM     55  H   UNL A   1      44.375  28.343  29.822  1.00  0.00     0.167 HD
ATOM     56  C   UNL A   1      42.865  30.699  30.310  1.00  0.00     0.074 A 
ATOM     57  C   UNL A   1      41.747  31.614  30.424  1.00  0.00     0.031 C 
ATOM     58  C   UNL A   1      44.142  31.011  30.641  1.00  0.00     0.037 A 
BRANCH  45  59
ATOM     59  C   UNL A   1      48.161  26.373  29.899  1.00  0.00     0.057 A 
ATOM     60  C   UNL A   1      49.088  26.465  28.850  1.00  0.00     0.134 A 
ATOM     61  C   UNL A   1      48.606  25.813  31.103  1.00  0.00     0.134 A 
ATOM     62  F   UNL A   1      48.724  26.976  27.664  1.00  0.00    -0.206 F 
ATOM     63  C   UNL A   1      50.394  25.991  28.984  1.00  0.00     0.040 A 
ATOM     64  C   UNL A   1      49.920  25.366  31.259  1.00  0.00     0.040 A 
ATOM     65  F   UNL A   1      47.775  25.698  32.149  1.00  0.00    -0.206 F 
ATOM     66  C   UNL A   1      50.815  25.447  30.195  1.00  0.00     0.006 A 
ENDBRANCH  45  59
BRANCH  46  67
ATOM     67  C   UNL A   1      38.598  29.176  29.038  1.00  0.00     0.057 A 
ATOM     68  C   UNL A   1      38.058  29.610  27.822  1.00  0.00     0.134 A 
ATOM     69  C   UNL A   1      37.750  29.165  30.151  1.00  0.00     0.134 A 
ATOM     70  F   UNL A   1      38.823  29.659  26.722  1.00  0.00    -0.206 F 
ATOM     71  C   UNL A   1      36.734  30.042  27.721  1.00  0.00     0.040 A 
ATOM     72  C   UNL A   1      36.416  29.567  30.060  1.00  0.00     0.040 A 
ATOM     73  F   UNL A   1      38.202  28.752  31.345  1.00  0.00    -0.206 F 
ATOM     74  C   UNL A   1      35.908  30.017  28.842  1.00  0.00     0.006 A 
ENDBRANCH  46  67
BRANCH  58  75
ATOM     75  C   UNL A   1      44.406  32.410  31.119  1.00  0.00     0.057 A 
ATOM     76  C   UNL A   1      44.371  32.750  32.477  1.00  0.00     0.134 A 
ATOM     77  C   UNL A   1      44.742  33.420  30.208  1.00  0.00     0.134 A 
ATOM     78  F   UNL A   1      44.045  31.832  33.400  1.00  0.00    -0.206 F 
ATOM     79  C   UNL A   1      44.635  34.051  32.910  1.00  0.00     0.040 A 
ATOM     80  C   UNL A   1      45.039  34.716  30.630  1.00  0.00     0.040 A 
ATOM     81  F   UNL A   1      44.805  33.160  28.893  1.00  0.00    -0.206 F 
ATOM     82  C   UNL A   1      44.978  35.036  31.985  1.00  0.00     0.006 A 
ENDBRANCH  58  75
ENDBRANCH  32  33
ENDBRANCH  24  27
ENDBRANCH  22  23
ENDBRANCH  21  22
ENDBRANCH   1  21
TORSDOF 16
ENDMDL
MODEL 2
REMARK VINA RESULT:     -10.2      5.721     11.134
REMARK SMILES C=CCS(=O)(=O)N[C@H](CC(N)=O)C(=O)NCCCNC(=O)c1ccc(-c2c3nc(c(-c4c(F)cccc4F)c4ccc([nH]4)c(-c4c(F)cccc4F)c4nc(c(-c5c(F)cccc5F)c5ccc2[nH]5)C=C4)C=C3)cc1
REMARK SMILES IDX 16 1 15 2 13 3 14 4 8 6 7 7 4 9 5 10 6 11 3 12 2 13 1 14
REMARK SMILES IDX 9 15 10 16 11 17 12 18 17 21 18 22 19 23 20 24 21 26 22 27
REMARK SMILES IDX 23 28 75 29 24 30 74 31 25 32 26 33 27 34 68 35 28 36 73 37
REMARK SMILES IDX 67 38 69 39 29 40 72 41 66 42 65 43 30 45 56 46 39 47 55 48
REMARK SMILES IDX 40 49 43 50 54 51 70 52 41 53 42 54 53 56 71 57 44 58 31 59
REMARK SMILES IDX 32 60 37 61 33 62 34 63 36 64 38 65 35 66 57 67 58 68 63 69
REMARK SMILES IDX 59 70 60 71 62 72 64 73 61 74 45 75 46 76 51 77 47 78 48 79
REMARK SMILES IDX 50 80 52 81 49 82
REMARK H PARENT 15 5 7 8 11 19 11 20 19 25 69 44 43 55
REMARK Flexibility Score: inf
ROOT
ATOM      1  C   UNL A   1      34.573  34.444  29.932  1.00  0.00     0.117 C 
ENDROOT
BRANCH   1   2
ATOM      2  N   UNL A   1      33.993  33.828  31.111  1.00  0.00    -0.355 N 
ATOM      3  C   UNL A   1      34.174  34.084  32.427  1.00  0.00     0.238 C 
ATOM      4  O   UNL A   1      33.593  33.345  33.228  1.00  0.00    -0.273 OA
ATOM      5  H   UNL A   1      33.359  33.098  30.920  1.00  0.00     0.163 HD
BRANCH   3   6
ATOM      6  C   UNL A   1      35.066  35.207  32.929  1.00  0.00     0.168 C 
BRANCH   6   7
ATOM      7  N   UNL A   1      36.306  34.891  33.665  1.00  0.00    -0.202 NA
ATOM      8  H   UNL A   1      36.696  35.792  33.940  1.00  0.00     0.141 HD
BRANCH   7   9
ATOM      9  S   UNL A   1      37.593  34.018  33.051  1.00  0.00     0.215 S 
ATOM     10  O   UNL A   1      38.109  34.682  31.875  1.00  0.00    -0.212 OA
ATOM     11  O   UNL A   1      37.056  32.679  32.927  1.00  0.00    -0.212 OA
BRANCH   9  12
ATOM     12  C   UNL A   1      38.886  33.980  34.311  1.00  0.00     0.180 C 
BRANCH  12  13
ATOM     13  C   UNL A   1      38.319  34.204  35.682  1.00  0.00    -0.017 C 
ATOM     14  C   UNL A   1      37.920  33.221  36.499  1.00  0.00     0.005 C 
ENDBRANCH  12  13
ENDBRANCH   9  12
ENDBRANCH   7   9
ENDBRANCH   6   7
BRANCH   6  15
ATOM     15  C   UNL A   1      34.267  36.332  33.602  1.00  0.00     0.129 C 
BRANCH  15  16
ATOM     16  C   UNL A   1      33.315  37.090  32.714  1.00  0.00     0.219 C 
ATOM     17  N   UNL A   1      33.880  37.876  31.755  1.00  0.00    -0.370 N 
ATOM     18  O   UNL A   1      32.097  37.018  32.821  1.00  0.00    -0.275 OA
ATOM     19  H   UNL A   1      34.860  37.929  31.676  1.00  0.00     0.159 HD
ATOM     20  H   UNL A   1      33.308  38.392  31.141  1.00  0.00     0.159 HD
ENDBRANCH  15  16
ENDBRANCH   6  15
ENDBRANCH   3   6
ENDBRANCH   1   2
BRANCH   1  21
ATOM     21  C   UNL A   1      35.769  33.652  29.444  1.00  0.00     0.042 C 
BRANCH  21  22
ATOM     22  C   UNL A   1      35.608  33.233  27.993  1.00  0.00     0.118 C 
BRANCH  22  23
ATOM     23  N   UNL A   1      34.511  32.289  27.810  1.00  0.00    -0.352 N 
ATOM     24  C   UNL A   1      34.551  30.917  27.795  1.00  0.00     0.251 C 
ATOM     25  H   UNL A   1      33.621  32.690  27.681  1.00  0.00     0.163 HD
ATOM     26  O   UNL A   1      33.591  30.264  27.402  1.00  0.00    -0.269 OA
BRANCH  24  27
ATOM     27  C   UNL A   1      35.784  30.237  28.237  1.00  0.00     0.039 A 
ATOM     28  C   UNL A   1      36.895  30.225  27.395  1.00  0.00     0.014 A 
ATOM     29  C   UNL A   1      35.848  29.658  29.506  1.00  0.00     0.014 A 
ATOM     30  C   UNL A   1      38.095  29.686  27.858  1.00  0.00     0.010 A 
ATOM     31  C   UNL A   1      37.072  29.243  30.009  1.00  0.00     0.010 A 
ATOM     32  C   UNL A   1      38.203  29.228  29.182  1.00  0.00    -0.014 A 
BRANCH  32  33
ATOM     33  C   UNL A   1      39.479  28.692  29.714  1.00  0.00     0.031 A 
ATOM     34  C   UNL A   1      40.105  29.327  30.926  1.00  0.00     0.074 A 
ATOM     35  C   UNL A   1      40.098  27.679  29.079  1.00  0.00     0.049 A 
ATOM     36  N   UNL A   1      41.241  29.046  31.513  1.00  0.00    -0.248 NA
ATOM     37  C   UNL A   1      39.377  30.448  31.542  1.00  0.00     0.031 C 
ATOM     38  C   UNL A   1      39.619  27.019  27.862  1.00  0.00     0.029 A 
ATOM     39  N   UNL A   1      41.269  27.026  29.368  1.00  0.00    -0.354 N 
ATOM     40  C   UNL A   1      41.365  29.964  32.548  1.00  0.00     0.074 A 
ATOM     41  C   UNL A   1      40.232  30.855  32.466  1.00  0.00     0.031 C 
ATOM     42  C   UNL A   1      40.468  26.034  27.531  1.00  0.00     0.029 A 
ATOM     43  C   UNL A   1      41.573  26.020  28.483  1.00  0.00     0.049 A 
ATOM     44  H   UNL A   1      41.840  27.257  30.137  1.00  0.00     0.167 HD
ATOM     45  C   UNL A   1      42.321  30.039  33.503  1.00  0.00     0.037 A 
ATOM     46  C   UNL A   1      42.630  25.185  28.443  1.00  0.00     0.037 A 
ATOM     47  C   UNL A   1      43.433  29.132  33.595  1.00  0.00     0.049 A 
ATOM     48  C   UNL A   1      43.685  25.295  29.509  1.00  0.00     0.074 A 
ATOM     49  C   UNL A   1      44.426  29.081  34.556  1.00  0.00     0.029 A 
ATOM     50  N   UNL A   1      43.701  28.118  32.686  1.00  0.00    -0.354 N 
ATOM     51  N   UNL A   1      43.751  26.119  30.527  1.00  0.00    -0.248 NA
ATOM     52  C   UNL A   1      44.810  24.354  29.425  1.00  0.00     0.031 C 
ATOM     53  C   UNL A   1      45.325  28.071  34.200  1.00  0.00     0.029 A 
ATOM     54  C   UNL A   1      44.859  27.452  33.051  1.00  0.00     0.049 A 
ATOM     55  H   UNL A   1      43.149  27.904  31.900  1.00  0.00     0.167 HD
ATOM     56  C   UNL A   1      44.906  25.777  31.220  1.00  0.00     0.074 A 
ATOM     57  C   UNL A   1      45.499  24.659  30.514  1.00  0.00     0.031 C 
ATOM     58  C   UNL A   1      45.428  26.336  32.339  1.00  0.00     0.037 A 
BRANCH  45  59
ATOM     59  C   UNL A   1      42.199  31.134  34.523  1.00  0.00     0.057 A 
ATOM     60  C   UNL A   1      42.769  32.400  34.323  1.00  0.00     0.134 A 
ATOM     61  C   UNL A   1      41.483  30.931  35.709  1.00  0.00     0.134 A 
ATOM     62  F   UNL A   1      43.481  32.659  33.215  1.00  0.00    -0.206 F 
ATOM     63  C   UNL A   1      42.658  33.411  35.279  1.00  0.00     0.040 A 
ATOM     64  C   UNL A   1      41.337  31.946  36.657  1.00  0.00     0.040 A 
ATOM     65  F   UNL A   1      40.908  29.747  35.964  1.00  0.00    -0.206 F 
ATOM     66  C   UNL A   1      41.933  33.187  36.447  1.00  0.00     0.006 A 
ENDBRANCH  45  59
BRANCH  46  67
ATOM     67  C   UNL A   1      42.731  24.160  27.373  1.00  0.00     0.057 A 
ATOM     68  C   UNL A   1      42.260  22.857  27.572  1.00  0.00     0.134 A 
ATOM     69  C   UNL A   1      43.311  24.452  26.132  1.00  0.00     0.134 A 
ATOM     70  F   UNL A   1      41.709  22.511  28.744  1.00  0.00    -0.206 F 
ATOM     71  C   UNL A   1      42.382  21.875  26.587  1.00  0.00     0.040 A 
ATOM     72  C   UNL A   1      43.414  23.487  25.127  1.00  0.00     0.040 A 
ATOM     73  F   UNL A   1      43.775  25.683  25.872  1.00  0.00    -0.206 F 
ATOM     74  C   UNL A   1      42.958  22.191  25.359  1.00  0.00     0.006 A 
ENDBRANCH  46  67
BRANCH  58  75
ATOM     75  C   UNL A   1      46.682  25.724  32.892  1.00  0.00     0.057 A 
ATOM     76  C   UNL A   1      47.955  26.142  32.486  1.00  0.00     0.134 A 
ATOM     77  C   UNL A   1      46.612  24.730  33.877  1.00  0.00     0.134 A 
ATOM     78  F   UNL A   1      48.092  27.082  31.537  1.00  0.00    -0.206 F 
ATOM     79  C   UNL A   1      49.114  25.576  33.021  1.00  0.00     0.040 A 
ATOM     80  C   UNL A   1      47.762  24.179  34.443  1.00  0.00     0.040 A 
ATOM     81  F   UNL A   1      45.424  24.291  34.320  1.00  0.00    -0.206 F 
ATOM     82  C   UNL A   1      49.019  24.597  34.007  1.00  0.00     0.006 A 
ENDBRANCH  58  75
ENDBRANCH  32  33
ENDBRANCH  24  27
ENDBRANCH  22  23
ENDBRANCH  21  22
ENDBRANCH   1  21
TORSDOF 16
ENDMDL
MODEL 3
REMARK VINA RESULT:     -10.2      1.216      2.654
REMARK SMILES C=CCS(=O)(=O)N[C@H](CC(N)=O)C(=O)NCCCNC(=O)c1ccc(-c2c3nc(c(-c4c(F)cccc4F)c4ccc([nH]4)c(-c4c(F)cccc4F)c4nc(c(-c5c(F)cccc5F)c5ccc2[nH]5)C=C4)C=C3)cc1
REMARK SMILES IDX 16 1 15 2 13 3 14 4 8 6 7 7 4 9 5 10 6 11 3 12 2 13 1 14
REMARK SMILES IDX 9 15 10 16 11 17 12 18 17 21 18 22 19 23 20 24 21 26 22 27
REMARK SMILES IDX 23 28 75 29 24 30 74 31 25 32 26 33 27 34 68 35 28 36 73 37
REMARK SMILES IDX 67 38 69 39 29 40 72 41 66 42 65 43 30 45 56 46 39 47 55 48
REMARK SMILES IDX 40 49 43 50 54 51 70 52 41 53 42 54 53 56 71 57 44 58 31 59
REMARK SMILES IDX 32 60 37 61 33 62 34 63 36 64 38 65 35 66 57 67 58 68 63 69
REMARK SMILES IDX 59 70 60 71 62 72 64 73 61 74 45 75 46 76 51 77 47 78 48 79
REMARK SMILES IDX 50 80 52 81 49 82
REMARK H PARENT 15 5 7 8 11 19 11 20 19 25 69 44 43 55
REMARK Flexibility Score: inf
ROOT
ATOM      1  C   UNL A   1      36.548  20.624  25.196  1.00  0.00     0.117 C 
ENDROOT
BRANCH   1   2
ATOM      2  N   UNL A   1      35.378  19.798  24.966  1.00  0.00    -0.355 N 
ATOM      3  C   UNL A   1      34.076  20.128  24.799  1.00  0.00     0.238 C 
ATOM      4  O   UNL A   1      33.270  19.198  24.687  1.00  0.00    -0.273 OA
ATOM      5  H   UNL A   1      35.562  18.831  24.925  1.00  0.00     0.163 HD
BRANCH   3   6
ATOM      6  C   UNL A   1      33.593  21.568  24.770  1.00  0.00     0.168 C 
BRANCH   6   7
ATOM      7  N   UNL A   1      32.488  21.993  25.653  1.00  0.00    -0.202 NA
ATOM      8  H   UNL A   1      31.739  22.290  25.028  1.00  0.00     0.141 HD
BRANCH   7   9
ATOM      9  S   UNL A   1      32.593  23.186  26.819  1.00  0.00     0.215 S 
ATOM     10  O   UNL A   1      33.925  23.195  27.381  1.00  0.00    -0.212 OA
ATOM     11  O   UNL A   1      31.465  22.906  27.682  1.00  0.00    -0.212 OA
BRANCH   9  12
ATOM     12  C   UNL A   1      32.292  24.774  26.014  1.00  0.00     0.180 C 
BRANCH  12  13
ATOM     13  C   UNL A   1      33.574  25.515  25.772  1.00  0.00    -0.017 C 
ATOM     14  C   UNL A   1      34.112  25.710  24.561  1.00  0.00     0.005 C 
ENDBRANCH  12  13
ENDBRANCH   9  12
ENDBRANCH   7   9
ENDBRANCH   6   7
BRANCH   6  15
ATOM     15  C   UNL A   1      33.426  22.102  23.340  1.00  0.00     0.129 C 
BRANCH  15  16
ATOM     16  C   UNL A   1      32.018  22.125  22.803  1.00  0.00     0.219 C 
ATOM     17  N   UNL A   1      31.706  21.167  21.886  1.00  0.00    -0.370 N 
ATOM     18  O   UNL A   1      31.178  22.943  23.158  1.00  0.00    -0.275 OA
ATOM     19  H   UNL A   1      32.387  20.513  21.606  1.00  0.00     0.159 HD
ATOM     20  H   UNL A   1      30.800  21.129  21.502  1.00  0.00     0.159 HD
ENDBRANCH  15  16
ENDBRANCH   6  15
ENDBRANCH   3   6
ENDBRANCH   1   2
BRANCH   1  21
ATOM     21  C   UNL A   1      37.817  19.864  24.864  1.00  0.00     0.042 C 
BRANCH  21  22
ATOM     22  C   UNL A   1      38.990  20.339  25.705  1.00  0.00     0.118 C 
BRANCH  22  23
ATOM     23  N   UNL A   1      40.046  19.338  25.792  1.00  0.00    -0.352 N 
ATOM     24  C   UNL A   1      41.377  19.515  26.080  1.00  0.00     0.251 C 
ATOM     25  H   UNL A   1      39.768  18.409  25.621  1.00  0.00     0.163 HD
ATOM     26  O   UNL A   1      42.187  18.615  25.890  1.00  0.00    -0.269 OA
BRANCH  24  27
ATOM     27  C   UNL A   1      41.823  20.822  26.599  1.00  0.00     0.039 A 
ATOM     28  C   UNL A   1      42.266  21.797  25.706  1.00  0.00     0.014 A 
ATOM     29  C   UNL A   1      41.753  21.092  27.968  1.00  0.00     0.014 A 
ATOM     30  C   UNL A   1      42.576  23.069  26.184  1.00  0.00     0.010 A 
ATOM     31  C   UNL A   1      41.937  22.390  28.420  1.00  0.00     0.010 A 
ATOM     32  C   UNL A   1      42.375  23.387  27.539  1.00  0.00    -0.014 A 
BRANCH  32  33
ATOM     33  C   UNL A   1      42.654  24.745  28.065  1.00  0.00     0.031 A 
ATOM     34  C   UNL A   1      44.055  25.112  28.473  1.00  0.00     0.074 A 
ATOM     35  C   UNL A   1      41.645  25.622  28.227  1.00  0.00     0.049 A 
ATOM     36  N   UNL A   1      44.497  26.222  29.007  1.00  0.00    -0.248 NA
ATOM     37  C   UNL A   1      45.093  24.083  28.290  1.00  0.00     0.031 C 
ATOM     38  C   UNL A   1      40.236  25.362  27.921  1.00  0.00     0.029 A 
ATOM     39  N   UNL A   1      41.649  26.911  28.693  1.00  0.00    -0.354 N 
ATOM     40  C   UNL A   1      45.851  26.015  29.236  1.00  0.00     0.074 A 
ATOM     41  C   UNL A   1      46.145  24.654  28.855  1.00  0.00     0.031 C 
ATOM     42  C   UNL A   1      39.520  26.469  28.173  1.00  0.00     0.029 A 
ATOM     43  C   UNL A   1      40.408  27.500  28.699  1.00  0.00     0.049 A 
ATOM     44  H   UNL A   1      42.465  27.373  28.996  1.00  0.00     0.167 HD
ATOM     45  C   UNL A   1      46.776  26.892  29.691  1.00  0.00     0.037 A 
ATOM     46  C   UNL A   1      40.030  28.732  29.092  1.00  0.00     0.037 A 
ATOM     47  C   UNL A   1      46.481  28.254  30.044  1.00  0.00     0.049 A 
ATOM     48  C   UNL A   1      41.074  29.684  29.606  1.00  0.00     0.074 A 
ATOM     49  C   UNL A   1      47.353  29.244  30.461  1.00  0.00     0.029 A 
ATOM     50  N   UNL A   1      45.213  28.817  30.026  1.00  0.00    -0.354 N 
ATOM     51  N   UNL A   1      42.365  29.501  29.745  1.00  0.00    -0.248 NA
ATOM     52  C   UNL A   1      40.610  31.018  30.011  1.00  0.00     0.031 C 
ATOM     53  C   UNL A   1      46.606  30.390  30.746  1.00  0.00     0.029 A 
ATOM     54  C   UNL A   1      45.276  30.134  30.449  1.00  0.00     0.049 A 
ATOM     55  H   UNL A   1      44.391  28.350  29.752  1.00  0.00     0.167 HD
ATOM     56  C   UNL A   1      42.871  30.703  30.225  1.00  0.00     0.074 A 
ATOM     57  C   UNL A   1      41.748  31.612  30.335  1.00  0.00     0.031 C 
ATOM     58  C   UNL A   1      44.148  31.025  30.544  1.00  0.00     0.037 A 
BRANCH  45  59
ATOM     59  C   UNL A   1      48.188  26.401  29.828  1.00  0.00     0.057 A 
ATOM     60  C   UNL A   1      48.651  25.789  31.002  1.00  0.00     0.134 A 
ATOM     61  C   UNL A   1      49.093  26.520  28.765  1.00  0.00     0.134 A 
ATOM     62  F   UNL A   1      47.842  25.657  32.064  1.00  0.00    -0.206 F 
ATOM     63  C   UNL A   1      49.968  25.343  31.125  1.00  0.00     0.040 A 
ATOM     64  C   UNL A   1      50.403  26.047  28.865  1.00  0.00     0.040 A 
ATOM     65  F   UNL A   1      48.718  27.091  27.611  1.00  0.00    -0.206 F 
ATOM     66  C   UNL A   1      50.846  25.464  30.050  1.00  0.00     0.006 A 
ENDBRANCH  45  59
BRANCH  46  67
ATOM     67  C   UNL A   1      38.605  29.143  28.994  1.00  0.00     0.057 A 
ATOM     68  C   UNL A   1      37.748  29.048  30.096  1.00  0.00     0.134 A 
ATOM     69  C   UNL A   1      38.064  29.627  27.797  1.00  0.00     0.134 A 
ATOM     70  F   UNL A   1      38.202  28.576  31.266  1.00  0.00    -0.206 F 
ATOM     71  C   UNL A   1      36.399  29.396  30.007  1.00  0.00     0.040 A 
ATOM     72  C   UNL A   1      36.723  30.006  27.700  1.00  0.00     0.040 A 
ATOM     73  F   UNL A   1      38.832  29.751  26.705  1.00  0.00    -0.206 F 
ATOM     74  C   UNL A   1      35.885  29.881  28.806  1.00  0.00     0.006 A 
ENDBRANCH  46  67
BRANCH  58  75
ATOM     75  C   UNL A   1      44.407  32.430  31.006  1.00  0.00     0.057 A 
ATOM     76  C   UNL A   1      44.406  32.779  32.362  1.00  0.00     0.134 A 
ATOM     77  C   UNL A   1      44.704  33.439  30.079  1.00  0.00     0.134 A 
ATOM     78  F   UNL A   1      44.118  31.864  33.300  1.00  0.00    -0.206 F 
ATOM     79  C   UNL A   1      44.665  34.087  32.779  1.00  0.00     0.040 A 
ATOM     80  C   UNL A   1      44.996  34.741  30.485  1.00  0.00     0.040 A 
ATOM     81  F   UNL A   1      44.734  33.170  28.765  1.00  0.00    -0.206 F 
ATOM     82  C   UNL A   1      44.969  35.069  31.839  1.00  0.00     0.006 A 
ENDBRANCH  58  75
ENDBRANCH  32  33
ENDBRANCH  24  27
ENDBRANCH  22  23
ENDBRANCH  21  22
ENDBRANCH   1  21
TORSDOF 16
ENDMDL
