MODEL 1
REMARK VINA RESULT:     -13.9      0.000      0.000
REMARK SMILES N#Cc1cc2c(nc1N1CC[NH+]([C@H](C(=O)NCCCNC(=O)c3ccc(-c4c5nc(c(-c6c(F)cccc6F)c6ccc([nH]6)c(-c6c(F)cccc6F)c6nc(c(-c7c(F)cccc7F)c7ccc4[nH]7)C=C6)C=C5)cc3)c3c[nH]c4cc(Cl)ccc34)CC1)CCCC2
REMARK SMILES IDX 17 1 16 2 14 3 15 4 13 6 12 7 9 8 10 9 88 10 11 11 87 12
REMARK SMILES IDX 8 14 3 15 4 16 5 17 7 18 6 19 92 20 89 21 91 22 90 23 2 24
REMARK SMILES IDX 1 25 77 26 78 27 86 28 79 29 80 30 85 31 81 33 84 34 82 35
REMARK SMILES IDX 83 36 18 37 19 38 20 39 21 40 22 42 23 43 24 44 76 45 25 46
REMARK SMILES IDX 75 47 26 48 27 49 28 50 69 51 29 52 74 53 68 54 70 55 30 56
REMARK SMILES IDX 73 57 67 58 66 59 31 61 57 62 40 63 56 64 41 65 44 66 55 67
REMARK SMILES IDX 71 68 42 69 43 70 54 72 72 73 45 74 32 75 33 76 38 77 34 78
REMARK SMILES IDX 35 79 37 80 39 81 36 82 58 83 59 84 64 85 60 86 61 87 63 88
REMARK SMILES IDX 65 89 62 90 46 91 47 92 52 93 48 94 49 95 51 96 53 97 50 98
REMARK H PARENT 16 5 12 13 79 32 20 41 70 60 44 71
REMARK Flexibility Score: inf
ROOT
ATOM      1  C   UNL A   1      33.206  29.335  25.588  1.00  0.00     0.118 C 
ENDROOT
BRANCH   1   2
ATOM      2  N   UNL A   1      32.118  28.854  26.443  1.00  0.00    -0.351 N 
ATOM      3  C   UNL A   1      31.456  27.650  26.575  1.00  0.00     0.283 C 
ATOM      4  O   UNL A   1      30.727  27.598  27.575  1.00  0.00    -0.268 OA
ATOM      5  H   UNL A   1      31.785  29.544  27.062  1.00  0.00     0.163 HD
BRANCH   3   6
ATOM      6  C   UNL A   1      31.577  26.453  25.533  1.00  0.00     0.307 C 
BRANCH   6   7
ATOM      7  N   UNL A   1      31.661  25.158  26.268  1.00  0.00    -0.318 N 
ATOM      8  N   UNL A   1      32.093  22.334  26.157  1.00  0.00    -0.344 N 
ATOM      9  C   UNL A   1      33.133  23.111  26.793  1.00  0.00     0.179 C 
ATOM     10  C   UNL A   1      30.735  22.747  26.474  1.00  0.00     0.179 C 
ATOM     11  C   UNL A   1      33.015  24.590  26.345  1.00  0.00     0.284 C 
ATOM     12  C   UNL A   1      30.533  24.230  26.092  1.00  0.00     0.284 C 
ATOM     13  H   UNL A   1      31.491  25.418  27.240  1.00  0.00     0.349 HD
BRANCH   8  14
ATOM     14  C   UNL A   1      32.338  21.360  25.234  1.00  0.00     0.147 A 
ATOM     15  C   UNL A   1      32.381  21.589  23.858  1.00  0.00     0.095 A 
ATOM     16  C   UNL A   1      32.360  20.504  22.975  1.00  0.00     0.029 A 
ATOM     17  C   UNL A   1      32.528  19.220  23.473  1.00  0.00    -0.025 A 
ATOM     18  N   UNL A   1      32.509  20.115  25.720  1.00  0.00    -0.234 NA
ATOM     19  C   UNL A   1      32.660  19.082  24.854  1.00  0.00     0.046 A 
ATOM     20  C   UNL A   1      32.594  18.046  22.540  1.00  0.00     0.037 C 
ATOM     21  C   UNL A   1      33.156  17.793  25.454  1.00  0.00     0.056 C 
ATOM     22  C   UNL A   1      33.400  16.891  23.126  1.00  0.00     0.005 C 
ATOM     23  C   UNL A   1      32.937  16.586  24.549  1.00  0.00     0.007 C 
BRANCH  15  24
ATOM     24  C   UNL A   1      32.703  22.859  23.314  1.00  0.00     0.103 C 
ATOM     25  N   UNL A   1      33.110  23.805  22.759  1.00  0.00    -0.192 NA
ENDBRANCH  15  24
ENDBRANCH   8  14
ENDBRANCH   6   7
BRANCH   6  26
ATOM     26  C   UNL A   1      30.517  26.503  24.353  1.00  0.00     0.044 A 
ATOM     27  C   UNL A   1      31.007  26.319  23.058  1.00  0.00     0.094 A 
ATOM     28  C   UNL A   1      29.553  27.515  23.922  1.00  0.00     0.009 A 
ATOM     29  N   UNL A   1      31.414  27.672  22.882  1.00  0.00    -0.361 N 
ATOM     30  C   UNL A   1      30.360  28.455  23.287  1.00  0.00     0.047 A 
ATOM     31  C   UNL A   1      28.204  27.575  23.501  1.00  0.00     0.012 A 
ATOM     32  H   UNL A   1      32.281  27.986  22.537  1.00  0.00     0.166 HD
ATOM     33  C   UNL A   1      29.973  29.707  22.834  1.00  0.00     0.047 A 
ATOM     34  C   UNL A   1      27.744  28.726  22.830  1.00  0.00     0.021 A 
ATOM     35  C   UNL A   1      28.606  29.795  22.573  1.00  0.00     0.043 A 
ATOM     36  Cl  UNL A   1      28.028  31.169  21.710  1.00  0.00    -0.084 Cl
ENDBRANCH   6  26
ENDBRANCH   3   6
ENDBRANCH   1   2
BRANCH   1  37
ATOM     37  C   UNL A   1      34.586  29.589  26.252  1.00  0.00     0.042 C 
BRANCH  37  38
ATOM     38  C   UNL A   1      34.839  28.959  27.626  1.00  0.00     0.118 C 
BRANCH  38  39
ATOM     39  N   UNL A   1      34.962  29.958  28.662  1.00  0.00    -0.352 N 
ATOM     40  C   UNL A   1      36.022  30.215  29.494  1.00  0.00     0.251 C 
ATOM     41  H   UNL A   1      34.176  30.537  28.787  1.00  0.00     0.163 HD
ATOM     42  O   UNL A   1      35.829  30.849  30.528  1.00  0.00    -0.269 OA
BRANCH  40  43
ATOM     43  C   UNL A   1      37.387  29.735  29.174  1.00  0.00     0.039 A 
ATOM     44  C   UNL A   1      38.189  29.272  30.222  1.00  0.00     0.014 A 
ATOM     45  C   UNL A   1      37.922  29.826  27.884  1.00  0.00     0.014 A 
ATOM     46  C   UNL A   1      39.509  28.883  29.976  1.00  0.00     0.010 A 
ATOM     47  C   UNL A   1      39.221  29.374  27.627  1.00  0.00     0.010 A 
ATOM     48  C   UNL A   1      40.035  28.914  28.673  1.00  0.00    -0.014 A 
BRANCH  48  49
ATOM     49  C   UNL A   1      41.441  28.495  28.418  1.00  0.00     0.031 A 
ATOM     50  C   UNL A   1      41.767  27.061  28.089  1.00  0.00     0.074 A 
ATOM     51  C   UNL A   1      42.432  29.407  28.473  1.00  0.00     0.049 A 
ATOM     52  N   UNL A   1      42.928  26.517  27.820  1.00  0.00    -0.248 NA
ATOM     53  C   UNL A   1      40.644  26.110  28.070  1.00  0.00     0.031 C 
ATOM     54  C   UNL A   1      42.257  30.823  28.796  1.00  0.00     0.029 A 
ATOM     55  N   UNL A   1      43.783  29.283  28.249  1.00  0.00    -0.354 N 
ATOM     56  C   UNL A   1      42.675  25.169  27.597  1.00  0.00     0.074 A 
ATOM     57  C   UNL A   1      41.262  24.964  27.825  1.00  0.00     0.031 C 
ATOM     58  C   UNL A   1      43.444  31.444  28.711  1.00  0.00     0.029 A 
ATOM     59  C   UNL A   1      44.473  30.466  28.372  1.00  0.00     0.049 A 
ATOM     60  H   UNL A   1      44.215  28.428  28.023  1.00  0.00     0.167 HD
ATOM     61  C   UNL A   1      43.534  24.197  27.207  1.00  0.00     0.037 A 
ATOM     62  C   UNL A   1      45.786  30.735  28.230  1.00  0.00     0.037 A 
ATOM     63  C   UNL A   1      44.940  24.404  26.972  1.00  0.00     0.049 A 
ATOM     64  C   UNL A   1      46.730  29.625  27.855  1.00  0.00     0.074 A 
ATOM     65  C   UNL A   1      45.884  23.485  26.547  1.00  0.00     0.029 A 
ATOM     66  N   UNL A   1      45.605  25.608  27.147  1.00  0.00    -0.354 N 
ATOM     67  N   UNL A   1      46.466  28.368  27.594  1.00  0.00    -0.248 NA
ATOM     68  C   UNL A   1      48.156  29.970  27.754  1.00  0.00     0.031 C 
ATOM     69  C   UNL A   1      47.129  24.117  26.524  1.00  0.00     0.029 A 
ATOM     70  C   UNL A   1      46.953  25.447  26.869  1.00  0.00     0.049 A 
ATOM     71  H   UNL A   1      45.182  26.452  27.426  1.00  0.00     0.167 HD
ATOM     72  C   UNL A   1      47.683  27.780  27.273  1.00  0.00     0.074 A 
ATOM     73  C   UNL A   1      48.684  28.823  27.353  1.00  0.00     0.031 C 
ATOM     74  C   UNL A   1      47.944  26.491  26.945  1.00  0.00     0.037 A 
BRANCH  61  75
ATOM     75  C   UNL A   1      42.980  22.816  26.993  1.00  0.00     0.057 A 
ATOM     76  C   UNL A   1      42.634  21.987  28.069  1.00  0.00     0.134 A 
ATOM     77  C   UNL A   1      42.723  22.336  25.701  1.00  0.00     0.134 A 
ATOM     78  F   UNL A   1      42.859  22.380  29.331  1.00  0.00    -0.206 F 
ATOM     79  C   UNL A   1      42.068  20.726  27.867  1.00  0.00     0.040 A 
ATOM     80  C   UNL A   1      42.130  21.091  25.489  1.00  0.00     0.040 A 
ATOM     81  F   UNL A   1      43.021  23.080  24.626  1.00  0.00    -0.206 F 
ATOM     82  C   UNL A   1      41.805  20.280  26.575  1.00  0.00     0.006 A 
ENDBRANCH  61  75
BRANCH  62  83
ATOM     83  C   UNL A   1      46.279  32.126  28.413  1.00  0.00     0.057 A 
ATOM     84  C   UNL A   1      46.297  33.032  27.346  1.00  0.00     0.134 A 
ATOM     85  C   UNL A   1      46.729  32.587  29.656  1.00  0.00     0.134 A 
ATOM     86  F   UNL A   1      45.899  32.646  26.125  1.00  0.00    -0.206 F 
ATOM     87  C   UNL A   1      46.752  34.343  27.506  1.00  0.00     0.040 A 
ATOM     88  C   UNL A   1      47.157  33.904  29.838  1.00  0.00     0.040 A 
ATOM     89  F   UNL A   1      46.735  31.772  30.721  1.00  0.00    -0.206 F 
ATOM     90  C   UNL A   1      47.174  34.784  28.758  1.00  0.00     0.006 A 
ENDBRANCH  62  83
BRANCH  74  91
ATOM     91  C   UNL A   1      49.366  26.122  26.626  1.00  0.00     0.057 A 
ATOM     92  C   UNL A   1      49.883  26.227  25.329  1.00  0.00     0.134 A 
ATOM     93  C   UNL A   1      50.250  25.738  27.644  1.00  0.00     0.134 A 
ATOM     94  F   UNL A   1      49.090  26.581  24.307  1.00  0.00    -0.206 F 
ATOM     95  C   UNL A   1      51.224  25.953  25.054  1.00  0.00     0.040 A 
ATOM     96  C   UNL A   1      51.600  25.491  27.387  1.00  0.00     0.040 A 
ATOM     97  F   UNL A   1      49.825  25.629  28.912  1.00  0.00    -0.206 F 
ATOM     98  C   UNL A   1      52.089  25.596  26.087  1.00  0.00     0.006 A 
ENDBRANCH  74  91
ENDBRANCH  48  49
ENDBRANCH  40  43
ENDBRANCH  38  39
ENDBRANCH  37  38
ENDBRANCH   1  37
TORSDOF 14
ENDMDL
MODEL 2
REMARK VINA RESULT:     -13.5      4.327      7.672
REMARK SMILES N#Cc1cc2c(nc1N1CC[NH+]([C@H](C(=O)NCCCNC(=O)c3ccc(-c4c5nc(c(-c6c(F)cccc6F)c6ccc([nH]6)c(-c6c(F)cccc6F)c6nc(c(-c7c(F)cccc7F)c7ccc4[nH]7)C=C6)C=C5)cc3)c3c[nH]c4cc(Cl)ccc34)CC1)CCCC2
REMARK SMILES IDX 17 1 16 2 14 3 15 4 13 6 12 7 9 8 10 9 88 10 11 11 87 12
REMARK SMILES IDX 8 14 3 15 4 16 5 17 7 18 6 19 92 20 89 21 91 22 90 23 2 24
REMARK SMILES IDX 1 25 77 26 78 27 86 28 79 29 80 30 85 31 81 33 84 34 82 35
REMARK SMILES IDX 83 36 18 37 19 38 20 39 21 40 22 42 23 43 24 44 76 45 25 46
REMARK SMILES IDX 75 47 26 48 27 49 28 50 69 51 29 52 74 53 68 54 70 55 30 56
REMARK SMILES IDX 73 57 67 58 66 59 31 61 57 62 40 63 56 64 41 65 44 66 55 67
REMARK SMILES IDX 71 68 42 69 43 70 54 72 72 73 45 74 32 75 33 76 38 77 34 78
REMARK SMILES IDX 35 79 37 80 39 81 36 82 58 83 59 84 64 85 60 86 61 87 63 88
REMARK SMILES IDX 65 89 62 90 46 91 47 92 52 93 48 94 49 95 51 96 53 97 50 98
REMARK H PARENT 16 5 12 13 79 32 20 41 70 60 44 71
REMARK Flexibility Score: inf
ROOT
ATOM      1  C   UNL A   1      32.987  30.009  26.291  1.00  0.00     0.118 C 
ENDROOT
BRANCH   1   2
ATOM      2  N   UNL A   1      33.637  29.636  25.032  1.00  0.00    -0.351 N 
ATOM      3  C   UNL A   1      33.285  28.833  23.966  1.00  0.00     0.283 C 
ATOM      4  O   UNL A   1      34.040  28.953  22.991  1.00  0.00    -0.268 OA
ATOM      5  H   UNL A   1      34.523  30.052  24.923  1.00  0.00     0.163 HD
BRANCH   3   6
ATOM      6  C   UNL A   1      32.057  27.821  23.986  1.00  0.00     0.307 C 
BRANCH   6   7
ATOM      7  N   UNL A   1      32.343  26.707  24.934  1.00  0.00    -0.318 N 
ATOM      8  N   UNL A   1      32.726  23.901  25.331  1.00  0.00    -0.344 N 
ATOM      9  C   UNL A   1      33.903  24.729  25.471  1.00  0.00     0.179 C 
ATOM     10  C   UNL A   1      31.512  24.455  25.909  1.00  0.00     0.179 C 
ATOM     11  C   UNL A   1      33.665  26.085  24.760  1.00  0.00     0.284 C 
ATOM     12  C   UNL A   1      31.211  25.834  25.282  1.00  0.00     0.284 C 
ATOM     13  H   UNL A   1      32.453  27.176  25.835  1.00  0.00     0.349 HD
BRANCH   8  14
ATOM     14  C   UNL A   1      32.702  22.743  24.613  1.00  0.00     0.147 A 
ATOM     15  C   UNL A   1      32.504  22.689  23.232  1.00  0.00     0.095 A 
ATOM     16  C   UNL A   1      32.217  21.464  22.621  1.00  0.00     0.029 A 
ATOM     17  C   UNL A   1      32.358  20.292  23.350  1.00  0.00    -0.025 A 
ATOM     18  N   UNL A   1      32.847  21.606  25.321  1.00  0.00    -0.234 NA
ATOM     19  C   UNL A   1      32.736  20.412  24.687  1.00  0.00     0.046 A 
ATOM     20  C   UNL A   1      32.138  18.959  22.695  1.00  0.00     0.037 C 
ATOM     21  C   UNL A   1      33.217  19.213  25.461  1.00  0.00     0.056 C 
ATOM     22  C   UNL A   1      32.931  17.847  23.375  1.00  0.00     0.005 C 
ATOM     23  C   UNL A   1      32.721  17.890  24.887  1.00  0.00     0.007 C 
BRANCH  15  24
ATOM     24  C   UNL A   1      32.832  23.775  22.381  1.00  0.00     0.103 C 
ATOM     25  N   UNL A   1      33.290  24.591  21.679  1.00  0.00    -0.192 NA
ENDBRANCH  15  24
ENDBRANCH   8  14
ENDBRANCH   6   7
BRANCH   6  26
ATOM     26  C   UNL A   1      30.640  28.516  24.153  1.00  0.00     0.044 A 
ATOM     27  C   UNL A   1      29.528  27.791  23.719  1.00  0.00     0.094 A 
ATOM     28  C   UNL A   1      30.089  29.784  23.676  1.00  0.00     0.009 A 
ATOM     29  N   UNL A   1      29.659  28.163  22.351  1.00  0.00    -0.361 N 
ATOM     30  C   UNL A   1      29.845  29.524  22.330  1.00  0.00     0.047 A 
ATOM     31  C   UNL A   1      29.310  30.852  24.180  1.00  0.00     0.012 A 
ATOM     32  H   UNL A   1      29.623  27.563  21.571  1.00  0.00     0.166 HD
ATOM     33  C   UNL A   1      29.471  30.446  21.365  1.00  0.00     0.047 A 
ATOM     34  C   UNL A   1      28.696  31.740  23.276  1.00  0.00     0.021 A 
ATOM     35  C   UNL A   1      28.843  31.571  21.896  1.00  0.00     0.043 A 
ATOM     36  Cl  UNL A   1      28.041  32.646  20.814  1.00  0.00    -0.084 Cl
ENDBRANCH   6  26
ENDBRANCH   3   6
ENDBRANCH   1   2
BRANCH   1  37
ATOM     37  C   UNL A   1      33.174  31.464  26.797  1.00  0.00     0.042 C 
BRANCH  37  38
ATOM     38  C   UNL A   1      31.923  32.222  27.255  1.00  0.00     0.118 C 
BRANCH  38  39
ATOM     39  N   UNL A   1      32.171  33.639  27.390  1.00  0.00    -0.352 N 
ATOM     40  C   UNL A   1      33.107  34.284  28.159  1.00  0.00     0.251 C 
ATOM     41  H   UNL A   1      31.588  34.224  26.855  1.00  0.00     0.163 HD
ATOM     42  O   UNL A   1      32.947  35.473  28.421  1.00  0.00    -0.269 OA
BRANCH  40  43
ATOM     43  C   UNL A   1      34.295  33.571  28.686  1.00  0.00     0.039 A 
ATOM     44  C   UNL A   1      34.123  32.714  29.777  1.00  0.00     0.014 A 
ATOM     45  C   UNL A   1      35.581  33.809  28.190  1.00  0.00     0.014 A 
ATOM     46  C   UNL A   1      35.229  32.083  30.354  1.00  0.00     0.010 A 
ATOM     47  C   UNL A   1      36.679  33.125  28.725  1.00  0.00     0.010 A 
ATOM     48  C   UNL A   1      36.518  32.268  29.825  1.00  0.00    -0.014 A 
BRANCH  48  49
ATOM     49  C   UNL A   1      37.692  31.590  30.442  1.00  0.00     0.031 A 
ATOM     50  C   UNL A   1      38.086  31.883  31.867  1.00  0.00     0.074 A 
ATOM     51  C   UNL A   1      38.404  30.700  29.724  1.00  0.00     0.049 A 
ATOM     52  N   UNL A   1      39.065  31.377  32.575  1.00  0.00    -0.248 NA
ATOM     53  C   UNL A   1      37.284  32.884  32.588  1.00  0.00     0.031 C 
ATOM     54  C   UNL A   1      38.140  30.337  28.332  1.00  0.00     0.029 A 
ATOM     55  N   UNL A   1      39.490  29.930  30.066  1.00  0.00    -0.354 N 
ATOM     56  C   UNL A   1      38.993  31.992  33.819  1.00  0.00     0.074 A 
ATOM     57  C   UNL A   1      37.916  32.955  33.750  1.00  0.00     0.031 C 
ATOM     58  C   UNL A   1      39.011  29.389  27.951  1.00  0.00     0.029 A 
ATOM     59  C   UNL A   1      39.924  29.107  29.055  1.00  0.00     0.049 A 
ATOM     60  H   UNL A   1      39.917  29.966  30.953  1.00  0.00     0.167 HD
ATOM     61  C   UNL A   1      39.734  31.754  34.928  1.00  0.00     0.037 A 
ATOM     62  C   UNL A   1      40.942  28.225  29.017  1.00  0.00     0.037 A 
ATOM     63  C   UNL A   1      40.801  30.789  34.999  1.00  0.00     0.049 A 
ATOM     64  C   UNL A   1      41.790  28.022  30.243  1.00  0.00     0.074 A 
ATOM     65  C   UNL A   1      41.589  30.458  36.087  1.00  0.00     0.029 A 
ATOM     66  N   UNL A   1      41.233  30.005  33.940  1.00  0.00    -0.354 N 
ATOM     67  N   UNL A   1      41.673  28.571  31.428  1.00  0.00    -0.248 NA
ATOM     68  C   UNL A   1      42.911  27.078  30.129  1.00  0.00     0.031 C 
ATOM     69  C   UNL A   1      42.537  29.521  35.672  1.00  0.00     0.029 A 
ATOM     70  C   UNL A   1      42.298  29.215  34.342  1.00  0.00     0.049 A 
ATOM     71  H   UNL A   1      40.841  30.009  33.036  1.00  0.00     0.167 HD
ATOM     72  C   UNL A   1      42.684  28.021  32.205  1.00  0.00     0.074 A 
ATOM     73  C   UNL A   1      43.394  27.080  31.363  1.00  0.00     0.031 C 
ATOM     74  C   UNL A   1      42.997  28.276  33.499  1.00  0.00     0.037 A 
BRANCH  61  75
ATOM     75  C   UNL A   1      39.412  32.540  36.169  1.00  0.00     0.057 A 
ATOM     76  C   UNL A   1      40.002  33.785  36.425  1.00  0.00     0.134 A 
ATOM     77  C   UNL A   1      38.451  32.083  37.081  1.00  0.00     0.134 A 
ATOM     78  F   UNL A   1      40.935  34.279  35.598  1.00  0.00    -0.206 F 
ATOM     79  C   UNL A   1      39.660  34.538  37.550  1.00  0.00     0.040 A 
ATOM     80  C   UNL A   1      38.079  32.841  38.191  1.00  0.00     0.040 A 
ATOM     81  F   UNL A   1      37.839  30.904  36.893  1.00  0.00    -0.206 F 
ATOM     82  C   UNL A   1      38.688  34.071  38.431  1.00  0.00     0.006 A 
ENDBRANCH  61  75
BRANCH  62  83
ATOM     83  C   UNL A   1      41.196  27.442  27.777  1.00  0.00     0.057 A 
ATOM     84  C   UNL A   1      42.005  27.952  26.755  1.00  0.00     0.134 A 
ATOM     85  C   UNL A   1      40.652  26.166  27.591  1.00  0.00     0.134 A 
ATOM     86  F   UNL A   1      42.539  29.177  26.863  1.00  0.00    -0.206 F 
ATOM     87  C   UNL A   1      42.257  27.225  25.589  1.00  0.00     0.040 A 
ATOM     88  C   UNL A   1      40.920  25.416  26.444  1.00  0.00     0.040 A 
ATOM     89  F   UNL A   1      39.870  25.617  28.532  1.00  0.00    -0.206 F 
ATOM     90  C   UNL A   1      41.721  25.948  25.437  1.00  0.00     0.006 A 
ENDBRANCH  62  83
BRANCH  74  91
ATOM     91  C   UNL A   1      44.145  27.521  34.107  1.00  0.00     0.057 A 
ATOM     92  C   UNL A   1      45.442  28.048  34.138  1.00  0.00     0.134 A 
ATOM     93  C   UNL A   1      43.934  26.289  34.743  1.00  0.00     0.134 A 
ATOM     94  F   UNL A   1      45.716  29.218  33.541  1.00  0.00    -0.206 F 
ATOM     95  C   UNL A   1      46.489  27.374  34.769  1.00  0.00     0.040 A 
ATOM     96  C   UNL A   1      44.966  25.621  35.404  1.00  0.00     0.040 A 
ATOM     97  F   UNL A   1      42.714  25.732  34.762  1.00  0.00    -0.206 F 
ATOM     98  C   UNL A   1      46.249  26.163  35.415  1.00  0.00     0.006 A 
ENDBRANCH  74  91
ENDBRANCH  48  49
ENDBRANCH  40  43
ENDBRANCH  38  39
ENDBRANCH  37  38
ENDBRANCH   1  37
TORSDOF 14
ENDMDL
MODEL 3
REMARK VINA RESULT:     -13.5      0.439      5.820
REMARK SMILES N#Cc1cc2c(nc1N1CC[NH+]([C@H](C(=O)NCCCNC(=O)c3ccc(-c4c5nc(c(-c6c(F)cccc6F)c6ccc([nH]6)c(-c6c(F)cccc6F)c6nc(c(-c7c(F)cccc7F)c7ccc4[nH]7)C=C6)C=C5)cc3)c3c[nH]c4cc(Cl)ccc34)CC1)CCCC2
REMARK SMILES IDX 17 1 16 2 14 3 15 4 13 6 12 7 9 8 10 9 88 10 11 11 87 12
REMARK SMILES IDX 8 14 3 15 4 16 5 17 7 18 6 19 92 20 89 21 91 22 90 23 2 24
REMARK SMILES IDX 1 25 77 26 78 27 86 28 79 29 80 30 85 31 81 33 84 34 82 35
REMARK SMILES IDX 83 36 18 37 19 38 20 39 21 40 22 42 23 43 24 44 76 45 25 46
REMARK SMILES IDX 75 47 26 48 27 49 28 50 69 51 29 52 74 53 68 54 70 55 30 56
REMARK SMILES IDX 73 57 67 58 66 59 31 61 57 62 40 63 56 64 41 65 44 66 55 67
REMARK SMILES IDX 71 68 42 69 43 70 54 72 72 73 45 74 32 75 33 76 38 77 34 78
REMARK SMILES IDX 35 79 37 80 39 81 36 82 58 83 59 84 64 85 60 86 61 87 63 88
REMARK SMILES IDX 65 89 62 90 46 91 47 92 52 93 48 94 49 95 51 96 53 97 50 98
REMARK H PARENT 16 5 12 13 79 32 20 41 70 60 44 71
REMARK Flexibility Score: inf
ROOT
ATOM      1  C   UNL A   1      33.658  29.128  26.056  1.00  0.00     0.118 C 
ENDROOT
BRANCH   1   2
ATOM      2  N   UNL A   1      32.408  28.744  26.716  1.00  0.00    -0.351 N 
ATOM      3  C   UNL A   1      31.612  27.616  26.692  1.00  0.00     0.283 C 
ATOM      4  O   UNL A   1      30.738  27.613  27.570  1.00  0.00    -0.268 OA
ATOM      5  H   UNL A   1      32.058  29.447  27.310  1.00  0.00     0.163 HD
BRANCH   3   6
ATOM      6  C   UNL A   1      31.766  26.445  25.626  1.00  0.00     0.307 C 
BRANCH   6   7
ATOM      7  N   UNL A   1      31.752  25.128  26.324  1.00  0.00    -0.318 N 
ATOM      8  N   UNL A   1      32.063  22.291  26.152  1.00  0.00    -0.344 N 
ATOM      9  C   UNL A   1      33.100  23.001  26.866  1.00  0.00     0.179 C 
ATOM     10  C   UNL A   1      30.710  22.757  26.407  1.00  0.00     0.179 C 
ATOM     11  C   UNL A   1      33.073  24.496  26.457  1.00  0.00     0.284 C 
ATOM     12  C   UNL A   1      30.595  24.258  26.060  1.00  0.00     0.284 C 
ATOM     13  H   UNL A   1      31.540  25.368  27.293  1.00  0.00     0.349 HD
BRANCH   8  14
ATOM     14  C   UNL A   1      32.315  21.333  25.214  1.00  0.00     0.147 A 
ATOM     15  C   UNL A   1      32.323  21.575  23.840  1.00  0.00     0.095 A 
ATOM     16  C   UNL A   1      32.314  20.499  22.947  1.00  0.00     0.029 A 
ATOM     17  C   UNL A   1      32.527  19.215  23.429  1.00  0.00    -0.025 A 
ATOM     18  N   UNL A   1      32.530  20.089  25.684  1.00  0.00    -0.234 NA
ATOM     19  C   UNL A   1      32.692  19.068  24.806  1.00  0.00     0.046 A 
ATOM     20  C   UNL A   1      32.605  18.052  22.483  1.00  0.00     0.037 C 
ATOM     21  C   UNL A   1      33.235  17.788  25.383  1.00  0.00     0.056 C 
ATOM     22  C   UNL A   1      33.455  16.914  23.041  1.00  0.00     0.005 C 
ATOM     23  C   UNL A   1      33.030  16.584  24.470  1.00  0.00     0.007 C 
BRANCH  15  24
ATOM     24  C   UNL A   1      32.599  22.859  23.302  1.00  0.00     0.103 C 
ATOM     25  N   UNL A   1      33.009  23.840  22.814  1.00  0.00    -0.192 NA
ENDBRANCH  15  24
ENDBRANCH   8  14
ENDBRANCH   6   7
BRANCH   6  26
ATOM     26  C   UNL A   1      30.796  26.567  24.375  1.00  0.00     0.044 A 
ATOM     27  C   UNL A   1      31.397  26.686  23.121  1.00  0.00     0.094 A 
ATOM     28  C   UNL A   1      29.727  27.505  24.032  1.00  0.00     0.009 A 
ATOM     29  N   UNL A   1      31.614  28.090  23.215  1.00  0.00    -0.361 N 
ATOM     30  C   UNL A   1      30.431  28.642  23.645  1.00  0.00     0.047 A 
ATOM     31  C   UNL A   1      28.417  27.462  23.501  1.00  0.00     0.012 A 
ATOM     32  H   UNL A   1      32.448  28.572  23.012  1.00  0.00     0.166 HD
ATOM     33  C   UNL A   1      29.898  29.893  23.375  1.00  0.00     0.047 A 
ATOM     34  C   UNL A   1      27.842  28.644  22.994  1.00  0.00     0.021 A 
ATOM     35  C   UNL A   1      28.554  29.846  23.004  1.00  0.00     0.043 A 
ATOM     36  Cl  UNL A   1      27.843  31.265  22.334  1.00  0.00    -0.084 Cl
ENDBRANCH   6  26
ENDBRANCH   3   6
ENDBRANCH   1   2
BRANCH   1  37
ATOM     37  C   UNL A   1      34.684  29.953  26.878  1.00  0.00     0.042 C 
BRANCH  37  38
ATOM     38  C   UNL A   1      35.221  29.331  28.171  1.00  0.00     0.118 C 
BRANCH  38  39
ATOM     39  N   UNL A   1      35.312  30.300  29.238  1.00  0.00    -0.352 N 
ATOM     40  C   UNL A   1      36.372  30.585  30.060  1.00  0.00     0.251 C 
ATOM     41  H   UNL A   1      34.499  30.832  29.397  1.00  0.00     0.163 HD
ATOM     42  O   UNL A   1      36.166  31.173  31.119  1.00  0.00    -0.269 OA
BRANCH  40  43
ATOM     43  C   UNL A   1      37.755  30.188  29.701  1.00  0.00     0.039 A 
ATOM     44  C   UNL A   1      38.116  30.195  28.351  1.00  0.00     0.014 A 
ATOM     45  C   UNL A   1      38.663  29.719  30.656  1.00  0.00     0.014 A 
ATOM     46  C   UNL A   1      39.384  29.754  27.961  1.00  0.00     0.010 A 
ATOM     47  C   UNL A   1      39.955  29.341  30.274  1.00  0.00     0.010 A 
ATOM     48  C   UNL A   1      40.324  29.337  28.920  1.00  0.00    -0.014 A 
BRANCH  48  49
ATOM     49  C   UNL A   1      41.675  28.872  28.499  1.00  0.00     0.031 A 
ATOM     50  C   UNL A   1      42.841  29.825  28.474  1.00  0.00     0.074 A 
ATOM     51  C   UNL A   1      41.860  27.584  28.145  1.00  0.00     0.049 A 
ATOM     52  N   UNL A   1      44.090  29.595  28.153  1.00  0.00    -0.248 NA
ATOM     53  C   UNL A   1      42.568  31.222  28.846  1.00  0.00     0.031 C 
ATOM     54  C   UNL A   1      40.813  26.562  28.110  1.00  0.00     0.029 A 
ATOM     55  N   UNL A   1      42.993  26.911  27.757  1.00  0.00    -0.354 N 
ATOM     56  C   UNL A   1      44.749  30.812  28.289  1.00  0.00     0.074 A 
ATOM     57  C   UNL A   1      43.750  31.791  28.658  1.00  0.00     0.031 C 
ATOM     58  C   UNL A   1      41.359  25.386  27.761  1.00  0.00     0.029 A 
ATOM     59  C   UNL A   1      42.783  25.577  27.504  1.00  0.00     0.049 A 
ATOM     60  H   UNL A   1      43.873  27.345  27.667  1.00  0.00     0.167 HD
ATOM     61  C   UNL A   1      46.068  31.083  28.150  1.00  0.00     0.037 A 
ATOM     62  C   UNL A   1      43.638  24.613  27.109  1.00  0.00     0.037 A 
ATOM     63  C   UNL A   1      47.064  30.106  27.791  1.00  0.00     0.049 A 
ATOM     64  C   UNL A   1      45.089  24.952  26.903  1.00  0.00     0.074 A 
ATOM     65  C   UNL A   1      48.430  30.281  27.654  1.00  0.00     0.029 A 
ATOM     66  N   UNL A   1      46.802  28.775  27.505  1.00  0.00    -0.354 N 
ATOM     67  N   UNL A   1      45.705  26.095  27.089  1.00  0.00    -0.248 NA
ATOM     68  C   UNL A   1      45.966  23.870  26.432  1.00  0.00     0.031 C 
ATOM     69  C   UNL A   1      48.986  29.074  27.227  1.00  0.00     0.029 A 
ATOM     70  C   UNL A   1      47.977  28.126  27.162  1.00  0.00     0.049 A 
ATOM     71  H   UNL A   1      45.913  28.353  27.541  1.00  0.00     0.167 HD
ATOM     72  C   UNL A   1      47.040  25.863  26.786  1.00  0.00     0.074 A 
ATOM     73  C   UNL A   1      47.150  24.466  26.422  1.00  0.00     0.031 C 
ATOM     74  C   UNL A   1      48.080  26.732  26.805  1.00  0.00     0.037 A 
BRANCH  61  75
ATOM     75  C   UNL A   1      46.525  32.493  28.401  1.00  0.00     0.057 A 
ATOM     76  C   UNL A   1      46.536  33.456  27.383  1.00  0.00     0.134 A 
ATOM     77  C   UNL A   1      46.889  32.913  29.689  1.00  0.00     0.134 A 
ATOM     78  F   UNL A   1      46.207  33.121  26.127  1.00  0.00    -0.206 F 
ATOM     79  C   UNL A   1      46.908  34.779  27.631  1.00  0.00     0.040 A 
ATOM     80  C   UNL A   1      47.232  34.239  29.954  1.00  0.00     0.040 A 
ATOM     81  F   UNL A   1      46.891  32.047  30.713  1.00  0.00    -0.206 F 
ATOM     82  C   UNL A   1      47.247  35.176  28.922  1.00  0.00     0.006 A 
ENDBRANCH  61  75
BRANCH  62  83
ATOM     83  C   UNL A   1      43.145  23.223  26.911  1.00  0.00     0.057 A 
ATOM     84  C   UNL A   1      42.950  22.702  25.626  1.00  0.00     0.134 A 
ATOM     85  C   UNL A   1      42.873  22.380  27.995  1.00  0.00     0.134 A 
ATOM     86  F   UNL A   1      43.173  23.466  24.547  1.00  0.00    -0.206 F 
ATOM     87  C   UNL A   1      42.495  21.397  25.427  1.00  0.00     0.040 A 
ATOM     88  C   UNL A   1      42.446  21.063  27.810  1.00  0.00     0.040 A 
ATOM     89  F   UNL A   1      43.042  22.814  29.253  1.00  0.00    -0.206 F 
ATOM     90  C   UNL A   1      42.251  20.571  26.522  1.00  0.00     0.006 A 
ENDBRANCH  62  83
BRANCH  74  91
ATOM     91  C   UNL A   1      49.441  26.208  26.441  1.00  0.00     0.057 A 
ATOM     92  C   UNL A   1      49.978  26.378  25.159  1.00  0.00     0.134 A 
ATOM     93  C   UNL A   1      50.256  25.603  27.407  1.00  0.00     0.134 A 
ATOM     94  F   UNL A   1      49.249  26.941  24.184  1.00  0.00    -0.206 F 
ATOM     95  C   UNL A   1      51.272  25.954  24.849  1.00  0.00     0.040 A 
ATOM     96  C   UNL A   1      51.562  25.203  27.117  1.00  0.00     0.040 A 
ATOM     97  F   UNL A   1      49.809  25.420  28.659  1.00  0.00    -0.206 F 
ATOM     98  C   UNL A   1      52.071  25.376  25.832  1.00  0.00     0.006 A 
ENDBRANCH  74  91
ENDBRANCH  48  49
ENDBRANCH  40  43
ENDBRANCH  38  39
ENDBRANCH  37  38
ENDBRANCH   1  37
TORSDOF 14
ENDMDL
