MODEL 1
REMARK VINA RESULT:     -11.2      0.000      0.000
REMARK SMILES CCC(CC)(NC(=O)NC[C@H](C)[NH+]1CCCCC1)C(=O)NCCCNC(=O)c1ccc(-c2c3nc(c(-c4c(F)cccc4F)c4ccc([nH]4)c(-c4c(F)cccc4F)c4nc(c(-c5c(F)cccc5F)c5ccc2[nH]5)C=C4)C=C3)cc1
REMARK SMILES IDX 22 1 21 2 19 3 20 4 3 6 2 7 1 8 4 9 5 10 6 11 7 12 8 14 9 15
REMARK SMILES IDX 10 17 11 18 12 19 13 20 14 21 18 22 15 24 17 25 16 26 23 27
REMARK SMILES IDX 24 28 25 29 26 30 27 32 28 33 29 34 81 35 30 36 80 37 31 38
REMARK SMILES IDX 32 39 33 40 74 41 34 42 79 43 73 44 75 45 35 46 78 47 72 48
REMARK SMILES IDX 71 49 36 51 62 52 45 53 61 54 46 55 49 56 60 57 76 58 47 59
REMARK SMILES IDX 48 60 59 62 77 63 50 64 37 65 38 66 43 67 39 68 40 69 42 70
REMARK SMILES IDX 44 71 41 72 63 73 64 74 69 75 65 76 66 77 68 78 70 79 67 80
REMARK SMILES IDX 51 81 52 82 57 83 53 84 54 85 56 86 58 87 55 88
REMARK H PARENT 21 5 6 13 9 16 13 23 25 31 75 50 49 61
REMARK Flexibility Score: inf
ROOT
ATOM      1  C   UNL A   1      35.663  20.887  25.231  1.00  0.00     0.117 C 
ENDROOT
BRANCH   1   2
ATOM      2  N   UNL A   1      35.116  21.311  26.537  1.00  0.00    -0.354 N 
ATOM      3  C   UNL A   1      34.088  22.106  27.012  1.00  0.00     0.245 C 
ATOM      4  O   UNL A   1      33.892  22.107  28.232  1.00  0.00    -0.272 OA
ATOM      5  H   UNL A   1      35.627  20.914  27.279  1.00  0.00     0.163 HD
BRANCH   3   6
ATOM      6  C   UNL A   1      33.061  22.703  26.044  1.00  0.00     0.120 C 
BRANCH   6   7
ATOM      7  C   UNL A   1      32.914  22.205  24.580  1.00  0.00     0.035 C 
ATOM      8  C   UNL A   1      32.174  20.906  24.309  1.00  0.00     0.007 C 
ENDBRANCH   6   7
BRANCH   6   9
ATOM      9  C   UNL A   1      33.646  24.169  26.067  1.00  0.00     0.035 C 
ATOM     10  C   UNL A   1      34.803  24.599  25.197  1.00  0.00     0.007 C 
ENDBRANCH   6   9
BRANCH   6  11
ATOM     11  N   UNL A   1      31.757  22.497  26.683  1.00  0.00    -0.324 N 
ATOM     12  C   UNL A   1      30.618  23.221  26.669  1.00  0.00     0.315 C 
ATOM     13  H   UNL A   1      31.703  21.677  27.225  1.00  0.00     0.166 HD
ATOM     14  O   UNL A   1      29.778  22.931  27.529  1.00  0.00    -0.249 OA
ATOM     15  N   UNL A   1      30.231  24.105  25.721  1.00  0.00    -0.332 N 
ATOM     16  H   UNL A   1      29.255  24.067  25.591  1.00  0.00     0.165 HD
BRANCH  15  17
ATOM     17  C   UNL A   1      30.840  25.121  24.812  1.00  0.00     0.182 C 
BRANCH  17  18
ATOM     18  C   UNL A   1      30.300  26.626  24.761  1.00  0.00     0.200 C 
ATOM     19  C   UNL A   1      29.669  27.240  23.515  1.00  0.00     0.077 C 
BRANCH  18  20
ATOM     20  N   UNL A   1      31.361  27.559  25.260  1.00  0.00    -0.331 N 
ATOM     21  C   UNL A   1      31.634  27.443  26.716  1.00  0.00     0.262 C 
ATOM     22  C   UNL A   1      32.587  27.374  24.475  1.00  0.00     0.262 C 
ATOM     23  H   UNL A   1      31.004  28.506  25.130  1.00  0.00     0.348 HD
ATOM     24  C   UNL A   1      32.741  28.355  27.223  1.00  0.00     0.062 C 
ATOM     25  C   UNL A   1      33.688  28.324  24.931  1.00  0.00     0.062 C 
ATOM     26  C   UNL A   1      34.002  28.124  26.407  1.00  0.00     0.012 C 
ENDBRANCH  18  20
ENDBRANCH  17  18
ENDBRANCH  15  17
ENDBRANCH   6  11
ENDBRANCH   3   6
ENDBRANCH   1   2
BRANCH   1  27
ATOM     27  C   UNL A   1      37.094  20.301  24.965  1.00  0.00     0.042 C 
BRANCH  27  28
ATOM     28  C   UNL A   1      38.470  20.851  25.399  1.00  0.00     0.118 C 
BRANCH  28  29
ATOM     29  N   UNL A   1      39.595  19.930  25.315  1.00  0.00    -0.352 N 
ATOM     30  C   UNL A   1      40.802  19.908  25.968  1.00  0.00     0.251 C 
ATOM     31  H   UNL A   1      39.467  19.192  24.676  1.00  0.00     0.163 HD
ATOM     32  O   UNL A   1      41.497  18.903  25.908  1.00  0.00    -0.269 OA
BRANCH  30  33
ATOM     33  C   UNL A   1      41.338  21.107  26.643  1.00  0.00     0.039 A 
ATOM     34  C   UNL A   1      41.713  22.166  25.809  1.00  0.00     0.014 A 
ATOM     35  C   UNL A   1      41.492  21.211  28.026  1.00  0.00     0.014 A 
ATOM     36  C   UNL A   1      42.177  23.355  26.358  1.00  0.00     0.010 A 
ATOM     37  C   UNL A   1      41.906  22.424  28.582  1.00  0.00     0.010 A 
ATOM     38  C   UNL A   1      42.235  23.507  27.750  1.00  0.00    -0.014 A 
BRANCH  38  39
ATOM     39  C   UNL A   1      42.580  24.829  28.321  1.00  0.00     0.031 A 
ATOM     40  C   UNL A   1      43.996  25.163  28.680  1.00  0.00     0.074 A 
ATOM     41  C   UNL A   1      41.589  25.722  28.506  1.00  0.00     0.049 A 
ATOM     42  N   UNL A   1      44.489  26.290  29.122  1.00  0.00    -0.248 NA
ATOM     43  C   UNL A   1      44.985  24.082  28.549  1.00  0.00     0.031 C 
ATOM     44  C   UNL A   1      40.169  25.465  28.241  1.00  0.00     0.029 A 
ATOM     45  N   UNL A   1      41.614  27.019  28.942  1.00  0.00    -0.354 N 
ATOM     46  C   UNL A   1      45.843  26.056  29.324  1.00  0.00     0.074 A 
ATOM     47  C   UNL A   1      46.082  24.663  29.013  1.00  0.00     0.031 C 
ATOM     48  C   UNL A   1      39.468  26.586  28.475  1.00  0.00     0.029 A 
ATOM     49  C   UNL A   1      40.381  27.624  28.936  1.00  0.00     0.049 A 
ATOM     50  H   UNL A   1      42.437  27.474  29.233  1.00  0.00     0.167 HD
ATOM     51  C   UNL A   1      46.799  26.934  29.711  1.00  0.00     0.037 A 
ATOM     52  C   UNL A   1      40.032  28.883  29.255  1.00  0.00     0.037 A 
ATOM     53  C   UNL A   1      46.535  28.317  30.012  1.00  0.00     0.049 A 
ATOM     54  C   UNL A   1      41.114  29.840  29.664  1.00  0.00     0.074 A 
ATOM     55  C   UNL A   1      47.427  29.311  30.374  1.00  0.00     0.029 A 
ATOM     56  N   UNL A   1      45.275  28.900  29.990  1.00  0.00    -0.354 N 
ATOM     57  N   UNL A   1      42.405  29.629  29.777  1.00  0.00    -0.248 NA
ATOM     58  C   UNL A   1      40.697  31.212  29.974  1.00  0.00     0.031 C 
ATOM     59  C   UNL A   1      46.701  30.482  30.617  1.00  0.00     0.029 A 
ATOM     60  C   UNL A   1      45.363  30.235  30.351  1.00  0.00     0.049 A 
ATOM     61  H   UNL A   1      44.441  28.433  29.755  1.00  0.00     0.167 HD
ATOM     62  C   UNL A   1      42.958  30.845  30.147  1.00  0.00     0.074 A 
ATOM     63  C   UNL A   1      41.864  31.794  30.213  1.00  0.00     0.031 C 
ATOM     64  C   UNL A   1      44.252  31.154  30.414  1.00  0.00     0.037 A 
BRANCH  51  65
ATOM     65  C   UNL A   1      48.206  26.419  29.830  1.00  0.00     0.057 A 
ATOM     66  C   UNL A   1      48.691  25.857  31.020  1.00  0.00     0.134 A 
ATOM     67  C   UNL A   1      49.083  26.467  28.740  1.00  0.00     0.134 A 
ATOM     68  F   UNL A   1      47.909  25.792  32.109  1.00  0.00    -0.206 F 
ATOM     69  C   UNL A   1      50.003  25.391  31.131  1.00  0.00     0.040 A 
ATOM     70  C   UNL A   1      50.388  25.977  28.828  1.00  0.00     0.040 A 
ATOM     71  F   UNL A   1      48.688  26.988  27.570  1.00  0.00    -0.206 F 
ATOM     72  C   UNL A   1      50.853  25.445  30.029  1.00  0.00     0.006 A 
ENDBRANCH  51  65
BRANCH  52  73
ATOM     73  C   UNL A   1      38.614  29.314  29.155  1.00  0.00     0.057 A 
ATOM     74  C   UNL A   1      38.059  29.713  27.933  1.00  0.00     0.134 A 
ATOM     75  C   UNL A   1      37.774  29.331  30.277  1.00  0.00     0.134 A 
ATOM     76  F   UNL A   1      38.812  29.727  26.824  1.00  0.00    -0.206 F 
ATOM     77  C   UNL A   1      36.734  30.137  27.833  1.00  0.00     0.040 A 
ATOM     78  C   UNL A   1      36.439  29.725  30.187  1.00  0.00     0.040 A 
ATOM     79  F   UNL A   1      38.238  28.945  31.476  1.00  0.00    -0.206 F 
ATOM     80  C   UNL A   1      35.917  30.138  28.963  1.00  0.00     0.006 A 
ENDBRANCH  52  73
BRANCH  64  81
ATOM     81  C   UNL A   1      44.541  32.582  30.770  1.00  0.00     0.057 A 
ATOM     82  C   UNL A   1      44.833  33.546  29.795  1.00  0.00     0.134 A 
ATOM     83  C   UNL A   1      44.524  32.999  32.107  1.00  0.00     0.134 A 
ATOM     84  F   UNL A   1      44.878  33.208  28.496  1.00  0.00    -0.206 F 
ATOM     85  C   UNL A   1      45.141  34.861  30.141  1.00  0.00     0.040 A 
ATOM     86  C   UNL A   1      44.796  34.320  32.462  1.00  0.00     0.040 A 
ATOM     87  F   UNL A   1      44.240  32.130  33.089  1.00  0.00    -0.206 F 
ATOM     88  C   UNL A   1      45.118  35.253  31.478  1.00  0.00     0.006 A 
ENDBRANCH  64  81
ENDBRANCH  38  39
ENDBRANCH  30  33
ENDBRANCH  28  29
ENDBRANCH  27  28
ENDBRANCH   1  27
TORSDOF 16
ENDMDL
MODEL 2
REMARK VINA RESULT:     -11.0      0.489      6.218
REMARK SMILES CCC(CC)(NC(=O)NC[C@H](C)[NH+]1CCCCC1)C(=O)NCCCNC(=O)c1ccc(-c2c3nc(c(-c4c(F)cccc4F)c4ccc([nH]4)c(-c4c(F)cccc4F)c4nc(c(-c5c(F)cccc5F)c5ccc2[nH]5)C=C4)C=C3)cc1
REMARK SMILES IDX 22 1 21 2 19 3 20 4 3 6 2 7 1 8 4 9 5 10 6 11 7 12 8 14 9 15
REMARK SMILES IDX 10 17 11 18 12 19 13 20 14 21 18 22 15 24 17 25 16 26 23 27
REMARK SMILES IDX 24 28 25 29 26 30 27 32 28 33 29 34 81 35 30 36 80 37 31 38
REMARK SMILES IDX 32 39 33 40 74 41 34 42 79 43 73 44 75 45 35 46 78 47 72 48
REMARK SMILES IDX 71 49 36 51 62 52 45 53 61 54 46 55 49 56 60 57 76 58 47 59
REMARK SMILES IDX 48 60 59 62 77 63 50 64 37 65 38 66 43 67 39 68 40 69 42 70
REMARK SMILES IDX 44 71 41 72 63 73 64 74 69 75 65 76 66 77 68 78 70 79 67 80
REMARK SMILES IDX 51 81 52 82 57 83 53 84 54 85 56 86 58 87 55 88
REMARK H PARENT 21 5 6 13 9 16 13 23 25 31 75 50 49 61
REMARK Flexibility Score: inf
ROOT
ATOM      1  C   UNL A   1      35.708  20.816  25.273  1.00  0.00     0.117 C 
ENDROOT
BRANCH   1   2
ATOM      2  N   UNL A   1      35.152  21.283  26.560  1.00  0.00    -0.354 N 
ATOM      3  C   UNL A   1      34.108  22.076  27.003  1.00  0.00     0.245 C 
ATOM      4  O   UNL A   1      33.913  22.126  28.222  1.00  0.00    -0.272 OA
ATOM      5  H   UNL A   1      35.673  20.930  27.318  1.00  0.00     0.163 HD
BRANCH   3   6
ATOM      6  C   UNL A   1      33.068  22.609  26.011  1.00  0.00     0.120 C 
BRANCH   6   7
ATOM      7  C   UNL A   1      32.904  22.019  24.584  1.00  0.00     0.035 C 
ATOM      8  C   UNL A   1      32.175  20.699  24.406  1.00  0.00     0.007 C 
ENDBRANCH   6   7
BRANCH   6   9
ATOM      9  C   UNL A   1      33.649  24.074  25.935  1.00  0.00     0.035 C 
ATOM     10  C   UNL A   1      34.662  24.497  24.897  1.00  0.00     0.007 C 
ENDBRANCH   6   9
BRANCH   6  11
ATOM     11  N   UNL A   1      31.773  22.442  26.678  1.00  0.00    -0.324 N 
ATOM     12  C   UNL A   1      30.650  23.193  26.678  1.00  0.00     0.315 C 
ATOM     13  H   UNL A   1      31.710  21.630  27.232  1.00  0.00     0.166 HD
ATOM     14  O   UNL A   1      29.821  22.932  27.557  1.00  0.00    -0.249 OA
ATOM     15  N   UNL A   1      30.265  24.074  25.726  1.00  0.00    -0.332 N 
ATOM     16  H   UNL A   1      29.287  24.058  25.616  1.00  0.00     0.165 HD
BRANCH  15  17
ATOM     17  C   UNL A   1      30.881  25.064  24.794  1.00  0.00     0.182 C 
BRANCH  17  18
ATOM     18  C   UNL A   1      30.338  26.566  24.695  1.00  0.00     0.200 C 
ATOM     19  C   UNL A   1      29.779  27.164  23.406  1.00  0.00     0.077 C 
BRANCH  18  20
ATOM     20  N   UNL A   1      31.364  27.509  25.245  1.00  0.00    -0.331 N 
ATOM     21  C   UNL A   1      31.694  27.279  26.675  1.00  0.00     0.262 C 
ATOM     22  C   UNL A   1      32.570  27.465  24.410  1.00  0.00     0.262 C 
ATOM     23  H   UNL A   1      30.952  28.442  25.214  1.00  0.00     0.348 HD
ATOM     24  C   UNL A   1      32.766  28.202  27.231  1.00  0.00     0.062 C 
ATOM     25  C   UNL A   1      33.633  28.432  24.919  1.00  0.00     0.062 C 
ATOM     26  C   UNL A   1      34.009  28.118  26.360  1.00  0.00     0.012 C 
ENDBRANCH  18  20
ENDBRANCH  17  18
ENDBRANCH  15  17
ENDBRANCH   6  11
ENDBRANCH   3   6
ENDBRANCH   1   2
BRANCH   1  27
ATOM     27  C   UNL A   1      37.202  20.432  24.985  1.00  0.00     0.042 C 
BRANCH  27  28
ATOM     28  C   UNL A   1      38.448  20.629  25.874  1.00  0.00     0.118 C 
BRANCH  28  29
ATOM     29  N   UNL A   1      39.609  19.809  25.560  1.00  0.00    -0.352 N 
ATOM     30  C   UNL A   1      40.910  19.870  25.994  1.00  0.00     0.251 C 
ATOM     31  H   UNL A   1      39.429  19.081  24.922  1.00  0.00     0.163 HD
ATOM     32  O   UNL A   1      41.660  18.928  25.773  1.00  0.00    -0.269 OA
BRANCH  30  33
ATOM     33  C   UNL A   1      41.461  21.090  26.616  1.00  0.00     0.039 A 
ATOM     34  C   UNL A   1      41.943  22.065  25.735  1.00  0.00     0.014 A 
ATOM     35  C   UNL A   1      41.530  21.290  27.995  1.00  0.00     0.014 A 
ATOM     36  C   UNL A   1      42.430  23.270  26.228  1.00  0.00     0.010 A 
ATOM     37  C   UNL A   1      41.968  22.521  28.489  1.00  0.00     0.010 A 
ATOM     38  C   UNL A   1      42.405  23.523  27.606  1.00  0.00    -0.014 A 
BRANCH  38  39
ATOM     39  C   UNL A   1      42.779  24.867  28.102  1.00  0.00     0.031 A 
ATOM     40  C   UNL A   1      41.735  25.917  28.332  1.00  0.00     0.074 A 
ATOM     41  C   UNL A   1      44.080  25.119  28.341  1.00  0.00     0.049 A 
ATOM     42  N   UNL A   1      41.872  27.119  28.827  1.00  0.00    -0.248 NA
ATOM     43  C   UNL A   1      40.359  25.583  27.932  1.00  0.00     0.031 C 
ATOM     44  C   UNL A   1      45.177  24.177  28.089  1.00  0.00     0.029 A 
ATOM     45  N   UNL A   1      44.705  26.223  28.856  1.00  0.00    -0.354 N 
ATOM     46  C   UNL A   1      40.605  27.686  28.797  1.00  0.00     0.074 A 
ATOM     47  C   UNL A   1      39.723  26.719  28.180  1.00  0.00     0.031 C 
ATOM     48  C   UNL A   1      46.332  24.727  28.496  1.00  0.00     0.029 A 
ATOM     49  C   UNL A   1      46.062  26.067  29.003  1.00  0.00     0.049 A 
ATOM     50  H   UNL A   1      44.228  27.049  29.097  1.00  0.00     0.167 HD
ATOM     51  C   UNL A   1      40.214  28.896  29.265  1.00  0.00     0.037 A 
ATOM     52  C   UNL A   1      46.982  26.910  29.506  1.00  0.00     0.037 A 
ATOM     53  C   UNL A   1      41.111  29.841  29.878  1.00  0.00     0.049 A 
ATOM     54  C   UNL A   1      46.518  28.237  30.033  1.00  0.00     0.074 A 
ATOM     55  C   UNL A   1      40.825  31.078  30.426  1.00  0.00     0.029 A 
ATOM     56  N   UNL A   1      42.480  29.649  30.017  1.00  0.00    -0.354 N 
ATOM     57  N   UNL A   1      45.303  28.732  30.071  1.00  0.00    -0.248 NA
ATOM     58  C   UNL A   1      47.547  29.115  30.602  1.00  0.00     0.031 C 
ATOM     59  C   UNL A   1      42.026  31.655  30.853  1.00  0.00     0.029 A 
ATOM     60  C   UNL A   1      43.055  30.754  30.625  1.00  0.00     0.049 A 
ATOM     61  H   UNL A   1      42.970  28.847  29.726  1.00  0.00     0.167 HD
ATOM     62  C   UNL A   1      45.416  29.969  30.689  1.00  0.00     0.074 A 
ATOM     63  C   UNL A   1      46.815  30.133  31.031  1.00  0.00     0.031 C 
ATOM     64  C   UNL A   1      44.454  30.890  30.947  1.00  0.00     0.037 A 
BRANCH  51  65
ATOM     65  C   UNL A   1      38.762  29.256  29.126  1.00  0.00     0.057 A 
ATOM     66  C   UNL A   1      38.215  29.672  27.903  1.00  0.00     0.134 A 
ATOM     67  C   UNL A   1      37.893  29.173  30.221  1.00  0.00     0.134 A 
ATOM     68  F   UNL A   1      38.992  29.789  26.816  1.00  0.00    -0.206 F 
ATOM     69  C   UNL A   1      36.868  30.018  27.782  1.00  0.00     0.040 A 
ATOM     70  C   UNL A   1      36.537  29.487  30.106  1.00  0.00     0.040 A 
ATOM     71  F   UNL A   1      38.344  28.780  31.421  1.00  0.00    -0.206 F 
ATOM     72  C   UNL A   1      36.023  29.919  28.885  1.00  0.00     0.006 A 
ENDBRANCH  51  65
BRANCH  52  73
ATOM     73  C   UNL A   1      48.409  26.504  29.574  1.00  0.00     0.057 A 
ATOM     74  C   UNL A   1      49.305  26.823  28.546  1.00  0.00     0.134 A 
ATOM     75  C   UNL A   1      48.915  25.793  30.669  1.00  0.00     0.134 A 
ATOM     76  F   UNL A   1      48.881  27.495  27.466  1.00  0.00    -0.206 F 
ATOM     77  C   UNL A   1      50.643  26.430  28.592  1.00  0.00     0.040 A 
ATOM     78  C   UNL A   1      50.257  25.418  30.743  1.00  0.00     0.040 A 
ATOM     79  F   UNL A   1      48.114  25.469  31.695  1.00  0.00    -0.206 F 
ATOM     80  C   UNL A   1      51.124  25.729  29.697  1.00  0.00     0.006 A 
ENDBRANCH  52  73
BRANCH  64  81
ATOM     81  C   UNL A   1      44.893  32.136  31.659  1.00  0.00     0.057 A 
ATOM     82  C   UNL A   1      45.314  33.279  30.964  1.00  0.00     0.134 A 
ATOM     83  C   UNL A   1      44.893  32.193  33.058  1.00  0.00     0.134 A 
ATOM     84  F   UNL A   1      45.350  33.284  29.622  1.00  0.00    -0.206 F 
ATOM     85  C   UNL A   1      45.760  34.416  31.636  1.00  0.00     0.040 A 
ATOM     86  C   UNL A   1      45.303  33.338  33.741  1.00  0.00     0.040 A 
ATOM     87  F   UNL A   1      44.491  31.139  33.784  1.00  0.00    -0.206 F 
ATOM     88  C   UNL A   1      45.750  34.449  33.029  1.00  0.00     0.006 A 
ENDBRANCH  64  81
ENDBRANCH  38  39
ENDBRANCH  30  33
ENDBRANCH  28  29
ENDBRANCH  27  28
ENDBRANCH   1  27
TORSDOF 16
ENDMDL
MODEL 3
REMARK VINA RESULT:     -10.9      4.204      8.975
REMARK SMILES CCC(CC)(NC(=O)NC[C@H](C)[NH+]1CCCCC1)C(=O)NCCCNC(=O)c1ccc(-c2c3nc(c(-c4c(F)cccc4F)c4ccc([nH]4)c(-c4c(F)cccc4F)c4nc(c(-c5c(F)cccc5F)c5ccc2[nH]5)C=C4)C=C3)cc1
REMARK SMILES IDX 22 1 21 2 19 3 20 4 3 6 2 7 1 8 4 9 5 10 6 11 7 12 8 14 9 15
REMARK SMILES IDX 10 17 11 18 12 19 13 20 14 21 18 22 15 24 17 25 16 26 23 27
REMARK SMILES IDX 24 28 25 29 26 30 27 32 28 33 29 34 81 35 30 36 80 37 31 38
REMARK SMILES IDX 32 39 33 40 74 41 34 42 79 43 73 44 75 45 35 46 78 47 72 48
REMARK SMILES IDX 71 49 36 51 62 52 45 53 61 54 46 55 49 56 60 57 76 58 47 59
REMARK SMILES IDX 48 60 59 62 77 63 50 64 37 65 38 66 43 67 39 68 40 69 42 70
REMARK SMILES IDX 44 71 41 72 63 73 64 74 69 75 65 76 66 77 68 78 70 79 67 80
REMARK SMILES IDX 51 81 52 82 57 83 53 84 54 85 56 86 58 87 55 88
REMARK H PARENT 21 5 6 13 9 16 13 23 25 31 75 50 49 61
REMARK Flexibility Score: inf
ROOT
ATOM      1  C   UNL A   1      31.753  29.940  25.390  1.00  0.00     0.117 C 
ENDROOT
BRANCH   1   2
ATOM      2  N   UNL A   1      32.787  29.740  24.352  1.00  0.00    -0.354 N 
ATOM      3  C   UNL A   1      33.220  28.729  23.513  1.00  0.00     0.245 C 
ATOM      4  O   UNL A   1      34.082  29.019  22.677  1.00  0.00    -0.272 OA
ATOM      5  H   UNL A   1      33.316  30.560  24.221  1.00  0.00     0.163 HD
BRANCH   3   6
ATOM      6  C   UNL A   1      32.446  27.409  23.429  1.00  0.00     0.120 C 
BRANCH   6   7
ATOM      7  C   UNL A   1      30.938  27.307  23.789  1.00  0.00     0.035 C 
ATOM      8  C   UNL A   1      29.911  27.930  22.860  1.00  0.00     0.007 C 
ENDBRANCH   6   7
BRANCH   6   9
ATOM      9  C   UNL A   1      33.317  26.639  24.496  1.00  0.00     0.035 C 
ATOM     10  C   UNL A   1      32.882  26.466  25.932  1.00  0.00     0.007 C 
ENDBRANCH   6   9
BRANCH   6  11
ATOM     11  N   UNL A   1      32.568  26.975  22.033  1.00  0.00    -0.324 N 
ATOM     12  C   UNL A   1      32.614  25.750  21.467  1.00  0.00     0.315 C 
ATOM     13  H   UNL A   1      32.628  27.716  21.388  1.00  0.00     0.166 HD
ATOM     14  O   UNL A   1      32.997  25.708  20.292  1.00  0.00    -0.249 OA
ATOM     15  N   UNL A   1      32.130  24.598  21.986  1.00  0.00    -0.332 N 
ATOM     16  H   UNL A   1      31.760  24.027  21.274  1.00  0.00     0.165 HD
BRANCH  15  17
ATOM     17  C   UNL A   1      31.989  23.935  23.316  1.00  0.00     0.182 C 
BRANCH  17  18
ATOM     18  C   UNL A   1      32.961  22.745  23.761  1.00  0.00     0.200 C 
ATOM     19  C   UNL A   1      32.588  21.726  24.835  1.00  0.00     0.077 C 
BRANCH  18  20
ATOM     20  N   UNL A   1      34.315  23.296  24.087  1.00  0.00    -0.331 N 
ATOM     21  C   UNL A   1      34.677  23.205  25.525  1.00  0.00     0.262 C 
ATOM     22  C   UNL A   1      35.326  22.646  23.245  1.00  0.00     0.262 C 
ATOM     23  H   UNL A   1      34.283  24.296  23.883  1.00  0.00     0.348 HD
ATOM     24  C   UNL A   1      36.068  23.721  25.859  1.00  0.00     0.062 C 
ATOM     25  C   UNL A   1      36.720  23.196  23.524  1.00  0.00     0.062 C 
ATOM     26  C   UNL A   1      37.094  23.014  24.988  1.00  0.00     0.012 C 
ENDBRANCH  18  20
ENDBRANCH  17  18
ENDBRANCH  15  17
ENDBRANCH   6  11
ENDBRANCH   3   6
ENDBRANCH   1   2
BRANCH   1  27
ATOM     27  C   UNL A   1      31.743  31.053  26.496  1.00  0.00     0.042 C 
BRANCH  27  28
ATOM     28  C   UNL A   1      32.887  31.983  26.954  1.00  0.00     0.118 C 
BRANCH  28  29
ATOM     29  N   UNL A   1      32.497  33.197  27.656  1.00  0.00    -0.352 N 
ATOM     30  C   UNL A   1      33.210  34.050  28.462  1.00  0.00     0.251 C 
ATOM     31  H   UNL A   1      31.554  33.452  27.531  1.00  0.00     0.163 HD
ATOM     32  O   UNL A   1      32.731  35.138  28.753  1.00  0.00    -0.269 OA
BRANCH  30  33
ATOM     33  C   UNL A   1      34.486  33.643  29.082  1.00  0.00     0.039 A 
ATOM     34  C   UNL A   1      34.403  32.645  30.060  1.00  0.00     0.014 A 
ATOM     35  C   UNL A   1      35.719  34.205  28.752  1.00  0.00     0.014 A 
ATOM     36  C   UNL A   1      35.559  32.158  30.659  1.00  0.00     0.010 A 
ATOM     37  C   UNL A   1      36.885  33.680  29.314  1.00  0.00     0.010 A 
ATOM     38  C   UNL A   1      36.811  32.643  30.258  1.00  0.00    -0.014 A 
BRANCH  38  39
ATOM     39  C   UNL A   1      38.038  32.006  30.791  1.00  0.00     0.031 A 
ATOM     40  C   UNL A   1      38.599  32.415  32.118  1.00  0.00     0.074 A 
ATOM     41  C   UNL A   1      38.632  31.051  30.051  1.00  0.00     0.049 A 
ATOM     42  N   UNL A   1      39.619  31.919  32.769  1.00  0.00    -0.248 NA
ATOM     43  C   UNL A   1      37.945  33.546  32.794  1.00  0.00     0.031 C 
ATOM     44  C   UNL A   1      38.192  30.627  28.717  1.00  0.00     0.029 A 
ATOM     45  N   UNL A   1      39.716  30.255  30.309  1.00  0.00    -0.354 N 
ATOM     46  C   UNL A   1      39.731  32.676  33.928  1.00  0.00     0.074 A 
ATOM     47  C   UNL A   1      38.713  33.702  33.863  1.00  0.00     0.031 C 
ATOM     48  C   UNL A   1      38.970  29.617  28.297  1.00  0.00     0.029 A 
ATOM     49  C   UNL A   1      39.979  29.346  29.313  1.00  0.00     0.049 A 
ATOM     50  H   UNL A   1      40.255  30.328  31.129  1.00  0.00     0.167 HD
ATOM     51  C   UNL A   1      40.592  32.509  34.960  1.00  0.00     0.037 A 
ATOM     52  C   UNL A   1      40.923  28.392  29.238  1.00  0.00     0.037 A 
ATOM     53  C   UNL A   1      41.595  31.477  35.002  1.00  0.00     0.049 A 
ATOM     54  C   UNL A   1      41.853  28.218  30.404  1.00  0.00     0.074 A 
ATOM     55  C   UNL A   1      42.496  31.184  36.010  1.00  0.00     0.029 A 
ATOM     56  N   UNL A   1      41.832  30.568  33.978  1.00  0.00    -0.354 N 
ATOM     57  N   UNL A   1      41.901  28.889  31.531  1.00  0.00    -0.248 NA
ATOM     58  C   UNL A   1      42.850  27.146  30.297  1.00  0.00     0.031 C 
ATOM     59  C   UNL A   1      43.308  30.130  35.576  1.00  0.00     0.029 A 
ATOM     60  C   UNL A   1      42.877  29.727  34.322  1.00  0.00     0.049 A 
ATOM     61  H   UNL A   1      41.331  30.529  33.131  1.00  0.00     0.167 HD
ATOM     62  C   UNL A   1      42.914  28.308  32.278  1.00  0.00     0.074 A 
ATOM     63  C   UNL A   1      43.435  27.211  31.484  1.00  0.00     0.031 C 
ATOM     64  C   UNL A   1      43.378  28.647  33.507  1.00  0.00     0.037 A 
BRANCH  51  65
ATOM     65  C   UNL A   1      40.483  33.465  36.115  1.00  0.00     0.057 A 
ATOM     66  C   UNL A   1      39.614  33.230  37.190  1.00  0.00     0.134 A 
ATOM     67  C   UNL A   1      41.265  34.625  36.164  1.00  0.00     0.134 A 
ATOM     68  F   UNL A   1      38.823  32.146  37.202  1.00  0.00    -0.206 F 
ATOM     69  C   UNL A   1      39.506  34.127  38.255  1.00  0.00     0.040 A 
ATOM     70  C   UNL A   1      41.189  35.515  37.238  1.00  0.00     0.040 A 
ATOM     71  F   UNL A   1      42.120  34.913  35.172  1.00  0.00    -0.206 F 
ATOM     72  C   UNL A   1      40.301  35.270  38.284  1.00  0.00     0.006 A 
ENDBRANCH  51  65
BRANCH  52  73
ATOM     73  C   UNL A   1      41.001  27.509  28.046  1.00  0.00     0.057 A 
ATOM     74  C   UNL A   1      40.275  26.314  27.977  1.00  0.00     0.134 A 
ATOM     75  C   UNL A   1      41.798  27.841  26.942  1.00  0.00     0.134 A 
ATOM     76  F   UNL A   1      39.501  25.935  29.005  1.00  0.00    -0.206 F 
ATOM     77  C   UNL A   1      40.357  25.469  26.870  1.00  0.00     0.040 A 
ATOM     78  C   UNL A   1      41.867  27.021  25.816  1.00  0.00     0.040 A 
ATOM     79  F   UNL A   1      42.507  28.980  26.936  1.00  0.00    -0.206 F 
ATOM     80  C   UNL A   1      41.152  25.825  25.781  1.00  0.00     0.006 A 
ENDBRANCH  52  73
BRANCH  64  81
ATOM     81  C   UNL A   1      44.482  27.799  34.064  1.00  0.00     0.057 A 
ATOM     82  C   UNL A   1      44.225  26.632  34.796  1.00  0.00     0.134 A 
ATOM     83  C   UNL A   1      45.823  28.154  33.864  1.00  0.00     0.134 A 
ATOM     84  F   UNL A   1      42.962  26.243  35.034  1.00  0.00    -0.206 F 
ATOM     85  C   UNL A   1      45.258  25.873  35.346  1.00  0.00     0.040 A 
ATOM     86  C   UNL A   1      46.865  27.385  34.379  1.00  0.00     0.040 A 
ATOM     87  F   UNL A   1      46.139  29.254  33.163  1.00  0.00    -0.206 F 
ATOM     88  C   UNL A   1      46.584  26.247  35.133  1.00  0.00     0.006 A 
ENDBRANCH  64  81
ENDBRANCH  38  39
ENDBRANCH  30  33
ENDBRANCH  28  29
ENDBRANCH  27  28
ENDBRANCH   1  27
TORSDOF 16
ENDMDL
