MODEL 1
REMARK VINA RESULT:     -11.8      0.000      0.000
REMARK SMILES C[C@](NC(=O)Nc1ccccc1Cl)(C(=O)NCCCNC(=O)c1ccc(-c2c3nc(c(-c4c(F)cccc4F)c4ccc([nH]4)c(-c4c(F)cccc4F)c4nc(c(-c5c(F)cccc5F)c5ccc2[nH]5)C=C4)C=C3)cc1)C(F)(F)F
REMARK SMILES IDX 18 1 17 2 16 3 14 4 15 5 2 7 1 8 77 9 78 10 79 11 80 12 3 13
REMARK SMILES IDX 4 14 5 16 6 17 7 19 8 20 12 21 9 22 11 23 13 24 10 25 19 26
REMARK SMILES IDX 20 27 21 28 22 30 23 31 24 32 76 33 25 34 75 35 26 36 27 37
REMARK SMILES IDX 28 38 69 39 29 40 74 41 68 42 70 43 30 44 73 45 67 46 66 47
REMARK SMILES IDX 31 49 57 50 40 51 56 52 41 53 44 54 55 55 71 56 42 57 43 58
REMARK SMILES IDX 54 60 72 61 45 62 32 63 33 64 38 65 34 66 35 67 37 68 39 69
REMARK SMILES IDX 36 70 58 71 59 72 64 73 60 74 61 75 63 76 65 77 62 78 46 79
REMARK SMILES IDX 47 80 52 81 48 82 49 83 51 84 53 85 50 86
REMARK H PARENT 16 6 3 15 6 18 20 29 70 48 44 59
REMARK Flexibility Score: inf
ROOT
ATOM      1  C   UNL A   1      37.682  20.353  24.943  1.00  0.00     0.042 C 
ENDROOT
BRANCH   1   2
ATOM      2  C   UNL A   1      36.478  21.155  25.403  1.00  0.00     0.117 C 
BRANCH   2   3
ATOM      3  N   UNL A   1      35.286  20.328  25.472  1.00  0.00    -0.354 N 
ATOM      4  C   UNL A   1      33.963  20.652  25.535  1.00  0.00     0.255 C 
ATOM      5  O   UNL A   1      33.195  19.692  25.625  1.00  0.00    -0.272 OA
ATOM      6  H   UNL A   1      35.467  19.360  25.473  1.00  0.00     0.163 HD
BRANCH   4   7
ATOM      7  C   UNL A   1      33.486  22.119  25.441  1.00  0.00     0.213 C 
ATOM      8  C   UNL A   1      31.989  22.051  25.118  1.00  0.00     0.056 C 
BRANCH   7   9
ATOM      9  C   UNL A   1      33.662  22.688  26.870  1.00  0.00     0.420 C 
ATOM     10  F   UNL A   1      34.748  23.490  26.968  1.00  0.00    -0.168 F 
ATOM     11  F   UNL A   1      32.594  23.441  27.232  1.00  0.00    -0.168 F 
ATOM     12  F   UNL A   1      33.758  21.720  27.811  1.00  0.00    -0.168 F 
ENDBRANCH   7   9
BRANCH   7  13
ATOM     13  N   UNL A   1      34.411  22.802  24.461  1.00  0.00    -0.316 N 
ATOM     14  C   UNL A   1      34.389  23.777  23.539  1.00  0.00     0.320 C 
ATOM     15  H   UNL A   1      35.312  22.409  24.515  1.00  0.00     0.166 HD
ATOM     16  O   UNL A   1      35.238  23.721  22.646  1.00  0.00    -0.248 OA
ATOM     17  N   UNL A   1      33.427  24.710  23.453  1.00  0.00    -0.307 N 
ATOM     18  H   UNL A   1      33.206  24.990  22.535  1.00  0.00     0.171 HD
BRANCH  17  19
ATOM     19  C   UNL A   1      32.684  25.351  24.454  1.00  0.00     0.061 A 
ATOM     20  C   UNL A   1      33.428  25.962  25.472  1.00  0.00     0.028 A 
ATOM     21  C   UNL A   1      31.286  25.443  24.469  1.00  0.00     0.064 A 
ATOM     22  C   UNL A   1      32.800  26.818  26.376  1.00  0.00     0.002 A 
ATOM     23  C   UNL A   1      30.659  26.295  25.384  1.00  0.00     0.023 A 
ATOM     24  Cl  UNL A   1      30.289  24.438  23.477  1.00  0.00    -0.082 Cl
ATOM     25  C   UNL A   1      31.421  27.012  26.309  1.00  0.00     0.002 A 
ENDBRANCH  17  19
ENDBRANCH   7  13
ENDBRANCH   4   7
ENDBRANCH   2   3
ENDBRANCH   1   2
BRANCH   1  26
ATOM     26  C   UNL A   1      38.944  20.638  25.743  1.00  0.00     0.118 C 
BRANCH  26  27
ATOM     27  N   UNL A   1      39.874  19.517  25.767  1.00  0.00    -0.352 N 
ATOM     28  C   UNL A   1      41.215  19.529  26.089  1.00  0.00     0.251 C 
ATOM     29  H   UNL A   1      39.499  18.641  25.523  1.00  0.00     0.163 HD
ATOM     30  O   UNL A   1      41.909  18.541  25.936  1.00  0.00    -0.269 OA
BRANCH  28  31
ATOM     31  C   UNL A   1      41.796  20.792  26.588  1.00  0.00     0.039 A 
ATOM     32  C   UNL A   1      42.304  21.714  25.672  1.00  0.00     0.014 A 
ATOM     33  C   UNL A   1      41.730  21.097  27.950  1.00  0.00     0.014 A 
ATOM     34  C   UNL A   1      42.668  22.986  26.117  1.00  0.00     0.010 A 
ATOM     35  C   UNL A   1      42.009  22.389  28.373  1.00  0.00     0.010 A 
ATOM     36  C   UNL A   1      42.476  23.347  27.460  1.00  0.00    -0.014 A 
BRANCH  36  37
ATOM     37  C   UNL A   1      42.749  24.723  27.943  1.00  0.00     0.031 A 
ATOM     38  C   UNL A   1      44.144  25.104  28.354  1.00  0.00     0.074 A 
ATOM     39  C   UNL A   1      41.733  25.595  28.099  1.00  0.00     0.049 A 
ATOM     40  N   UNL A   1      44.569  26.207  28.913  1.00  0.00    -0.248 NA
ATOM     41  C   UNL A   1      45.193  24.095  28.140  1.00  0.00     0.031 C 
ATOM     42  C   UNL A   1      40.327  25.326  27.788  1.00  0.00     0.029 A 
ATOM     43  N   UNL A   1      41.725  26.881  28.575  1.00  0.00    -0.354 N 
ATOM     44  C   UNL A   1      45.925  26.014  29.140  1.00  0.00     0.074 A 
ATOM     45  C   UNL A   1      46.241  24.670  28.709  1.00  0.00     0.031 C 
ATOM     46  C   UNL A   1      39.599  26.420  28.063  1.00  0.00     0.029 A 
ATOM     47  C   UNL A   1      40.476  27.452  28.606  1.00  0.00     0.049 A 
ATOM     48  H   UNL A   1      42.539  27.352  28.869  1.00  0.00     0.167 HD
ATOM     49  C   UNL A   1      46.831  26.886  29.641  1.00  0.00     0.037 A 
ATOM     50  C   UNL A   1      40.083  28.666  29.033  1.00  0.00     0.037 A 
ATOM     51  C   UNL A   1      46.520  28.234  30.032  1.00  0.00     0.049 A 
ATOM     52  C   UNL A   1      41.108  29.620  29.579  1.00  0.00     0.074 A 
ATOM     53  C   UNL A   1      47.379  29.222  30.479  1.00  0.00     0.029 A 
ATOM     54  N   UNL A   1      45.247  28.784  30.021  1.00  0.00    -0.354 N 
ATOM     55  N   UNL A   1      42.400  29.448  29.724  1.00  0.00    -0.248 NA
ATOM     56  C   UNL A   1      40.623  30.935  30.021  1.00  0.00     0.031 C 
ATOM     57  C   UNL A   1      46.621  30.359  30.774  1.00  0.00     0.029 A 
ATOM     58  C   UNL A   1      45.295  30.092  30.471  1.00  0.00     0.049 A 
ATOM     59  H   UNL A   1      44.430  28.314  29.734  1.00  0.00     0.167 HD
ATOM     60  C   UNL A   1      42.885  30.638  30.250  1.00  0.00     0.074 A 
ATOM     61  C   UNL A   1      41.751  31.529  30.387  1.00  0.00     0.031 C 
ATOM     62  C   UNL A   1      44.155  30.965  30.592  1.00  0.00     0.037 A 
BRANCH  49  63
ATOM     63  C   UNL A   1      48.245  26.406  29.781  1.00  0.00     0.057 A 
ATOM     64  C   UNL A   1      49.181  26.557  28.750  1.00  0.00     0.134 A 
ATOM     65  C   UNL A   1      48.682  25.807  30.969  1.00  0.00     0.134 A 
ATOM     66  F   UNL A   1      48.822  27.111  27.581  1.00  0.00    -0.206 F 
ATOM     67  C   UNL A   1      50.494  26.105  28.883  1.00  0.00     0.040 A 
ATOM     68  C   UNL A   1      50.001  25.374  31.123  1.00  0.00     0.040 A 
ATOM     69  F   UNL A   1      47.839  25.634  31.996  1.00  0.00    -0.206 F 
ATOM     70  C   UNL A   1      50.908  25.516  30.076  1.00  0.00     0.006 A 
ENDBRANCH  49  63
BRANCH  50  71
ATOM     71  C   UNL A   1      38.654  29.060  28.945  1.00  0.00     0.057 A 
ATOM     72  C   UNL A   1      38.117  29.555  27.751  1.00  0.00     0.134 A 
ATOM     73  C   UNL A   1      37.795  28.958  30.045  1.00  0.00     0.134 A 
ATOM     74  F   UNL A   1      38.895  29.694  26.667  1.00  0.00    -0.206 F 
ATOM     75  C   UNL A   1      36.782  29.953  27.658  1.00  0.00     0.040 A 
ATOM     76  C   UNL A   1      36.452  29.330  29.960  1.00  0.00     0.040 A 
ATOM     77  F   UNL A   1      38.247  28.486  31.216  1.00  0.00    -0.206 F 
ATOM     78  C   UNL A   1      35.944  29.835  28.765  1.00  0.00     0.006 A 
ENDBRANCH  50  71
BRANCH  62  79
ATOM     79  C   UNL A   1      44.391  32.348  31.117  1.00  0.00     0.057 A 
ATOM     80  C   UNL A   1      44.368  32.629  32.489  1.00  0.00     0.134 A 
ATOM     81  C   UNL A   1      44.697  33.399  30.244  1.00  0.00     0.134 A 
ATOM     82  F   UNL A   1      44.068  31.667  33.375  1.00  0.00    -0.206 F 
ATOM     83  C   UNL A   1      44.626  33.912  32.973  1.00  0.00     0.040 A 
ATOM     84  C   UNL A   1      44.980  34.680  30.718  1.00  0.00     0.040 A 
ATOM     85  F   UNL A   1      44.743  33.193  28.918  1.00  0.00    -0.206 F 
ATOM     86  C   UNL A   1      44.942  34.940  32.086  1.00  0.00     0.006 A 
ENDBRANCH  62  79
ENDBRANCH  36  37
ENDBRANCH  28  31
ENDBRANCH  26  27
ENDBRANCH   1  26
TORSDOF 13
ENDMDL
MODEL 2
REMARK VINA RESULT:     -11.7      1.092      1.545
REMARK SMILES C[C@](NC(=O)Nc1ccccc1Cl)(C(=O)NCCCNC(=O)c1ccc(-c2c3nc(c(-c4c(F)cccc4F)c4ccc([nH]4)c(-c4c(F)cccc4F)c4nc(c(-c5c(F)cccc5F)c5ccc2[nH]5)C=C4)C=C3)cc1)C(F)(F)F
REMARK SMILES IDX 18 1 17 2 16 3 14 4 15 5 2 7 1 8 77 9 78 10 79 11 80 12 3 13
REMARK SMILES IDX 4 14 5 16 6 17 7 19 8 20 12 21 9 22 11 23 13 24 10 25 19 26
REMARK SMILES IDX 20 27 21 28 22 30 23 31 24 32 76 33 25 34 75 35 26 36 27 37
REMARK SMILES IDX 28 38 69 39 29 40 74 41 68 42 70 43 30 44 73 45 67 46 66 47
REMARK SMILES IDX 31 49 57 50 40 51 56 52 41 53 44 54 55 55 71 56 42 57 43 58
REMARK SMILES IDX 54 60 72 61 45 62 32 63 33 64 38 65 34 66 35 67 37 68 39 69
REMARK SMILES IDX 36 70 58 71 59 72 64 73 60 74 61 75 63 76 65 77 62 78 46 79
REMARK SMILES IDX 47 80 52 81 48 82 49 83 51 84 53 85 50 86
REMARK H PARENT 16 6 3 15 6 18 20 29 70 48 44 59
REMARK Flexibility Score: inf
ROOT
ATOM      1  C   UNL A   1      37.787  20.143  24.926  1.00  0.00     0.042 C 
ENDROOT
BRANCH   1   2
ATOM      2  C   UNL A   1      36.585  20.976  25.334  1.00  0.00     0.117 C 
BRANCH   2   3
ATOM      3  N   UNL A   1      35.379  20.169  25.401  1.00  0.00    -0.354 N 
ATOM      4  C   UNL A   1      34.063  20.516  25.483  1.00  0.00     0.255 C 
ATOM      5  O   UNL A   1      33.279  19.568  25.564  1.00  0.00    -0.272 OA
ATOM      6  H   UNL A   1      35.543  19.199  25.382  1.00  0.00     0.163 HD
BRANCH   4   7
ATOM      7  C   UNL A   1      33.611  21.992  25.421  1.00  0.00     0.213 C 
ATOM      8  C   UNL A   1      32.111  21.956  25.105  1.00  0.00     0.056 C 
BRANCH   7   9
ATOM      9  C   UNL A   1      33.804  22.529  26.860  1.00  0.00     0.420 C 
ATOM     10  F   UNL A   1      34.896  23.321  26.965  1.00  0.00    -0.168 F 
ATOM     11  F   UNL A   1      32.745  23.282  27.248  1.00  0.00    -0.168 F 
ATOM     12  F   UNL A   1      33.900  21.541  27.779  1.00  0.00    -0.168 F 
ENDBRANCH   7   9
BRANCH   7  13
ATOM     13  N   UNL A   1      34.542  22.679  24.450  1.00  0.00    -0.316 N 
ATOM     14  C   UNL A   1      34.527  23.655  23.530  1.00  0.00     0.320 C 
ATOM     15  H   UNL A   1      35.443  22.287  24.511  1.00  0.00     0.166 HD
ATOM     16  O   UNL A   1      35.383  23.602  22.643  1.00  0.00    -0.248 OA
ATOM     17  N   UNL A   1      33.563  24.587  23.438  1.00  0.00    -0.307 N 
ATOM     18  H   UNL A   1      33.349  24.868  22.519  1.00  0.00     0.171 HD
BRANCH  17  19
ATOM     19  C   UNL A   1      32.811  25.224  24.434  1.00  0.00     0.061 A 
ATOM     20  C   UNL A   1      33.546  25.847  25.451  1.00  0.00     0.028 A 
ATOM     21  C   UNL A   1      31.412  25.303  24.444  1.00  0.00     0.064 A 
ATOM     22  C   UNL A   1      32.907  26.700  26.351  1.00  0.00     0.002 A 
ATOM     23  C   UNL A   1      30.774  26.152  25.354  1.00  0.00     0.023 A 
ATOM     24  Cl  UNL A   1      30.428  24.284  23.453  1.00  0.00    -0.082 Cl
ATOM     25  C   UNL A   1      31.526  26.880  26.278  1.00  0.00     0.002 A 
ENDBRANCH  17  19
ENDBRANCH   7  13
ENDBRANCH   4   7
ENDBRANCH   2   3
ENDBRANCH   1   2
BRANCH   1  26
ATOM     26  C   UNL A   1      39.026  20.412  25.767  1.00  0.00     0.118 C 
BRANCH  26  27
ATOM     27  N   UNL A   1      39.923  19.267  25.847  1.00  0.00    -0.352 N 
ATOM     28  C   UNL A   1      41.280  19.264  26.094  1.00  0.00     0.251 C 
ATOM     29  H   UNL A   1      39.511  18.385  25.706  1.00  0.00     0.163 HD
ATOM     30  O   UNL A   1      41.936  18.244  25.998  1.00  0.00    -0.269 OA
BRANCH  28  31
ATOM     31  C   UNL A   1      41.923  20.548  26.440  1.00  0.00     0.039 A 
ATOM     32  C   UNL A   1      42.385  21.374  25.414  1.00  0.00     0.014 A 
ATOM     33  C   UNL A   1      41.962  20.968  27.772  1.00  0.00     0.014 A 
ATOM     34  C   UNL A   1      42.809  22.668  25.721  1.00  0.00     0.010 A 
ATOM     35  C   UNL A   1      42.300  22.283  28.061  1.00  0.00     0.010 A 
ATOM     36  C   UNL A   1      42.722  23.147  27.038  1.00  0.00    -0.014 A 
BRANCH  36  37
ATOM     37  C   UNL A   1      43.060  24.551  27.379  1.00  0.00     0.031 A 
ATOM     38  C   UNL A   1      44.498  24.987  27.391  1.00  0.00     0.074 A 
ATOM     39  C   UNL A   1      42.089  25.400  27.767  1.00  0.00     0.049 A 
ATOM     40  N   UNL A   1      45.013  26.126  27.776  1.00  0.00    -0.248 NA
ATOM     41  C   UNL A   1      45.491  23.998  26.944  1.00  0.00     0.031 C 
ATOM     42  C   UNL A   1      40.662  25.080  27.851  1.00  0.00     0.029 A 
ATOM     43  N   UNL A   1      42.158  26.707  28.181  1.00  0.00    -0.354 N 
ATOM     44  C   UNL A   1      46.387  25.980  27.642  1.00  0.00     0.074 A 
ATOM     45  C   UNL A   1      46.629  24.627  27.192  1.00  0.00     0.031 C 
ATOM     46  C   UNL A   1      39.991  26.165  28.268  1.00  0.00     0.029 A 
ATOM     47  C   UNL A   1      40.940  27.245  28.520  1.00  0.00     0.049 A 
ATOM     48  H   UNL A   1      43.002  27.212  28.231  1.00  0.00     0.167 HD
ATOM     49  C   UNL A   1      47.359  26.898  27.851  1.00  0.00     0.037 A 
ATOM     50  C   UNL A   1      40.627  28.466  28.992  1.00  0.00     0.037 A 
ATOM     51  C   UNL A   1      47.112  28.254  28.261  1.00  0.00     0.049 A 
ATOM     52  C   UNL A   1      41.724  29.471  29.210  1.00  0.00     0.074 A 
ATOM     53  C   UNL A   1      48.020  29.284  28.427  1.00  0.00     0.029 A 
ATOM     54  N   UNL A   1      45.861  28.768  28.568  1.00  0.00    -0.354 N 
ATOM     55  N   UNL A   1      43.013  29.341  29.013  1.00  0.00    -0.248 NA
ATOM     56  C   UNL A   1      41.322  30.792  29.716  1.00  0.00     0.031 C 
ATOM     57  C   UNL A   1      47.324  30.413  28.870  1.00  0.00     0.029 A 
ATOM     58  C   UNL A   1      45.976  30.097  28.941  1.00  0.00     0.049 A 
ATOM     59  H   UNL A   1      45.016  28.264  28.526  1.00  0.00     0.167 HD
ATOM     60  C   UNL A   1      43.574  30.566  29.347  1.00  0.00     0.074 A 
ATOM     61  C   UNL A   1      42.483  31.432  29.747  1.00  0.00     0.031 C 
ATOM     62  C   UNL A   1      44.876  30.943  29.327  1.00  0.00     0.037 A 
BRANCH  49  63
ATOM     63  C   UNL A   1      48.778  26.464  27.629  1.00  0.00     0.057 A 
ATOM     64  C   UNL A   1      49.571  25.974  28.674  1.00  0.00     0.134 A 
ATOM     65  C   UNL A   1      49.349  26.514  26.352  1.00  0.00     0.134 A 
ATOM     66  F   UNL A   1      49.088  25.914  29.925  1.00  0.00    -0.206 F 
ATOM     67  C   UNL A   1      50.892  25.576  28.464  1.00  0.00     0.040 A 
ATOM     68  C   UNL A   1      50.661  26.094  26.124  1.00  0.00     0.040 A 
ATOM     69  F   UNL A   1      48.644  26.969  25.307  1.00  0.00    -0.206 F 
ATOM     70  C   UNL A   1      51.438  25.630  27.183  1.00  0.00     0.006 A 
ENDBRANCH  49  63
BRANCH  50  71
ATOM     71  C   UNL A   1      39.212  28.817  29.271  1.00  0.00     0.057 A 
ATOM     72  C   UNL A   1      38.407  29.399  28.285  1.00  0.00     0.134 A 
ATOM     73  C   UNL A   1      38.633  28.586  30.524  1.00  0.00     0.134 A 
ATOM     74  F   UNL A   1      38.911  29.662  27.071  1.00  0.00    -0.206 F 
ATOM     75  C   UNL A   1      37.082  29.757  28.539  1.00  0.00     0.040 A 
ATOM     76  C   UNL A   1      37.302  28.918  30.786  1.00  0.00     0.040 A 
ATOM     77  F   UNL A   1      39.349  28.025  31.509  1.00  0.00    -0.206 F 
ATOM     78  C   UNL A   1      36.525  29.511  29.793  1.00  0.00     0.006 A 
ENDBRANCH  50  71
BRANCH  62  79
ATOM     79  C   UNL A   1      45.189  32.355  29.719  1.00  0.00     0.057 A 
ATOM     80  C   UNL A   1      45.546  32.693  31.031  1.00  0.00     0.134 A 
ATOM     81  C   UNL A   1      45.186  33.377  28.762  1.00  0.00     0.134 A 
ATOM     82  F   UNL A   1      45.555  31.760  31.995  1.00  0.00    -0.206 F 
ATOM     83  C   UNL A   1      45.873  34.004  31.380  1.00  0.00     0.040 A 
ATOM     84  C   UNL A   1      45.534  34.686  29.095  1.00  0.00     0.040 A 
ATOM     85  F   UNL A   1      44.861  33.116  27.487  1.00  0.00    -0.206 F 
ATOM     86  C   UNL A   1      45.876  35.003  30.408  1.00  0.00     0.006 A 
ENDBRANCH  62  79
ENDBRANCH  36  37
ENDBRANCH  28  31
ENDBRANCH  26  27
ENDBRANCH   1  26
TORSDOF 13
ENDMDL
MODEL 3
REMARK VINA RESULT:     -11.7      0.395      6.362
REMARK SMILES C[C@](NC(=O)Nc1ccccc1Cl)(C(=O)NCCCNC(=O)c1ccc(-c2c3nc(c(-c4c(F)cccc4F)c4ccc([nH]4)c(-c4c(F)cccc4F)c4nc(c(-c5c(F)cccc5F)c5ccc2[nH]5)C=C4)C=C3)cc1)C(F)(F)F
REMARK SMILES IDX 18 1 17 2 16 3 14 4 15 5 2 7 1 8 77 9 78 10 79 11 80 12 3 13
REMARK SMILES IDX 4 14 5 16 6 17 7 19 8 20 12 21 9 22 11 23 13 24 10 25 19 26
REMARK SMILES IDX 20 27 21 28 22 30 23 31 24 32 76 33 25 34 75 35 26 36 27 37
REMARK SMILES IDX 28 38 69 39 29 40 74 41 68 42 70 43 30 44 73 45 67 46 66 47
REMARK SMILES IDX 31 49 57 50 40 51 56 52 41 53 44 54 55 55 71 56 42 57 43 58
REMARK SMILES IDX 54 60 72 61 45 62 32 63 33 64 38 65 34 66 35 67 37 68 39 69
REMARK SMILES IDX 36 70 58 71 59 72 64 73 60 74 61 75 63 76 65 77 62 78 46 79
REMARK SMILES IDX 47 80 52 81 48 82 49 83 51 84 53 85 50 86
REMARK H PARENT 16 6 3 15 6 18 20 29 70 48 44 59
REMARK Flexibility Score: inf
ROOT
ATOM      1  C   UNL A   1      37.424  20.914  25.012  1.00  0.00     0.042 C 
ENDROOT
BRANCH   1   2
ATOM      2  C   UNL A   1      36.261  21.502  25.792  1.00  0.00     0.117 C 
BRANCH   2   3
ATOM      3  N   UNL A   1      35.105  20.624  25.760  1.00  0.00    -0.354 N 
ATOM      4  C   UNL A   1      33.772  20.890  25.648  1.00  0.00     0.255 C 
ATOM      5  O   UNL A   1      33.038  19.900  25.694  1.00  0.00    -0.272 OA
ATOM      6  H   UNL A   1      35.323  19.667  25.831  1.00  0.00     0.163 HD
BRANCH   4   7
ATOM      7  C   UNL A   1      33.250  22.327  25.425  1.00  0.00     0.213 C 
ATOM      8  C   UNL A   1      31.783  22.178  25.006  1.00  0.00     0.056 C 
BRANCH   7   9
ATOM      9  C   UNL A   1      33.305  22.993  26.821  1.00  0.00     0.420 C 
ATOM     10  F   UNL A   1      32.199  23.729  27.077  1.00  0.00    -0.168 F 
ATOM     11  F   UNL A   1      33.384  22.062  27.804  1.00  0.00    -0.168 F 
ATOM     12  F   UNL A   1      34.393  23.781  26.983  1.00  0.00    -0.168 F 
ENDBRANCH   7   9
BRANCH   7  13
ATOM     13  N   UNL A   1      34.217  22.983  24.466  1.00  0.00    -0.316 N 
ATOM     14  C   UNL A   1      34.254  23.979  23.568  1.00  0.00     0.320 C 
ATOM     15  H   UNL A   1      35.095  22.541  24.517  1.00  0.00     0.166 HD
ATOM     16  O   UNL A   1      35.104  23.899  22.678  1.00  0.00    -0.248 OA
ATOM     17  N   UNL A   1      33.342  24.964  23.499  1.00  0.00    -0.307 N 
ATOM     18  H   UNL A   1      33.143  25.276  22.587  1.00  0.00     0.171 HD
BRANCH  17  19
ATOM     19  C   UNL A   1      32.628  25.619  24.511  1.00  0.00     0.061 A 
ATOM     20  C   UNL A   1      33.400  26.234  25.505  1.00  0.00     0.028 A 
ATOM     21  C   UNL A   1      31.231  25.722  24.557  1.00  0.00     0.064 A 
ATOM     22  C   UNL A   1      32.799  27.103  26.416  1.00  0.00     0.002 A 
ATOM     23  C   UNL A   1      30.632  26.587  25.478  1.00  0.00     0.023 A 
ATOM     24  Cl  UNL A   1      30.204  24.716  23.597  1.00  0.00    -0.082 Cl
ATOM     25  C   UNL A   1      31.420  27.307  26.378  1.00  0.00     0.002 A 
ENDBRANCH  17  19
ENDBRANCH   7  13
ENDBRANCH   4   7
ENDBRANCH   2   3
ENDBRANCH   1   2
BRANCH   1  26
ATOM     26  C   UNL A   1      38.772  21.111  25.690  1.00  0.00     0.118 C 
BRANCH  26  27
ATOM     27  N   UNL A   1      39.609  19.919  25.659  1.00  0.00    -0.352 N 
ATOM     28  C   UNL A   1      40.943  19.806  25.988  1.00  0.00     0.251 C 
ATOM     29  H   UNL A   1      39.167  19.089  25.367  1.00  0.00     0.163 HD
ATOM     30  O   UNL A   1      41.557  18.775  25.786  1.00  0.00    -0.269 OA
BRANCH  28  31
ATOM     31  C   UNL A   1      41.618  20.991  26.556  1.00  0.00     0.039 A 
ATOM     32  C   UNL A   1      42.130  21.959  25.692  1.00  0.00     0.014 A 
ATOM     33  C   UNL A   1      41.639  21.181  27.940  1.00  0.00     0.014 A 
ATOM     34  C   UNL A   1      42.587  23.169  26.218  1.00  0.00     0.010 A 
ATOM     35  C   UNL A   1      42.012  22.417  28.451  1.00  0.00     0.010 A 
ATOM     36  C   UNL A   1      42.484  23.424  27.596  1.00  0.00    -0.014 A 
BRANCH  36  37
ATOM     37  C   UNL A   1      42.858  24.738  28.173  1.00  0.00     0.031 A 
ATOM     38  C   UNL A   1      41.799  25.781  28.395  1.00  0.00     0.074 A 
ATOM     39  C   UNL A   1      44.154  25.025  28.407  1.00  0.00     0.049 A 
ATOM     40  N   UNL A   1      41.931  27.027  28.772  1.00  0.00    -0.248 NA
ATOM     41  C   UNL A   1      40.410  25.379  28.123  1.00  0.00     0.031 C 
ATOM     42  C   UNL A   1      45.280  24.117  28.179  1.00  0.00     0.029 A 
ATOM     43  N   UNL A   1      44.744  26.172  28.874  1.00  0.00    -0.354 N 
ATOM     44  C   UNL A   1      40.649  27.561  28.756  1.00  0.00     0.074 A 
ATOM     45  C   UNL A   1      39.762  26.523  28.282  1.00  0.00     0.031 C 
ATOM     46  C   UNL A   1      46.420  24.735  28.526  1.00  0.00     0.029 A 
ATOM     47  C   UNL A   1      46.113  26.093  28.962  1.00  0.00     0.049 A 
ATOM     48  H   UNL A   1      44.235  26.977  29.122  1.00  0.00     0.167 HD
ATOM     49  C   UNL A   1      40.245  28.798  29.126  1.00  0.00     0.037 A 
ATOM     50  C   UNL A   1      47.017  27.016  29.340  1.00  0.00     0.037 A 
ATOM     51  C   UNL A   1      41.126  29.815  29.634  1.00  0.00     0.049 A 
ATOM     52  C   UNL A   1      46.543  28.381  29.754  1.00  0.00     0.074 A 
ATOM     53  C   UNL A   1      40.805  31.075  30.108  1.00  0.00     0.029 A 
ATOM     54  N   UNL A   1      42.503  29.686  29.734  1.00  0.00    -0.354 N 
ATOM     55  N   UNL A   1      45.319  28.851  29.800  1.00  0.00    -0.248 NA
ATOM     56  C   UNL A   1      47.573  29.345  30.167  1.00  0.00     0.031 C 
ATOM     57  C   UNL A   1      41.993  31.722  30.462  1.00  0.00     0.029 A 
ATOM     58  C   UNL A   1      43.050  30.851  30.246  1.00  0.00     0.049 A 
ATOM     59  H   UNL A   1      43.016  28.884  29.481  1.00  0.00     0.167 HD
ATOM     60  C   UNL A   1      45.430  30.153  30.268  1.00  0.00     0.074 A 
ATOM     61  C   UNL A   1      46.838  30.395  30.505  1.00  0.00     0.031 C 
ATOM     62  C   UNL A   1      44.454  31.068  30.482  1.00  0.00     0.037 A 
BRANCH  49  63
ATOM     63  C   UNL A   1      38.783  29.111  29.003  1.00  0.00     0.057 A 
ATOM     64  C   UNL A   1      37.915  29.018  30.099  1.00  0.00     0.134 A 
ATOM     65  C   UNL A   1      38.242  29.533  27.783  1.00  0.00     0.134 A 
ATOM     66  F   UNL A   1      38.368  28.606  31.293  1.00  0.00    -0.206 F 
ATOM     67  C   UNL A   1      36.555  29.305  29.979  1.00  0.00     0.040 A 
ATOM     68  C   UNL A   1      36.888  29.848  27.657  1.00  0.00     0.040 A 
ATOM     69  F   UNL A   1      39.018  29.646  26.695  1.00  0.00    -0.206 F 
ATOM     70  C   UNL A   1      36.039  29.728  28.755  1.00  0.00     0.006 A 
ENDBRANCH  49  63
BRANCH  50  71
ATOM     71  C   UNL A   1      48.462  26.676  29.367  1.00  0.00     0.057 A 
ATOM     72  C   UNL A   1      49.033  26.047  30.479  1.00  0.00     0.134 A 
ATOM     73  C   UNL A   1      49.306  26.975  28.291  1.00  0.00     0.134 A 
ATOM     74  F   UNL A   1      48.279  25.753  31.548  1.00  0.00    -0.206 F 
ATOM     75  C   UNL A   1      50.395  25.743  30.530  1.00  0.00     0.040 A 
ATOM     76  C   UNL A   1      50.664  26.655  28.318  1.00  0.00     0.040 A 
ATOM     77  F   UNL A   1      48.818  27.571  27.193  1.00  0.00    -0.206 F 
ATOM     78  C   UNL A   1      51.213  26.043  29.443  1.00  0.00     0.006 A 
ENDBRANCH  50  71
BRANCH  62  79
ATOM     79  C   UNL A   1      44.869  32.402  31.024  1.00  0.00     0.057 A 
ATOM     80  C   UNL A   1      45.159  33.482  30.181  1.00  0.00     0.134 A 
ATOM     81  C   UNL A   1      44.927  32.622  32.406  1.00  0.00     0.134 A 
ATOM     82  F   UNL A   1      45.133  33.330  28.848  1.00  0.00    -0.206 F 
ATOM     83  C   UNL A   1      45.508  34.731  30.694  1.00  0.00     0.040 A 
ATOM     84  C   UNL A   1      45.252  33.873  32.931  1.00  0.00     0.040 A 
ATOM     85  F   UNL A   1      44.653  31.630  33.267  1.00  0.00    -0.206 F 
ATOM     86  C   UNL A   1      45.547  34.932  32.074  1.00  0.00     0.006 A 
ENDBRANCH  62  79
ENDBRANCH  36  37
ENDBRANCH  28  31
ENDBRANCH  26  27
ENDBRANCH   1  26
TORSDOF 13
ENDMDL
