MODEL 1
REMARK VINA RESULT:     -11.1      0.000      0.000
REMARK SMILES O=C(NCCCNC(=O)[C@@H]1CC[C@]2(CC[NH2+]C2)C1)c1ccc(-c2c3nc(c(-c4c(F)cccc4F)c4ccc([nH]4)c(-c4c(F)cccc4F)c4nc(c(-c5c(F)cccc5F)c5ccc2[nH]5)C=C4)C=C3)cc1
REMARK SMILES IDX 4 1 3 2 1 3 2 4 19 6 20 7 72 8 21 9 71 10 22 11 23 12 24 13
REMARK SMILES IDX 65 14 25 15 70 16 64 17 66 18 26 19 69 20 63 21 62 22 27 24
REMARK SMILES IDX 53 25 36 26 52 27 37 28 40 29 51 30 67 31 38 32 39 33 50 35
REMARK SMILES IDX 68 36 41 37 28 38 29 39 34 40 30 41 31 42 33 43 35 44 32 45
REMARK SMILES IDX 54 46 55 47 60 48 56 49 57 50 59 51 61 52 58 53 42 54 43 55
REMARK SMILES IDX 48 56 44 57 45 58 47 59 49 60 46 61 5 62 6 63 7 64 8 65 9 67
REMARK SMILES IDX 10 68 11 69 18 70 12 71 13 72 14 73 17 74 15 75 16 76
REMARK H PARENT 3 5 66 23 40 34 7 66 16 77 16 78
REMARK Flexibility Score: inf
ROOT
ATOM      1  C   UNL A   1      39.122  19.753  26.178  1.00  0.00     0.118 C 
ENDROOT
BRANCH   1   2
ATOM      2  N   UNL A   1      40.400  19.137  25.836  1.00  0.00    -0.352 N 
ATOM      3  O   UNL A   1      42.579  19.021  25.297  1.00  0.00    -0.269 OA
ATOM      4  C   UNL A   1      41.676  19.658  25.823  1.00  0.00     0.251 C 
ATOM      5  H   UNL A   1      40.341  18.191  25.571  1.00  0.00     0.163 HD
BRANCH   4   6
ATOM      6  C   UNL A   1      41.960  20.983  26.427  1.00  0.00     0.039 A 
ATOM      7  C   UNL A   1      42.011  21.136  27.808  1.00  0.00     0.014 A 
ATOM      8  C   UNL A   1      42.221  22.084  25.601  1.00  0.00     0.014 A 
ATOM      9  C   UNL A   1      42.118  22.401  28.363  1.00  0.00     0.010 A 
ATOM     10  C   UNL A   1      42.485  23.338  26.168  1.00  0.00     0.010 A 
ATOM     11  C   UNL A   1      42.410  23.512  27.556  1.00  0.00    -0.014 A 
BRANCH  11  12
ATOM     12  C   UNL A   1      42.739  24.790  28.238  1.00  0.00     0.031 A 
ATOM     13  C   UNL A   1      44.149  25.159  28.592  1.00  0.00     0.074 A 
ATOM     14  C   UNL A   1      41.731  25.662  28.447  1.00  0.00     0.049 A 
ATOM     15  N   UNL A   1      44.597  26.280  29.102  1.00  0.00    -0.248 NA
ATOM     16  C   UNL A   1      45.193  24.150  28.359  1.00  0.00     0.031 C 
ATOM     17  C   UNL A   1      40.316  25.396  28.162  1.00  0.00     0.029 A 
ATOM     18  N   UNL A   1      41.736  26.959  28.891  1.00  0.00    -0.354 N 
ATOM     19  C   UNL A   1      45.966  26.108  29.264  1.00  0.00     0.074 A 
ATOM     20  C   UNL A   1      46.274  24.763  28.822  1.00  0.00     0.031 C 
ATOM     21  C   UNL A   1      39.608  26.516  28.347  1.00  0.00     0.029 A 
ATOM     22  C   UNL A   1      40.497  27.554  28.849  1.00  0.00     0.049 A 
ATOM     23  H   UNL A   1      42.546  27.419  29.207  1.00  0.00     0.167 HD
ATOM     24  C   UNL A   1      46.877  26.994  29.731  1.00  0.00     0.037 A 
ATOM     25  C   UNL A   1      40.111  28.796  29.191  1.00  0.00     0.037 A 
ATOM     26  C   UNL A   1      46.558  28.334  30.158  1.00  0.00     0.049 A 
ATOM     27  C   UNL A   1      41.144  29.751  29.703  1.00  0.00     0.074 A 
ATOM     28  C   UNL A   1      47.410  29.309  30.648  1.00  0.00     0.029 A 
ATOM     29  N   UNL A   1      45.286  28.889  30.143  1.00  0.00    -0.354 N 
ATOM     30  N   UNL A   1      42.435  29.571  29.843  1.00  0.00    -0.248 NA
ATOM     31  C   UNL A   1      40.668  31.077  30.116  1.00  0.00     0.031 C 
ATOM     32  C   UNL A   1      46.648  30.441  30.962  1.00  0.00     0.029 A 
ATOM     33  C   UNL A   1      45.329  30.187  30.625  1.00  0.00     0.049 A 
ATOM     34  H   UNL A   1      44.473  28.427  29.834  1.00  0.00     0.167 HD
ATOM     35  C   UNL A   1      42.927  30.758  30.363  1.00  0.00     0.074 A 
ATOM     36  C   UNL A   1      41.802  31.665  30.472  1.00  0.00     0.031 C 
ATOM     37  C   UNL A   1      44.193  31.067  30.734  1.00  0.00     0.037 A 
BRANCH  24  38
ATOM     38  C   UNL A   1      48.307  26.547  29.819  1.00  0.00     0.057 A 
ATOM     39  C   UNL A   1      49.234  26.834  28.807  1.00  0.00     0.134 A 
ATOM     40  C   UNL A   1      48.780  25.879  30.955  1.00  0.00     0.134 A 
ATOM     41  F   UNL A   1      48.844  27.460  27.686  1.00  0.00    -0.206 F 
ATOM     42  C   UNL A   1      50.576  26.463  28.920  1.00  0.00     0.040 A 
ATOM     43  C   UNL A   1      50.124  25.523  31.088  1.00  0.00     0.040 A 
ATOM     44  F   UNL A   1      47.948  25.578  31.964  1.00  0.00    -0.206 F 
ATOM     45  C   UNL A   1      51.026  25.813  30.067  1.00  0.00     0.006 A 
ENDBRANCH  24  38
BRANCH  25  46
ATOM     46  C   UNL A   1      38.681  29.185  29.089  1.00  0.00     0.057 A 
ATOM     47  C   UNL A   1      37.823  29.112  30.190  1.00  0.00     0.134 A 
ATOM     48  C   UNL A   1      38.141  29.640  27.879  1.00  0.00     0.134 A 
ATOM     49  F   UNL A   1      38.276  28.671  31.372  1.00  0.00    -0.206 F 
ATOM     50  C   UNL A   1      36.475  29.460  30.089  1.00  0.00     0.040 A 
ATOM     51  C   UNL A   1      36.803  30.023  27.772  1.00  0.00     0.040 A 
ATOM     52  F   UNL A   1      38.913  29.742  26.787  1.00  0.00    -0.206 F 
ATOM     53  C   UNL A   1      35.963  29.923  28.878  1.00  0.00     0.006 A 
ENDBRANCH  25  46
BRANCH  37  54
ATOM     54  C   UNL A   1      44.411  32.444  31.282  1.00  0.00     0.057 A 
ATOM     55  C   UNL A   1      44.718  33.527  30.446  1.00  0.00     0.134 A 
ATOM     56  C   UNL A   1      44.325  32.690  32.658  1.00  0.00     0.134 A 
ATOM     57  F   UNL A   1      44.832  33.352  29.121  1.00  0.00    -0.206 F 
ATOM     58  C   UNL A   1      44.965  34.798  30.964  1.00  0.00     0.040 A 
ATOM     59  C   UNL A   1      44.544  33.963  33.183  1.00  0.00     0.040 A 
ATOM     60  F   UNL A   1      44.031  31.696  33.510  1.00  0.00    -0.206 F 
ATOM     61  C   UNL A   1      44.874  35.019  32.336  1.00  0.00     0.006 A 
ENDBRANCH  37  54
ENDBRANCH  11  12
ENDBRANCH   4   6
ENDBRANCH   1   2
BRANCH   1  62
ATOM     62  C   UNL A   1      38.321  20.115  24.945  1.00  0.00     0.042 C 
BRANCH  62  63
ATOM     63  C   UNL A   1      37.825  21.554  24.957  1.00  0.00     0.117 C 
BRANCH  63  64
ATOM     64  N   UNL A   1      36.793  21.760  25.947  1.00  0.00    -0.356 N 
ATOM     65  C   UNL A   1      35.453  21.555  25.919  1.00  0.00     0.223 C 
ATOM     66  H   UNL A   1      37.125  22.117  26.803  1.00  0.00     0.163 HD
ATOM     67  O   UNL A   1      34.840  21.862  26.949  1.00  0.00    -0.275 OA
BRANCH  65  68
ATOM     68  C   UNL A   1      34.686  20.916  24.755  1.00  0.00     0.079 C 
ATOM     69  C   UNL A   1      33.267  21.449  24.603  1.00  0.00     0.014 C 
ATOM     70  C   UNL A   1      34.582  19.393  24.665  1.00  0.00     0.026 C 
ATOM     71  C   UNL A   1      32.346  20.333  25.067  1.00  0.00     0.014 C 
ATOM     72  C   UNL A   1      33.076  19.019  24.739  1.00  0.00     0.026 C 
ATOM     73  C   UNL A   1      32.806  17.899  25.767  1.00  0.00     0.074 C 
ATOM     74  C   UNL A   1      32.572  18.398  23.421  1.00  0.00     0.267 C 
ATOM     75  C   UNL A   1      32.108  16.791  25.005  1.00  0.00     0.261 C 
ATOM     76  N   UNL A   1      32.616  16.945  23.642  1.00  0.00    -0.346 N 
ATOM     77  H   UNL A   1      32.021  16.457  22.975  1.00  0.00     0.346 HD
ATOM     78  H   UNL A   1      33.550  16.554  23.520  1.00  0.00     0.346 HD
ENDBRANCH  65  68
ENDBRANCH  63  64
ENDBRANCH  62  63
ENDBRANCH   1  62
TORSDOF 10
ENDMDL
MODEL 2
REMARK VINA RESULT:     -11.1      5.708     10.149
REMARK SMILES O=C(NCCCNC(=O)[C@@H]1CC[C@]2(CC[NH2+]C2)C1)c1ccc(-c2c3nc(c(-c4c(F)cccc4F)c4ccc([nH]4)c(-c4c(F)cccc4F)c4nc(c(-c5c(F)cccc5F)c5ccc2[nH]5)C=C4)C=C3)cc1
REMARK SMILES IDX 4 1 3 2 1 3 2 4 19 6 20 7 72 8 21 9 71 10 22 11 23 12 24 13
REMARK SMILES IDX 65 14 25 15 70 16 64 17 66 18 26 19 69 20 63 21 62 22 27 24
REMARK SMILES IDX 53 25 36 26 52 27 37 28 40 29 51 30 67 31 38 32 39 33 50 35
REMARK SMILES IDX 68 36 41 37 28 38 29 39 34 40 30 41 31 42 33 43 35 44 32 45
REMARK SMILES IDX 54 46 55 47 60 48 56 49 57 50 59 51 61 52 58 53 42 54 43 55
REMARK SMILES IDX 48 56 44 57 45 58 47 59 49 60 46 61 5 62 6 63 7 64 8 65 9 67
REMARK SMILES IDX 10 68 11 69 18 70 12 71 13 72 14 73 17 74 15 75 16 76
REMARK H PARENT 3 5 66 23 40 34 7 66 16 77 16 78
REMARK Flexibility Score: inf
ROOT
ATOM      1  C   UNL A   1      32.817  32.509  26.668  1.00  0.00     0.118 C 
ENDROOT
BRANCH   1   2
ATOM      2  N   UNL A   1      32.523  33.768  27.345  1.00  0.00    -0.352 N 
ATOM      3  O   UNL A   1      32.526  35.298  28.992  1.00  0.00    -0.269 OA
ATOM      4  C   UNL A   1      33.072  34.331  28.477  1.00  0.00     0.251 C 
ATOM      5  H   UNL A   1      31.814  34.304  26.924  1.00  0.00     0.163 HD
BRANCH   4   6
ATOM      6  C   UNL A   1      34.306  33.772  29.080  1.00  0.00     0.039 A 
ATOM      7  C   UNL A   1      34.250  32.651  29.902  1.00  0.00     0.014 A 
ATOM      8  C   UNL A   1      35.549  34.350  28.787  1.00  0.00     0.014 A 
ATOM      9  C   UNL A   1      35.380  32.234  30.586  1.00  0.00     0.010 A 
ATOM     10  C   UNL A   1      36.717  33.829  29.359  1.00  0.00     0.010 A 
ATOM     11  C   UNL A   1      36.638  32.780  30.284  1.00  0.00    -0.014 A 
BRANCH  11  12
ATOM     12  C   UNL A   1      37.832  32.129  30.884  1.00  0.00     0.031 A 
ATOM     13  C   UNL A   1      38.258  32.403  32.297  1.00  0.00     0.074 A 
ATOM     14  C   UNL A   1      38.474  31.201  30.145  1.00  0.00     0.049 A 
ATOM     15  N   UNL A   1      39.220  31.839  32.984  1.00  0.00    -0.248 NA
ATOM     16  C   UNL A   1      37.528  33.444  33.035  1.00  0.00     0.031 C 
ATOM     17  C   UNL A   1      38.158  30.873  28.749  1.00  0.00     0.029 A 
ATOM     18  N   UNL A   1      39.481  30.328  30.465  1.00  0.00    -0.354 N 
ATOM     19  C   UNL A   1      39.221  32.462  34.225  1.00  0.00     0.074 A 
ATOM     20  C   UNL A   1      38.179  33.468  34.190  1.00  0.00     0.031 C 
ATOM     21  C   UNL A   1      38.885  29.816  28.368  1.00  0.00     0.029 A 
ATOM     22  C   UNL A   1      39.781  29.447  29.454  1.00  0.00     0.049 A 
ATOM     23  H   UNL A   1      39.943  30.332  31.334  1.00  0.00     0.167 HD
ATOM     24  C   UNL A   1      40.013  32.210  35.294  1.00  0.00     0.037 A 
ATOM     25  C   UNL A   1      40.690  28.457  29.396  1.00  0.00     0.037 A 
ATOM     26  C   UNL A   1      41.041  31.198  35.319  1.00  0.00     0.049 A 
ATOM     27  C   UNL A   1      41.549  28.204  30.596  1.00  0.00     0.074 A 
ATOM     28  C   UNL A   1      41.899  30.865  36.354  1.00  0.00     0.029 A 
ATOM     29  N   UNL A   1      41.346  30.352  34.263  1.00  0.00    -0.354 N 
ATOM     30  N   UNL A   1      41.530  28.801  31.763  1.00  0.00    -0.248 NA
ATOM     31  C   UNL A   1      42.563  27.151  30.470  1.00  0.00     0.031 C 
ATOM     32  C   UNL A   1      42.745  29.842  35.910  1.00  0.00     0.029 A 
ATOM     33  C   UNL A   1      42.386  29.508  34.616  1.00  0.00     0.049 A 
ATOM     34  H   UNL A   1      40.890  30.354  33.390  1.00  0.00     0.167 HD
ATOM     35  C   UNL A   1      42.531  28.199  32.510  1.00  0.00     0.074 A 
ATOM     36  C   UNL A   1      43.107  27.161  31.679  1.00  0.00     0.031 C 
ATOM     37  C   UNL A   1      42.949  28.489  33.766  1.00  0.00     0.037 A 
BRANCH  24  38
ATOM     38  C   UNL A   1      39.816  33.047  36.525  1.00  0.00     0.057 A 
ATOM     39  C   UNL A   1      40.534  34.232  36.735  1.00  0.00     0.134 A 
ATOM     40  C   UNL A   1      38.853  32.699  37.479  1.00  0.00     0.134 A 
ATOM     41  F   UNL A   1      41.481  34.615  35.865  1.00  0.00    -0.206 F 
ATOM     42  C   UNL A   1      40.308  35.034  37.855  1.00  0.00     0.040 A 
ATOM     43  C   UNL A   1      38.602  33.505  38.592  1.00  0.00     0.040 A 
ATOM     44  F   UNL A   1      38.125  31.580  37.338  1.00  0.00    -0.206 F 
ATOM     45  C   UNL A   1      39.332  34.676  38.783  1.00  0.00     0.006 A 
ENDBRANCH  24  38
BRANCH  25  46
ATOM     46  C   UNL A   1      40.846  27.662  28.152  1.00  0.00     0.057 A 
ATOM     47  C   UNL A   1      40.191  26.439  27.978  1.00  0.00     0.134 A 
ATOM     48  C   UNL A   1      41.659  28.113  27.104  1.00  0.00     0.134 A 
ATOM     49  F   UNL A   1      39.410  25.946  28.950  1.00  0.00    -0.206 F 
ATOM     50  C   UNL A   1      40.352  25.684  26.815  1.00  0.00     0.040 A 
ATOM     51  C   UNL A   1      41.803  27.384  25.922  1.00  0.00     0.040 A 
ATOM     52  F   UNL A   1      42.307  29.283  27.203  1.00  0.00    -0.206 F 
ATOM     53  C   UNL A   1      41.155  26.160  25.780  1.00  0.00     0.006 A 
ENDBRANCH  25  46
BRANCH  37  54
ATOM     54  C   UNL A   1      44.077  27.660  34.302  1.00  0.00     0.057 A 
ATOM     55  C   UNL A   1      45.412  28.066  34.176  1.00  0.00     0.134 A 
ATOM     56  C   UNL A   1      43.827  26.439  34.941  1.00  0.00     0.134 A 
ATOM     57  F   UNL A   1      45.717  29.216  33.558  1.00  0.00    -0.206 F 
ATOM     58  C   UNL A   1      46.461  27.270  34.636  1.00  0.00     0.040 A 
ATOM     59  C   UNL A   1      44.866  25.648  35.429  1.00  0.00     0.040 A 
ATOM     60  F   UNL A   1      42.569  25.998  35.098  1.00  0.00    -0.206 F 
ATOM     61  C   UNL A   1      46.188  26.059  35.268  1.00  0.00     0.006 A 
ENDBRANCH  37  54
ENDBRANCH  11  12
ENDBRANCH   4   6
ENDBRANCH   1   2
BRANCH   1  62
ATOM     62  C   UNL A   1      31.930  31.383  27.156  1.00  0.00     0.042 C 
BRANCH  62  63
ATOM     63  C   UNL A   1      32.609  30.022  27.101  1.00  0.00     0.117 C 
BRANCH  63  64
ATOM     64  N   UNL A   1      33.149  29.741  25.791  1.00  0.00    -0.356 N 
ATOM     65  C   UNL A   1      32.601  29.179  24.685  1.00  0.00     0.223 C 
ATOM     66  H   UNL A   1      34.090  30.006  25.680  1.00  0.00     0.163 HD
ATOM     67  O   UNL A   1      33.356  29.059  23.712  1.00  0.00    -0.275 OA
BRANCH  65  68
ATOM     68  C   UNL A   1      31.132  28.766  24.545  1.00  0.00     0.079 C 
ATOM     69  C   UNL A   1      30.932  27.525  23.683  1.00  0.00     0.014 C 
ATOM     70  C   UNL A   1      30.102  29.789  24.064  1.00  0.00     0.026 C 
ATOM     71  C   UNL A   1      30.322  28.012  22.379  1.00  0.00     0.014 C 
ATOM     72  C   UNL A   1      29.488  29.254  22.740  1.00  0.00     0.026 C 
ATOM     73  C   UNL A   1      29.480  30.326  21.629  1.00  0.00     0.074 C 
ATOM     74  C   UNL A   1      27.992  28.914  22.895  1.00  0.00     0.267 C 
ATOM     75  C   UNL A   1      28.038  30.453  21.181  1.00  0.00     0.261 C 
ATOM     76  N   UNL A   1      27.279  30.090  22.377  1.00  0.00    -0.346 N 
ATOM     77  H   UNL A   1      26.316  29.856  22.140  1.00  0.00     0.346 HD
ATOM     78  H   UNL A   1      27.222  30.849  23.056  1.00  0.00     0.346 HD
ENDBRANCH  65  68
ENDBRANCH  63  64
ENDBRANCH  62  63
ENDBRANCH   1  62
TORSDOF 10
ENDMDL
MODEL 3
REMARK VINA RESULT:     -11.0      2.919      7.982
REMARK SMILES O=C(NCCCNC(=O)[C@@H]1CC[C@]2(CC[NH2+]C2)C1)c1ccc(-c2c3nc(c(-c4c(F)cccc4F)c4ccc([nH]4)c(-c4c(F)cccc4F)c4nc(c(-c5c(F)cccc5F)c5ccc2[nH]5)C=C4)C=C3)cc1
REMARK SMILES IDX 4 1 3 2 1 3 2 4 19 6 20 7 72 8 21 9 71 10 22 11 23 12 24 13
REMARK SMILES IDX 65 14 25 15 70 16 64 17 66 18 26 19 69 20 63 21 62 22 27 24
REMARK SMILES IDX 53 25 36 26 52 27 37 28 40 29 51 30 67 31 38 32 39 33 50 35
REMARK SMILES IDX 68 36 41 37 28 38 29 39 34 40 30 41 31 42 33 43 35 44 32 45
REMARK SMILES IDX 54 46 55 47 60 48 56 49 57 50 59 51 61 52 58 53 42 54 43 55
REMARK SMILES IDX 48 56 44 57 45 58 47 59 49 60 46 61 5 62 6 63 7 64 8 65 9 67
REMARK SMILES IDX 10 68 11 69 18 70 12 71 13 72 14 73 17 74 15 75 16 76
REMARK H PARENT 3 5 66 23 40 34 7 66 16 77 16 78
REMARK Flexibility Score: inf
ROOT
ATOM      1  C   UNL A   1      34.693  28.955  27.255  1.00  0.00     0.118 C 
ENDROOT
BRANCH   1   2
ATOM      2  N   UNL A   1      34.723  30.094  28.166  1.00  0.00    -0.352 N 
ATOM      3  O   UNL A   1      35.446  31.397  29.850  1.00  0.00    -0.269 OA
ATOM      4  C   UNL A   1      35.713  30.542  29.015  1.00  0.00     0.251 C 
ATOM      5  H   UNL A   1      33.900  30.633  28.178  1.00  0.00     0.163 HD
BRANCH   4   6
ATOM      6  C   UNL A   1      37.087  29.992  28.934  1.00  0.00     0.039 A 
ATOM      7  C   UNL A   1      37.816  30.073  27.751  1.00  0.00     0.014 A 
ATOM      8  C   UNL A   1      37.678  29.421  30.069  1.00  0.00     0.014 A 
ATOM      9  C   UNL A   1      39.031  29.418  27.638  1.00  0.00     0.010 A 
ATOM     10  C   UNL A   1      38.975  28.895  29.995  1.00  0.00     0.010 A 
ATOM     11  C   UNL A   1      39.653  28.868  28.769  1.00  0.00    -0.014 A 
BRANCH  11  12
ATOM     12  C   UNL A   1      41.051  28.388  28.621  1.00  0.00     0.031 A 
ATOM     13  C   UNL A   1      41.368  26.973  28.234  1.00  0.00     0.074 A 
ATOM     14  C   UNL A   1      42.040  29.297  28.752  1.00  0.00     0.049 A 
ATOM     15  N   UNL A   1      42.535  26.438  27.974  1.00  0.00    -0.248 NA
ATOM     16  C   UNL A   1      40.243  26.032  28.132  1.00  0.00     0.031 C 
ATOM     17  C   UNL A   1      41.846  30.697  29.150  1.00  0.00     0.029 A 
ATOM     18  N   UNL A   1      43.387  29.208  28.517  1.00  0.00    -0.354 N 
ATOM     19  C   UNL A   1      42.289  25.100  27.694  1.00  0.00     0.074 A 
ATOM     20  C   UNL A   1      40.863  24.896  27.840  1.00  0.00     0.031 C 
ATOM     21  C   UNL A   1      43.008  31.353  29.042  1.00  0.00     0.029 A 
ATOM     22  C   UNL A   1      44.045  30.407  28.655  1.00  0.00     0.049 A 
ATOM     23  H   UNL A   1      43.838  28.368  28.274  1.00  0.00     0.167 HD
ATOM     24  C   UNL A   1      43.174  24.138  27.341  1.00  0.00     0.037 A 
ATOM     25  C   UNL A   1      45.346  30.714  28.503  1.00  0.00     0.037 A 
ATOM     26  C   UNL A   1      44.591  24.356  27.189  1.00  0.00     0.049 A 
ATOM     27  C   UNL A   1      46.297  29.626  28.112  1.00  0.00     0.074 A 
ATOM     28  C   UNL A   1      45.572  23.446  26.836  1.00  0.00     0.029 A 
ATOM     29  N   UNL A   1      45.230  25.574  27.379  1.00  0.00    -0.354 N 
ATOM     30  N   UNL A   1      46.044  28.368  27.845  1.00  0.00    -0.248 NA
ATOM     31  C   UNL A   1      47.714  29.995  28.010  1.00  0.00     0.031 C 
ATOM     32  C   UNL A   1      46.807  24.104  26.845  1.00  0.00     0.029 A 
ATOM     33  C   UNL A   1      46.591  25.435  27.161  1.00  0.00     0.049 A 
ATOM     34  H   UNL A   1      44.780  26.413  27.631  1.00  0.00     0.167 HD
ATOM     35  C   UNL A   1      47.269  27.792  27.547  1.00  0.00     0.074 A 
ATOM     36  C   UNL A   1      48.258  28.849  27.624  1.00  0.00     0.031 C 
ATOM     37  C   UNL A   1      47.556  26.501  27.254  1.00  0.00     0.037 A 
BRANCH  24  38
ATOM     38  C   UNL A   1      42.645  22.753  27.105  1.00  0.00     0.057 A 
ATOM     39  C   UNL A   1      42.291  21.907  28.164  1.00  0.00     0.134 A 
ATOM     40  C   UNL A   1      42.424  22.283  25.804  1.00  0.00     0.134 A 
ATOM     41  F   UNL A   1      42.488  22.291  29.435  1.00  0.00    -0.206 F 
ATOM     42  C   UNL A   1      41.748  20.640  27.938  1.00  0.00     0.040 A 
ATOM     43  C   UNL A   1      41.861  21.027  25.565  1.00  0.00     0.040 A 
ATOM     44  F   UNL A   1      42.736  23.043  24.743  1.00  0.00    -0.206 F 
ATOM     45  C   UNL A   1      41.524  20.201  26.635  1.00  0.00     0.006 A 
ENDBRANCH  24  38
BRANCH  25  46
ATOM     46  C   UNL A   1      45.817  32.100  28.754  1.00  0.00     0.057 A 
ATOM     47  C   UNL A   1      46.201  32.521  30.031  1.00  0.00     0.134 A 
ATOM     48  C   UNL A   1      45.893  33.037  27.716  1.00  0.00     0.134 A 
ATOM     49  F   UNL A   1      46.137  31.677  31.070  1.00  0.00    -0.206 F 
ATOM     50  C   UNL A   1      46.626  33.830  30.270  1.00  0.00     0.040 A 
ATOM     51  C   UNL A   1      46.348  34.338  27.934  1.00  0.00     0.040 A 
ATOM     52  F   UNL A   1      45.549  32.694  26.465  1.00  0.00    -0.206 F 
ATOM     53  C   UNL A   1      46.707  34.740  29.218  1.00  0.00     0.006 A 
ENDBRANCH  25  46
BRANCH  37  54
ATOM     54  C   UNL A   1      48.996  26.180  26.990  1.00  0.00     0.057 A 
ATOM     55  C   UNL A   1      49.547  26.281  25.705  1.00  0.00     0.134 A 
ATOM     56  C   UNL A   1      49.837  25.755  28.026  1.00  0.00     0.134 A 
ATOM     57  F   UNL A   1      48.788  26.665  24.668  1.00  0.00    -0.206 F 
ATOM     58  C   UNL A   1      50.876  25.939  25.455  1.00  0.00     0.040 A 
ATOM     59  C   UNL A   1      51.174  25.436  27.792  1.00  0.00     0.040 A 
ATOM     60  F   UNL A   1      49.370  25.643  29.279  1.00  0.00    -0.206 F 
ATOM     61  C   UNL A   1      51.694  25.518  26.502  1.00  0.00     0.006 A 
ENDBRANCH  37  54
ENDBRANCH  11  12
ENDBRANCH   4   6
ENDBRANCH   1   2
BRANCH   1  62
ATOM     62  C   UNL A   1      33.283  28.454  27.022  1.00  0.00     0.042 C 
BRANCH  62  63
ATOM     63  C   UNL A   1      33.177  27.497  25.844  1.00  0.00     0.117 C 
BRANCH  63  64
ATOM     64  N   UNL A   1      32.737  26.183  26.254  1.00  0.00    -0.356 N 
ATOM     65  C   UNL A   1      33.269  24.950  26.070  1.00  0.00     0.223 C 
ATOM     66  H   UNL A   1      31.894  26.184  26.761  1.00  0.00     0.163 HD
ATOM     67  O   UNL A   1      32.618  24.008  26.539  1.00  0.00    -0.275 OA
BRANCH  65  68
ATOM     68  C   UNL A   1      34.621  24.665  25.406  1.00  0.00     0.079 C 
ATOM     69  C   UNL A   1      34.522  24.455  23.901  1.00  0.00     0.014 C 
ATOM     70  C   UNL A   1      35.500  23.533  25.939  1.00  0.00     0.026 C 
ATOM     71  C   UNL A   1      34.746  22.969  23.667  1.00  0.00     0.014 C 
ATOM     72  C   UNL A   1      35.688  22.502  24.790  1.00  0.00     0.026 C 
ATOM     73  C   UNL A   1      35.409  21.057  25.257  1.00  0.00     0.074 C 
ATOM     74  C   UNL A   1      37.153  22.429  24.315  1.00  0.00     0.267 C 
ATOM     75  C   UNL A   1      36.664  20.267  24.942  1.00  0.00     0.261 C 
ATOM     76  N   UNL A   1      37.724  21.271  25.017  1.00  0.00    -0.346 N 
ATOM     77  H   UNL A   1      38.570  20.945  24.552  1.00  0.00     0.346 HD
ATOM     78  H   UNL A   1      38.000  21.486  25.976  1.00  0.00     0.346 HD
ENDBRANCH  65  68
ENDBRANCH  63  64
ENDBRANCH  62  63
ENDBRANCH   1  62
TORSDOF 10
ENDMDL
