MODEL 1
REMARK VINA RESULT:     -11.2      0.000      0.000
REMARK SMILES CC[C@](C)(NC(=O)N1CCC[C@@H]1C)C(=O)NCCCNC(=O)c1ccc(-c2c3nc(c(-c4c(F)cccc4F)c4ccc([nH]4)c(-c4c(F)cccc4F)c4nc(c(-c5c(F)cccc5F)c5ccc2[nH]5)C=C4)C=C3)cc1
REMARK SMILES IDX 18 1 17 2 16 3 14 4 15 5 3 7 4 8 2 9 1 10 5 11 6 12 7 14
REMARK SMILES IDX 8 15 9 16 12 17 10 18 11 19 13 20 19 21 20 22 21 23 22 25
REMARK SMILES IDX 23 26 24 27 76 28 25 29 75 30 26 31 27 32 28 33 69 34 29 35
REMARK SMILES IDX 74 36 68 37 70 38 30 39 73 40 67 41 66 42 31 44 57 45 40 46
REMARK SMILES IDX 56 47 41 48 44 49 55 50 71 51 42 52 43 53 54 55 72 56 45 57
REMARK SMILES IDX 32 58 33 59 38 60 34 61 35 62 37 63 39 64 36 65 58 66 59 67
REMARK SMILES IDX 64 68 60 69 61 70 63 71 65 72 62 73 46 74 47 75 52 76 48 77
REMARK SMILES IDX 49 78 51 79 53 80 50 81
REMARK H PARENT 16 6 5 13 20 24 70 43 44 54
REMARK Flexibility Score: inf
ROOT
ATOM      1  C   UNL A   1      31.435  31.574  26.196  1.00  0.00     0.042 C 
ENDROOT
BRANCH   1   2
ATOM      2  C   UNL A   1      31.543  30.140  25.658  1.00  0.00     0.117 C 
BRANCH   2   3
ATOM      3  N   UNL A   1      32.637  29.728  24.784  1.00  0.00    -0.354 N 
ATOM      4  C   UNL A   1      32.746  28.973  23.644  1.00  0.00     0.245 C 
ATOM      5  O   UNL A   1      33.832  29.033  23.053  1.00  0.00    -0.272 OA
ATOM      6  H   UNL A   1      33.508  30.075  25.087  1.00  0.00     0.163 HD
BRANCH   4   7
ATOM      7  C   UNL A   1      31.562  28.183  23.040  1.00  0.00     0.117 C 
ATOM      8  C   UNL A   1      30.456  29.048  22.406  1.00  0.00     0.045 C 
BRANCH   7   9
ATOM      9  C   UNL A   1      30.906  27.379  24.218  1.00  0.00     0.035 C 
ATOM     10  C   UNL A   1      29.568  26.709  23.895  1.00  0.00     0.007 C 
ENDBRANCH   7   9
BRANCH   7  11
ATOM     11  N   UNL A   1      32.082  27.252  22.028  1.00  0.00    -0.324 N 
ATOM     12  C   UNL A   1      32.775  26.105  22.010  1.00  0.00     0.318 C 
ATOM     13  H   UNL A   1      31.861  27.552  21.117  1.00  0.00     0.166 HD
ATOM     14  O   UNL A   1      33.255  25.852  20.896  1.00  0.00    -0.249 OA
BRANCH  12  15
ATOM     15  N   UNL A   1      32.977  25.259  23.055  1.00  0.00    -0.322 N 
ATOM     16  C   UNL A   1      34.093  25.600  23.930  1.00  0.00     0.122 C 
ATOM     17  C   UNL A   1      32.298  24.061  23.607  1.00  0.00     0.083 C 
ATOM     18  C   UNL A   1      33.648  25.145  25.304  1.00  0.00     0.024 C 
ATOM     19  C   UNL A   1      32.925  23.851  25.006  1.00  0.00     0.027 C 
ATOM     20  C   UNL A   1      32.545  22.752  22.859  1.00  0.00     0.031 C 
ENDBRANCH  12  15
ENDBRANCH   7  11
ENDBRANCH   4   7
ENDBRANCH   2   3
ENDBRANCH   1   2
BRANCH   1  21
ATOM     21  C   UNL A   1      32.571  32.235  26.977  1.00  0.00     0.118 C 
BRANCH  21  22
ATOM     22  N   UNL A   1      32.324  33.594  27.414  1.00  0.00    -0.352 N 
ATOM     23  C   UNL A   1      33.048  34.363  28.299  1.00  0.00     0.251 C 
ATOM     24  H   UNL A   1      31.531  34.027  27.026  1.00  0.00     0.163 HD
ATOM     25  O   UNL A   1      32.679  35.496  28.569  1.00  0.00    -0.269 OA
BRANCH  23  26
ATOM     26  C   UNL A   1      34.253  33.810  28.962  1.00  0.00     0.039 A 
ATOM     27  C   UNL A   1      34.071  32.892  30.000  1.00  0.00     0.014 A 
ATOM     28  C   UNL A   1      35.544  34.209  28.602  1.00  0.00     0.014 A 
ATOM     29  C   UNL A   1      35.181  32.320  30.632  1.00  0.00     0.010 A 
ATOM     30  C   UNL A   1      36.655  33.617  29.217  1.00  0.00     0.010 A 
ATOM     31  C   UNL A   1      36.484  32.654  30.225  1.00  0.00    -0.014 A 
BRANCH  31  32
ATOM     32  C   UNL A   1      37.656  31.944  30.808  1.00  0.00     0.031 A 
ATOM     33  C   UNL A   1      38.175  32.283  32.176  1.00  0.00     0.074 A 
ATOM     34  C   UNL A   1      38.278  30.998  30.077  1.00  0.00     0.049 A 
ATOM     35  N   UNL A   1      39.182  31.759  32.831  1.00  0.00    -0.248 NA
ATOM     36  C   UNL A   1      37.483  33.359  32.899  1.00  0.00     0.031 C 
ATOM     37  C   UNL A   1      37.899  30.598  28.722  1.00  0.00     0.029 A 
ATOM     38  N   UNL A   1      39.360  30.204  30.369  1.00  0.00    -0.354 N 
ATOM     39  C   UNL A   1      39.247  32.438  34.041  1.00  0.00     0.074 A 
ATOM     40  C   UNL A   1      38.201  33.441  34.012  1.00  0.00     0.031 C 
ATOM     41  C   UNL A   1      38.724  29.623  28.305  1.00  0.00     0.029 A 
ATOM     42  C   UNL A   1      39.706  29.349  29.350  1.00  0.00     0.049 A 
ATOM     43  H   UNL A   1      39.843  30.245  31.225  1.00  0.00     0.167 HD
ATOM     44  C   UNL A   1      40.089  32.235  35.084  1.00  0.00     0.037 A 
ATOM     45  C   UNL A   1      40.703  28.448  29.263  1.00  0.00     0.037 A 
ATOM     46  C   UNL A   1      41.125  31.234  35.118  1.00  0.00     0.049 A 
ATOM     47  C   UNL A   1      41.633  28.255  30.426  1.00  0.00     0.074 A 
ATOM     48  C   UNL A   1      41.990  30.923  36.154  1.00  0.00     0.029 A 
ATOM     49  N   UNL A   1      41.445  30.389  34.067  1.00  0.00    -0.354 N 
ATOM     50  N   UNL A   1      41.634  28.855  31.592  1.00  0.00    -0.248 NA
ATOM     51  C   UNL A   1      42.700  27.256  30.264  1.00  0.00     0.031 C 
ATOM     52  C   UNL A   1      42.860  29.919  35.715  1.00  0.00     0.029 A 
ATOM     53  C   UNL A   1      42.510  29.575  34.420  1.00  0.00     0.049 A 
ATOM     54  H   UNL A   1      40.985  30.371  33.196  1.00  0.00     0.167 HD
ATOM     55  C   UNL A   1      42.682  28.291  32.309  1.00  0.00     0.074 A 
ATOM     56  C   UNL A   1      43.286  27.291  31.453  1.00  0.00     0.031 C 
ATOM     57  C   UNL A   1      43.104  28.580  33.564  1.00  0.00     0.037 A 
BRANCH  44  58
ATOM     58  C   UNL A   1      39.926  33.120  36.287  1.00  0.00     0.057 A 
ATOM     59  C   UNL A   1      40.638  34.320  36.421  1.00  0.00     0.134 A 
ATOM     60  C   UNL A   1      39.014  32.794  37.300  1.00  0.00     0.134 A 
ATOM     61  F   UNL A   1      41.529  34.688  35.489  1.00  0.00    -0.206 F 
ATOM     62  C   UNL A   1      40.469  35.149  37.531  1.00  0.00     0.040 A 
ATOM     63  C   UNL A   1      38.820  33.627  38.402  1.00  0.00     0.040 A 
ATOM     64  F   UNL A   1      38.291  31.666  37.228  1.00  0.00    -0.206 F 
ATOM     65  C   UNL A   1      39.552  34.806  38.524  1.00  0.00     0.006 A 
ENDBRANCH  44  58
BRANCH  45  66
ATOM     66  C   UNL A   1      40.863  27.639  28.028  1.00  0.00     0.057 A 
ATOM     67  C   UNL A   1      41.626  28.108  26.952  1.00  0.00     0.134 A 
ATOM     68  C   UNL A   1      40.252  26.388  27.891  1.00  0.00     0.134 A 
ATOM     69  F   UNL A   1      42.218  29.309  27.017  1.00  0.00    -0.206 F 
ATOM     70  C   UNL A   1      41.762  27.367  25.776  1.00  0.00     0.040 A 
ATOM     71  C   UNL A   1      40.399  25.626  26.731  1.00  0.00     0.040 A 
ATOM     72  F   UNL A   1      39.511  25.883  28.888  1.00  0.00    -0.206 F 
ATOM     73  C   UNL A   1      41.152  26.119  25.666  1.00  0.00     0.006 A 
ENDBRANCH  45  66
BRANCH  57  74
ATOM     74  C   UNL A   1      44.260  27.787  34.099  1.00  0.00     0.057 A 
ATOM     75  C   UNL A   1      45.579  28.249  34.004  1.00  0.00     0.134 A 
ATOM     76  C   UNL A   1      44.049  26.562  34.747  1.00  0.00     0.134 A 
ATOM     77  F   UNL A   1      45.851  29.405  33.381  1.00  0.00    -0.206 F 
ATOM     78  C   UNL A   1      46.649  27.512  34.518  1.00  0.00     0.040 A 
ATOM     79  C   UNL A   1      45.107  25.829  35.286  1.00  0.00     0.040 A 
ATOM     80  F   UNL A   1      42.810  26.066  34.877  1.00  0.00    -0.206 F 
ATOM     81  C   UNL A   1      46.413  26.302  35.168  1.00  0.00     0.006 A 
ENDBRANCH  57  74
ENDBRANCH  31  32
ENDBRANCH  23  26
ENDBRANCH  21  22
ENDBRANCH   1  21
TORSDOF 13
ENDMDL
MODEL 2
REMARK VINA RESULT:     -11.2      5.078     10.030
REMARK SMILES CC[C@](C)(NC(=O)N1CCC[C@@H]1C)C(=O)NCCCNC(=O)c1ccc(-c2c3nc(c(-c4c(F)cccc4F)c4ccc([nH]4)c(-c4c(F)cccc4F)c4nc(c(-c5c(F)cccc5F)c5ccc2[nH]5)C=C4)C=C3)cc1
REMARK SMILES IDX 18 1 17 2 16 3 14 4 15 5 3 7 4 8 2 9 1 10 5 11 6 12 7 14
REMARK SMILES IDX 8 15 9 16 12 17 10 18 11 19 13 20 19 21 20 22 21 23 22 25
REMARK SMILES IDX 23 26 24 27 76 28 25 29 75 30 26 31 27 32 28 33 69 34 29 35
REMARK SMILES IDX 74 36 68 37 70 38 30 39 73 40 67 41 66 42 31 44 57 45 40 46
REMARK SMILES IDX 56 47 41 48 44 49 55 50 71 51 42 52 43 53 54 55 72 56 45 57
REMARK SMILES IDX 32 58 33 59 38 60 34 61 35 62 37 63 39 64 36 65 58 66 59 67
REMARK SMILES IDX 64 68 60 69 61 70 63 71 65 72 62 73 46 74 47 75 52 76 48 77
REMARK SMILES IDX 49 78 51 79 53 80 50 81
REMARK H PARENT 16 6 5 13 20 24 70 43 44 54
REMARK Flexibility Score: inf
ROOT
ATOM      1  C   UNL A   1      37.558  19.740  24.999  1.00  0.00     0.042 C 
ENDROOT
BRANCH   1   2
ATOM      2  C   UNL A   1      36.355  20.691  24.926  1.00  0.00     0.117 C 
BRANCH   2   3
ATOM      3  N   UNL A   1      35.759  21.269  26.126  1.00  0.00    -0.354 N 
ATOM      4  C   UNL A   1      34.480  21.487  26.575  1.00  0.00     0.245 C 
ATOM      5  O   UNL A   1      34.368  21.802  27.767  1.00  0.00    -0.272 OA
ATOM      6  H   UNL A   1      36.438  21.577  26.770  1.00  0.00     0.163 HD
BRANCH   4   7
ATOM      7  C   UNL A   1      33.228  21.239  25.703  1.00  0.00     0.117 C 
ATOM      8  C   UNL A   1      32.889  19.758  25.453  1.00  0.00     0.045 C 
BRANCH   7   9
ATOM      9  C   UNL A   1      33.512  21.893  24.305  1.00  0.00     0.035 C 
ATOM     10  C   UNL A   1      32.486  21.587  23.212  1.00  0.00     0.007 C 
ENDBRANCH   7   9
BRANCH   7  11
ATOM     11  N   UNL A   1      32.074  21.895  26.336  1.00  0.00    -0.324 N 
ATOM     12  C   UNL A   1      31.615  23.145  26.490  1.00  0.00     0.318 C 
ATOM     13  H   UNL A   1      31.478  21.239  26.763  1.00  0.00     0.166 HD
ATOM     14  O   UNL A   1      30.755  23.235  27.377  1.00  0.00    -0.249 OA
BRANCH  12  15
ATOM     15  N   UNL A   1      32.000  24.245  25.790  1.00  0.00    -0.322 N 
ATOM     16  C   UNL A   1      33.190  24.922  26.293  1.00  0.00     0.122 C 
ATOM     17  C   UNL A   1      31.550  24.941  24.559  1.00  0.00     0.083 C 
ATOM     18  C   UNL A   1      33.864  25.471  25.053  1.00  0.00     0.024 C 
ATOM     19  C   UNL A   1      32.692  25.927  24.214  1.00  0.00     0.027 C 
ATOM     20  C   UNL A   1      30.302  25.811  24.704  1.00  0.00     0.031 C 
ENDBRANCH  12  15
ENDBRANCH   7  11
ENDBRANCH   4   7
ENDBRANCH   2   3
ENDBRANCH   1   2
BRANCH   1  21
ATOM     21  C   UNL A   1      38.842  20.113  25.739  1.00  0.00     0.118 C 
BRANCH  21  22
ATOM     22  N   UNL A   1      39.890  19.113  25.719  1.00  0.00    -0.352 N 
ATOM     23  C   UNL A   1      41.220  19.246  26.054  1.00  0.00     0.251 C 
ATOM     24  H   UNL A   1      39.614  18.215  25.426  1.00  0.00     0.163 HD
ATOM     25  O   UNL A   1      41.974  18.289  25.958  1.00  0.00    -0.269 OA
BRANCH  23  26
ATOM     26  C   UNL A   1      41.756  20.557  26.492  1.00  0.00     0.039 A 
ATOM     27  C   UNL A   1      42.261  21.421  25.515  1.00  0.00     0.014 A 
ATOM     28  C   UNL A   1      41.799  20.926  27.839  1.00  0.00     0.014 A 
ATOM     29  C   UNL A   1      42.746  22.682  25.880  1.00  0.00     0.010 A 
ATOM     30  C   UNL A   1      42.261  22.198  28.201  1.00  0.00     0.010 A 
ATOM     31  C   UNL A   1      42.723  23.094  27.222  1.00  0.00    -0.014 A 
BRANCH  31  32
ATOM     32  C   UNL A   1      43.114  24.484  27.586  1.00  0.00     0.031 A 
ATOM     33  C   UNL A   1      44.551  24.922  27.568  1.00  0.00     0.074 A 
ATOM     34  C   UNL A   1      42.159  25.355  27.967  1.00  0.00     0.049 A 
ATOM     35  N   UNL A   1      45.061  26.095  27.852  1.00  0.00    -0.248 NA
ATOM     36  C   UNL A   1      45.548  23.909  27.192  1.00  0.00     0.031 C 
ATOM     37  C   UNL A   1      40.732  25.049  28.064  1.00  0.00     0.029 A 
ATOM     38  N   UNL A   1      42.245  26.673  28.346  1.00  0.00    -0.354 N 
ATOM     39  C   UNL A   1      46.435  25.965  27.693  1.00  0.00     0.074 A 
ATOM     40  C   UNL A   1      46.682  24.585  27.325  1.00  0.00     0.031 C 
ATOM     41  C   UNL A   1      40.073  26.151  28.460  1.00  0.00     0.029 A 
ATOM     42  C   UNL A   1      41.031  27.231  28.671  1.00  0.00     0.049 A 
ATOM     43  H   UNL A   1      43.093  27.169  28.383  1.00  0.00     0.167 HD
ATOM     44  C   UNL A   1      47.398  26.909  27.826  1.00  0.00     0.037 A 
ATOM     45  C   UNL A   1      40.723  28.472  29.096  1.00  0.00     0.037 A 
ATOM     46  C   UNL A   1      47.155  28.284  28.186  1.00  0.00     0.049 A 
ATOM     47  C   UNL A   1      41.812  29.495  29.252  1.00  0.00     0.074 A 
ATOM     48  C   UNL A   1      48.065  29.322  28.292  1.00  0.00     0.029 A 
ATOM     49  N   UNL A   1      45.914  28.810  28.509  1.00  0.00    -0.354 N 
ATOM     50  N   UNL A   1      43.098  29.375  29.025  1.00  0.00    -0.248 NA
ATOM     51  C   UNL A   1      41.407  30.828  29.720  1.00  0.00     0.031 C 
ATOM     52  C   UNL A   1      47.381  30.465  28.720  1.00  0.00     0.029 A 
ATOM     53  C   UNL A   1      46.038  30.151  28.839  1.00  0.00     0.049 A 
ATOM     54  H   UNL A   1      45.068  28.305  28.506  1.00  0.00     0.167 HD
ATOM     55  C   UNL A   1      43.650  30.619  29.299  1.00  0.00     0.074 A 
ATOM     56  C   UNL A   1      42.559  31.485  29.694  1.00  0.00     0.031 C 
ATOM     57  C   UNL A   1      44.947  31.007  29.229  1.00  0.00     0.037 A 
BRANCH  44  58
ATOM     58  C   UNL A   1      48.819  26.488  27.581  1.00  0.00     0.057 A 
ATOM     59  C   UNL A   1      49.644  26.039  28.621  1.00  0.00     0.134 A 
ATOM     60  C   UNL A   1      49.354  26.486  26.286  1.00  0.00     0.134 A 
ATOM     61  F   UNL A   1      49.195  26.020  29.885  1.00  0.00    -0.206 F 
ATOM     62  C   UNL A   1      50.958  25.630  28.385  1.00  0.00     0.040 A 
ATOM     63  C   UNL A   1      50.658  26.056  26.036  1.00  0.00     0.040 A 
ATOM     64  F   UNL A   1      48.614  26.892  25.243  1.00  0.00    -0.206 F 
ATOM     65  C   UNL A   1      51.466  25.632  27.088  1.00  0.00     0.006 A 
ENDBRANCH  44  58
BRANCH  45  66
ATOM     66  C   UNL A   1      39.311  28.824  29.386  1.00  0.00     0.057 A 
ATOM     67  C   UNL A   1      38.758  28.605  30.652  1.00  0.00     0.134 A 
ATOM     68  C   UNL A   1      38.480  29.378  28.405  1.00  0.00     0.134 A 
ATOM     69  F   UNL A   1      39.498  28.058  31.627  1.00  0.00    -0.206 F 
ATOM     70  C   UNL A   1      37.423  28.909  30.930  1.00  0.00     0.040 A 
ATOM     71  C   UNL A   1      37.152  29.709  28.675  1.00  0.00     0.040 A 
ATOM     72  F   UNL A   1      38.953  29.615  27.173  1.00  0.00    -0.206 F 
ATOM     73  C   UNL A   1      36.618  29.469  29.939  1.00  0.00     0.006 A 
ENDBRANCH  45  66
BRANCH  57  74
ATOM     74  C   UNL A   1      45.255  32.437  29.564  1.00  0.00     0.057 A 
ATOM     75  C   UNL A   1      45.636  32.827  30.854  1.00  0.00     0.134 A 
ATOM     76  C   UNL A   1      45.203  33.430  28.576  1.00  0.00     0.134 A 
ATOM     77  F   UNL A   1      45.691  31.928  31.847  1.00  0.00    -0.206 F 
ATOM     78  C   UNL A   1      45.938  34.158  31.154  1.00  0.00     0.040 A 
ATOM     79  C   UNL A   1      45.525  34.758  28.858  1.00  0.00     0.040 A 
ATOM     80  F   UNL A   1      44.850  33.122  27.319  1.00  0.00    -0.206 F 
ATOM     81  C   UNL A   1      45.888  35.126  30.152  1.00  0.00     0.006 A 
ENDBRANCH  57  74
ENDBRANCH  31  32
ENDBRANCH  23  26
ENDBRANCH  21  22
ENDBRANCH   1  21
TORSDOF 13
ENDMDL
MODEL 3
REMARK VINA RESULT:     -11.2      4.563      9.342
REMARK SMILES CC[C@](C)(NC(=O)N1CCC[C@@H]1C)C(=O)NCCCNC(=O)c1ccc(-c2c3nc(c(-c4c(F)cccc4F)c4ccc([nH]4)c(-c4c(F)cccc4F)c4nc(c(-c5c(F)cccc5F)c5ccc2[nH]5)C=C4)C=C3)cc1
REMARK SMILES IDX 18 1 17 2 16 3 14 4 15 5 3 7 4 8 2 9 1 10 5 11 6 12 7 14
REMARK SMILES IDX 8 15 9 16 12 17 10 18 11 19 13 20 19 21 20 22 21 23 22 25
REMARK SMILES IDX 23 26 24 27 76 28 25 29 75 30 26 31 27 32 28 33 69 34 29 35
REMARK SMILES IDX 74 36 68 37 70 38 30 39 73 40 67 41 66 42 31 44 57 45 40 46
REMARK SMILES IDX 56 47 41 48 44 49 55 50 71 51 42 52 43 53 54 55 72 56 45 57
REMARK SMILES IDX 32 58 33 59 38 60 34 61 35 62 37 63 39 64 36 65 58 66 59 67
REMARK SMILES IDX 64 68 60 69 61 70 63 71 65 72 62 73 46 74 47 75 52 76 48 77
REMARK SMILES IDX 49 78 51 79 53 80 50 81
REMARK H PARENT 16 6 5 13 20 24 70 43 44 54
REMARK Flexibility Score: inf
ROOT
ATOM      1  C   UNL A   1      37.723  20.255  24.720  1.00  0.00     0.042 C 
ENDROOT
BRANCH   1   2
ATOM      2  C   UNL A   1      36.219  20.345  25.018  1.00  0.00     0.117 C 
BRANCH   2   3
ATOM      3  N   UNL A   1      35.700  21.165  26.108  1.00  0.00    -0.354 N 
ATOM      4  C   UNL A   1      34.455  21.576  26.514  1.00  0.00     0.245 C 
ATOM      5  O   UNL A   1      34.393  22.091  27.638  1.00  0.00    -0.272 OA
ATOM      6  H   UNL A   1      36.415  21.507  26.691  1.00  0.00     0.163 HD
BRANCH   4   7
ATOM      7  C   UNL A   1      33.171  21.312  25.695  1.00  0.00     0.117 C 
ATOM      8  C   UNL A   1      32.794  19.827  25.532  1.00  0.00     0.045 C 
BRANCH   7   9
ATOM      9  C   UNL A   1      33.424  21.888  24.258  1.00  0.00     0.035 C 
ATOM     10  C   UNL A   1      32.367  21.535  23.209  1.00  0.00     0.007 C 
ENDBRANCH   7   9
BRANCH   7  11
ATOM     11  N   UNL A   1      32.052  22.024  26.329  1.00  0.00    -0.324 N 
ATOM     12  C   UNL A   1      31.627  23.290  26.438  1.00  0.00     0.318 C 
ATOM     13  H   UNL A   1      31.452  21.403  26.801  1.00  0.00     0.166 HD
ATOM     14  O   UNL A   1      30.795  23.441  27.343  1.00  0.00    -0.249 OA
BRANCH  12  15
ATOM     15  N   UNL A   1      32.018  24.349  25.680  1.00  0.00    -0.322 N 
ATOM     16  C   UNL A   1      33.206  25.051  26.151  1.00  0.00     0.122 C 
ATOM     17  C   UNL A   1      31.578  24.974  24.408  1.00  0.00     0.083 C 
ATOM     18  C   UNL A   1      33.889  25.528  24.886  1.00  0.00     0.024 C 
ATOM     19  C   UNL A   1      32.723  25.937  24.015  1.00  0.00     0.027 C 
ATOM     20  C   UNL A   1      30.330  25.852  24.495  1.00  0.00     0.031 C 
ENDBRANCH  12  15
ENDBRANCH   7  11
ENDBRANCH   4   7
ENDBRANCH   2   3
ENDBRANCH   1   2
BRANCH   1  21
ATOM     21  C   UNL A   1      38.775  20.346  25.824  1.00  0.00     0.118 C 
BRANCH  21  22
ATOM     22  N   UNL A   1      39.879  19.414  25.717  1.00  0.00    -0.352 N 
ATOM     23  C   UNL A   1      41.197  19.590  26.078  1.00  0.00     0.251 C 
ATOM     24  H   UNL A   1      39.657  18.536  25.334  1.00  0.00     0.163 HD
ATOM     25  O   UNL A   1      42.006  18.692  25.896  1.00  0.00    -0.269 OA
BRANCH  23  26
ATOM     26  C   UNL A   1      41.654  20.879  26.649  1.00  0.00     0.039 A 
ATOM     27  C   UNL A   1      42.142  21.852  25.771  1.00  0.00     0.014 A 
ATOM     28  C   UNL A   1      41.641  21.125  28.025  1.00  0.00     0.014 A 
ATOM     29  C   UNL A   1      42.552  23.096  26.263  1.00  0.00     0.010 A 
ATOM     30  C   UNL A   1      42.028  22.379  28.514  1.00  0.00     0.010 A 
ATOM     31  C   UNL A   1      42.471  23.382  27.636  1.00  0.00    -0.014 A 
BRANCH  31  32
ATOM     32  C   UNL A   1      42.782  24.750  28.135  1.00  0.00     0.031 A 
ATOM     33  C   UNL A   1      44.184  25.151  28.497  1.00  0.00     0.074 A 
ATOM     34  C   UNL A   1      41.777  25.634  28.293  1.00  0.00     0.049 A 
ATOM     35  N   UNL A   1      44.625  26.302  28.942  1.00  0.00    -0.248 NA
ATOM     36  C   UNL A   1      45.225  24.124  28.351  1.00  0.00     0.031 C 
ATOM     37  C   UNL A   1      40.366  25.362  28.015  1.00  0.00     0.029 A 
ATOM     38  N   UNL A   1      41.786  26.937  28.727  1.00  0.00    -0.354 N 
ATOM     39  C   UNL A   1      45.992  26.140  29.132  1.00  0.00     0.074 A 
ATOM     40  C   UNL A   1      46.300  24.766  28.790  1.00  0.00     0.031 C 
ATOM     41  C   UNL A   1      39.648  26.469  28.269  1.00  0.00     0.029 A 
ATOM     42  C   UNL A   1      40.540  27.517  28.753  1.00  0.00     0.049 A 
ATOM     43  H   UNL A   1      42.606  27.410  28.995  1.00  0.00     0.167 HD
ATOM     44  C   UNL A   1      46.906  27.055  29.538  1.00  0.00     0.037 A 
ATOM     45  C   UNL A   1      40.156  28.752  29.130  1.00  0.00     0.037 A 
ATOM     46  C   UNL A   1      46.604  28.424  29.873  1.00  0.00     0.049 A 
ATOM     47  C   UNL A   1      41.188  29.741  29.593  1.00  0.00     0.074 A 
ATOM     48  C   UNL A   1      47.476  29.435  30.242  1.00  0.00     0.029 A 
ATOM     49  N   UNL A   1      45.331  28.972  29.889  1.00  0.00    -0.354 N 
ATOM     50  N   UNL A   1      42.486  29.595  29.695  1.00  0.00    -0.248 NA
ATOM     51  C   UNL A   1      40.701  31.071  29.989  1.00  0.00     0.031 C 
ATOM     52  C   UNL A   1      46.726  30.582  30.522  1.00  0.00     0.029 A 
ATOM     53  C   UNL A   1      45.391  30.299  30.286  1.00  0.00     0.049 A 
ATOM     54  H   UNL A   1      44.505  28.490  29.654  1.00  0.00     0.167 HD
ATOM     55  C   UNL A   1      42.973  30.816  30.143  1.00  0.00     0.074 A 
ATOM     56  C   UNL A   1      41.833  31.697  30.279  1.00  0.00     0.031 C 
ATOM     57  C   UNL A   1      44.252  31.171  30.417  1.00  0.00     0.037 A 
BRANCH  44  58
ATOM     58  C   UNL A   1      48.335  26.604  29.645  1.00  0.00     0.057 A 
ATOM     59  C   UNL A   1      49.249  26.795  28.600  1.00  0.00     0.134 A 
ATOM     60  C   UNL A   1      48.815  26.014  30.822  1.00  0.00     0.134 A 
ATOM     61  F   UNL A   1      48.852  27.350  27.445  1.00  0.00    -0.206 F 
ATOM     62  C   UNL A   1      50.580  26.393  28.711  1.00  0.00     0.040 A 
ATOM     63  C   UNL A   1      50.151  25.630  30.953  1.00  0.00     0.040 A 
ATOM     64  F   UNL A   1      47.997  25.813  31.866  1.00  0.00    -0.206 F 
ATOM     65  C   UNL A   1      51.037  25.814  29.894  1.00  0.00     0.006 A 
ENDBRANCH  44  58
BRANCH  45  66
ATOM     66  C   UNL A   1      38.723  29.132  29.065  1.00  0.00     0.057 A 
ATOM     67  C   UNL A   1      38.149  29.586  27.872  1.00  0.00     0.134 A 
ATOM     68  C   UNL A   1      37.897  29.060  30.193  1.00  0.00     0.134 A 
ATOM     69  F   UNL A   1      38.895  29.697  26.764  1.00  0.00    -0.206 F 
ATOM     70  C   UNL A   1      36.808  29.970  27.806  1.00  0.00     0.040 A 
ATOM     71  C   UNL A   1      36.549  29.418  30.135  1.00  0.00     0.040 A 
ATOM     72  F   UNL A   1      38.387  28.630  31.365  1.00  0.00    -0.206 F 
ATOM     73  C   UNL A   1      36.003  29.881  28.940  1.00  0.00     0.006 A 
ENDBRANCH  45  66
BRANCH  57  74
ATOM     74  C   UNL A   1      44.490  32.582  30.869  1.00  0.00     0.057 A 
ATOM     75  C   UNL A   1      44.710  33.622  29.958  1.00  0.00     0.134 A 
ATOM     76  C   UNL A   1      44.467  32.910  32.232  1.00  0.00     0.134 A 
ATOM     77  F   UNL A   1      44.760  33.372  28.641  1.00  0.00    -0.206 F 
ATOM     78  C   UNL A   1      44.916  34.936  30.385  1.00  0.00     0.040 A 
ATOM     79  C   UNL A   1      44.647  34.223  32.670  1.00  0.00     0.040 A 
ATOM     80  F   UNL A   1      44.257  31.962  33.157  1.00  0.00    -0.206 F 
ATOM     81  C   UNL A   1      44.878  35.240  31.745  1.00  0.00     0.006 A 
ENDBRANCH  57  74
ENDBRANCH  31  32
ENDBRANCH  23  26
ENDBRANCH  21  22
ENDBRANCH   1  21
TORSDOF 13
ENDMDL
