MODEL 1
REMARK VINA RESULT:     -11.9      0.000      0.000
REMARK SMILES Cc1ccccc1OCC(=O)NCCC(=O)NCCCNC(=O)c1ccc(-c2c3nc(c(-c4c(F)cccc4F)c4ccc([nH]4)c(-c4c(F)cccc4F)c4nc(c(-c5c(F)cccc5F)c5ccc2[nH]5)C=C4)C=C3)cc1
REMARK SMILES IDX 15 1 16 2 17 3 14 5 13 6 12 7 10 8 11 9 9 11 8 12 7 13 1 14
REMARK SMILES IDX 2 15 3 16 4 17 6 18 5 19 18 20 19 21 20 22 21 23 22 24 23 26
REMARK SMILES IDX 24 27 25 28 77 29 26 30 76 31 27 32 28 33 29 34 70 35 30 36
REMARK SMILES IDX 75 37 69 38 71 39 31 40 74 41 68 42 67 43 32 45 58 46 41 47
REMARK SMILES IDX 57 48 42 49 45 50 56 51 72 52 43 53 44 54 55 56 73 57 46 58
REMARK SMILES IDX 33 59 34 60 39 61 35 62 36 63 38 64 40 65 37 66 59 67 60 68
REMARK SMILES IDX 65 69 61 70 62 71 64 72 66 73 63 74 47 75 48 76 53 77 49 78
REMARK SMILES IDX 50 79 52 80 54 81 51 82
REMARK H PARENT 17 4 12 10 21 25 71 44 45 55
REMARK Flexibility Score: inf
ROOT
ATOM      1  C   UNL A   1      32.804  28.958  23.830  1.00  0.00     0.221 C 
ATOM      2  O   UNL A   1      33.849  28.513  23.353  1.00  0.00    -0.275 OA
ATOM      3  N   UNL A   1      32.881  29.743  24.945  1.00  0.00    -0.356 N 
ATOM      4  H   UNL A   1      33.791  30.007  25.210  1.00  0.00     0.163 HD
ENDROOT
BRANCH   1   5
ATOM      5  C   UNL A   1      31.467  28.648  23.193  1.00  0.00     0.121 C 
BRANCH   5   6
ATOM      6  C   UNL A   1      31.256  27.154  22.973  1.00  0.00     0.126 C 
BRANCH   6   7
ATOM      7  N   UNL A   1      31.743  26.685  21.686  1.00  0.00    -0.353 N 
ATOM      8  C   UNL A   1      32.778  25.837  21.402  1.00  0.00     0.257 C 
ATOM      9  O   UNL A   1      33.074  25.648  20.220  1.00  0.00    -0.271 OA
ATOM     10  H   UNL A   1      31.256  27.029  20.903  1.00  0.00     0.163 HD
BRANCH   8  11
ATOM     11  C   UNL A   1      33.484  25.091  22.534  1.00  0.00     0.329 C 
BRANCH  11  12
ATOM     12  O   UNL A   1      33.819  23.746  22.310  1.00  0.00    -0.484 OA
BRANCH  12  13
ATOM     13  C   UNL A   1      34.419  22.924  23.212  1.00  0.00     0.122 A 
ATOM     14  C   UNL A   1      32.495  21.481  24.223  1.00  0.00     0.048 C 
ATOM     15  C   UNL A   1      33.921  21.917  24.049  1.00  0.00    -0.009 A 
ATOM     16  C   UNL A   1      34.854  21.169  24.815  1.00  0.00     0.007 A 
ATOM     17  C   UNL A   1      36.221  21.440  24.802  1.00  0.00     0.001 A 
ATOM     18  C   UNL A   1      35.807  23.190  23.225  1.00  0.00     0.047 A 
ATOM     19  C   UNL A   1      36.700  22.467  24.010  1.00  0.00     0.004 A 
ENDBRANCH  12  13
ENDBRANCH  11  12
ENDBRANCH   8  11
ENDBRANCH   6   7
ENDBRANCH   5   6
ENDBRANCH   1   5
BRANCH   3  20
ATOM     20  C   UNL A   1      31.814  30.247  25.798  1.00  0.00     0.117 C 
BRANCH  20  21
ATOM     21  C   UNL A   1      32.384  30.998  26.992  1.00  0.00     0.042 C 
BRANCH  21  22
ATOM     22  C   UNL A   1      33.755  30.519  27.440  1.00  0.00     0.118 C 
BRANCH  22  23
ATOM     23  N   UNL A   1      34.424  31.458  28.343  1.00  0.00    -0.352 N 
ATOM     24  C   UNL A   1      35.639  31.328  29.000  1.00  0.00     0.251 C 
ATOM     25  H   UNL A   1      33.944  32.300  28.507  1.00  0.00     0.163 HD
ATOM     26  O   UNL A   1      36.106  32.253  29.641  1.00  0.00    -0.269 OA
BRANCH  24  27
ATOM     27  C   UNL A   1      36.429  30.096  28.777  1.00  0.00     0.039 A 
ATOM     28  C   UNL A   1      36.628  29.259  29.877  1.00  0.00     0.014 A 
ATOM     29  C   UNL A   1      37.189  29.953  27.621  1.00  0.00     0.014 A 
ATOM     30  C   UNL A   1      37.783  28.490  29.931  1.00  0.00     0.010 A 
ATOM     31  C   UNL A   1      38.390  29.277  27.716  1.00  0.00     0.010 A 
ATOM     32  C   UNL A   1      38.720  28.622  28.908  1.00  0.00    -0.014 A 
BRANCH  32  33
ATOM     33  C   UNL A   1      40.113  28.234  29.077  1.00  0.00     0.031 A 
ATOM     34  C   UNL A   1      40.567  26.894  28.664  1.00  0.00     0.074 A 
ATOM     35  C   UNL A   1      40.996  29.129  29.579  1.00  0.00     0.049 A 
ATOM     36  N   UNL A   1      41.660  26.347  29.079  1.00  0.00    -0.248 NA
ATOM     37  C   UNL A   1      39.773  26.011  27.809  1.00  0.00     0.031 C 
ATOM     38  C   UNL A   1      42.455  29.048  29.564  1.00  0.00     0.029 A 
ATOM     39  N   UNL A   1      40.719  30.208  30.436  1.00  0.00    -0.354 N 
ATOM     40  C   UNL A   1      41.870  25.232  28.308  1.00  0.00     0.074 A 
ATOM     41  C   UNL A   1      40.609  24.978  27.665  1.00  0.00     0.031 C 
ATOM     42  C   UNL A   1      42.943  29.805  30.559  1.00  0.00     0.029 A 
ATOM     43  C   UNL A   1      41.807  30.270  31.337  1.00  0.00     0.049 A 
ATOM     44  H   UNL A   1      39.931  30.797  30.415  1.00  0.00     0.167 HD
ATOM     45  C   UNL A   1      43.140  24.764  28.173  1.00  0.00     0.037 A 
ATOM     46  C   UNL A   1      41.646  30.064  32.677  1.00  0.00     0.037 A 
ATOM     47  C   UNL A   1      44.018  25.318  29.205  1.00  0.00     0.049 A 
ATOM     48  C   UNL A   1      42.474  28.930  33.233  1.00  0.00     0.074 A 
ATOM     49  C   UNL A   1      45.046  26.243  29.191  1.00  0.00     0.029 A 
ATOM     50  N   UNL A   1      43.710  25.091  30.546  1.00  0.00    -0.354 N 
ATOM     51  N   UNL A   1      43.017  27.998  32.499  1.00  0.00    -0.248 NA
ATOM     52  C   UNL A   1      42.721  28.729  34.660  1.00  0.00     0.031 C 
ATOM     53  C   UNL A   1      45.271  26.660  30.531  1.00  0.00     0.029 A 
ATOM     54  C   UNL A   1      44.420  25.948  31.362  1.00  0.00     0.049 A 
ATOM     55  H   UNL A   1      43.073  24.413  30.866  1.00  0.00     0.167 HD
ATOM     56  C   UNL A   1      43.624  27.074  33.308  1.00  0.00     0.074 A 
ATOM     57  C   UNL A   1      43.436  27.591  34.650  1.00  0.00     0.031 C 
ATOM     58  C   UNL A   1      44.206  25.948  32.803  1.00  0.00     0.037 A 
BRANCH  45  59
ATOM     59  C   UNL A   1      43.644  23.984  26.975  1.00  0.00     0.057 A 
ATOM     60  C   UNL A   1      44.191  24.663  25.867  1.00  0.00     0.134 A 
ATOM     61  C   UNL A   1      43.487  22.595  26.775  1.00  0.00     0.134 A 
ATOM     62  F   UNL A   1      44.389  25.989  25.891  1.00  0.00    -0.206 F 
ATOM     63  C   UNL A   1      44.534  24.018  24.668  1.00  0.00     0.040 A 
ATOM     64  C   UNL A   1      43.876  21.932  25.602  1.00  0.00     0.040 A 
ATOM     65  F   UNL A   1      42.885  21.800  27.666  1.00  0.00    -0.206 F 
ATOM     66  C   UNL A   1      44.388  22.646  24.535  1.00  0.00     0.006 A 
ENDBRANCH  45  59
BRANCH  46  67
ATOM     67  C   UNL A   1      40.308  30.465  33.182  1.00  0.00     0.057 A 
ATOM     68  C   UNL A   1      40.034  31.832  33.358  1.00  0.00     0.134 A 
ATOM     69  C   UNL A   1      39.215  29.596  33.139  1.00  0.00     0.134 A 
ATOM     70  F   UNL A   1      41.040  32.720  33.410  1.00  0.00    -0.206 F 
ATOM     71  C   UNL A   1      38.728  32.328  33.371  1.00  0.00     0.040 A 
ATOM     72  C   UNL A   1      37.902  30.079  33.165  1.00  0.00     0.040 A 
ATOM     73  F   UNL A   1      39.395  28.281  32.952  1.00  0.00    -0.206 F 
ATOM     74  C   UNL A   1      37.657  31.451  33.241  1.00  0.00     0.006 A 
ENDBRANCH  46  67
BRANCH  58  75
ATOM     75  C   UNL A   1      44.686  24.776  33.623  1.00  0.00     0.057 A 
ATOM     76  C   UNL A   1      46.033  24.406  33.757  1.00  0.00     0.134 A 
ATOM     77  C   UNL A   1      43.783  24.058  34.436  1.00  0.00     0.134 A 
ATOM     78  F   UNL A   1      47.010  25.077  33.133  1.00  0.00    -0.206 F 
ATOM     79  C   UNL A   1      46.445  23.355  34.589  1.00  0.00     0.040 A 
ATOM     80  C   UNL A   1      44.188  23.042  35.307  1.00  0.00     0.040 A 
ATOM     81  F   UNL A   1      42.469  24.328  34.433  1.00  0.00    -0.206 F 
ATOM     82  C   UNL A   1      45.524  22.675  35.375  1.00  0.00     0.006 A 
ENDBRANCH  58  75
ENDBRANCH  32  33
ENDBRANCH  24  27
ENDBRANCH  22  23
ENDBRANCH  21  22
ENDBRANCH  20  21
ENDBRANCH   3  20
TORSDOF 15
ENDMDL
MODEL 2
REMARK VINA RESULT:     -11.8      3.922      9.248
REMARK SMILES Cc1ccccc1OCC(=O)NCCC(=O)NCCCNC(=O)c1ccc(-c2c3nc(c(-c4c(F)cccc4F)c4ccc([nH]4)c(-c4c(F)cccc4F)c4nc(c(-c5c(F)cccc5F)c5ccc2[nH]5)C=C4)C=C3)cc1
REMARK SMILES IDX 15 1 16 2 17 3 14 5 13 6 12 7 10 8 11 9 9 11 8 12 7 13 1 14
REMARK SMILES IDX 2 15 3 16 4 17 6 18 5 19 18 20 19 21 20 22 21 23 22 24 23 26
REMARK SMILES IDX 24 27 25 28 77 29 26 30 76 31 27 32 28 33 29 34 70 35 30 36
REMARK SMILES IDX 75 37 69 38 71 39 31 40 74 41 68 42 67 43 32 45 58 46 41 47
REMARK SMILES IDX 57 48 42 49 45 50 56 51 72 52 43 53 44 54 55 56 73 57 46 58
REMARK SMILES IDX 33 59 34 60 39 61 35 62 36 63 38 64 40 65 37 66 59 67 60 68
REMARK SMILES IDX 65 69 61 70 62 71 64 72 66 73 63 74 47 75 48 76 53 77 49 78
REMARK SMILES IDX 50 79 52 80 54 81 51 82
REMARK H PARENT 17 4 12 10 21 25 71 44 45 55
REMARK Flexibility Score: inf
ROOT
ATOM      1  C   UNL A   1      34.623  22.012  26.426  1.00  0.00     0.221 C 
ATOM      2  O   UNL A   1      34.192  22.803  27.267  1.00  0.00    -0.275 OA
ATOM      3  N   UNL A   1      35.975  21.924  26.250  1.00  0.00    -0.356 N 
ATOM      4  H   UNL A   1      36.517  22.412  26.911  1.00  0.00     0.163 HD
ENDROOT
BRANCH   1   5
ATOM      5  C   UNL A   1      33.679  21.154  25.614  1.00  0.00     0.121 C 
BRANCH   5   6
ATOM      6  C   UNL A   1      32.453  21.923  25.135  1.00  0.00     0.126 C 
BRANCH   6   7
ATOM      7  N   UNL A   1      31.400  22.011  26.133  1.00  0.00    -0.353 N 
ATOM      8  C   UNL A   1      30.799  23.115  26.673  1.00  0.00     0.257 C 
ATOM      9  O   UNL A   1      29.982  22.954  27.582  1.00  0.00    -0.271 OA
ATOM     10  H   UNL A   1      31.070  21.147  26.471  1.00  0.00     0.163 HD
BRANCH   8  11
ATOM     11  C   UNL A   1      31.088  24.499  26.091  1.00  0.00     0.329 C 
BRANCH  11  12
ATOM     12  O   UNL A   1      31.520  25.496  26.981  1.00  0.00    -0.484 OA
BRANCH  12  13
ATOM     13  C   UNL A   1      32.231  26.603  26.637  1.00  0.00     0.122 A 
ATOM     14  C   UNL A   1      34.253  25.723  25.241  1.00  0.00     0.048 C 
ATOM     15  C   UNL A   1      33.395  26.778  25.877  1.00  0.00    -0.009 A 
ATOM     16  C   UNL A   1      33.829  28.107  25.625  1.00  0.00     0.007 A 
ATOM     17  C   UNL A   1      33.174  29.220  26.149  1.00  0.00     0.001 A 
ATOM     18  C   UNL A   1      31.591  27.745  27.169  1.00  0.00     0.047 A 
ATOM     19  C   UNL A   1      32.053  29.037  26.937  1.00  0.00     0.004 A 
ENDBRANCH  12  13
ENDBRANCH  11  12
ENDBRANCH   8  11
ENDBRANCH   6   7
ENDBRANCH   5   6
ENDBRANCH   1   5
BRANCH   3  20
ATOM     20  C   UNL A   1      36.730  21.215  25.227  1.00  0.00     0.117 C 
BRANCH  20  21
ATOM     21  C   UNL A   1      38.227  21.389  25.441  1.00  0.00     0.042 C 
BRANCH  21  22
ATOM     22  C   UNL A   1      38.622  22.712  26.076  1.00  0.00     0.118 C 
BRANCH  22  23
ATOM     23  N   UNL A   1      40.056  22.809  26.358  1.00  0.00    -0.352 N 
ATOM     24  C   UNL A   1      40.786  23.889  26.827  1.00  0.00     0.251 C 
ATOM     25  H   UNL A   1      40.574  21.990  26.189  1.00  0.00     0.163 HD
ATOM     26  O   UNL A   1      41.967  23.773  27.107  1.00  0.00    -0.269 OA
BRANCH  24  27
ATOM     27  C   UNL A   1      40.065  25.146  27.127  1.00  0.00     0.039 A 
ATOM     28  C   UNL A   1      40.412  26.274  26.381  1.00  0.00     0.014 A 
ATOM     29  C   UNL A   1      39.320  25.263  28.297  1.00  0.00     0.014 A 
ATOM     30  C   UNL A   1      40.278  27.528  26.963  1.00  0.00     0.010 A 
ATOM     31  C   UNL A   1      39.286  26.494  28.922  1.00  0.00     0.010 A 
ATOM     32  C   UNL A   1      39.849  27.606  28.286  1.00  0.00    -0.014 A 
BRANCH  32  33
ATOM     33  C   UNL A   1      40.098  28.777  29.115  1.00  0.00     0.031 A 
ATOM     34  C   UNL A   1      39.096  29.854  29.201  1.00  0.00     0.074 A 
ATOM     35  C   UNL A   1      41.240  28.848  29.839  1.00  0.00     0.049 A 
ATOM     36  N   UNL A   1      39.360  31.049  29.612  1.00  0.00    -0.248 NA
ATOM     37  C   UNL A   1      37.716  29.699  28.740  1.00  0.00     0.031 C 
ATOM     38  C   UNL A   1      41.550  29.772  30.928  1.00  0.00     0.029 A 
ATOM     39  N   UNL A   1      42.467  28.225  29.554  1.00  0.00    -0.354 N 
ATOM     40  C   UNL A   1      38.160  31.690  29.786  1.00  0.00     0.074 A 
ATOM     41  C   UNL A   1      37.199  30.884  29.081  1.00  0.00     0.031 C 
ATOM     42  C   UNL A   1      42.883  29.885  31.035  1.00  0.00     0.029 A 
ATOM     43  C   UNL A   1      43.464  29.159  29.918  1.00  0.00     0.049 A 
ATOM     44  H   UNL A   1      42.604  27.326  29.178  1.00  0.00     0.167 HD
ATOM     45  C   UNL A   1      38.099  32.733  30.657  1.00  0.00     0.037 A 
ATOM     46  C   UNL A   1      44.316  29.699  28.999  1.00  0.00     0.037 A 
ATOM     47  C   UNL A   1      39.437  33.238  30.968  1.00  0.00     0.049 A 
ATOM     48  C   UNL A   1      44.268  31.206  28.920  1.00  0.00     0.074 A 
ATOM     49  C   UNL A   1      40.243  33.185  32.090  1.00  0.00     0.029 A 
ATOM     50  N   UNL A   1      40.241  33.705  29.927  1.00  0.00    -0.354 N 
ATOM     51  N   UNL A   1      43.290  31.928  29.393  1.00  0.00    -0.248 NA
ATOM     52  C   UNL A   1      45.293  32.017  28.265  1.00  0.00     0.031 C 
ATOM     53  C   UNL A   1      41.567  33.511  31.688  1.00  0.00     0.029 A 
ATOM     54  C   UNL A   1      41.554  33.815  30.336  1.00  0.00     0.049 A 
ATOM     55  H   UNL A   1      39.915  33.927  29.025  1.00  0.00     0.167 HD
ATOM     56  C   UNL A   1      43.504  33.245  29.086  1.00  0.00     0.074 A 
ATOM     57  C   UNL A   1      44.784  33.254  28.405  1.00  0.00     0.031 C 
ATOM     58  C   UNL A   1      42.593  34.214  29.396  1.00  0.00     0.037 A 
BRANCH  45  59
ATOM     59  C   UNL A   1      36.850  33.154  31.405  1.00  0.00     0.057 A 
ATOM     60  C   UNL A   1      36.615  32.681  32.712  1.00  0.00     0.134 A 
ATOM     61  C   UNL A   1      35.774  33.887  30.860  1.00  0.00     0.134 A 
ATOM     62  F   UNL A   1      37.533  31.954  33.365  1.00  0.00    -0.206 F 
ATOM     63  C   UNL A   1      35.413  32.906  33.403  1.00  0.00     0.040 A 
ATOM     64  C   UNL A   1      34.591  34.164  31.560  1.00  0.00     0.040 A 
ATOM     65  F   UNL A   1      35.764  34.323  29.595  1.00  0.00    -0.206 F 
ATOM     66  C   UNL A   1      34.399  33.659  32.832  1.00  0.00     0.006 A 
ENDBRANCH  45  59
BRANCH  46  67
ATOM     67  C   UNL A   1      44.601  28.798  27.852  1.00  0.00     0.057 A 
ATOM     68  C   UNL A   1      45.492  27.727  28.038  1.00  0.00     0.134 A 
ATOM     69  C   UNL A   1      43.763  28.743  26.735  1.00  0.00     0.134 A 
ATOM     70  F   UNL A   1      46.326  27.720  29.091  1.00  0.00    -0.206 F 
ATOM     71  C   UNL A   1      45.471  26.597  27.218  1.00  0.00     0.040 A 
ATOM     72  C   UNL A   1      43.742  27.621  25.898  1.00  0.00     0.040 A 
ATOM     73  F   UNL A   1      42.870  29.715  26.502  1.00  0.00    -0.206 F 
ATOM     74  C   UNL A   1      44.569  26.529  26.162  1.00  0.00     0.006 A 
ENDBRANCH  46  67
BRANCH  58  75
ATOM     75  C   UNL A   1      42.634  35.637  28.896  1.00  0.00     0.057 A 
ATOM     76  C   UNL A   1      41.833  36.131  27.856  1.00  0.00     0.134 A 
ATOM     77  C   UNL A   1      43.407  36.606  29.571  1.00  0.00     0.134 A 
ATOM     78  F   UNL A   1      40.964  35.345  27.206  1.00  0.00    -0.206 F 
ATOM     79  C   UNL A   1      41.847  37.480  27.471  1.00  0.00     0.040 A 
ATOM     80  C   UNL A   1      43.391  37.962  29.228  1.00  0.00     0.040 A 
ATOM     81  F   UNL A   1      44.195  36.280  30.606  1.00  0.00    -0.206 F 
ATOM     82  C   UNL A   1      42.621  38.402  28.163  1.00  0.00     0.006 A 
ENDBRANCH  58  75
ENDBRANCH  32  33
ENDBRANCH  24  27
ENDBRANCH  22  23
ENDBRANCH  21  22
ENDBRANCH  20  21
ENDBRANCH   3  20
TORSDOF 15
ENDMDL
MODEL 3
REMARK VINA RESULT:     -11.7      1.918      2.939
REMARK SMILES Cc1ccccc1OCC(=O)NCCC(=O)NCCCNC(=O)c1ccc(-c2c3nc(c(-c4c(F)cccc4F)c4ccc([nH]4)c(-c4c(F)cccc4F)c4nc(c(-c5c(F)cccc5F)c5ccc2[nH]5)C=C4)C=C3)cc1
REMARK SMILES IDX 15 1 16 2 17 3 14 5 13 6 12 7 10 8 11 9 9 11 8 12 7 13 1 14
REMARK SMILES IDX 2 15 3 16 4 17 6 18 5 19 18 20 19 21 20 22 21 23 22 24 23 26
REMARK SMILES IDX 24 27 25 28 77 29 26 30 76 31 27 32 28 33 29 34 70 35 30 36
REMARK SMILES IDX 75 37 69 38 71 39 31 40 74 41 68 42 67 43 32 45 58 46 41 47
REMARK SMILES IDX 57 48 42 49 45 50 56 51 72 52 43 53 44 54 55 56 73 57 46 58
REMARK SMILES IDX 33 59 34 60 39 61 35 62 36 63 38 64 40 65 37 66 59 67 60 68
REMARK SMILES IDX 65 69 61 70 62 71 64 72 66 73 63 74 47 75 48 76 53 77 49 78
REMARK SMILES IDX 50 79 52 80 54 81 51 82
REMARK H PARENT 17 4 12 10 21 25 71 44 45 55
REMARK Flexibility Score: inf
ROOT
ATOM      1  C   UNL A   1      32.078  27.791  27.131  1.00  0.00     0.221 C 
ATOM      2  O   UNL A   1      31.007  27.455  27.640  1.00  0.00    -0.275 OA
ATOM      3  N   UNL A   1      32.790  28.797  27.720  1.00  0.00    -0.356 N 
ATOM      4  H   UNL A   1      32.453  29.093  28.596  1.00  0.00     0.163 HD
ENDROOT
BRANCH   1   5
ATOM      5  C   UNL A   1      32.595  27.102  25.887  1.00  0.00     0.121 C 
BRANCH   5   6
ATOM      6  C   UNL A   1      32.946  25.639  26.131  1.00  0.00     0.126 C 
BRANCH   6   7
ATOM      7  N   UNL A   1      31.929  24.917  26.877  1.00  0.00    -0.353 N 
ATOM      8  C   UNL A   1      31.044  23.966  26.449  1.00  0.00     0.257 C 
ATOM      9  O   UNL A   1      30.199  23.549  27.245  1.00  0.00    -0.271 OA
ATOM     10  H   UNL A   1      31.867  25.147  27.832  1.00  0.00     0.163 HD
BRANCH   8  11
ATOM     11  C   UNL A   1      31.170  23.388  25.039  1.00  0.00     0.329 C 
BRANCH  11  12
ATOM     12  O   UNL A   1      30.363  23.950  24.037  1.00  0.00    -0.484 OA
BRANCH  12  13
ATOM     13  C   UNL A   1      30.536  25.181  23.486  1.00  0.00     0.122 A 
ATOM     14  C   UNL A   1      32.686  24.987  22.019  1.00  0.00     0.048 C 
ATOM     15  C   UNL A   1      31.493  25.691  22.598  1.00  0.00    -0.009 A 
ATOM     16  C   UNL A   1      31.327  27.024  22.137  1.00  0.00     0.007 A 
ATOM     17  C   UNL A   1      30.289  27.844  22.578  1.00  0.00     0.001 A 
ATOM     18  C   UNL A   1      29.501  26.034  23.929  1.00  0.00     0.047 A 
ATOM     19  C   UNL A   1      29.376  27.350  23.490  1.00  0.00     0.004 A 
ENDBRANCH  12  13
ENDBRANCH  11  12
ENDBRANCH   8  11
ENDBRANCH   6   7
ENDBRANCH   5   6
ENDBRANCH   1   5
BRANCH   3  20
ATOM     20  C   UNL A   1      33.974  29.496  27.241  1.00  0.00     0.117 C 
BRANCH  20  21
ATOM     21  C   UNL A   1      33.853  30.994  27.478  1.00  0.00     0.042 C 
BRANCH  21  22
ATOM     22  C   UNL A   1      35.179  31.708  27.681  1.00  0.00     0.118 C 
BRANCH  22  23
ATOM     23  N   UNL A   1      35.467  31.999  29.087  1.00  0.00    -0.352 N 
ATOM     24  C   UNL A   1      36.293  31.322  29.971  1.00  0.00     0.251 C 
ATOM     25  H   UNL A   1      35.008  32.787  29.456  1.00  0.00     0.163 HD
ATOM     26  O   UNL A   1      36.503  31.757  31.090  1.00  0.00    -0.269 OA
BRANCH  24  27
ATOM     27  C   UNL A   1      37.035  30.142  29.473  1.00  0.00     0.039 A 
ATOM     28  C   UNL A   1      37.162  29.056  30.342  1.00  0.00     0.014 A 
ATOM     29  C   UNL A   1      37.826  30.244  28.333  1.00  0.00     0.014 A 
ATOM     30  C   UNL A   1      38.281  28.240  30.233  1.00  0.00     0.010 A 
ATOM     31  C   UNL A   1      38.992  29.505  28.287  1.00  0.00     0.010 A 
ATOM     32  C   UNL A   1      39.255  28.567  29.293  1.00  0.00    -0.014 A 
BRANCH  32  33
ATOM     33  C   UNL A   1      40.624  28.081  29.392  1.00  0.00     0.031 A 
ATOM     34  C   UNL A   1      40.970  26.731  28.911  1.00  0.00     0.074 A 
ATOM     35  C   UNL A   1      41.583  28.895  29.892  1.00  0.00     0.049 A 
ATOM     36  N   UNL A   1      42.038  26.097  29.262  1.00  0.00    -0.248 NA
ATOM     37  C   UNL A   1      40.087  25.938  28.056  1.00  0.00     0.031 C 
ATOM     38  C   UNL A   1      43.032  28.717  29.816  1.00  0.00     0.029 A 
ATOM     39  N   UNL A   1      41.412  29.954  30.799  1.00  0.00    -0.354 N 
ATOM     40  C   UNL A   1      42.144  25.002  28.442  1.00  0.00     0.074 A 
ATOM     41  C   UNL A   1      40.845  24.858  27.840  1.00  0.00     0.031 C 
ATOM     42  C   UNL A   1      43.606  29.399  30.818  1.00  0.00     0.029 A 
ATOM     43  C   UNL A   1      42.534  29.907  31.658  1.00  0.00     0.049 A 
ATOM     44  H   UNL A   1      40.666  30.595  30.831  1.00  0.00     0.167 HD
ATOM     45  C   UNL A   1      43.373  24.456  28.239  1.00  0.00     0.037 A 
ATOM     46  C   UNL A   1      42.409  29.659  32.994  1.00  0.00     0.037 A 
ATOM     47  C   UNL A   1      44.324  24.909  29.256  1.00  0.00     0.049 A 
ATOM     48  C   UNL A   1      43.178  28.451  33.475  1.00  0.00     0.074 A 
ATOM     49  C   UNL A   1      45.411  25.764  29.236  1.00  0.00     0.029 A 
ATOM     50  N   UNL A   1      44.050  24.650  30.599  1.00  0.00    -0.354 N 
ATOM     51  N   UNL A   1      43.629  27.516  32.685  1.00  0.00    -0.248 NA
ATOM     52  C   UNL A   1      43.463  28.178  34.882  1.00  0.00     0.031 C 
ATOM     53  C   UNL A   1      45.713  26.111  30.582  1.00  0.00     0.029 A 
ATOM     54  C   UNL A   1      44.847  25.424  31.417  1.00  0.00     0.049 A 
ATOM     55  H   UNL A   1      43.381  24.003  30.918  1.00  0.00     0.167 HD
ATOM     56  C   UNL A   1      44.201  26.522  33.434  1.00  0.00     0.074 A 
ATOM     57  C   UNL A   1      44.098  26.996  34.801  1.00  0.00     0.031 C 
ATOM     58  C   UNL A   1      44.687  25.380  32.865  1.00  0.00     0.037 A 
BRANCH  45  59
ATOM     59  C   UNL A   1      43.778  23.693  26.994  1.00  0.00     0.057 A 
ATOM     60  C   UNL A   1      44.395  24.366  25.920  1.00  0.00     0.134 A 
ATOM     61  C   UNL A   1      43.461  22.344  26.718  1.00  0.00     0.134 A 
ATOM     62  F   UNL A   1      44.744  25.658  26.017  1.00  0.00    -0.206 F 
ATOM     63  C   UNL A   1      44.656  23.756  24.683  1.00  0.00     0.040 A 
ATOM     64  C   UNL A   1      43.767  21.709  25.506  1.00  0.00     0.040 A 
ATOM     65  F   UNL A   1      42.776  21.575  27.570  1.00  0.00    -0.206 F 
ATOM     66  C   UNL A   1      44.352  22.420  24.475  1.00  0.00     0.006 A 
ENDBRANCH  45  59
BRANCH  46  67
ATOM     67  C   UNL A   1      41.121  30.128  33.567  1.00  0.00     0.057 A 
ATOM     68  C   UNL A   1      40.987  31.484  33.910  1.00  0.00     0.134 A 
ATOM     69  C   UNL A   1      39.945  29.385  33.437  1.00  0.00     0.134 A 
ATOM     70  F   UNL A   1      42.078  32.254  34.052  1.00  0.00    -0.206 F 
ATOM     71  C   UNL A   1      39.738  32.103  34.005  1.00  0.00     0.040 A 
ATOM     72  C   UNL A   1      38.688  29.990  33.544  1.00  0.00     0.040 A 
ATOM     73  F   UNL A   1      39.990  28.091  33.090  1.00  0.00    -0.206 F 
ATOM     74  C   UNL A   1      38.583  31.359  33.788  1.00  0.00     0.006 A 
ENDBRANCH  46  67
BRANCH  58  75
ATOM     75  C   UNL A   1      45.116  24.147  33.621  1.00  0.00     0.057 A 
ATOM     76  C   UNL A   1      44.310  23.012  33.800  1.00  0.00     0.134 A 
ATOM     77  C   UNL A   1      46.445  24.019  34.078  1.00  0.00     0.134 A 
ATOM     78  F   UNL A   1      43.064  22.952  33.313  1.00  0.00    -0.206 F 
ATOM     79  C   UNL A   1      44.773  21.856  34.446  1.00  0.00     0.040 A 
ATOM     80  C   UNL A   1      46.932  22.852  34.678  1.00  0.00     0.040 A 
ATOM     81  F   UNL A   1      47.333  25.014  33.943  1.00  0.00    -0.206 F 
ATOM     82  C   UNL A   1      46.090  21.769  34.879  1.00  0.00     0.006 A 
ENDBRANCH  58  75
ENDBRANCH  32  33
ENDBRANCH  24  27
ENDBRANCH  22  23
ENDBRANCH  21  22
ENDBRANCH  20  21
ENDBRANCH   3  20
TORSDOF 15
ENDMDL
