MODEL 1
REMARK VINA RESULT:     -13.7      0.000      0.000
REMARK SMILES O=C1C[C@@H](c2cccc(O)c2)c2c(c(C(=O)NCCCNC(=O)c3ccc(-c4c5nc(c(-c6c(F)cccc6F)c6ccc([nH]6)c(-c6c(F)cccc6F)c6nc(c(-c7c(F)cccc7F)c7ccc4[nH]7)C=C6)C=C5)cc3)cn2-c2cccc(C(F)(F)F)c2)N1
REMARK SMILES IDX 19 1 18 2 17 3 15 4 16 5 14 7 1 8 2 9 3 10 90 11 4 12 13 13
REMARK SMILES IDX 12 15 79 16 78 17 5 18 6 19 11 20 7 21 9 22 8 23 10 24 80 26
REMARK SMILES IDX 81 27 89 28 82 29 84 30 83 31 85 32 86 33 87 34 88 35 20 36
REMARK SMILES IDX 21 37 22 38 23 40 24 41 25 42 77 43 26 44 76 45 27 46 28 47
REMARK SMILES IDX 29 48 70 49 30 50 75 51 69 52 71 53 31 54 74 55 68 56 67 57
REMARK SMILES IDX 32 59 58 60 41 61 57 62 42 63 45 64 56 65 72 66 43 67 44 68
REMARK SMILES IDX 55 70 73 71 46 72 33 73 34 74 39 75 35 76 36 77 38 78 40 79
REMARK SMILES IDX 37 80 59 81 60 82 65 83 61 84 62 85 64 86 66 87 63 88 47 89
REMARK SMILES IDX 48 90 53 91 49 92 50 93 52 94 54 95 51 96
REMARK H PARENT 17 6 90 14 10 25 21 39 71 58 45 69
REMARK Flexibility Score: inf
ROOT
ATOM      1  C   UNL A   1      37.366  21.789  24.676  1.00  0.00     0.042 C 
ENDROOT
BRANCH   1   2
ATOM      2  C   UNL A   1      36.152  22.524  24.087  1.00  0.00     0.118 C 
BRANCH   2   3
ATOM      3  N   UNL A   1      34.885  21.981  24.554  1.00  0.00    -0.352 N 
ATOM      4  C   UNL A   1      33.682  22.586  24.828  1.00  0.00     0.254 C 
ATOM      5  O   UNL A   1      32.732  21.859  25.115  1.00  0.00    -0.269 OA
ATOM      6  H   UNL A   1      34.891  21.007  24.699  1.00  0.00     0.163 HD
BRANCH   4   7
ATOM      7  C   UNL A   1      33.523  24.036  24.770  1.00  0.00     0.081 A 
ATOM      8  O   UNL A   1      32.970  24.915  20.093  1.00  0.00    -0.275 OA
ATOM      9  C   UNL A   1      33.179  25.300  21.243  1.00  0.00     0.225 C 
ATOM     10  C   UNL A   1      33.502  26.758  21.555  1.00  0.00     0.115 C 
ATOM     11  N   UNL A   1      33.255  24.410  22.286  1.00  0.00    -0.324 N 
ATOM     12  C   UNL A   1      33.009  27.242  22.933  1.00  0.00     0.078 C 
ATOM     13  C   UNL A   1      33.335  24.814  23.597  1.00  0.00     0.076 A 
ATOM     14  H   UNL A   1      33.253  23.446  22.086  1.00  0.00     0.170 HD
ATOM     15  C   UNL A   1      33.189  26.141  23.935  1.00  0.00     0.055 A 
ATOM     16  N   UNL A   1      33.292  26.236  25.303  1.00  0.00    -0.317 N 
ATOM     17  C   UNL A   1      33.479  24.959  25.796  1.00  0.00     0.107 A 
BRANCH  12  18
ATOM     18  C   UNL A   1      31.579  27.748  22.866  1.00  0.00    -0.035 A 
ATOM     19  C   UNL A   1      30.494  26.983  23.323  1.00  0.00     0.005 A 
ATOM     20  C   UNL A   1      31.336  29.052  22.406  1.00  0.00     0.050 A 
ATOM     21  C   UNL A   1      29.208  27.524  23.364  1.00  0.00     0.004 A 
ATOM     22  C   UNL A   1      30.057  29.593  22.483  1.00  0.00     0.115 A 
ATOM     23  C   UNL A   1      28.989  28.840  22.958  1.00  0.00     0.046 A 
BRANCH  22  24
ATOM     24  O   UNL A   1      29.904  30.899  22.128  1.00  0.00    -0.508 OA
ATOM     25  H   UNL A   1      29.453  31.121  21.338  1.00  0.00     0.293 HD
ENDBRANCH  22  24
ENDBRANCH  12  18
BRANCH  16  26
ATOM     26  C   UNL A   1      33.139  27.339  26.171  1.00  0.00     0.046 A 
ATOM     27  C   UNL A   1      31.848  27.781  26.484  1.00  0.00     0.026 A 
ATOM     28  C   UNL A   1      34.251  28.104  26.526  1.00  0.00     0.039 A 
ATOM     29  C   UNL A   1      31.676  28.959  27.209  1.00  0.00     0.003 A 
ATOM     30  C   UNL A   1      34.086  29.298  27.243  1.00  0.00     0.058 A 
ATOM     31  C   UNL A   1      32.789  29.709  27.592  1.00  0.00     0.013 A 
BRANCH  30  32
ATOM     32  C   UNL A   1      35.273  30.156  27.610  1.00  0.00     0.416 C 
ATOM     33  F   UNL A   1      35.565  30.087  28.940  1.00  0.00    -0.166 F 
ATOM     34  F   UNL A   1      36.410  29.784  26.961  1.00  0.00    -0.166 F 
ATOM     35  F   UNL A   1      35.103  31.481  27.346  1.00  0.00    -0.166 F 
ENDBRANCH  30  32
ENDBRANCH  16  26
ENDBRANCH   4   7
ENDBRANCH   2   3
ENDBRANCH   1   2
BRANCH   1  36
ATOM     36  C   UNL A   1      38.047  22.615  25.750  1.00  0.00     0.118 C 
BRANCH  36  37
ATOM     37  N   UNL A   1      39.364  22.070  26.143  1.00  0.00    -0.352 N 
ATOM     38  C   UNL A   1      40.522  22.727  26.554  1.00  0.00     0.251 C 
ATOM     39  H   UNL A   1      39.432  21.088  26.109  1.00  0.00     0.163 HD
ATOM     40  O   UNL A   1      41.603  22.170  26.545  1.00  0.00    -0.269 OA
BRANCH  38  41
ATOM     41  C   UNL A   1      40.399  24.118  27.021  1.00  0.00     0.039 A 
ATOM     42  C   UNL A   1      39.201  24.832  27.130  1.00  0.00     0.014 A 
ATOM     43  C   UNL A   1      41.569  24.676  27.475  1.00  0.00     0.014 A 
ATOM     44  C   UNL A   1      39.253  26.096  27.720  1.00  0.00     0.010 A 
ATOM     45  C   UNL A   1      41.449  25.540  28.503  1.00  0.00     0.010 A 
ATOM     46  C   UNL A   1      40.430  26.451  28.383  1.00  0.00    -0.014 A 
BRANCH  46  47
ATOM     47  C   UNL A   1      40.711  27.722  29.019  1.00  0.00     0.031 A 
ATOM     48  C   UNL A   1      41.815  28.475  28.401  1.00  0.00     0.074 A 
ATOM     49  C   UNL A   1      39.831  28.296  29.876  1.00  0.00     0.049 A 
ATOM     50  N   UNL A   1      42.994  28.674  28.883  1.00  0.00    -0.248 NA
ATOM     51  C   UNL A   1      41.648  28.920  27.008  1.00  0.00     0.031 C 
ATOM     52  C   UNL A   1      38.499  27.840  30.311  1.00  0.00     0.029 A 
ATOM     53  N   UNL A   1      39.927  29.509  30.480  1.00  0.00    -0.354 N 
ATOM     54  C   UNL A   1      43.647  29.468  27.949  1.00  0.00     0.074 A 
ATOM     55  C   UNL A   1      42.867  29.393  26.740  1.00  0.00     0.031 C 
ATOM     56  C   UNL A   1      37.838  28.853  30.916  1.00  0.00     0.029 A 
ATOM     57  C   UNL A   1      38.750  29.966  31.067  1.00  0.00     0.049 A 
ATOM     58  H   UNL A   1      40.764  30.027  30.500  1.00  0.00     0.167 HD
ATOM     59  C   UNL A   1      44.627  30.333  28.324  1.00  0.00     0.037 A 
ATOM     60  C   UNL A   1      38.563  31.202  31.593  1.00  0.00     0.037 A 
ATOM     61  C   UNL A   1      45.065  30.074  29.675  1.00  0.00     0.049 A 
ATOM     62  C   UNL A   1      39.918  31.754  31.875  1.00  0.00     0.074 A 
ATOM     63  C   UNL A   1      45.602  28.976  30.322  1.00  0.00     0.029 A 
ATOM     64  N   UNL A   1      44.568  30.879  30.675  1.00  0.00    -0.354 N 
ATOM     65  N   UNL A   1      40.730  31.241  32.764  1.00  0.00    -0.248 NA
ATOM     66  C   UNL A   1      40.563  32.517  30.813  1.00  0.00     0.031 C 
ATOM     67  C   UNL A   1      44.938  28.935  31.584  1.00  0.00     0.029 A 
ATOM     68  C   UNL A   1      44.103  30.051  31.668  1.00  0.00     0.049 A 
ATOM     69  H   UNL A   1      44.548  31.864  30.677  1.00  0.00     0.167 HD
ATOM     70  C   UNL A   1      41.984  31.258  32.164  1.00  0.00     0.074 A 
ATOM     71  C   UNL A   1      41.824  32.105  30.980  1.00  0.00     0.031 C 
ATOM     72  C   UNL A   1      42.952  30.349  32.492  1.00  0.00     0.037 A 
BRANCH  59  73
ATOM     73  C   UNL A   1      44.924  31.630  27.624  1.00  0.00     0.057 A 
ATOM     74  C   UNL A   1      46.151  31.782  26.958  1.00  0.00     0.134 A 
ATOM     75  C   UNL A   1      44.186  32.819  27.807  1.00  0.00     0.134 A 
ATOM     76  F   UNL A   1      46.948  30.725  26.739  1.00  0.00    -0.206 F 
ATOM     77  C   UNL A   1      46.638  33.033  26.564  1.00  0.00     0.040 A 
ATOM     78  C   UNL A   1      44.637  34.065  27.367  1.00  0.00     0.040 A 
ATOM     79  F   UNL A   1      43.046  32.857  28.507  1.00  0.00    -0.206 F 
ATOM     80  C   UNL A   1      45.883  34.181  26.772  1.00  0.00     0.006 A 
ENDBRANCH  59  73
BRANCH  60  81
ATOM     81  C   UNL A   1      37.344  32.040  31.482  1.00  0.00     0.057 A 
ATOM     82  C   UNL A   1      36.940  32.600  30.263  1.00  0.00     0.134 A 
ATOM     83  C   UNL A   1      36.401  32.099  32.527  1.00  0.00     0.134 A 
ATOM     84  F   UNL A   1      37.748  32.552  29.193  1.00  0.00    -0.206 F 
ATOM     85  C   UNL A   1      35.671  33.175  30.090  1.00  0.00     0.040 A 
ATOM     86  C   UNL A   1      35.135  32.673  32.370  1.00  0.00     0.040 A 
ATOM     87  F   UNL A   1      36.646  31.523  33.713  1.00  0.00    -0.206 F 
ATOM     88  C   UNL A   1      34.761  33.205  31.143  1.00  0.00     0.006 A 
ENDBRANCH  60  81
BRANCH  72  89
ATOM     89  C   UNL A   1      42.694  29.418  33.652  1.00  0.00     0.057 A 
ATOM     90  C   UNL A   1      42.135  28.136  33.522  1.00  0.00     0.134 A 
ATOM     91  C   UNL A   1      43.192  29.751  34.915  1.00  0.00     0.134 A 
ATOM     92  F   UNL A   1      41.727  27.678  32.336  1.00  0.00    -0.206 F 
ATOM     93  C   UNL A   1      42.040  27.247  34.598  1.00  0.00     0.040 A 
ATOM     94  C   UNL A   1      43.131  28.862  35.994  1.00  0.00     0.040 A 
ATOM     95  F   UNL A   1      43.801  30.931  35.109  1.00  0.00    -0.206 F 
ATOM     96  C   UNL A   1      42.546  27.608  35.840  1.00  0.00     0.006 A 
ENDBRANCH  72  89
ENDBRANCH  46  47
ENDBRANCH  38  41
ENDBRANCH  36  37
ENDBRANCH   1  36
TORSDOF 14
ENDMDL
MODEL 2
REMARK VINA RESULT:     -13.6      3.481      7.765
REMARK SMILES O=C1C[C@@H](c2cccc(O)c2)c2c(c(C(=O)NCCCNC(=O)c3ccc(-c4c5nc(c(-c6c(F)cccc6F)c6ccc([nH]6)c(-c6c(F)cccc6F)c6nc(c(-c7c(F)cccc7F)c7ccc4[nH]7)C=C6)C=C5)cc3)cn2-c2cccc(C(F)(F)F)c2)N1
REMARK SMILES IDX 19 1 18 2 17 3 15 4 16 5 14 7 1 8 2 9 3 10 90 11 4 12 13 13
REMARK SMILES IDX 12 15 79 16 78 17 5 18 6 19 11 20 7 21 9 22 8 23 10 24 80 26
REMARK SMILES IDX 81 27 89 28 82 29 84 30 83 31 85 32 86 33 87 34 88 35 20 36
REMARK SMILES IDX 21 37 22 38 23 40 24 41 25 42 77 43 26 44 76 45 27 46 28 47
REMARK SMILES IDX 29 48 70 49 30 50 75 51 69 52 71 53 31 54 74 55 68 56 67 57
REMARK SMILES IDX 32 59 58 60 41 61 57 62 42 63 45 64 56 65 72 66 43 67 44 68
REMARK SMILES IDX 55 70 73 71 46 72 33 73 34 74 39 75 35 76 36 77 38 78 40 79
REMARK SMILES IDX 37 80 59 81 60 82 65 83 61 84 62 85 64 86 66 87 63 88 47 89
REMARK SMILES IDX 48 90 53 91 49 92 50 93 52 94 54 95 51 96
REMARK H PARENT 17 6 90 14 10 25 21 39 71 58 45 69
REMARK Flexibility Score: inf
ROOT
ATOM      1  C   UNL A   1      34.079  29.347  26.915  1.00  0.00     0.042 C 
ENDROOT
BRANCH   1   2
ATOM      2  C   UNL A   1      33.695  27.909  26.532  1.00  0.00     0.118 C 
BRANCH   2   3
ATOM      3  N   UNL A   1      33.468  27.750  25.103  1.00  0.00    -0.352 N 
ATOM      4  C   UNL A   1      33.520  26.641  24.293  1.00  0.00     0.254 C 
ATOM      5  O   UNL A   1      33.177  26.778  23.119  1.00  0.00    -0.269 OA
ATOM      6  H   UNL A   1      33.236  28.584  24.634  1.00  0.00     0.163 HD
BRANCH   4   7
ATOM      7  C   UNL A   1      33.951  25.342  24.798  1.00  0.00     0.081 A 
ATOM      8  O   UNL A   1      30.085  23.702  27.107  1.00  0.00    -0.275 OA
ATOM      9  C   UNL A   1      31.286  23.644  26.842  1.00  0.00     0.225 C 
ATOM     10  C   UNL A   1      32.213  22.646  27.530  1.00  0.00     0.115 C 
ATOM     11  N   UNL A   1      31.872  24.562  26.006  1.00  0.00    -0.324 N 
ATOM     12  C   UNL A   1      33.387  22.157  26.659  1.00  0.00     0.078 C 
ATOM     13  C   UNL A   1      33.170  24.439  25.570  1.00  0.00     0.076 A 
ATOM     14  H   UNL A   1      31.343  25.337  25.708  1.00  0.00     0.170 HD
ATOM     15  C   UNL A   1      33.898  23.301  25.835  1.00  0.00     0.055 A 
ATOM     16  N   UNL A   1      35.138  23.456  25.260  1.00  0.00    -0.317 N 
ATOM     17  C   UNL A   1      35.152  24.683  24.626  1.00  0.00     0.107 A 
BRANCH  12  18
ATOM     18  C   UNL A   1      32.993  20.956  25.817  1.00  0.00    -0.035 A 
ATOM     19  C   UNL A   1      32.591  21.083  24.477  1.00  0.00     0.005 A 
ATOM     20  C   UNL A   1      33.106  19.669  26.366  1.00  0.00     0.050 A 
ATOM     21  C   UNL A   1      32.356  19.952  23.695  1.00  0.00     0.004 A 
ATOM     22  C   UNL A   1      32.902  18.549  25.568  1.00  0.00     0.115 A 
ATOM     23  C   UNL A   1      32.528  18.678  24.236  1.00  0.00     0.046 A 
BRANCH  22  24
ATOM     24  O   UNL A   1      33.137  17.329  26.126  1.00  0.00    -0.508 OA
ATOM     25  H   UNL A   1      32.481  16.661  26.088  1.00  0.00     0.293 HD
ENDBRANCH  22  24
ENDBRANCH  12  18
BRANCH  16  26
ATOM     26  C   UNL A   1      36.232  22.569  25.159  1.00  0.00     0.046 A 
ATOM     27  C   UNL A   1      36.029  21.305  24.592  1.00  0.00     0.026 A 
ATOM     28  C   UNL A   1      37.428  22.864  25.814  1.00  0.00     0.039 A 
ATOM     29  C   UNL A   1      37.052  20.359  24.626  1.00  0.00     0.003 A 
ATOM     30  C   UNL A   1      38.458  21.912  25.864  1.00  0.00     0.058 A 
ATOM     31  C   UNL A   1      38.262  20.664  25.252  1.00  0.00     0.013 A 
BRANCH  30  32
ATOM     32  C   UNL A   1      39.749  22.201  26.592  1.00  0.00     0.416 C 
ATOM     33  F   UNL A   1      40.200  21.117  27.286  1.00  0.00    -0.166 F 
ATOM     34  F   UNL A   1      40.759  22.550  25.751  1.00  0.00    -0.166 F 
ATOM     35  F   UNL A   1      39.656  23.204  27.510  1.00  0.00    -0.166 F 
ENDBRANCH  30  32
ENDBRANCH  16  26
ENDBRANCH   4   7
ENDBRANCH   2   3
ENDBRANCH   1   2
BRANCH   1  36
ATOM     36  C   UNL A   1      35.504  29.424  27.424  1.00  0.00     0.118 C 
BRANCH  36  37
ATOM     37  N   UNL A   1      35.581  29.673  28.879  1.00  0.00    -0.352 N 
ATOM     38  C   UNL A   1      36.572  29.329  29.798  1.00  0.00     0.251 C 
ATOM     39  H   UNL A   1      34.812  30.156  29.258  1.00  0.00     0.163 HD
ATOM     40  O   UNL A   1      36.352  29.328  30.994  1.00  0.00    -0.269 OA
BRANCH  38  41
ATOM     41  C   UNL A   1      37.907  28.986  29.280  1.00  0.00     0.039 A 
ATOM     42  C   UNL A   1      38.475  29.496  28.109  1.00  0.00     0.014 A 
ATOM     43  C   UNL A   1      38.651  28.179  30.106  1.00  0.00     0.014 A 
ATOM     44  C   UNL A   1      39.805  29.166  27.839  1.00  0.00     0.010 A 
ATOM     45  C   UNL A   1      39.980  28.405  30.106  1.00  0.00     0.010 A 
ATOM     46  C   UNL A   1      40.543  28.572  28.865  1.00  0.00    -0.014 A 
BRANCH  46  47
ATOM     47  C   UNL A   1      41.914  28.111  28.784  1.00  0.00     0.031 A 
ATOM     48  C   UNL A   1      42.093  26.885  27.987  1.00  0.00     0.074 A 
ATOM     49  C   UNL A   1      42.953  28.911  29.127  1.00  0.00     0.049 A 
ATOM     50  N   UNL A   1      42.371  25.703  28.420  1.00  0.00    -0.248 NA
ATOM     51  C   UNL A   1      41.760  26.942  26.555  1.00  0.00     0.031 C 
ATOM     52  C   UNL A   1      42.957  30.310  29.592  1.00  0.00     0.029 A 
ATOM     53  N   UNL A   1      44.281  28.641  29.029  1.00  0.00    -0.354 N 
ATOM     54  C   UNL A   1      42.472  24.908  27.286  1.00  0.00     0.074 A 
ATOM     55  C   UNL A   1      41.871  25.657  26.212  1.00  0.00     0.031 C 
ATOM     56  C   UNL A   1      44.208  30.819  29.517  1.00  0.00     0.029 A 
ATOM     57  C   UNL A   1      45.116  29.746  29.171  1.00  0.00     0.049 A 
ATOM     58  H   UNL A   1      44.627  27.734  28.869  1.00  0.00     0.167 HD
ATOM     59  C   UNL A   1      43.281  23.814  27.264  1.00  0.00     0.037 A 
ATOM     60  C   UNL A   1      46.456  29.750  28.964  1.00  0.00     0.037 A 
ATOM     61  C   UNL A   1      43.716  23.459  28.594  1.00  0.00     0.049 A 
ATOM     62  C   UNL A   1      46.906  28.332  29.064  1.00  0.00     0.074 A 
ATOM     63  C   UNL A   1      43.063  23.119  29.765  1.00  0.00     0.029 A 
ATOM     64  N   UNL A   1      44.978  23.849  28.980  1.00  0.00    -0.354 N 
ATOM     65  N   UNL A   1      46.840  27.636  30.170  1.00  0.00    -0.248 NA
ATOM     66  C   UNL A   1      46.916  27.547  27.836  1.00  0.00     0.031 C 
ATOM     67  C   UNL A   1      43.769  23.815  30.792  1.00  0.00     0.029 A 
ATOM     68  C   UNL A   1      44.855  24.465  30.202  1.00  0.00     0.049 A 
ATOM     69  H   UNL A   1      45.812  23.713  28.475  1.00  0.00     0.167 HD
ATOM     70  C   UNL A   1      46.389  26.380  29.783  1.00  0.00     0.074 A 
ATOM     71  C   UNL A   1      46.504  26.372  28.322  1.00  0.00     0.031 C 
ATOM     72  C   UNL A   1      45.677  25.577  30.630  1.00  0.00     0.037 A 
BRANCH  59  73
ATOM     73  C   UNL A   1      43.973  23.298  26.033  1.00  0.00     0.057 A 
ATOM     74  C   UNL A   1      43.933  21.922  25.754  1.00  0.00     0.134 A 
ATOM     75  C   UNL A   1      44.897  24.041  25.271  1.00  0.00     0.134 A 
ATOM     76  F   UNL A   1      43.104  21.108  26.426  1.00  0.00    -0.206 F 
ATOM     77  C   UNL A   1      44.797  21.321  24.832  1.00  0.00     0.040 A 
ATOM     78  C   UNL A   1      45.725  23.460  24.308  1.00  0.00     0.040 A 
ATOM     79  F   UNL A   1      45.123  25.343  25.485  1.00  0.00    -0.206 F 
ATOM     80  C   UNL A   1      45.701  22.090  24.108  1.00  0.00     0.006 A 
ENDBRANCH  59  73
BRANCH  60  81
ATOM     81  C   UNL A   1      47.252  30.818  28.312  1.00  0.00     0.057 A 
ATOM     82  C   UNL A   1      46.950  31.284  27.026  1.00  0.00     0.134 A 
ATOM     83  C   UNL A   1      48.178  31.588  29.043  1.00  0.00     0.134 A 
ATOM     84  F   UNL A   1      46.045  30.647  26.268  1.00  0.00    -0.206 F 
ATOM     85  C   UNL A   1      47.525  32.453  26.501  1.00  0.00     0.040 A 
ATOM     86  C   UNL A   1      48.762  32.752  28.530  1.00  0.00     0.040 A 
ATOM     87  F   UNL A   1      48.481  31.284  30.313  1.00  0.00    -0.206 F 
ATOM     88  C   UNL A   1      48.428  33.196  27.258  1.00  0.00     0.006 A 
ENDBRANCH  60  81
BRANCH  72  89
ATOM     89  C   UNL A   1      45.530  26.009  32.069  1.00  0.00     0.057 A 
ATOM     90  C   UNL A   1      44.406  26.681  32.576  1.00  0.00     0.134 A 
ATOM     91  C   UNL A   1      46.467  25.574  33.009  1.00  0.00     0.134 A 
ATOM     92  F   UNL A   1      43.400  27.045  31.777  1.00  0.00    -0.206 F 
ATOM     93  C   UNL A   1      44.241  26.942  33.941  1.00  0.00     0.040 A 
ATOM     94  C   UNL A   1      46.303  25.801  34.380  1.00  0.00     0.040 A 
ATOM     95  F   UNL A   1      47.538  24.867  32.615  1.00  0.00    -0.206 F 
ATOM     96  C   UNL A   1      45.191  26.495  34.850  1.00  0.00     0.006 A 
ENDBRANCH  72  89
ENDBRANCH  46  47
ENDBRANCH  38  41
ENDBRANCH  36  37
ENDBRANCH   1  36
TORSDOF 14
ENDMDL
MODEL 3
REMARK VINA RESULT:     -13.6      2.723      7.913
REMARK SMILES O=C1C[C@@H](c2cccc(O)c2)c2c(c(C(=O)NCCCNC(=O)c3ccc(-c4c5nc(c(-c6c(F)cccc6F)c6ccc([nH]6)c(-c6c(F)cccc6F)c6nc(c(-c7c(F)cccc7F)c7ccc4[nH]7)C=C6)C=C5)cc3)cn2-c2cccc(C(F)(F)F)c2)N1
REMARK SMILES IDX 19 1 18 2 17 3 15 4 16 5 14 7 1 8 2 9 3 10 90 11 4 12 13 13
REMARK SMILES IDX 12 15 79 16 78 17 5 18 6 19 11 20 7 21 9 22 8 23 10 24 80 26
REMARK SMILES IDX 81 27 89 28 82 29 84 30 83 31 85 32 86 33 87 34 88 35 20 36
REMARK SMILES IDX 21 37 22 38 23 40 24 41 25 42 77 43 26 44 76 45 27 46 28 47
REMARK SMILES IDX 29 48 70 49 30 50 75 51 69 52 71 53 31 54 74 55 68 56 67 57
REMARK SMILES IDX 32 59 58 60 41 61 57 62 42 63 45 64 56 65 72 66 43 67 44 68
REMARK SMILES IDX 55 70 73 71 46 72 33 73 34 74 39 75 35 76 36 77 38 78 40 79
REMARK SMILES IDX 37 80 59 81 60 82 65 83 61 84 62 85 64 86 66 87 63 88 47 89
REMARK SMILES IDX 48 90 53 91 49 92 50 93 52 94 54 95 51 96
REMARK H PARENT 17 6 90 14 10 25 21 39 71 58 45 69
REMARK Flexibility Score: inf
ROOT
ATOM      1  C   UNL A   1      32.204  30.099  26.934  1.00  0.00     0.042 C 
ENDROOT
BRANCH   1   2
ATOM      2  C   UNL A   1      31.849  28.622  26.700  1.00  0.00     0.118 C 
BRANCH   2   3
ATOM      3  N   UNL A   1      31.323  28.376  25.365  1.00  0.00    -0.352 N 
ATOM      4  C   UNL A   1      31.431  27.288  24.532  1.00  0.00     0.254 C 
ATOM      5  O   UNL A   1      30.789  27.310  23.482  1.00  0.00    -0.269 OA
ATOM      6  H   UNL A   1      30.796  29.120  24.993  1.00  0.00     0.163 HD
BRANCH   4   7
ATOM      7  C   UNL A   1      32.262  26.139  24.876  1.00  0.00     0.081 A 
ATOM      8  O   UNL A   1      29.290  23.310  27.351  1.00  0.00    -0.275 OA
ATOM      9  C   UNL A   1      30.422  23.617  26.978  1.00  0.00     0.225 C 
ATOM     10  C   UNL A   1      31.661  22.888  27.487  1.00  0.00     0.115 C 
ATOM     11  N   UNL A   1      30.631  24.718  26.183  1.00  0.00    -0.324 N 
ATOM     12  C   UNL A   1      32.822  22.815  26.476  1.00  0.00     0.078 C 
ATOM     13  C   UNL A   1      31.856  25.003  25.625  1.00  0.00     0.076 A 
ATOM     14  H   UNL A   1      29.877  25.324  26.005  1.00  0.00     0.170 HD
ATOM     15  C   UNL A   1      32.898  24.108  25.720  1.00  0.00     0.055 A 
ATOM     16  N   UNL A   1      33.973  24.651  25.056  1.00  0.00    -0.317 N 
ATOM     17  C   UNL A   1      33.573  25.867  24.539  1.00  0.00     0.107 A 
BRANCH  12  18
ATOM     18  C   UNL A   1      32.691  21.607  25.564  1.00  0.00    -0.035 A 
ATOM     19  C   UNL A   1      32.199  21.712  24.253  1.00  0.00     0.005 A 
ATOM     20  C   UNL A   1      33.146  20.358  26.014  1.00  0.00     0.050 A 
ATOM     21  C   UNL A   1      32.208  20.608  23.399  1.00  0.00     0.004 A 
ATOM     22  C   UNL A   1      33.182  19.273  25.145  1.00  0.00     0.115 A 
ATOM     23  C   UNL A   1      32.716  19.387  23.840  1.00  0.00     0.046 A 
BRANCH  22  24
ATOM     24  O   UNL A   1      33.739  18.118  25.603  1.00  0.00    -0.508 OA
ATOM     25  H   UNL A   1      34.530  17.794  25.220  1.00  0.00     0.293 HD
ENDBRANCH  22  24
ENDBRANCH  12  18
BRANCH  16  26
ATOM     26  C   UNL A   1      35.254  24.125  24.779  1.00  0.00     0.046 A 
ATOM     27  C   UNL A   1      35.401  23.223  23.717  1.00  0.00     0.026 A 
ATOM     28  C   UNL A   1      36.299  24.327  25.681  1.00  0.00     0.039 A 
ATOM     29  C   UNL A   1      36.620  22.574  23.525  1.00  0.00     0.003 A 
ATOM     30  C   UNL A   1      37.524  23.667  25.503  1.00  0.00     0.058 A 
ATOM     31  C   UNL A   1      37.677  22.800  24.408  1.00  0.00     0.013 A 
BRANCH  30  32
ATOM     32  C   UNL A   1      38.656  23.849  26.485  1.00  0.00     0.416 C 
ATOM     33  F   UNL A   1      38.227  24.353  27.676  1.00  0.00    -0.166 F 
ATOM     34  F   UNL A   1      39.286  22.680  26.782  1.00  0.00    -0.166 F 
ATOM     35  F   UNL A   1      39.627  24.705  26.060  1.00  0.00    -0.166 F 
ENDBRANCH  30  32
ENDBRANCH  16  26
ENDBRANCH   4   7
ENDBRANCH   2   3
ENDBRANCH   1   2
BRANCH   1  36
ATOM     36  C   UNL A   1      33.704  30.303  27.018  1.00  0.00     0.118 C 
BRANCH  36  37
ATOM     37  N   UNL A   1      34.073  31.613  27.592  1.00  0.00    -0.352 N 
ATOM     38  C   UNL A   1      35.079  31.946  28.498  1.00  0.00     0.251 C 
ATOM     39  H   UNL A   1      33.521  32.370  27.288  1.00  0.00     0.163 HD
ATOM     40  O   UNL A   1      35.061  32.999  29.105  1.00  0.00    -0.269 OA
BRANCH  38  41
ATOM     41  C   UNL A   1      36.184  30.991  28.686  1.00  0.00     0.039 A 
ATOM     42  C   UNL A   1      36.288  29.742  28.064  1.00  0.00     0.014 A 
ATOM     43  C   UNL A   1      37.218  31.456  29.461  1.00  0.00     0.014 A 
ATOM     44  C   UNL A   1      37.470  29.023  28.252  1.00  0.00     0.010 A 
ATOM     45  C   UNL A   1      38.450  31.035  29.110  1.00  0.00     0.010 A 
ATOM     46  C   UNL A   1      38.550  29.696  28.827  1.00  0.00    -0.014 A 
BRANCH  46  47
ATOM     47  C   UNL A   1      39.844  29.130  29.151  1.00  0.00     0.031 A 
ATOM     48  C   UNL A   1      40.050  28.878  30.588  1.00  0.00     0.074 A 
ATOM     49  C   UNL A   1      40.639  28.585  28.198  1.00  0.00     0.049 A 
ATOM     50  N   UNL A   1      40.819  29.525  31.394  1.00  0.00    -0.248 NA
ATOM     51  C   UNL A   1      39.172  27.898  31.246  1.00  0.00     0.031 C 
ATOM     52  C   UNL A   1      40.407  28.422  26.752  1.00  0.00     0.029 A 
ATOM     53  N   UNL A   1      41.831  27.955  28.367  1.00  0.00    -0.354 N 
ATOM     54  C   UNL A   1      40.693  28.885  32.620  1.00  0.00     0.074 A 
ATOM     55  C   UNL A   1      39.518  28.057  32.525  1.00  0.00     0.031 C 
ATOM     56  C   UNL A   1      41.307  27.556  26.234  1.00  0.00     0.029 A 
ATOM     57  C   UNL A   1      42.278  27.240  27.260  1.00  0.00     0.049 A 
ATOM     58  H   UNL A   1      42.340  28.001  29.209  1.00  0.00     0.167 HD
ATOM     59  C   UNL A   1      41.714  28.882  33.519  1.00  0.00     0.037 A 
ATOM     60  C   UNL A   1      43.355  26.416  27.240  1.00  0.00     0.037 A 
ATOM     61  C   UNL A   1      42.729  29.844  33.162  1.00  0.00     0.049 A 
ATOM     62  C   UNL A   1      44.211  26.806  28.395  1.00  0.00     0.074 A 
ATOM     63  C   UNL A   1      42.734  31.212  32.961  1.00  0.00     0.029 A 
ATOM     64  N   UNL A   1      43.859  29.378  32.529  1.00  0.00    -0.354 N 
ATOM     65  N   UNL A   1      44.806  27.968  28.486  1.00  0.00    -0.248 NA
ATOM     66  C   UNL A   1      43.965  26.133  29.665  1.00  0.00     0.031 C 
ATOM     67  C   UNL A   1      43.546  31.407  31.803  1.00  0.00     0.029 A 
ATOM     68  C   UNL A   1      44.055  30.165  31.420  1.00  0.00     0.049 A 
ATOM     69  H   UNL A   1      44.420  28.621  32.816  1.00  0.00     0.167 HD
ATOM     70  C   UNL A   1      44.638  28.359  29.810  1.00  0.00     0.074 A 
ATOM     71  C   UNL A   1      44.157  27.160  30.499  1.00  0.00     0.031 C 
ATOM     72  C   UNL A   1      44.603  29.677  30.173  1.00  0.00     0.037 A 
BRANCH  59  73
ATOM     73  C   UNL A   1      41.977  27.769  34.496  1.00  0.00     0.057 A 
ATOM     74  C   UNL A   1      41.693  27.973  35.856  1.00  0.00     0.134 A 
ATOM     75  C   UNL A   1      42.744  26.622  34.206  1.00  0.00     0.134 A 
ATOM     76  F   UNL A   1      40.983  29.039  36.257  1.00  0.00    -0.206 F 
ATOM     77  C   UNL A   1      42.193  27.135  36.859  1.00  0.00     0.040 A 
ATOM     78  C   UNL A   1      43.202  25.747  35.194  1.00  0.00     0.040 A 
ATOM     79  F   UNL A   1      43.180  26.341  32.972  1.00  0.00    -0.206 F 
ATOM     80  C   UNL A   1      42.955  26.020  36.530  1.00  0.00     0.006 A 
ENDBRANCH  59  73
BRANCH  60  81
ATOM     81  C   UNL A   1      43.461  25.109  26.545  1.00  0.00     0.057 A 
ATOM     82  C   UNL A   1      42.634  24.028  26.873  1.00  0.00     0.134 A 
ATOM     83  C   UNL A   1      44.211  24.972  25.360  1.00  0.00     0.134 A 
ATOM     84  F   UNL A   1      41.845  24.081  27.956  1.00  0.00    -0.206 F 
ATOM     85  C   UNL A   1      42.548  22.882  26.066  1.00  0.00     0.040 A 
ATOM     86  C   UNL A   1      44.138  23.833  24.549  1.00  0.00     0.040 A 
ATOM     87  F   UNL A   1      44.975  25.975  24.904  1.00  0.00    -0.206 F 
ATOM     88  C   UNL A   1      43.296  22.786  24.895  1.00  0.00     0.006 A 
ENDBRANCH  60  81
BRANCH  72  89
ATOM     89  C   UNL A   1      44.920  30.715  29.124  1.00  0.00     0.057 A 
ATOM     90  C   UNL A   1      43.953  31.341  28.320  1.00  0.00     0.134 A 
ATOM     91  C   UNL A   1      46.216  31.233  29.049  1.00  0.00     0.134 A 
ATOM     92  F   UNL A   1      42.665  30.994  28.393  1.00  0.00    -0.206 F 
ATOM     93  C   UNL A   1      44.265  32.398  27.457  1.00  0.00     0.040 A 
ATOM     94  C   UNL A   1      46.538  32.309  28.214  1.00  0.00     0.040 A 
ATOM     95  F   UNL A   1      47.186  30.736  29.833  1.00  0.00    -0.206 F 
ATOM     96  C   UNL A   1      45.563  32.890  27.408  1.00  0.00     0.006 A 
ENDBRANCH  72  89
ENDBRANCH  46  47
ENDBRANCH  38  41
ENDBRANCH  36  37
ENDBRANCH   1  36
TORSDOF 14
ENDMDL
