MODEL 1
REMARK VINA RESULT:     -12.4      0.000      0.000
REMARK SMILES Cc1nn(Cc2ccc(Cl)cc2Cl)c(C)c1NC(=O)c1c(C(=O)NCCCNC(=O)c2ccc(-c3c4nc(c(-c5c(F)cccc5F)c5ccc([nH]5)c(-c5c(F)cccc5F)c5nc(c(-c6c(F)cccc6F)c6ccc3[nH]6)C=C5)C=C4)cc2)cnn1C
REMARK SMILES IDX 25 1 24 2 22 3 23 4 21 6 20 7 87 8 85 9 86 10 88 11 18 12
REMARK SMILES IDX 17 13 19 15 16 16 1 17 2 18 3 19 4 20 14 21 15 22 5 23 6 24
REMARK SMILES IDX 7 25 12 26 8 27 11 28 13 29 9 30 10 31 26 32 27 33 28 34
REMARK SMILES IDX 29 35 30 37 31 38 32 39 84 40 33 41 83 42 34 43 35 44 36 45
REMARK SMILES IDX 77 46 37 47 82 48 76 49 78 50 38 51 81 52 75 53 74 54 39 56
REMARK SMILES IDX 65 57 48 58 64 59 49 60 52 61 63 62 79 63 50 64 51 65 62 67
REMARK SMILES IDX 80 68 53 69 40 70 41 71 46 72 42 73 43 74 45 75 47 76 44 77
REMARK SMILES IDX 66 78 67 79 72 80 68 81 69 82 71 83 73 84 70 85 54 86 55 87
REMARK SMILES IDX 60 88 56 89 57 90 59 91 61 92 58 93
REMARK H PARENT 24 5 17 14 28 36 78 55 52 66
REMARK Flexibility Score: inf
ROOT
ATOM      1  C   UNL A   1      33.893  29.279  27.380  1.00  0.00     0.118 C 
ENDROOT
BRANCH   1   2
ATOM      2  N   UNL A   1      32.876  28.257  27.612  1.00  0.00    -0.352 N 
ATOM      3  C   UNL A   1      31.958  27.622  26.797  1.00  0.00     0.255 C 
ATOM      4  O   UNL A   1      31.438  26.607  27.258  1.00  0.00    -0.269 OA
ATOM      5  H   UNL A   1      32.835  27.958  28.549  1.00  0.00     0.163 HD
BRANCH   3   6
ATOM      6  C   UNL A   1      31.582  28.142  25.489  1.00  0.00     0.090 A 
ATOM      7  C   UNL A   1      30.716  27.528  24.570  1.00  0.00     0.138 A 
ATOM      8  N   UNL A   1      30.643  28.392  23.499  1.00  0.00    -0.262 N 
ATOM      9  C   UNL A   1      32.041  29.279  24.787  1.00  0.00     0.149 A 
ATOM     10  N   UNL A   1      31.426  29.473  23.624  1.00  0.00    -0.180 NA
ATOM     11  C   UNL A   1      29.772  28.331  22.347  1.00  0.00     0.174 C 
BRANCH   7  12
ATOM     12  C   UNL A   1      30.059  26.238  24.553  1.00  0.00     0.274 C 
ATOM     13  N   UNL A   1      30.718  25.055  24.323  1.00  0.00    -0.317 N 
ATOM     14  H   UNL A   1      30.118  24.288  24.179  1.00  0.00     0.170 HD
ATOM     15  O   UNL A   1      28.842  26.153  24.736  1.00  0.00    -0.267 OA
BRANCH  13  16
ATOM     16  C   UNL A   1      32.056  24.738  24.253  1.00  0.00     0.085 A 
ATOM     17  C   UNL A   1      32.537  25.438  21.766  1.00  0.00     0.071 C 
ATOM     18  C   UNL A   1      32.897  24.949  23.121  1.00  0.00     0.083 A 
ATOM     19  N   UNL A   1      34.180  24.701  23.412  1.00  0.00    -0.175 NA
ATOM     20  N   UNL A   1      34.144  24.309  24.700  1.00  0.00    -0.263 N 
ATOM     21  C   UNL A   1      32.867  24.090  25.161  1.00  0.00     0.060 A 
ATOM     22  C   UNL A   1      32.588  23.278  26.368  1.00  0.00     0.069 C 
BRANCH  20  23
ATOM     23  C   UNL A   1      35.361  24.398  25.502  1.00  0.00     0.181 C 
BRANCH  23  24
ATOM     24  C   UNL A   1      36.223  23.168  25.413  1.00  0.00    -0.008 A 
ATOM     25  C   UNL A   1      35.669  22.004  24.848  1.00  0.00     0.009 A 
ATOM     26  C   UNL A   1      37.559  23.129  25.848  1.00  0.00     0.047 A 
ATOM     27  C   UNL A   1      36.420  20.833  24.744  1.00  0.00     0.021 A 
ATOM     28  C   UNL A   1      38.301  21.950  25.767  1.00  0.00     0.041 A 
ATOM     29  Cl  UNL A   1      38.379  24.521  26.461  1.00  0.00    -0.084 Cl
ATOM     30  C   UNL A   1      37.727  20.808  25.216  1.00  0.00     0.042 A 
ATOM     31  Cl  UNL A   1      38.647  19.360  25.108  1.00  0.00    -0.084 Cl
ENDBRANCH  23  24
ENDBRANCH  20  23
ENDBRANCH  13  16
ENDBRANCH   7  12
ENDBRANCH   3   6
ENDBRANCH   1   2
BRANCH   1  32
ATOM     32  C   UNL A   1      33.441  30.732  27.546  1.00  0.00     0.042 C 
BRANCH  32  33
ATOM     33  C   UNL A   1      34.550  31.702  27.907  1.00  0.00     0.118 C 
BRANCH  33  34
ATOM     34  N   UNL A   1      34.441  32.228  29.267  1.00  0.00    -0.352 N 
ATOM     35  C   UNL A   1      35.214  31.903  30.367  1.00  0.00     0.251 C 
ATOM     36  H   UNL A   1      33.733  32.894  29.418  1.00  0.00     0.163 HD
ATOM     37  O   UNL A   1      34.829  32.155  31.501  1.00  0.00    -0.269 OA
BRANCH  35  38
ATOM     38  C   UNL A   1      36.505  31.222  30.151  1.00  0.00     0.039 A 
ATOM     39  C   UNL A   1      37.675  31.950  29.924  1.00  0.00     0.014 A 
ATOM     40  C   UNL A   1      36.538  29.834  30.211  1.00  0.00     0.014 A 
ATOM     41  C   UNL A   1      38.889  31.270  29.836  1.00  0.00     0.010 A 
ATOM     42  C   UNL A   1      37.746  29.185  30.295  1.00  0.00     0.010 A 
ATOM     43  C   UNL A   1      38.923  29.881  30.038  1.00  0.00    -0.014 A 
BRANCH  43  44
ATOM     44  C   UNL A   1      40.191  29.154  30.006  1.00  0.00     0.031 A 
ATOM     45  C   UNL A   1      40.879  28.925  31.309  1.00  0.00     0.074 A 
ATOM     46  C   UNL A   1      40.650  28.523  28.903  1.00  0.00     0.049 A 
ATOM     47  N   UNL A   1      42.056  29.327  31.668  1.00  0.00    -0.248 NA
ATOM     48  C   UNL A   1      40.155  28.194  32.360  1.00  0.00     0.031 C 
ATOM     49  C   UNL A   1      39.997  28.340  27.601  1.00  0.00     0.029 A 
ATOM     50  N   UNL A   1      41.787  27.788  28.771  1.00  0.00    -0.354 N 
ATOM     51  C   UNL A   1      42.297  28.775  32.925  1.00  0.00     0.074 A 
ATOM     52  C   UNL A   1      41.053  28.180  33.347  1.00  0.00     0.031 C 
ATOM     53  C   UNL A   1      40.615  27.351  26.923  1.00  0.00     0.029 A 
ATOM     54  C   UNL A   1      41.807  26.969  27.655  1.00  0.00     0.049 A 
ATOM     55  H   UNL A   1      42.531  27.835  29.413  1.00  0.00     0.167 HD
ATOM     56  C   UNL A   1      43.550  28.697  33.456  1.00  0.00     0.037 A 
ATOM     57  C   UNL A   1      42.724  26.017  27.366  1.00  0.00     0.037 A 
ATOM     58  C   UNL A   1      44.479  29.557  32.771  1.00  0.00     0.049 A 
ATOM     59  C   UNL A   1      43.950  26.333  28.140  1.00  0.00     0.074 A 
ATOM     60  C   UNL A   1      44.529  30.914  32.511  1.00  0.00     0.029 A 
ATOM     61  N   UNL A   1      45.390  28.993  31.911  1.00  0.00    -0.354 N 
ATOM     62  N   UNL A   1      44.706  27.373  27.916  1.00  0.00    -0.248 NA
ATOM     63  C   UNL A   1      44.095  25.730  29.456  1.00  0.00     0.031 C 
ATOM     64  C   UNL A   1      45.031  31.009  31.179  1.00  0.00     0.029 A 
ATOM     65  C   UNL A   1      45.304  29.711  30.745  1.00  0.00     0.049 A 
ATOM     66  H   UNL A   1      45.983  28.229  32.095  1.00  0.00     0.167 HD
ATOM     67  C   UNL A   1      45.094  27.807  29.175  1.00  0.00     0.074 A 
ATOM     68  C   UNL A   1      44.774  26.700  30.073  1.00  0.00     0.031 C 
ATOM     69  C   UNL A   1      45.375  29.121  29.428  1.00  0.00     0.037 A 
BRANCH  56  70
ATOM     70  C   UNL A   1      44.009  27.628  34.412  1.00  0.00     0.057 A 
ATOM     71  C   UNL A   1      44.587  27.985  35.644  1.00  0.00     0.134 A 
ATOM     72  C   UNL A   1      44.152  26.274  34.051  1.00  0.00     0.134 A 
ATOM     73  F   UNL A   1      44.547  29.253  36.081  1.00  0.00    -0.206 F 
ATOM     74  C   UNL A   1      45.294  27.070  36.436  1.00  0.00     0.040 A 
ATOM     75  C   UNL A   1      44.810  25.341  34.857  1.00  0.00     0.040 A 
ATOM     76  F   UNL A   1      43.749  25.812  32.861  1.00  0.00    -0.206 F 
ATOM     77  C   UNL A   1      45.407  25.743  36.042  1.00  0.00     0.006 A 
ENDBRANCH  56  70
BRANCH  57  78
ATOM     78  C   UNL A   1      42.501  24.734  26.669  1.00  0.00     0.057 A 
ATOM     79  C   UNL A   1      43.168  24.429  25.477  1.00  0.00     0.134 A 
ATOM     80  C   UNL A   1      41.811  23.669  27.280  1.00  0.00     0.134 A 
ATOM     81  F   UNL A   1      43.889  25.365  24.843  1.00  0.00    -0.206 F 
ATOM     82  C   UNL A   1      43.163  23.139  24.930  1.00  0.00     0.040 A 
ATOM     83  C   UNL A   1      41.788  22.380  26.740  1.00  0.00     0.040 A 
ATOM     84  F   UNL A   1      41.203  23.822  28.465  1.00  0.00    -0.206 F 
ATOM     85  C   UNL A   1      42.477  22.108  25.567  1.00  0.00     0.006 A 
ENDBRANCH  57  78
BRANCH  69  86
ATOM     86  C   UNL A   1      45.478  30.077  28.268  1.00  0.00     0.057 A 
ATOM     87  C   UNL A   1      44.385  30.768  27.725  1.00  0.00     0.134 A 
ATOM     88  C   UNL A   1      46.746  30.450  27.807  1.00  0.00     0.134 A 
ATOM     89  F   UNL A   1      43.142  30.567  28.175  1.00  0.00    -0.206 F 
ATOM     90  C   UNL A   1      44.541  31.749  26.740  1.00  0.00     0.040 A 
ATOM     91  C   UNL A   1      46.919  31.453  26.848  1.00  0.00     0.040 A 
ATOM     92  F   UNL A   1      47.849  29.882  28.322  1.00  0.00    -0.206 F 
ATOM     93  C   UNL A   1      45.814  32.100  26.305  1.00  0.00     0.006 A 
ENDBRANCH  69  86
ENDBRANCH  43  44
ENDBRANCH  35  38
ENDBRANCH  33  34
ENDBRANCH  32  33
ENDBRANCH   1  32
TORSDOF 14
ENDMDL
MODEL 2
REMARK VINA RESULT:     -12.4      3.475      8.113
REMARK SMILES Cc1nn(Cc2ccc(Cl)cc2Cl)c(C)c1NC(=O)c1c(C(=O)NCCCNC(=O)c2ccc(-c3c4nc(c(-c5c(F)cccc5F)c5ccc([nH]5)c(-c5c(F)cccc5F)c5nc(c(-c6c(F)cccc6F)c6ccc3[nH]6)C=C5)C=C4)cc2)cnn1C
REMARK SMILES IDX 25 1 24 2 22 3 23 4 21 6 20 7 87 8 85 9 86 10 88 11 18 12
REMARK SMILES IDX 17 13 19 15 16 16 1 17 2 18 3 19 4 20 14 21 15 22 5 23 6 24
REMARK SMILES IDX 7 25 12 26 8 27 11 28 13 29 9 30 10 31 26 32 27 33 28 34
REMARK SMILES IDX 29 35 30 37 31 38 32 39 84 40 33 41 83 42 34 43 35 44 36 45
REMARK SMILES IDX 77 46 37 47 82 48 76 49 78 50 38 51 81 52 75 53 74 54 39 56
REMARK SMILES IDX 65 57 48 58 64 59 49 60 52 61 63 62 79 63 50 64 51 65 62 67
REMARK SMILES IDX 80 68 53 69 40 70 41 71 46 72 42 73 43 74 45 75 47 76 44 77
REMARK SMILES IDX 66 78 67 79 72 80 68 81 69 82 71 83 73 84 70 85 54 86 55 87
REMARK SMILES IDX 60 88 56 89 57 90 59 91 61 92 58 93
REMARK H PARENT 24 5 17 14 28 36 78 55 52 66
REMARK Flexibility Score: inf
ROOT
ATOM      1  C   UNL A   1      36.988  21.741  25.729  1.00  0.00     0.118 C 
ENDROOT
BRANCH   1   2
ATOM      2  N   UNL A   1      36.330  20.494  25.349  1.00  0.00    -0.352 N 
ATOM      3  C   UNL A   1      35.009  20.122  25.189  1.00  0.00     0.255 C 
ATOM      4  O   UNL A   1      34.813  19.067  24.589  1.00  0.00    -0.269 OA
ATOM      5  H   UNL A   1      36.964  19.761  25.170  1.00  0.00     0.163 HD
BRANCH   3   6
ATOM      6  C   UNL A   1      33.906  20.900  25.739  1.00  0.00     0.090 A 
ATOM      7  C   UNL A   1      32.746  21.295  25.053  1.00  0.00     0.138 A 
ATOM      8  N   UNL A   1      31.988  21.981  25.976  1.00  0.00    -0.262 N 
ATOM      9  C   UNL A   1      33.761  21.524  26.998  1.00  0.00     0.149 A 
ATOM     10  N   UNL A   1      32.581  22.111  27.171  1.00  0.00    -0.180 NA
ATOM     11  C   UNL A   1      30.631  22.466  25.849  1.00  0.00     0.174 C 
BRANCH   7  12
ATOM     12  C   UNL A   1      32.340  21.181  23.668  1.00  0.00     0.274 C 
ATOM     13  N   UNL A   1      32.262  22.251  22.811  1.00  0.00    -0.317 N 
ATOM     14  H   UNL A   1      31.818  22.045  21.957  1.00  0.00     0.170 HD
ATOM     15  O   UNL A   1      32.025  20.086  23.195  1.00  0.00    -0.267 OA
BRANCH  13  16
ATOM     16  C   UNL A   1      32.686  23.557  22.917  1.00  0.00     0.085 A 
ATOM     17  C   UNL A   1      35.282  23.163  23.012  1.00  0.00     0.071 C 
ATOM     18  C   UNL A   1      34.046  23.984  22.962  1.00  0.00     0.083 A 
ATOM     19  N   UNL A   1      34.144  25.317  22.894  1.00  0.00    -0.175 NA
ATOM     20  N   UNL A   1      32.862  25.727  22.838  1.00  0.00    -0.263 N 
ATOM     21  C   UNL A   1      31.962  24.718  23.091  1.00  0.00     0.060 A 
ATOM     22  C   UNL A   1      30.561  24.987  23.491  1.00  0.00     0.069 C 
BRANCH  20  23
ATOM     23  C   UNL A   1      32.564  27.050  22.297  1.00  0.00     0.181 C 
BRANCH  23  24
ATOM     24  C   UNL A   1      32.317  28.085  23.360  1.00  0.00    -0.008 A 
ATOM     25  C   UNL A   1      33.387  28.446  24.201  1.00  0.00     0.009 A 
ATOM     26  C   UNL A   1      31.078  28.724  23.543  1.00  0.00     0.047 A 
ATOM     27  C   UNL A   1      33.215  29.397  25.207  1.00  0.00     0.021 A 
ATOM     28  C   UNL A   1      30.901  29.656  24.567  1.00  0.00     0.041 A 
ATOM     29  Cl  UNL A   1      29.724  28.441  22.508  1.00  0.00    -0.084 Cl
ATOM     30  C   UNL A   1      31.970  29.988  25.393  1.00  0.00     0.042 A 
ATOM     31  Cl  UNL A   1      31.751  31.144  26.646  1.00  0.00    -0.084 Cl
ENDBRANCH  23  24
ENDBRANCH  20  23
ENDBRANCH  13  16
ENDBRANCH   7  12
ENDBRANCH   3   6
ENDBRANCH   1   2
BRANCH   1  32
ATOM     32  C   UNL A   1      38.437  21.909  25.266  1.00  0.00     0.042 C 
BRANCH  32  33
ATOM     33  C   UNL A   1      39.439  22.119  26.386  1.00  0.00     0.118 C 
BRANCH  33  34
ATOM     34  N   UNL A   1      40.829  21.973  25.957  1.00  0.00    -0.352 N 
ATOM     35  C   UNL A   1      41.821  22.937  25.951  1.00  0.00     0.251 C 
ATOM     36  H   UNL A   1      41.090  21.081  25.634  1.00  0.00     0.163 HD
ATOM     37  O   UNL A   1      42.832  22.792  25.278  1.00  0.00    -0.269 OA
BRANCH  35  38
ATOM     38  C   UNL A   1      41.627  24.159  26.754  1.00  0.00     0.039 A 
ATOM     39  C   UNL A   1      42.193  24.285  28.025  1.00  0.00     0.014 A 
ATOM     40  C   UNL A   1      40.894  25.203  26.201  1.00  0.00     0.014 A 
ATOM     41  C   UNL A   1      42.077  25.499  28.700  1.00  0.00     0.010 A 
ATOM     42  C   UNL A   1      40.927  26.444  26.790  1.00  0.00     0.010 A 
ATOM     43  C   UNL A   1      41.453  26.587  28.070  1.00  0.00    -0.014 A 
BRANCH  43  44
ATOM     44  C   UNL A   1      41.369  27.886  28.736  1.00  0.00     0.031 A 
ATOM     45  C   UNL A   1      42.408  28.898  28.390  1.00  0.00     0.074 A 
ATOM     46  C   UNL A   1      40.304  28.266  29.476  1.00  0.00     0.049 A 
ATOM     47  N   UNL A   1      43.262  29.463  29.182  1.00  0.00    -0.248 NA
ATOM     48  C   UNL A   1      42.543  29.305  26.984  1.00  0.00     0.031 C 
ATOM     49  C   UNL A   1      39.031  27.570  29.694  1.00  0.00     0.029 A 
ATOM     50  N   UNL A   1      40.102  29.456  30.103  1.00  0.00    -0.354 N 
ATOM     51  C   UNL A   1      43.943  30.411  28.419  1.00  0.00     0.074 A 
ATOM     52  C   UNL A   1      43.537  30.194  27.053  1.00  0.00     0.031 C 
ATOM     53  C   UNL A   1      38.117  28.441  30.168  1.00  0.00     0.029 A 
ATOM     54  C   UNL A   1      38.787  29.692  30.463  1.00  0.00     0.049 A 
ATOM     55  H   UNL A   1      40.829  30.095  30.284  1.00  0.00     0.167 HD
ATOM     56  C   UNL A   1      44.662  31.420  28.988  1.00  0.00     0.037 A 
ATOM     57  C   UNL A   1      38.274  30.849  30.941  1.00  0.00     0.037 A 
ATOM     58  C   UNL A   1      44.938  31.168  30.378  1.00  0.00     0.049 A 
ATOM     59  C   UNL A   1      39.401  31.639  31.494  1.00  0.00     0.074 A 
ATOM     60  C   UNL A   1      45.567  30.149  31.069  1.00  0.00     0.029 A 
ATOM     61  N   UNL A   1      44.227  31.861  31.328  1.00  0.00    -0.354 N 
ATOM     62  N   UNL A   1      40.077  31.300  32.557  1.00  0.00    -0.248 NA
ATOM     63  C   UNL A   1      40.067  32.583  30.609  1.00  0.00     0.031 C 
ATOM     64  C   UNL A   1      44.777  29.966  32.243  1.00  0.00     0.029 A 
ATOM     65  C   UNL A   1      43.760  30.921  32.211  1.00  0.00     0.049 A 
ATOM     66  H   UNL A   1      44.084  32.834  31.367  1.00  0.00     0.167 HD
ATOM     67  C   UNL A   1      41.390  31.638  32.267  1.00  0.00     0.074 A 
ATOM     68  C   UNL A   1      41.306  32.516  31.101  1.00  0.00     0.031 C 
ATOM     69  C   UNL A   1      42.446  30.961  32.810  1.00  0.00     0.037 A 
BRANCH  56  70
ATOM     70  C   UNL A   1      44.874  32.775  28.366  1.00  0.00     0.057 A 
ATOM     71  C   UNL A   1      43.807  33.688  28.283  1.00  0.00     0.134 A 
ATOM     72  C   UNL A   1      46.012  33.110  27.607  1.00  0.00     0.134 A 
ATOM     73  F   UNL A   1      42.655  33.462  28.934  1.00  0.00    -0.206 F 
ATOM     74  C   UNL A   1      43.854  34.826  27.468  1.00  0.00     0.040 A 
ATOM     75  C   UNL A   1      46.090  34.269  26.831  1.00  0.00     0.040 A 
ATOM     76  F   UNL A   1      47.062  32.285  27.502  1.00  0.00    -0.206 F 
ATOM     77  C   UNL A   1      44.999  35.120  26.738  1.00  0.00     0.006 A 
ENDBRANCH  56  70
BRANCH  57  78
ATOM     78  C   UNL A   1      36.922  31.399  30.709  1.00  0.00     0.057 A 
ATOM     79  C   UNL A   1      36.049  31.655  31.773  1.00  0.00     0.134 A 
ATOM     80  C   UNL A   1      36.538  31.916  29.457  1.00  0.00     0.134 A 
ATOM     81  F   UNL A   1      36.349  31.242  33.013  1.00  0.00    -0.206 F 
ATOM     82  C   UNL A   1      34.870  32.394  31.607  1.00  0.00     0.040 A 
ATOM     83  C   UNL A   1      35.359  32.645  29.274  1.00  0.00     0.040 A 
ATOM     84  F   UNL A   1      37.332  31.803  28.383  1.00  0.00    -0.206 F 
ATOM     85  C   UNL A   1      34.526  32.898  30.355  1.00  0.00     0.006 A 
ENDBRANCH  57  78
BRANCH  69  86
ATOM     86  C   UNL A   1      42.180  29.971  33.915  1.00  0.00     0.057 A 
ATOM     87  C   UNL A   1      41.873  28.620  33.697  1.00  0.00     0.134 A 
ATOM     88  C   UNL A   1      42.424  30.351  35.240  1.00  0.00     0.134 A 
ATOM     89  F   UNL A   1      41.731  28.129  32.461  1.00  0.00    -0.206 F 
ATOM     90  C   UNL A   1      41.769  27.703  34.748  1.00  0.00     0.040 A 
ATOM     91  C   UNL A   1      42.357  29.438  36.297  1.00  0.00     0.040 A 
ATOM     92  F   UNL A   1      42.786  31.613  35.527  1.00  0.00    -0.206 F 
ATOM     93  C   UNL A   1      42.020  28.110  36.054  1.00  0.00     0.006 A 
ENDBRANCH  69  86
ENDBRANCH  43  44
ENDBRANCH  35  38
ENDBRANCH  33  34
ENDBRANCH  32  33
ENDBRANCH   1  32
TORSDOF 14
ENDMDL
MODEL 3
REMARK VINA RESULT:     -12.2      1.391      2.205
REMARK SMILES Cc1nn(Cc2ccc(Cl)cc2Cl)c(C)c1NC(=O)c1c(C(=O)NCCCNC(=O)c2ccc(-c3c4nc(c(-c5c(F)cccc5F)c5ccc([nH]5)c(-c5c(F)cccc5F)c5nc(c(-c6c(F)cccc6F)c6ccc3[nH]6)C=C5)C=C4)cc2)cnn1C
REMARK SMILES IDX 25 1 24 2 22 3 23 4 21 6 20 7 87 8 85 9 86 10 88 11 18 12
REMARK SMILES IDX 17 13 19 15 16 16 1 17 2 18 3 19 4 20 14 21 15 22 5 23 6 24
REMARK SMILES IDX 7 25 12 26 8 27 11 28 13 29 9 30 10 31 26 32 27 33 28 34
REMARK SMILES IDX 29 35 30 37 31 38 32 39 84 40 33 41 83 42 34 43 35 44 36 45
REMARK SMILES IDX 77 46 37 47 82 48 76 49 78 50 38 51 81 52 75 53 74 54 39 56
REMARK SMILES IDX 65 57 48 58 64 59 49 60 52 61 63 62 79 63 50 64 51 65 62 67
REMARK SMILES IDX 80 68 53 69 40 70 41 71 46 72 42 73 43 74 45 75 47 76 44 77
REMARK SMILES IDX 66 78 67 79 72 80 68 81 69 82 71 83 73 84 70 85 54 86 55 87
REMARK SMILES IDX 60 88 56 89 57 90 59 91 61 92 58 93
REMARK H PARENT 24 5 17 14 28 36 78 55 52 66
REMARK Flexibility Score: inf
ROOT
ATOM      1  C   UNL A   1      31.784  31.532  26.506  1.00  0.00     0.118 C 
ENDROOT
BRANCH   1   2
ATOM      2  N   UNL A   1      31.032  31.020  25.364  1.00  0.00    -0.352 N 
ATOM      3  C   UNL A   1      31.031  29.817  24.683  1.00  0.00     0.255 C 
ATOM      4  O   UNL A   1      30.073  29.618  23.939  1.00  0.00    -0.269 OA
ATOM      5  H   UNL A   1      30.390  31.672  25.000  1.00  0.00     0.163 HD
BRANCH   3   6
ATOM      6  C   UNL A   1      32.121  28.856  24.794  1.00  0.00     0.090 A 
ATOM      7  C   UNL A   1      32.141  27.714  25.612  1.00  0.00     0.138 A 
ATOM      8  N   UNL A   1      33.351  27.106  25.366  1.00  0.00    -0.262 N 
ATOM      9  C   UNL A   1      33.416  28.867  24.229  1.00  0.00     0.149 A 
ATOM     10  N   UNL A   1      34.131  27.782  24.509  1.00  0.00    -0.180 NA
ATOM     11  C   UNL A   1      33.823  25.816  25.818  1.00  0.00     0.174 C 
BRANCH   7  12
ATOM     12  C   UNL A   1      31.228  27.214  26.618  1.00  0.00     0.274 C 
ATOM     13  N   UNL A   1      30.501  26.058  26.475  1.00  0.00    -0.317 N 
ATOM     14  H   UNL A   1      29.808  25.936  27.164  1.00  0.00     0.170 HD
ATOM     15  O   UNL A   1      31.054  27.836  27.670  1.00  0.00    -0.267 OA
BRANCH  13  16
ATOM     16  C   UNL A   1      30.554  25.038  25.551  1.00  0.00     0.085 A 
ATOM     17  C   UNL A   1      29.866  26.372  23.394  1.00  0.00     0.071 C 
ATOM     18  C   UNL A   1      30.315  25.177  24.152  1.00  0.00     0.083 A 
ATOM     19  N   UNL A   1      30.608  24.050  23.492  1.00  0.00    -0.175 NA
ATOM     20  N   UNL A   1      30.997  23.203  24.464  1.00  0.00    -0.263 N 
ATOM     21  C   UNL A   1      30.748  23.684  25.729  1.00  0.00     0.060 A 
ATOM     22  C   UNL A   1      30.696  22.802  26.917  1.00  0.00     0.069 C 
BRANCH  20  23
ATOM     23  C   UNL A   1      31.822  22.051  24.113  1.00  0.00     0.181 C 
BRANCH  23  24
ATOM     24  C   UNL A   1      33.289  22.274  24.357  1.00  0.00    -0.008 A 
ATOM     25  C   UNL A   1      33.852  21.773  25.546  1.00  0.00     0.009 A 
ATOM     26  C   UNL A   1      34.130  22.941  23.449  1.00  0.00     0.047 A 
ATOM     27  C   UNL A   1      35.206  21.954  25.828  1.00  0.00     0.021 A 
ATOM     28  C   UNL A   1      35.479  23.144  23.744  1.00  0.00     0.041 A 
ATOM     29  Cl  UNL A   1      33.578  23.507  21.913  1.00  0.00    -0.084 Cl
ATOM     30  C   UNL A   1      36.010  22.650  24.932  1.00  0.00     0.042 A 
ATOM     31  Cl  UNL A   1      37.674  22.893  25.287  1.00  0.00    -0.084 Cl
ENDBRANCH  23  24
ENDBRANCH  20  23
ENDBRANCH  13  16
ENDBRANCH   7  12
ENDBRANCH   3   6
ENDBRANCH   1   2
BRANCH   1  32
ATOM     32  C   UNL A   1      32.713  30.537  27.205  1.00  0.00     0.042 C 
BRANCH  32  33
ATOM     33  C   UNL A   1      34.075  31.093  27.574  1.00  0.00     0.118 C 
BRANCH  33  34
ATOM     34  N   UNL A   1      34.049  31.963  28.748  1.00  0.00    -0.352 N 
ATOM     35  C   UNL A   1      34.920  31.965  29.823  1.00  0.00     0.251 C 
ATOM     36  H   UNL A   1      33.324  32.628  28.778  1.00  0.00     0.163 HD
ATOM     37  O   UNL A   1      34.614  32.504  30.878  1.00  0.00    -0.269 OA
BRANCH  35  38
ATOM     38  C   UNL A   1      36.220  31.283  29.683  1.00  0.00     0.039 A 
ATOM     39  C   UNL A   1      37.386  32.001  29.402  1.00  0.00     0.014 A 
ATOM     40  C   UNL A   1      36.268  29.907  29.871  1.00  0.00     0.014 A 
ATOM     41  C   UNL A   1      38.608  31.329  29.388  1.00  0.00     0.010 A 
ATOM     42  C   UNL A   1      37.482  29.282  30.026  1.00  0.00     0.010 A 
ATOM     43  C   UNL A   1      38.654  29.966  29.718  1.00  0.00    -0.014 A 
BRANCH  43  44
ATOM     44  C   UNL A   1      39.930  29.253  29.765  1.00  0.00     0.031 A 
ATOM     45  C   UNL A   1      40.531  29.020  31.110  1.00  0.00     0.074 A 
ATOM     46  C   UNL A   1      40.470  28.639  28.690  1.00  0.00     0.049 A 
ATOM     47  N   UNL A   1      41.676  29.432  31.551  1.00  0.00    -0.248 NA
ATOM     48  C   UNL A   1      39.747  28.271  32.103  1.00  0.00     0.031 C 
ATOM     49  C   UNL A   1      39.909  28.460  27.346  1.00  0.00     0.029 A 
ATOM     50  N   UNL A   1      41.622  27.918  28.629  1.00  0.00    -0.354 N 
ATOM     51  C   UNL A   1      41.838  28.871  32.817  1.00  0.00     0.074 A 
ATOM     52  C   UNL A   1      40.576  28.258  33.149  1.00  0.00     0.031 C 
ATOM     53  C   UNL A   1      40.584  27.485  26.703  1.00  0.00     0.029 A 
ATOM     54  C   UNL A   1      41.728  27.110  27.510  1.00  0.00     0.049 A 
ATOM     55  H   UNL A   1      42.321  27.968  29.321  1.00  0.00     0.167 HD
ATOM     56  C   UNL A   1      43.053  28.802  33.431  1.00  0.00     0.037 A 
ATOM     57  C   UNL A   1      42.674  26.172  27.276  1.00  0.00     0.037 A 
ATOM     58  C   UNL A   1      44.016  29.680  32.818  1.00  0.00     0.049 A 
ATOM     59  C   UNL A   1      43.841  26.494  28.133  1.00  0.00     0.074 A 
ATOM     60  C   UNL A   1      44.067  31.039  32.574  1.00  0.00     0.029 A 
ATOM     61  N   UNL A   1      44.990  29.134  32.017  1.00  0.00    -0.354 N 
ATOM     62  N   UNL A   1      44.598  27.545  27.971  1.00  0.00    -0.248 NA
ATOM     63  C   UNL A   1      43.904  25.880  29.451  1.00  0.00     0.031 C 
ATOM     64  C   UNL A   1      44.656  31.153  31.279  1.00  0.00     0.029 A 
ATOM     65  C   UNL A   1      44.975  29.862  30.854  1.00  0.00     0.049 A 
ATOM     66  H   UNL A   1      45.579  28.376  32.234  1.00  0.00     0.167 HD
ATOM     67  C   UNL A   1      44.894  27.971  29.256  1.00  0.00     0.074 A 
ATOM     68  C   UNL A   1      44.527  26.852  30.121  1.00  0.00     0.031 C 
ATOM     69  C   UNL A   1      45.142  29.286  29.540  1.00  0.00     0.037 A 
BRANCH  56  70
ATOM     70  C   UNL A   1      43.460  27.730  34.407  1.00  0.00     0.057 A 
ATOM     71  C   UNL A   1      43.597  26.398  33.975  1.00  0.00     0.134 A 
ATOM     72  C   UNL A   1      43.456  27.912  35.804  1.00  0.00     0.134 A 
ATOM     73  F   UNL A   1      43.581  26.094  32.669  1.00  0.00    -0.206 F 
ATOM     74  C   UNL A   1      43.680  25.324  34.870  1.00  0.00     0.040 A 
ATOM     75  C   UNL A   1      43.589  26.853  36.705  1.00  0.00     0.040 A 
ATOM     76  F   UNL A   1      43.225  29.107  36.362  1.00  0.00    -0.206 F 
ATOM     77  C   UNL A   1      43.676  25.549  36.241  1.00  0.00     0.006 A 
ENDBRANCH  56  70
BRANCH  57  78
ATOM     78  C   UNL A   1      42.514  24.893  26.554  1.00  0.00     0.057 A 
ATOM     79  C   UNL A   1      43.315  24.576  25.450  1.00  0.00     0.134 A 
ATOM     80  C   UNL A   1      41.737  23.840  27.075  1.00  0.00     0.134 A 
ATOM     81  F   UNL A   1      44.124  25.499  24.910  1.00  0.00    -0.206 F 
ATOM     82  C   UNL A   1      43.353  23.286  24.904  1.00  0.00     0.040 A 
ATOM     83  C   UNL A   1      41.756  22.552  26.533  1.00  0.00     0.040 A 
ATOM     84  F   UNL A   1      40.993  24.004  28.178  1.00  0.00    -0.206 F 
ATOM     85  C   UNL A   1      42.577  22.267  25.451  1.00  0.00     0.006 A 
ENDBRANCH  57  78
BRANCH  69  86
ATOM     86  C   UNL A   1      45.311  30.254  28.398  1.00  0.00     0.057 A 
ATOM     87  C   UNL A   1      44.252  30.956  27.804  1.00  0.00     0.134 A 
ATOM     88  C   UNL A   1      46.603  30.626  28.010  1.00  0.00     0.134 A 
ATOM     89  F   UNL A   1      42.986  30.756  28.184  1.00  0.00    -0.206 F 
ATOM     90  C   UNL A   1      44.465  31.948  26.841  1.00  0.00     0.040 A 
ATOM     91  C   UNL A   1      46.833  31.638  27.072  1.00  0.00     0.040 A 
ATOM     92  F   UNL A   1      47.674  30.047  28.577  1.00  0.00    -0.206 F 
ATOM     93  C   UNL A   1      45.761  32.297  26.478  1.00  0.00     0.006 A 
ENDBRANCH  69  86
ENDBRANCH  43  44
ENDBRANCH  35  38
ENDBRANCH  33  34
ENDBRANCH  32  33
ENDBRANCH   1  32
TORSDOF 14
ENDMDL
