MODEL 1
REMARK VINA RESULT:      -9.7      0.000      0.000
REMARK SMILES CN1N=C(CC(=O)NCCCNC(=O)c2ccc(-c3c4nc(c(-c5c(F)cccc5F)c5ccc([nH]5)c(-c5c(F)cccc5F)c5nc(c(-c6c(F)cccc6F)c6ccc3[nH]6)C=C5)C=C4)cc2)CC1=O
REMARK SMILES IDX 10 1 9 2 8 3 6 4 7 5 5 7 4 8 1 9 2 10 3 11 70 12 69 13 71 14
REMARK SMILES IDX 11 15 12 16 13 17 14 19 15 20 16 21 68 22 17 23 67 24 18 25
REMARK SMILES IDX 19 26 20 27 61 28 21 29 66 30 60 31 62 32 22 33 65 34 59 35
REMARK SMILES IDX 58 36 23 38 49 39 32 40 48 41 33 42 36 43 47 44 63 45 34 46
REMARK SMILES IDX 35 47 46 49 64 50 37 51 24 52 25 53 30 54 26 55 27 56 29 57
REMARK SMILES IDX 31 58 28 59 50 60 51 61 56 62 52 63 53 64 55 65 57 66 54 67
REMARK SMILES IDX 38 68 39 69 44 70 40 71 41 72 43 73 45 74 42 75
REMARK H PARENT 8 6 12 18 62 37 36 48
REMARK Flexibility Score: inf
ROOT
ATOM      1  C   UNL A   1      33.342  35.625  32.115  1.00  0.00     0.042 C 
ENDROOT
BRANCH   1   2
ATOM      2  C   UNL A   1      34.395  36.161  33.080  1.00  0.00     0.117 C 
BRANCH   2   3
ATOM      3  N   UNL A   1      34.527  35.329  34.261  1.00  0.00    -0.356 N 
ATOM      4  C   UNL A   1      35.466  34.383  34.550  1.00  0.00     0.225 C 
ATOM      5  O   UNL A   1      35.385  33.784  35.621  1.00  0.00    -0.275 OA
ATOM      6  H   UNL A   1      33.840  35.467  34.951  1.00  0.00     0.163 HD
BRANCH   4   7
ATOM      7  C   UNL A   1      36.612  34.156  33.598  1.00  0.00     0.153 C 
BRANCH   7   8
ATOM      8  C   UNL A   1      37.469  32.980  33.920  1.00  0.00     0.057 C 
ATOM      9  C   UNL A   1      40.376  31.472  35.171  1.00  0.00     0.177 C 
ATOM     10  N   UNL A   1      39.096  31.758  34.573  1.00  0.00    -0.237 N 
ATOM     11  N   UNL A   1      38.630  33.050  34.497  1.00  0.00    -0.179 NA
ATOM     12  C   UNL A   1      38.235  30.802  34.044  1.00  0.00     0.248 C 
ATOM     13  C   UNL A   1      37.057  31.584  33.554  1.00  0.00     0.156 C 
ATOM     14  O   UNL A   1      38.370  29.590  33.988  1.00  0.00    -0.273 OA
ENDBRANCH   7   8
ENDBRANCH   4   7
ENDBRANCH   2   3
ENDBRANCH   1   2
BRANCH   1  15
ATOM     15  C   UNL A   1      33.351  36.307  30.750  1.00  0.00     0.118 C 
BRANCH  15  16
ATOM     16  N   UNL A   1      32.692  35.508  29.727  1.00  0.00    -0.352 N 
ATOM     17  C   UNL A   1      33.169  34.497  28.936  1.00  0.00     0.251 C 
ATOM     18  H   UNL A   1      31.744  35.732  29.579  1.00  0.00     0.163 HD
ATOM     19  O   UNL A   1      32.492  34.110  27.986  1.00  0.00    -0.269 OA
BRANCH  17  20
ATOM     20  C   UNL A   1      34.484  33.870  29.200  1.00  0.00     0.039 A 
ATOM     21  C   UNL A   1      35.563  34.219  28.383  1.00  0.00     0.014 A 
ATOM     22  C   UNL A   1      34.649  32.904  30.196  1.00  0.00     0.014 A 
ATOM     23  C   UNL A   1      36.812  33.633  28.593  1.00  0.00     0.010 A 
ATOM     24  C   UNL A   1      35.916  32.386  30.462  1.00  0.00     0.010 A 
ATOM     25  C   UNL A   1      37.008  32.733  29.653  1.00  0.00    -0.014 A 
BRANCH  25  26
ATOM     26  C   UNL A   1      38.350  32.153  29.915  1.00  0.00     0.031 A 
ATOM     27  C   UNL A   1      39.386  32.925  30.685  1.00  0.00     0.074 A 
ATOM     28  C   UNL A   1      38.651  30.937  29.422  1.00  0.00     0.049 A 
ATOM     29  N   UNL A   1      40.602  32.570  31.019  1.00  0.00    -0.248 NA
ATOM     30  C   UNL A   1      39.019  34.283  31.111  1.00  0.00     0.031 C 
ATOM     31  C   UNL A   1      37.759  30.118  28.599  1.00  0.00     0.029 A 
ATOM     32  N   UNL A   1      39.790  30.181  29.535  1.00  0.00    -0.354 N 
ATOM     33  C   UNL A   1      41.146  33.662  31.684  1.00  0.00     0.074 A 
ATOM     34  C   UNL A   1      40.152  34.714  31.645  1.00  0.00     0.031 C 
ATOM     35  C   UNL A   1      38.376  28.962  28.304  1.00  0.00     0.029 A 
ATOM     36  C   UNL A   1      39.713  28.974  28.887  1.00  0.00     0.049 A 
ATOM     37  H   UNL A   1      40.586  30.477  30.034  1.00  0.00     0.167 HD
ATOM     38  C   UNL A   1      42.353  33.774  32.291  1.00  0.00     0.037 A 
ATOM     39  C   UNL A   1      40.619  27.986  28.770  1.00  0.00     0.037 A 
ATOM     40  C   UNL A   1      43.339  32.724  32.327  1.00  0.00     0.049 A 
ATOM     41  C   UNL A   1      41.945  28.120  29.461  1.00  0.00     0.074 A 
ATOM     42  C   UNL A   1      44.565  32.711  32.967  1.00  0.00     0.029 A 
ATOM     43  N   UNL A   1      43.219  31.503  31.676  1.00  0.00    -0.354 N 
ATOM     44  N   UNL A   1      42.413  29.122  30.165  1.00  0.00    -0.248 NA
ATOM     45  C   UNL A   1      42.861  26.977  29.358  1.00  0.00     0.031 C 
ATOM     46  C   UNL A   1      45.212  31.509  32.654  1.00  0.00     0.029 A 
ATOM     47  C   UNL A   1      44.361  30.743  31.874  1.00  0.00     0.049 A 
ATOM     48  H   UNL A   1      42.436  31.219  31.151  1.00  0.00     0.167 HD
ATOM     49  C   UNL A   1      43.669  28.725  30.605  1.00  0.00     0.074 A 
ATOM     50  C   UNL A   1      43.876  27.381  30.107  1.00  0.00     0.031 C 
ATOM     51  C   UNL A   1      44.568  29.411  31.356  1.00  0.00     0.037 A 
BRANCH  38  52
ATOM     52  C   UNL A   1      42.670  35.090  32.947  1.00  0.00     0.057 A 
ATOM     53  C   UNL A   1      42.274  35.384  34.261  1.00  0.00     0.134 A 
ATOM     54  C   UNL A   1      43.369  36.086  32.252  1.00  0.00     0.134 A 
ATOM     55  F   UNL A   1      41.592  34.483  34.983  1.00  0.00    -0.206 F 
ATOM     56  C   UNL A   1      42.516  36.633  34.838  1.00  0.00     0.040 A 
ATOM     57  C   UNL A   1      43.649  37.325  32.832  1.00  0.00     0.040 A 
ATOM     58  F   UNL A   1      43.790  35.874  30.996  1.00  0.00    -0.206 F 
ATOM     59  C   UNL A   1      43.209  37.607  34.124  1.00  0.00     0.006 A 
ENDBRANCH  38  52
BRANCH  39  60
ATOM     60  C   UNL A   1      40.277  26.775  27.983  1.00  0.00     0.057 A 
ATOM     61  C   UNL A   1      40.766  26.587  26.686  1.00  0.00     0.134 A 
ATOM     62  C   UNL A   1      39.487  25.756  28.529  1.00  0.00     0.134 A 
ATOM     63  F   UNL A   1      41.516  27.534  26.103  1.00  0.00    -0.206 F 
ATOM     64  C   UNL A   1      40.472  25.434  25.954  1.00  0.00     0.040 A 
ATOM     65  C   UNL A   1      39.208  24.587  27.821  1.00  0.00     0.040 A 
ATOM     66  F   UNL A   1      38.999  25.872  29.774  1.00  0.00    -0.206 F 
ATOM     67  C   UNL A   1      39.699  24.426  26.526  1.00  0.00     0.006 A 
ENDBRANCH  39  60
BRANCH  51  68
ATOM     68  C   UNL A   1      45.850  28.704  31.700  1.00  0.00     0.057 A 
ATOM     69  C   UNL A   1      46.995  28.803  30.897  1.00  0.00     0.134 A 
ATOM     70  C   UNL A   1      45.939  27.910  32.851  1.00  0.00     0.134 A 
ATOM     71  F   UNL A   1      46.978  29.538  29.774  1.00  0.00    -0.206 F 
ATOM     72  C   UNL A   1      48.165  28.106  31.204  1.00  0.00     0.040 A 
ATOM     73  C   UNL A   1      47.115  27.237  33.186  1.00  0.00     0.040 A 
ATOM     74  F   UNL A   1      44.887  27.778  33.672  1.00  0.00    -0.206 F 
ATOM     75  C   UNL A   1      48.228  27.323  32.354  1.00  0.00     0.006 A 
ENDBRANCH  51  68
ENDBRANCH  25  26
ENDBRANCH  17  20
ENDBRANCH  15  16
ENDBRANCH   1  15
TORSDOF 11
ENDMDL
MODEL 2
REMARK VINA RESULT:      -9.6      3.659      8.609
REMARK SMILES CN1N=C(CC(=O)NCCCNC(=O)c2ccc(-c3c4nc(c(-c5c(F)cccc5F)c5ccc([nH]5)c(-c5c(F)cccc5F)c5nc(c(-c6c(F)cccc6F)c6ccc3[nH]6)C=C5)C=C4)cc2)CC1=O
REMARK SMILES IDX 10 1 9 2 8 3 6 4 7 5 5 7 4 8 1 9 2 10 3 11 70 12 69 13 71 14
REMARK SMILES IDX 11 15 12 16 13 17 14 19 15 20 16 21 68 22 17 23 67 24 18 25
REMARK SMILES IDX 19 26 20 27 61 28 21 29 66 30 60 31 62 32 22 33 65 34 59 35
REMARK SMILES IDX 58 36 23 38 49 39 32 40 48 41 33 42 36 43 47 44 63 45 34 46
REMARK SMILES IDX 35 47 46 49 64 50 37 51 24 52 25 53 30 54 26 55 27 56 29 57
REMARK SMILES IDX 31 58 28 59 50 60 51 61 56 62 52 63 53 64 55 65 57 66 54 67
REMARK SMILES IDX 38 68 39 69 44 70 40 71 41 72 43 73 45 74 42 75
REMARK H PARENT 8 6 12 18 62 37 36 48
REMARK Flexibility Score: inf
ROOT
ATOM      1  C   UNL A   1      36.309  33.518  28.980  1.00  0.00     0.042 C 
ENDROOT
BRANCH   1   2
ATOM      2  C   UNL A   1      35.074  33.749  28.116  1.00  0.00     0.117 C 
BRANCH   2   3
ATOM      3  N   UNL A   1      34.766  35.158  27.971  1.00  0.00    -0.356 N 
ATOM      4  C   UNL A   1      33.850  35.916  28.640  1.00  0.00     0.225 C 
ATOM      5  O   UNL A   1      33.749  37.108  28.349  1.00  0.00    -0.275 OA
ATOM      6  H   UNL A   1      35.294  35.636  27.292  1.00  0.00     0.163 HD
BRANCH   4   7
ATOM      7  C   UNL A   1      33.051  35.302  29.759  1.00  0.00     0.153 C 
BRANCH   7   8
ATOM      8  C   UNL A   1      33.546  35.619  31.129  1.00  0.00     0.057 C 
ATOM      9  C   UNL A   1      35.153  34.823  34.141  1.00  0.00     0.177 C 
ATOM     10  N   UNL A   1      34.434  35.460  33.066  1.00  0.00    -0.237 N 
ATOM     11  N   UNL A   1      34.202  34.793  31.886  1.00  0.00    -0.179 NA
ATOM     12  C   UNL A   1      33.930  36.757  33.105  1.00  0.00     0.248 C 
ATOM     13  C   UNL A   1      33.281  36.950  31.771  1.00  0.00     0.156 C 
ATOM     14  O   UNL A   1      33.998  37.583  34.001  1.00  0.00    -0.273 OA
ENDBRANCH   7   8
ENDBRANCH   4   7
ENDBRANCH   2   3
ENDBRANCH   1   2
BRANCH   1  15
ATOM     15  C   UNL A   1      36.156  32.381  29.986  1.00  0.00     0.118 C 
BRANCH  15  16
ATOM     16  N   UNL A   1      35.303  31.311  29.488  1.00  0.00    -0.352 N 
ATOM     17  C   UNL A   1      35.613  30.163  28.807  1.00  0.00     0.251 C 
ATOM     18  H   UNL A   1      34.343  31.434  29.669  1.00  0.00     0.163 HD
ATOM     19  O   UNL A   1      34.707  29.509  28.294  1.00  0.00    -0.269 OA
BRANCH  17  20
ATOM     20  C   UNL A   1      37.013  29.703  28.675  1.00  0.00     0.039 A 
ATOM     21  C   UNL A   1      37.626  29.792  27.422  1.00  0.00     0.014 A 
ATOM     22  C   UNL A   1      37.702  29.131  29.747  1.00  0.00     0.014 A 
ATOM     23  C   UNL A   1      38.940  29.350  27.257  1.00  0.00     0.010 A 
ATOM     24  C   UNL A   1      39.041  28.772  29.604  1.00  0.00     0.010 A 
ATOM     25  C   UNL A   1      39.670  28.863  28.354  1.00  0.00    -0.014 A 
BRANCH  25  26
ATOM     26  C   UNL A   1      41.088  28.448  28.194  1.00  0.00     0.031 A 
ATOM     27  C   UNL A   1      41.443  27.019  27.893  1.00  0.00     0.074 A 
ATOM     28  C   UNL A   1      42.064  29.360  28.360  1.00  0.00     0.049 A 
ATOM     29  N   UNL A   1      42.623  26.481  27.707  1.00  0.00    -0.248 NA
ATOM     30  C   UNL A   1      40.330  26.061  27.820  1.00  0.00     0.031 C 
ATOM     31  C   UNL A   1      41.854  30.763  28.724  1.00  0.00     0.029 A 
ATOM     32  N   UNL A   1      43.426  29.244  28.250  1.00  0.00    -0.354 N 
ATOM     33  C   UNL A   1      42.395  25.126  27.506  1.00  0.00     0.074 A 
ATOM     34  C   UNL A   1      40.972  24.913  27.659  1.00  0.00     0.031 C 
ATOM     35  C   UNL A   1      43.043  31.382  28.780  1.00  0.00     0.029 A 
ATOM     36  C   UNL A   1      44.098  30.416  28.492  1.00  0.00     0.049 A 
ATOM     37  H   UNL A   1      43.879  28.399  28.020  1.00  0.00     0.167 HD
ATOM     38  C   UNL A   1      43.285  24.150  27.198  1.00  0.00     0.037 A 
ATOM     39  C   UNL A   1      45.416  30.685  28.486  1.00  0.00     0.037 A 
ATOM     40  C   UNL A   1      44.701  24.367  27.046  1.00  0.00     0.049 A 
ATOM     41  C   UNL A   1      46.386  29.597  28.128  1.00  0.00     0.074 A 
ATOM     42  C   UNL A   1      45.680  23.463  26.674  1.00  0.00     0.029 A 
ATOM     43  N   UNL A   1      45.346  25.575  27.278  1.00  0.00    -0.354 N 
ATOM     44  N   UNL A   1      46.150  28.337  27.848  1.00  0.00    -0.248 NA
ATOM     45  C   UNL A   1      47.804  29.971  28.066  1.00  0.00     0.031 C 
ATOM     46  C   UNL A   1      46.921  24.106  26.741  1.00  0.00     0.029 A 
ATOM     47  C   UNL A   1      46.711  25.431  27.088  1.00  0.00     0.049 A 
ATOM     48  H   UNL A   1      44.898  26.412  27.539  1.00  0.00     0.167 HD
ATOM     49  C   UNL A   1      47.385  27.772  27.558  1.00  0.00     0.074 A 
ATOM     50  C   UNL A   1      48.363  28.835  27.674  1.00  0.00     0.031 C 
ATOM     51  C   UNL A   1      47.682  26.491  27.225  1.00  0.00     0.037 A 
BRANCH  38  52
ATOM     52  C   UNL A   1      42.741  22.758  27.026  1.00  0.00     0.057 A 
ATOM     53  C   UNL A   1      42.343  21.971  28.117  1.00  0.00     0.134 A 
ATOM     54  C   UNL A   1      42.626  22.188  25.751  1.00  0.00     0.134 A 
ATOM     55  F   UNL A   1      42.435  22.447  29.368  1.00  0.00    -0.206 F 
ATOM     56  C   UNL A   1      41.902  20.656  27.952  1.00  0.00     0.040 A 
ATOM     57  C   UNL A   1      42.151  20.887  25.570  1.00  0.00     0.040 A 
ATOM     58  F   UNL A   1      42.977  22.883  24.658  1.00  0.00    -0.206 F 
ATOM     59  C   UNL A   1      41.801  20.112  26.674  1.00  0.00     0.006 A 
ENDBRANCH  38  52
BRANCH  39  60
ATOM     60  C   UNL A   1      45.880  32.058  28.806  1.00  0.00     0.057 A 
ATOM     61  C   UNL A   1      46.186  32.436  30.118  1.00  0.00     0.134 A 
ATOM     62  C   UNL A   1      46.068  33.012  27.798  1.00  0.00     0.134 A 
ATOM     63  F   UNL A   1      46.012  31.571  31.128  1.00  0.00    -0.206 F 
ATOM     64  C   UNL A   1      46.653  33.717  30.418  1.00  0.00     0.040 A 
ATOM     65  C   UNL A   1      46.560  34.286  28.081  1.00  0.00     0.040 A 
ATOM     66  F   UNL A   1      45.804  32.706  26.519  1.00  0.00    -0.206 F 
ATOM     67  C   UNL A   1      46.850  34.643  29.396  1.00  0.00     0.006 A 
ENDBRANCH  39  60
BRANCH  51  68
ATOM     68  C   UNL A   1      49.125  26.178  26.940  1.00  0.00     0.057 A 
ATOM     69  C   UNL A   1      49.672  26.288  25.654  1.00  0.00     0.134 A 
ATOM     70  C   UNL A   1      49.980  25.757  27.968  1.00  0.00     0.134 A 
ATOM     71  F   UNL A   1      48.909  26.675  24.620  1.00  0.00    -0.206 F 
ATOM     72  C   UNL A   1      51.002  25.952  25.394  1.00  0.00     0.040 A 
ATOM     73  C   UNL A   1      51.320  25.452  27.727  1.00  0.00     0.040 A 
ATOM     74  F   UNL A   1      49.528  25.640  29.226  1.00  0.00    -0.206 F 
ATOM     75  C   UNL A   1      51.831  25.536  26.433  1.00  0.00     0.006 A 
ENDBRANCH  51  68
ENDBRANCH  25  26
ENDBRANCH  17  20
ENDBRANCH  15  16
ENDBRANCH   1  15
TORSDOF 11
ENDMDL
MODEL 3
REMARK VINA RESULT:      -9.5      2.753      4.646
REMARK SMILES CN1N=C(CC(=O)NCCCNC(=O)c2ccc(-c3c4nc(c(-c5c(F)cccc5F)c5ccc([nH]5)c(-c5c(F)cccc5F)c5nc(c(-c6c(F)cccc6F)c6ccc3[nH]6)C=C5)C=C4)cc2)CC1=O
REMARK SMILES IDX 10 1 9 2 8 3 6 4 7 5 5 7 4 8 1 9 2 10 3 11 70 12 69 13 71 14
REMARK SMILES IDX 11 15 12 16 13 17 14 19 15 20 16 21 68 22 17 23 67 24 18 25
REMARK SMILES IDX 19 26 20 27 61 28 21 29 66 30 60 31 62 32 22 33 65 34 59 35
REMARK SMILES IDX 58 36 23 38 49 39 32 40 48 41 33 42 36 43 47 44 63 45 34 46
REMARK SMILES IDX 35 47 46 49 64 50 37 51 24 52 25 53 30 54 26 55 27 56 29 57
REMARK SMILES IDX 31 58 28 59 50 60 51 61 56 62 52 63 53 64 55 65 57 66 54 67
REMARK SMILES IDX 38 68 39 69 44 70 40 71 41 72 43 73 45 74 42 75
REMARK H PARENT 8 6 12 18 62 37 36 48
REMARK Flexibility Score: inf
ROOT
ATOM      1  C   UNL A   1      35.617  33.675  28.679  1.00  0.00     0.042 C 
ENDROOT
BRANCH   1   2
ATOM      2  C   UNL A   1      34.585  34.191  27.681  1.00  0.00     0.117 C 
BRANCH   2   3
ATOM      3  N   UNL A   1      34.393  35.624  27.787  1.00  0.00    -0.356 N 
ATOM      4  C   UNL A   1      33.617  36.329  28.660  1.00  0.00     0.225 C 
ATOM      5  O   UNL A   1      33.597  37.556  28.569  1.00  0.00    -0.275 OA
ATOM      6  H   UNL A   1      34.893  36.165  27.135  1.00  0.00     0.163 HD
BRANCH   4   7
ATOM      7  C   UNL A   1      32.879  35.603  29.754  1.00  0.00     0.153 C 
BRANCH   7   8
ATOM      8  C   UNL A   1      33.402  35.842  31.129  1.00  0.00     0.057 C 
ATOM      9  C   UNL A   1      35.025  34.862  34.077  1.00  0.00     0.177 C 
ATOM     10  N   UNL A   1      34.311  35.568  33.044  1.00  0.00    -0.237 N 
ATOM     11  N   UNL A   1      34.043  34.963  31.837  1.00  0.00    -0.179 NA
ATOM     12  C   UNL A   1      33.848  36.876  33.148  1.00  0.00     0.248 C 
ATOM     13  C   UNL A   1      33.187  37.149  31.835  1.00  0.00     0.156 C 
ATOM     14  O   UNL A   1      33.953  37.658  34.080  1.00  0.00    -0.273 OA
ENDBRANCH   7   8
ENDBRANCH   4   7
ENDBRANCH   2   3
ENDBRANCH   1   2
BRANCH   1  15
ATOM     15  C   UNL A   1      35.076  32.613  29.632  1.00  0.00     0.118 C 
BRANCH  15  16
ATOM     16  N   UNL A   1      34.389  31.538  28.931  1.00  0.00    -0.352 N 
ATOM     17  C   UNL A   1      34.876  30.410  28.325  1.00  0.00     0.251 C 
ATOM     18  H   UNL A   1      33.410  31.638  28.885  1.00  0.00     0.163 HD
ATOM     19  O   UNL A   1      34.131  29.750  27.604  1.00  0.00    -0.269 OA
BRANCH  17  20
ATOM     20  C   UNL A   1      36.279  29.980  28.516  1.00  0.00     0.039 A 
ATOM     21  C   UNL A   1      37.174  30.140  27.455  1.00  0.00     0.014 A 
ATOM     22  C   UNL A   1      36.704  29.369  29.698  1.00  0.00     0.014 A 
ATOM     23  C   UNL A   1      38.500  29.728  27.595  1.00  0.00     0.010 A 
ATOM     24  C   UNL A   1      38.048  29.039  29.869  1.00  0.00     0.010 A 
ATOM     25  C   UNL A   1      38.957  29.200  28.814  1.00  0.00    -0.014 A 
BRANCH  25  26
ATOM     26  C   UNL A   1      40.382  28.817  28.986  1.00  0.00     0.031 A 
ATOM     27  C   UNL A   1      41.371  29.774  29.590  1.00  0.00     0.074 A 
ATOM     28  C   UNL A   1      40.795  27.609  28.558  1.00  0.00     0.049 A 
ATOM     29  N   UNL A   1      42.648  29.603  29.828  1.00  0.00    -0.248 NA
ATOM     30  C   UNL A   1      40.868  31.108  29.946  1.00  0.00     0.031 C 
ATOM     31  C   UNL A   1      39.950  26.617  27.890  1.00  0.00     0.029 A 
ATOM     32  N   UNL A   1      42.029  27.012  28.614  1.00  0.00    -0.354 N 
ATOM     33  C   UNL A   1      43.100  30.807  30.352  1.00  0.00     0.074 A 
ATOM     34  C   UNL A   1      41.977  31.720  30.332  1.00  0.00     0.031 C 
ATOM     35  C   UNL A   1      40.684  25.525  27.624  1.00  0.00     0.029 A 
ATOM     36  C   UNL A   1      42.054  25.753  28.069  1.00  0.00     0.049 A 
ATOM     37  H   UNL A   1      42.820  27.446  29.008  1.00  0.00     0.167 HD
ATOM     38  C   UNL A   1      44.331  31.120  30.827  1.00  0.00     0.037 A 
ATOM     39  C   UNL A   1      43.068  24.878  27.937  1.00  0.00     0.037 A 
ATOM     40  C   UNL A   1      45.446  30.207  30.844  1.00  0.00     0.049 A 
ATOM     41  C   UNL A   1      44.421  25.234  28.483  1.00  0.00     0.074 A 
ATOM     42  C   UNL A   1      46.715  30.401  31.360  1.00  0.00     0.029 A 
ATOM     43  N   UNL A   1      45.430  28.928  30.301  1.00  0.00    -0.354 N 
ATOM     44  N   UNL A   1      44.814  26.344  29.060  1.00  0.00    -0.248 NA
ATOM     45  C   UNL A   1      45.466  24.209  28.375  1.00  0.00     0.031 C 
ATOM     46  C   UNL A   1      47.483  29.266  31.075  1.00  0.00     0.029 A 
ATOM     47  C   UNL A   1      46.675  28.336  30.442  1.00  0.00     0.049 A 
ATOM     48  H   UNL A   1      44.648  28.505  29.879  1.00  0.00     0.167 HD
ATOM     49  C   UNL A   1      46.145  26.145  29.403  1.00  0.00     0.074 A 
ATOM     50  C   UNL A   1      46.482  24.798  28.988  1.00  0.00     0.031 C 
ATOM     51  C   UNL A   1      47.008  27.000  30.007  1.00  0.00     0.037 A 
BRANCH  38  52
ATOM     52  C   UNL A   1      44.529  32.517  31.348  1.00  0.00     0.057 A 
ATOM     53  C   UNL A   1      44.988  33.561  30.531  1.00  0.00     0.134 A 
ATOM     54  C   UNL A   1      44.271  32.823  32.691  1.00  0.00     0.134 A 
ATOM     55  F   UNL A   1      45.265  33.340  29.237  1.00  0.00    -0.206 F 
ATOM     56  C   UNL A   1      45.231  34.839  31.040  1.00  0.00     0.040 A 
ATOM     57  C   UNL A   1      44.475  34.106  33.203  1.00  0.00     0.040 A 
ATOM     58  F   UNL A   1      43.820  31.879  33.531  1.00  0.00    -0.206 F 
ATOM     59  C   UNL A   1      44.971  35.115  32.380  1.00  0.00     0.006 A 
ENDBRANCH  38  52
BRANCH  39  60
ATOM     60  C   UNL A   1      42.820  23.570  27.281  1.00  0.00     0.057 A 
ATOM     61  C   UNL A   1      43.085  23.375  25.921  1.00  0.00     0.134 A 
ATOM     62  C   UNL A   1      42.352  22.471  28.012  1.00  0.00     0.134 A 
ATOM     63  F   UNL A   1      43.520  24.394  25.166  1.00  0.00    -0.206 F 
ATOM     64  C   UNL A   1      42.882  22.138  25.308  1.00  0.00     0.040 A 
ATOM     65  C   UNL A   1      42.172  21.222  27.418  1.00  0.00     0.040 A 
ATOM     66  F   UNL A   1      42.092  22.591  29.322  1.00  0.00    -0.206 F 
ATOM     67  C   UNL A   1      42.434  21.054  26.060  1.00  0.00     0.006 A 
ENDBRANCH  39  60
BRANCH  51  68
ATOM     68  C   UNL A   1      48.397  26.489  30.275  1.00  0.00     0.057 A 
ATOM     69  C   UNL A   1      49.446  26.665  29.362  1.00  0.00     0.134 A 
ATOM     70  C   UNL A   1      48.690  25.809  31.465  1.00  0.00     0.134 A 
ATOM     71  F   UNL A   1      49.236  27.298  28.197  1.00  0.00    -0.206 F 
ATOM     72  C   UNL A   1      50.720  26.148  29.603  1.00  0.00     0.040 A 
ATOM     73  C   UNL A   1      49.968  25.318  31.733  1.00  0.00     0.040 A 
ATOM     74  F   UNL A   1      47.738  25.614  32.391  1.00  0.00    -0.206 F 
ATOM     75  C   UNL A   1      50.985  25.474  30.793  1.00  0.00     0.006 A 
ENDBRANCH  51  68
ENDBRANCH  25  26
ENDBRANCH  17  20
ENDBRANCH  15  16
ENDBRANCH   1  15
TORSDOF 11
ENDMDL
