MODEL 1
REMARK VINA RESULT:     -11.0      0.000      0.000
REMARK SMILES CC1(C)CC[N@H+](CCOc2ccc(C(=O)NCCCNC(=O)c3ccc(-c4c5nc(c(-c6c(F)cccc6F)c6ccc([nH]6)c(-c6c(F)cccc6F)c6nc(c(-c7c(F)cccc7F)c7ccc4[nH]7)C=C6)C=C5)cc3)cc2)C1
REMARK SMILES IDX 17 1 16 2 14 3 15 4 13 6 10 7 11 8 78 9 12 10 77 11 9 12
REMARK SMILES IDX 8 13 7 14 6 15 1 16 2 17 3 18 4 19 79 20 5 21 18 23 19 24
REMARK SMILES IDX 20 25 21 26 22 28 23 29 24 30 76 31 25 32 75 33 26 34 27 35
REMARK SMILES IDX 28 36 69 37 29 38 74 39 68 40 70 41 30 42 73 43 67 44 66 45
REMARK SMILES IDX 31 47 57 48 40 49 56 50 41 51 44 52 55 53 71 54 42 55 43 56
REMARK SMILES IDX 54 58 72 59 45 60 32 61 33 62 38 63 34 64 35 65 37 66 39 67
REMARK SMILES IDX 36 68 58 69 59 70 64 71 60 72 61 73 63 74 65 75 62 76 46 77
REMARK SMILES IDX 47 78 52 79 48 80 49 81 51 82 53 83 50 84
REMARK H PARENT 16 5 6 22 20 27 70 46 44 57
REMARK Flexibility Score: inf
ROOT
ATOM      1  C   UNL A   1      36.051  21.356  25.014  1.00  0.00     0.118 C 
ENDROOT
BRANCH   1   2
ATOM      2  N   UNL A   1      35.570  21.587  26.371  1.00  0.00    -0.352 N 
ATOM      3  C   UNL A   1      34.638  22.481  26.860  1.00  0.00     0.251 C 
ATOM      4  O   UNL A   1      34.189  22.312  27.991  1.00  0.00    -0.269 OA
ATOM      5  H   UNL A   1      35.978  21.006  27.054  1.00  0.00     0.163 HD
BRANCH   3   6
ATOM      6  C   UNL A   1      34.111  23.595  26.031  1.00  0.00     0.040 A 
ATOM      7  C   UNL A   1      33.024  25.318  24.134  1.00  0.00     0.119 A 
ATOM      8  C   UNL A   1      32.175  24.671  25.031  1.00  0.00     0.047 A 
ATOM      9  C   UNL A   1      34.403  25.301  24.347  1.00  0.00     0.047 A 
ATOM     10  C   UNL A   1      32.722  23.801  25.983  1.00  0.00     0.017 A 
ATOM     11  C   UNL A   1      34.953  24.418  25.281  1.00  0.00     0.017 A 
BRANCH   7  12
ATOM     12  O   UNL A   1      32.573  25.936  23.000  1.00  0.00    -0.488 OA
BRANCH  12  13
ATOM     13  C   UNL A   1      33.324  27.121  22.631  1.00  0.00     0.290 C 
BRANCH  13  14
ATOM     14  C   UNL A   1      32.462  28.422  22.563  1.00  0.00     0.304 C 
BRANCH  14  15
ATOM     15  N   UNL A   1      32.332  29.354  23.711  1.00  0.00    -0.332 N 
ATOM     16  C   UNL A   1      32.394  30.119  26.985  1.00  0.00     0.017 C 
ATOM     17  C   UNL A   1      32.683  28.903  26.084  1.00  0.00     0.019 C 
ATOM     18  C   UNL A   1      33.425  27.840  26.895  1.00  0.00     0.017 C 
ATOM     19  C   UNL A   1      31.366  28.356  25.582  1.00  0.00     0.073 C 
ATOM     20  C   UNL A   1      33.384  29.254  24.750  1.00  0.00     0.268 C 
ATOM     21  C   UNL A   1      31.052  29.246  24.397  1.00  0.00     0.263 C 
ATOM     22  H   UNL A   1      32.427  30.256  23.244  1.00  0.00     0.348 HD
ENDBRANCH  14  15
ENDBRANCH  13  14
ENDBRANCH  12  13
ENDBRANCH   7  12
ENDBRANCH   3   6
ENDBRANCH   1   2
BRANCH   1  23
ATOM     23  C   UNL A   1      37.173  20.337  24.913  1.00  0.00     0.042 C 
BRANCH  23  24
ATOM     24  C   UNL A   1      38.440  20.710  25.670  1.00  0.00     0.118 C 
BRANCH  24  25
ATOM     25  N   UNL A   1      39.470  19.676  25.641  1.00  0.00    -0.352 N 
ATOM     26  C   UNL A   1      40.803  19.727  25.993  1.00  0.00     0.251 C 
ATOM     27  H   UNL A   1      39.162  18.799  25.318  1.00  0.00     0.163 HD
ATOM     28  O   UNL A   1      41.517  18.752  25.797  1.00  0.00    -0.269 OA
BRANCH  26  29
ATOM     29  C   UNL A   1      41.395  20.964  26.562  1.00  0.00     0.039 A 
ATOM     30  C   UNL A   1      42.032  21.863  25.700  1.00  0.00     0.014 A 
ATOM     31  C   UNL A   1      41.319  21.254  27.924  1.00  0.00     0.014 A 
ATOM     32  C   UNL A   1      42.485  23.094  26.185  1.00  0.00     0.010 A 
ATOM     33  C   UNL A   1      41.679  22.518  28.388  1.00  0.00     0.010 A 
ATOM     34  C   UNL A   1      42.253  23.460  27.521  1.00  0.00    -0.014 A 
BRANCH  34  35
ATOM     35  C   UNL A   1      42.562  24.827  28.021  1.00  0.00     0.031 A 
ATOM     36  C   UNL A   1      43.952  25.177  28.483  1.00  0.00     0.074 A 
ATOM     37  C   UNL A   1      41.568  25.729  28.151  1.00  0.00     0.049 A 
ATOM     38  N   UNL A   1      44.383  26.276  29.050  1.00  0.00    -0.248 NA
ATOM     39  C   UNL A   1      44.988  24.145  28.313  1.00  0.00     0.031 C 
ATOM     40  C   UNL A   1      40.165  25.503  27.793  1.00  0.00     0.029 A 
ATOM     41  N   UNL A   1      41.577  27.014  28.639  1.00  0.00    -0.354 N 
ATOM     42  C   UNL A   1      45.728  26.061  29.320  1.00  0.00     0.074 A 
ATOM     43  C   UNL A   1      46.033  24.711  28.898  1.00  0.00     0.031 C 
ATOM     44  C   UNL A   1      39.457  26.611  28.058  1.00  0.00     0.029 A 
ATOM     45  C   UNL A   1      40.339  27.610  28.650  1.00  0.00     0.049 A 
ATOM     46  H   UNL A   1      42.396  27.464  28.952  1.00  0.00     0.167 HD
ATOM     47  C   UNL A   1      46.632  26.917  29.853  1.00  0.00     0.037 A 
ATOM     48  C   UNL A   1      39.949  28.818  29.104  1.00  0.00     0.037 A 
ATOM     49  C   UNL A   1      46.335  28.270  30.246  1.00  0.00     0.049 A 
ATOM     50  C   UNL A   1      40.973  29.745  29.702  1.00  0.00     0.074 A 
ATOM     51  C   UNL A   1      47.204  29.238  30.721  1.00  0.00     0.029 A 
ATOM     52  N   UNL A   1      45.074  28.844  30.220  1.00  0.00    -0.354 N 
ATOM     53  N   UNL A   1      42.259  29.557  29.871  1.00  0.00    -0.248 NA
ATOM     54  C   UNL A   1      40.492  31.054  30.168  1.00  0.00     0.031 C 
ATOM     55  C   UNL A   1      46.458  30.377  31.037  1.00  0.00     0.029 A 
ATOM     56  C   UNL A   1      45.135  30.141  30.702  1.00  0.00     0.049 A 
ATOM     57  H   UNL A   1      44.255  28.396  29.904  1.00  0.00     0.167 HD
ATOM     58  C   UNL A   1      42.744  30.729  30.438  1.00  0.00     0.074 A 
ATOM     59  C   UNL A   1      41.617  31.629  30.567  1.00  0.00     0.031 C 
ATOM     60  C   UNL A   1      44.007  31.030  30.821  1.00  0.00     0.037 A 
BRANCH  47  61
ATOM     61  C   UNL A   1      48.037  26.422  30.047  1.00  0.00     0.057 A 
ATOM     62  C   UNL A   1      48.448  25.803  31.235  1.00  0.00     0.134 A 
ATOM     63  C   UNL A   1      48.973  26.509  29.008  1.00  0.00     0.134 A 
ATOM     64  F   UNL A   1      47.605  25.696  32.273  1.00  0.00    -0.206 F 
ATOM     65  C   UNL A   1      49.744  25.308  31.389  1.00  0.00     0.040 A 
ATOM     66  C   UNL A   1      50.263  25.990  29.141  1.00  0.00     0.040 A 
ATOM     67  F   UNL A   1      48.644  27.081  27.840  1.00  0.00    -0.206 F 
ATOM     68  C   UNL A   1      50.652  25.392  30.336  1.00  0.00     0.006 A 
ENDBRANCH  47  61
BRANCH  48  69
ATOM     69  C   UNL A   1      38.523  29.224  29.020  1.00  0.00     0.057 A 
ATOM     70  C   UNL A   1      37.976  29.711  27.827  1.00  0.00     0.134 A 
ATOM     71  C   UNL A   1      37.676  29.160  30.135  1.00  0.00     0.134 A 
ATOM     72  F   UNL A   1      38.739  29.816  26.728  1.00  0.00    -0.206 F 
ATOM     73  C   UNL A   1      36.651  30.143  27.751  1.00  0.00     0.040 A 
ATOM     74  C   UNL A   1      36.341  29.560  30.065  1.00  0.00     0.040 A 
ATOM     75  F   UNL A   1      38.135  28.696  31.307  1.00  0.00    -0.206 F 
ATOM     76  C   UNL A   1      35.827  30.065  28.872  1.00  0.00     0.006 A 
ENDBRANCH  48  69
BRANCH  60  77
ATOM     77  C   UNL A   1      44.251  32.399  31.385  1.00  0.00     0.057 A 
ATOM     78  C   UNL A   1      44.549  33.497  30.566  1.00  0.00     0.134 A 
ATOM     79  C   UNL A   1      44.140  32.634  32.763  1.00  0.00     0.134 A 
ATOM     80  F   UNL A   1      44.683  33.339  29.240  1.00  0.00    -0.206 F 
ATOM     81  C   UNL A   1      44.748  34.771  31.099  1.00  0.00     0.040 A 
ATOM     82  C   UNL A   1      44.308  33.908  33.303  1.00  0.00     0.040 A 
ATOM     83  F   UNL A   1      43.849  31.628  33.603  1.00  0.00    -0.206 F 
ATOM     84  C   UNL A   1      44.618  34.981  32.470  1.00  0.00     0.006 A 
ENDBRANCH  60  77
ENDBRANCH  34  35
ENDBRANCH  26  29
ENDBRANCH  24  25
ENDBRANCH  23  24
ENDBRANCH   1  23
TORSDOF 14
ENDMDL
MODEL 2
REMARK VINA RESULT:     -11.0      0.989      6.406
REMARK SMILES CC1(C)CC[N@H+](CCOc2ccc(C(=O)NCCCNC(=O)c3ccc(-c4c5nc(c(-c6c(F)cccc6F)c6ccc([nH]6)c(-c6c(F)cccc6F)c6nc(c(-c7c(F)cccc7F)c7ccc4[nH]7)C=C6)C=C5)cc3)cc2)C1
REMARK SMILES IDX 17 1 16 2 14 3 15 4 13 6 10 7 11 8 78 9 12 10 77 11 9 12
REMARK SMILES IDX 8 13 7 14 6 15 1 16 2 17 3 18 4 19 79 20 5 21 18 23 19 24
REMARK SMILES IDX 20 25 21 26 22 28 23 29 24 30 76 31 25 32 75 33 26 34 27 35
REMARK SMILES IDX 28 36 69 37 29 38 74 39 68 40 70 41 30 42 73 43 67 44 66 45
REMARK SMILES IDX 31 47 57 48 40 49 56 50 41 51 44 52 55 53 71 54 42 55 43 56
REMARK SMILES IDX 54 58 72 59 45 60 32 61 33 62 38 63 34 64 35 65 37 66 39 67
REMARK SMILES IDX 36 68 58 69 59 70 64 71 60 72 61 73 63 74 65 75 62 76 46 77
REMARK SMILES IDX 47 78 52 79 48 80 49 81 51 82 53 83 50 84
REMARK H PARENT 16 5 6 22 20 27 70 46 44 57
REMARK Flexibility Score: inf
ROOT
ATOM      1  C   UNL A   1      36.037  20.454  25.008  1.00  0.00     0.118 C 
ENDROOT
BRANCH   1   2
ATOM      2  N   UNL A   1      35.377  21.177  26.088  1.00  0.00    -0.352 N 
ATOM      3  C   UNL A   1      34.401  22.155  26.057  1.00  0.00     0.251 C 
ATOM      4  O   UNL A   1      33.798  22.424  27.092  1.00  0.00    -0.269 OA
ATOM      5  H   UNL A   1      35.676  20.926  26.992  1.00  0.00     0.163 HD
BRANCH   3   6
ATOM      6  C   UNL A   1      34.014  22.835  24.796  1.00  0.00     0.040 A 
ATOM      7  C   UNL A   1      32.975  24.384  22.729  1.00  0.00     0.119 A 
ATOM      8  C   UNL A   1      34.057  24.868  23.464  1.00  0.00     0.047 A 
ATOM      9  C   UNL A   1      32.588  23.050  22.858  1.00  0.00     0.047 A 
ATOM     10  C   UNL A   1      34.577  24.089  24.506  1.00  0.00     0.017 A 
ATOM     11  C   UNL A   1      33.089  22.278  23.911  1.00  0.00     0.017 A 
BRANCH   7  12
ATOM     12  O   UNL A   1      32.219  25.178  21.911  1.00  0.00    -0.488 OA
BRANCH  12  13
ATOM     13  C   UNL A   1      31.931  26.490  22.460  1.00  0.00     0.290 C 
BRANCH  13  14
ATOM     14  C   UNL A   1      30.579  26.568  23.238  1.00  0.00     0.304 C 
BRANCH  14  15
ATOM     15  N   UNL A   1      30.470  27.167  24.592  1.00  0.00    -0.332 N 
ATOM     16  C   UNL A   1      31.719  28.126  27.564  1.00  0.00     0.017 C 
ATOM     17  C   UNL A   1      32.234  27.527  26.241  1.00  0.00     0.019 C 
ATOM     18  C   UNL A   1      33.760  27.623  26.204  1.00  0.00     0.017 C 
ATOM     19  C   UNL A   1      31.798  26.081  26.170  1.00  0.00     0.073 C 
ATOM     20  C   UNL A   1      31.555  28.102  24.976  1.00  0.00     0.268 C 
ATOM     21  C   UNL A   1      30.377  26.174  25.654  1.00  0.00     0.263 C 
ATOM     22  H   UNL A   1      29.604  27.699  24.504  1.00  0.00     0.348 HD
ENDBRANCH  14  15
ENDBRANCH  13  14
ENDBRANCH  12  13
ENDBRANCH   7  12
ENDBRANCH   3   6
ENDBRANCH   1   2
BRANCH   1  23
ATOM     23  C   UNL A   1      37.383  21.030  24.601  1.00  0.00     0.042 C 
BRANCH  23  24
ATOM     24  C   UNL A   1      38.424  21.058  25.711  1.00  0.00     0.118 C 
BRANCH  24  25
ATOM     25  N   UNL A   1      39.399  19.975  25.634  1.00  0.00    -0.352 N 
ATOM     26  C   UNL A   1      40.733  19.941  25.983  1.00  0.00     0.251 C 
ATOM     27  H   UNL A   1      39.045  19.130  25.275  1.00  0.00     0.163 HD
ATOM     28  O   UNL A   1      41.396  18.940  25.743  1.00  0.00    -0.269 OA
BRANCH  26  29
ATOM     29  C   UNL A   1      41.389  21.120  26.602  1.00  0.00     0.039 A 
ATOM     30  C   UNL A   1      41.959  22.089  25.767  1.00  0.00     0.014 A 
ATOM     31  C   UNL A   1      41.440  21.290  27.985  1.00  0.00     0.014 A 
ATOM     32  C   UNL A   1      42.469  23.270  26.315  1.00  0.00     0.010 A 
ATOM     33  C   UNL A   1      41.856  22.507  28.522  1.00  0.00     0.010 A 
ATOM     34  C   UNL A   1      42.362  23.518  27.692  1.00  0.00    -0.014 A 
BRANCH  34  35
ATOM     35  C   UNL A   1      42.733  24.835  28.280  1.00  0.00     0.031 A 
ATOM     36  C   UNL A   1      41.691  25.902  28.483  1.00  0.00     0.074 A 
ATOM     37  C   UNL A   1      44.028  25.106  28.543  1.00  0.00     0.049 A 
ATOM     38  N   UNL A   1      41.842  27.142  28.877  1.00  0.00    -0.248 NA
ATOM     39  C   UNL A   1      40.298  25.539  28.175  1.00  0.00     0.031 C 
ATOM     40  C   UNL A   1      45.146  24.181  28.341  1.00  0.00     0.029 A 
ATOM     41  N   UNL A   1      44.629  26.247  29.019  1.00  0.00    -0.354 N 
ATOM     42  C   UNL A   1      40.575  27.708  28.845  1.00  0.00     0.074 A 
ATOM     43  C   UNL A   1      39.671  26.693  28.351  1.00  0.00     0.031 C 
ATOM     44  C   UNL A   1      46.289  24.784  28.703  1.00  0.00     0.029 A 
ATOM     45  C   UNL A   1      45.997  26.151  29.116  1.00  0.00     0.049 A 
ATOM     46  H   UNL A   1      44.125  27.056  29.267  1.00  0.00     0.167 HD
ATOM     47  C   UNL A   1      40.195  28.955  29.214  1.00  0.00     0.037 A 
ATOM     48  C   UNL A   1      46.918  27.067  29.477  1.00  0.00     0.037 A 
ATOM     49  C   UNL A   1      41.090  29.956  29.733  1.00  0.00     0.049 A 
ATOM     50  C   UNL A   1      46.468  28.447  29.871  1.00  0.00     0.074 A 
ATOM     51  C   UNL A   1      40.783  31.220  30.208  1.00  0.00     0.029 A 
ATOM     52  N   UNL A   1      42.464  29.812  29.838  1.00  0.00    -0.354 N 
ATOM     53  N   UNL A   1      45.254  28.939  29.917  1.00  0.00    -0.248 NA
ATOM     54  C   UNL A   1      47.517  29.399  30.268  1.00  0.00     0.031 C 
ATOM     55  C   UNL A   1      41.978  31.862  30.545  1.00  0.00     0.029 A 
ATOM     56  C   UNL A   1      43.024  30.977  30.338  1.00  0.00     0.049 A 
ATOM     57  H   UNL A   1      42.969  29.002  29.594  1.00  0.00     0.167 HD
ATOM     58  C   UNL A   1      45.390  30.246  30.370  1.00  0.00     0.074 A 
ATOM     59  C   UNL A   1      46.802  30.464  30.602  1.00  0.00     0.031 C 
ATOM     60  C   UNL A   1      44.431  31.181  30.571  1.00  0.00     0.037 A 
BRANCH  47  61
ATOM     61  C   UNL A   1      38.744  29.317  29.070  1.00  0.00     0.057 A 
ATOM     62  C   UNL A   1      38.182  29.653  27.831  1.00  0.00     0.134 A 
ATOM     63  C   UNL A   1      37.884  29.266  30.175  1.00  0.00     0.134 A 
ATOM     64  F   UNL A   1      38.951  29.728  26.734  1.00  0.00    -0.206 F 
ATOM     65  C   UNL A   1      36.823  29.945  27.701  1.00  0.00     0.040 A 
ATOM     66  C   UNL A   1      36.518  29.528  30.051  1.00  0.00     0.040 A 
ATOM     67  F   UNL A   1      38.353  28.943  31.390  1.00  0.00    -0.206 F 
ATOM     68  C   UNL A   1      35.986  29.873  28.812  1.00  0.00     0.006 A 
ENDBRANCH  47  61
BRANCH  48  69
ATOM     69  C   UNL A   1      48.361  26.715  29.478  1.00  0.00     0.057 A 
ATOM     70  C   UNL A   1      49.170  26.967  28.362  1.00  0.00     0.134 A 
ATOM     71  C   UNL A   1      48.964  26.096  30.580  1.00  0.00     0.134 A 
ATOM     72  F   UNL A   1      48.649  27.539  27.266  1.00  0.00    -0.206 F 
ATOM     73  C   UNL A   1      50.515  26.593  28.333  1.00  0.00     0.040 A 
ATOM     74  C   UNL A   1      50.314  25.745  30.577  1.00  0.00     0.040 A 
ATOM     75  F   UNL A   1      48.247  25.834  31.684  1.00  0.00    -0.206 F 
ATOM     76  C   UNL A   1      51.092  25.984  29.446  1.00  0.00     0.006 A 
ENDBRANCH  48  69
BRANCH  60  77
ATOM     77  C   UNL A   1      44.867  32.517  31.098  1.00  0.00     0.057 A 
ATOM     78  C   UNL A   1      44.976  32.772  32.472  1.00  0.00     0.134 A 
ATOM     79  C   UNL A   1      45.230  33.547  30.220  1.00  0.00     0.134 A 
ATOM     80  F   UNL A   1      44.632  31.833  33.367  1.00  0.00    -0.206 F 
ATOM     81  C   UNL A   1      45.408  34.009  32.952  1.00  0.00     0.040 A 
ATOM     82  C   UNL A   1      45.691  34.778  30.688  1.00  0.00     0.040 A 
ATOM     83  F   UNL A   1      45.158  33.366  28.892  1.00  0.00    -0.206 F 
ATOM     84  C   UNL A   1      45.776  35.013  32.058  1.00  0.00     0.006 A 
ENDBRANCH  60  77
ENDBRANCH  34  35
ENDBRANCH  26  29
ENDBRANCH  24  25
ENDBRANCH  23  24
ENDBRANCH   1  23
TORSDOF 14
ENDMDL
MODEL 3
REMARK VINA RESULT:     -10.9      4.647      8.980
REMARK SMILES CC1(C)CC[N@H+](CCOc2ccc(C(=O)NCCCNC(=O)c3ccc(-c4c5nc(c(-c6c(F)cccc6F)c6ccc([nH]6)c(-c6c(F)cccc6F)c6nc(c(-c7c(F)cccc7F)c7ccc4[nH]7)C=C6)C=C5)cc3)cc2)C1
REMARK SMILES IDX 17 1 16 2 14 3 15 4 13 6 10 7 11 8 78 9 12 10 77 11 9 12
REMARK SMILES IDX 8 13 7 14 6 15 1 16 2 17 3 18 4 19 79 20 5 21 18 23 19 24
REMARK SMILES IDX 20 25 21 26 22 28 23 29 24 30 76 31 25 32 75 33 26 34 27 35
REMARK SMILES IDX 28 36 69 37 29 38 74 39 68 40 70 41 30 42 73 43 67 44 66 45
REMARK SMILES IDX 31 47 57 48 40 49 56 50 41 51 44 52 55 53 71 54 42 55 43 56
REMARK SMILES IDX 54 58 72 59 45 60 32 61 33 62 38 63 34 64 35 65 37 66 39 67
REMARK SMILES IDX 36 68 58 69 59 70 64 71 60 72 61 73 63 74 65 75 62 76 46 77
REMARK SMILES IDX 47 78 52 79 48 80 49 81 51 82 53 83 50 84
REMARK H PARENT 16 5 6 22 20 27 70 46 44 57
REMARK Flexibility Score: inf
ROOT
ATOM      1  C   UNL A   1      31.877  30.362  26.871  1.00  0.00     0.118 C 
ENDROOT
BRANCH   1   2
ATOM      2  N   UNL A   1      33.132  29.976  27.505  1.00  0.00    -0.352 N 
ATOM      3  C   UNL A   1      34.126  29.113  27.090  1.00  0.00     0.251 C 
ATOM      4  O   UNL A   1      35.218  29.151  27.651  1.00  0.00    -0.269 OA
ATOM      5  H   UNL A   1      33.298  30.403  28.377  1.00  0.00     0.163 HD
BRANCH   3   6
ATOM      6  C   UNL A   1      33.936  28.194  25.938  1.00  0.00     0.040 A 
ATOM      7  C   UNL A   1      33.133  26.714  23.722  1.00  0.00     0.119 A 
ATOM      8  C   UNL A   1      33.790  27.929  23.527  1.00  0.00     0.047 A 
ATOM      9  C   UNL A   1      33.108  26.133  24.990  1.00  0.00     0.047 A 
ATOM     10  C   UNL A   1      34.190  28.675  24.643  1.00  0.00     0.017 A 
ATOM     11  C   UNL A   1      33.486  26.883  26.108  1.00  0.00     0.017 A 
BRANCH   7  12
ATOM     12  O   UNL A   1      32.449  26.073  22.726  1.00  0.00    -0.488 OA
BRANCH  12  13
ATOM     13  C   UNL A   1      31.358  26.847  22.163  1.00  0.00     0.290 C 
BRANCH  13  14
ATOM     14  C   UNL A   1      30.057  26.828  23.027  1.00  0.00     0.304 C 
BRANCH  14  15
ATOM     15  N   UNL A   1      29.488  28.054  23.641  1.00  0.00    -0.332 N 
ATOM     16  C   UNL A   1      28.121  31.124  23.512  1.00  0.00     0.017 C 
ATOM     17  C   UNL A   1      28.563  30.022  22.531  1.00  0.00     0.019 C 
ATOM     18  C   UNL A   1      28.002  30.330  21.142  1.00  0.00     0.017 C 
ATOM     19  C   UNL A   1      30.075  29.996  22.492  1.00  0.00     0.073 C 
ATOM     20  C   UNL A   1      28.256  28.584  23.010  1.00  0.00     0.268 C 
ATOM     21  C   UNL A   1      30.437  29.159  23.702  1.00  0.00     0.263 C 
ATOM     22  H   UNL A   1      29.252  27.716  24.574  1.00  0.00     0.348 HD
ENDBRANCH  14  15
ENDBRANCH  13  14
ENDBRANCH  12  13
ENDBRANCH   7  12
ENDBRANCH   3   6
ENDBRANCH   1   2
BRANCH   1  23
ATOM     23  C   UNL A   1      31.602  31.856  26.885  1.00  0.00     0.042 C 
BRANCH  23  24
ATOM     24  C   UNL A   1      32.786  32.716  27.303  1.00  0.00     0.118 C 
BRANCH  24  25
ATOM     25  N   UNL A   1      32.428  34.089  27.644  1.00  0.00    -0.352 N 
ATOM     26  C   UNL A   1      32.994  34.968  28.543  1.00  0.00     0.251 C 
ATOM     27  H   UNL A   1      31.655  34.446  27.149  1.00  0.00     0.163 HD
ATOM     28  O   UNL A   1      32.466  36.055  28.741  1.00  0.00    -0.269 OA
BRANCH  26  29
ATOM     29  C   UNL A   1      34.208  34.595  29.312  1.00  0.00     0.039 A 
ATOM     30  C   UNL A   1      34.062  34.168  30.636  1.00  0.00     0.014 A 
ATOM     31  C   UNL A   1      35.481  34.649  28.744  1.00  0.00     0.014 A 
ATOM     32  C   UNL A   1      35.170  33.690  31.343  1.00  0.00     0.010 A 
ATOM     33  C   UNL A   1      36.565  34.080  29.411  1.00  0.00     0.010 A 
ATOM     34  C   UNL A   1      36.420  33.580  30.713  1.00  0.00    -0.014 A 
BRANCH  34  35
ATOM     35  C   UNL A   1      37.573  32.913  31.377  1.00  0.00     0.031 A 
ATOM     36  C   UNL A   1      38.223  31.708  30.752  1.00  0.00     0.074 A 
ATOM     37  C   UNL A   1      37.975  33.333  32.594  1.00  0.00     0.049 A 
ATOM     38  N   UNL A   1      39.163  30.932  31.232  1.00  0.00    -0.248 NA
ATOM     39  C   UNL A   1      37.735  31.304  29.423  1.00  0.00     0.031 C 
ATOM     40  C   UNL A   1      37.395  34.454  33.339  1.00  0.00     0.029 A 
ATOM     41  N   UNL A   1      38.954  32.855  33.432  1.00  0.00    -0.354 N 
ATOM     42  C   UNL A   1      39.362  29.942  30.278  1.00  0.00     0.074 A 
ATOM     43  C   UNL A   1      38.416  30.187  29.212  1.00  0.00     0.031 C 
ATOM     44  C   UNL A   1      38.036  34.585  34.510  1.00  0.00     0.029 A 
ATOM     45  C   UNL A   1      39.039  33.532  34.626  1.00  0.00     0.049 A 
ATOM     46  H   UNL A   1      39.539  32.098  33.199  1.00  0.00     0.167 HD
ATOM     47  C   UNL A   1      40.264  28.932  30.282  1.00  0.00     0.037 A 
ATOM     48  C   UNL A   1      39.820  33.319  35.703  1.00  0.00     0.037 A 
ATOM     49  C   UNL A   1      41.225  28.706  31.331  1.00  0.00     0.049 A 
ATOM     50  C   UNL A   1      40.806  32.183  35.684  1.00  0.00     0.074 A 
ATOM     51  C   UNL A   1      42.232  27.757  31.383  1.00  0.00     0.029 A 
ATOM     52  N   UNL A   1      41.294  29.428  32.511  1.00  0.00    -0.354 N 
ATOM     53  N   UNL A   1      41.040  31.308  34.737  1.00  0.00    -0.248 NA
ATOM     54  C   UNL A   1      41.641  32.007  36.882  1.00  0.00     0.031 C 
ATOM     55  C   UNL A   1      42.872  27.867  32.621  1.00  0.00     0.029 A 
ATOM     56  C   UNL A   1      42.304  28.924  33.315  1.00  0.00     0.049 A 
ATOM     57  H   UNL A   1      40.712  30.188  32.745  1.00  0.00     0.167 HD
ATOM     58  C   UNL A   1      42.062  30.496  35.213  1.00  0.00     0.074 A 
ATOM     59  C   UNL A   1      42.416  30.994  36.525  1.00  0.00     0.031 C 
ATOM     60  C   UNL A   1      42.651  29.432  34.617  1.00  0.00     0.037 A 
BRANCH  47  61
ATOM     61  C   UNL A   1      40.262  27.986  29.115  1.00  0.00     0.057 A 
ATOM     62  C   UNL A   1      39.495  26.813  29.113  1.00  0.00     0.134 A 
ATOM     63  C   UNL A   1      40.988  28.284  27.954  1.00  0.00     0.134 A 
ATOM     64  F   UNL A   1      38.784  26.463  30.195  1.00  0.00    -0.206 F 
ATOM     65  C   UNL A   1      39.466  25.963  28.006  1.00  0.00     0.040 A 
ATOM     66  C   UNL A   1      40.943  27.456  26.831  1.00  0.00     0.040 A 
ATOM     67  F   UNL A   1      41.737  29.396  27.885  1.00  0.00    -0.206 F 
ATOM     68  C   UNL A   1      40.184  26.289  26.858  1.00  0.00     0.006 A 
ENDBRANCH  47  61
BRANCH  48  69
ATOM     69  C   UNL A   1      39.701  34.194  36.898  1.00  0.00     0.057 A 
ATOM     70  C   UNL A   1      40.412  35.396  36.990  1.00  0.00     0.134 A 
ATOM     71  C   UNL A   1      38.894  33.840  37.987  1.00  0.00     0.134 A 
ATOM     72  F   UNL A   1      41.218  35.783  35.990  1.00  0.00    -0.206 F 
ATOM     73  C   UNL A   1      40.348  36.200  38.130  1.00  0.00     0.040 A 
ATOM     74  C   UNL A   1      38.797  34.649  39.121  1.00  0.00     0.040 A 
ATOM     75  F   UNL A   1      38.180  32.705  37.960  1.00  0.00    -0.206 F 
ATOM     76  C   UNL A   1      39.534  35.829  39.199  1.00  0.00     0.006 A 
ENDBRANCH  48  69
BRANCH  60  77
ATOM     77  C   UNL A   1      43.763  28.750  35.361  1.00  0.00     0.057 A 
ATOM     78  C   UNL A   1      45.098  29.155  35.233  1.00  0.00     0.134 A 
ATOM     79  C   UNL A   1      43.488  27.706  36.255  1.00  0.00     0.134 A 
ATOM     80  F   UNL A   1      45.431  30.140  34.384  1.00  0.00    -0.206 F 
ATOM     81  C   UNL A   1      46.121  28.532  35.949  1.00  0.00     0.040 A 
ATOM     82  C   UNL A   1      44.498  27.096  36.998  1.00  0.00     0.040 A 
ATOM     83  F   UNL A   1      42.230  27.275  36.432  1.00  0.00    -0.206 F 
ATOM     84  C   UNL A   1      45.821  27.505  36.842  1.00  0.00     0.006 A 
ENDBRANCH  60  77
ENDBRANCH  34  35
ENDBRANCH  26  29
ENDBRANCH  24  25
ENDBRANCH  23  24
ENDBRANCH   1  23
TORSDOF 14
ENDMDL
