MODEL 1
REMARK VINA RESULT:     -12.6      0.000      0.000
REMARK SMILES CS(=O)(=O)Nc1ccc(-c2cc(Cl)cc3c2O[C@H](C(F)(F)F)C(C(=O)NCCCNC(=O)c2ccc(-c4c5nc(c(-c6c(F)cccc6F)c6ccc([nH]6)c(-c6c(F)cccc6F)c6nc(c(-c7c(F)cccc7F)c7ccc4[nH]7)C=C6)C=C5)cc2)=C3)cc1
REMARK SMILES IDX 27 1 26 2 24 3 25 4 23 6 10 7 11 8 16 9 12 10 15 11 17 12
REMARK SMILES IDX 13 13 14 14 87 15 18 16 9 17 6 18 7 19 89 20 8 21 88 22 5 23
REMARK SMILES IDX 2 25 1 26 3 27 4 28 19 29 20 30 21 31 22 32 28 33 29 34
REMARK SMILES IDX 30 35 31 36 32 38 33 39 34 40 86 41 35 42 85 43 36 44 37 45
REMARK SMILES IDX 38 46 79 47 39 48 84 49 78 50 80 51 40 52 83 53 77 54 76 55
REMARK SMILES IDX 41 57 67 58 50 59 66 60 51 61 54 62 65 63 81 64 52 65 53 66
REMARK SMILES IDX 64 68 82 69 55 70 42 71 43 72 48 73 44 74 45 75 47 76 49 77
REMARK SMILES IDX 46 78 68 79 69 80 74 81 70 82 71 83 73 84 75 85 72 86 56 87
REMARK SMILES IDX 57 88 62 89 58 90 59 91 61 92 63 93 60 94
REMARK H PARENT 26 5 5 24 30 37 80 56 54 67
REMARK Flexibility Score: inf
ROOT
ATOM      1  C   UNL A   1      31.760  28.133  25.823  1.00  0.00     0.118 C 
ENDROOT
BRANCH   1   2
ATOM      2  N   UNL A   1      31.106  26.844  25.713  1.00  0.00    -0.352 N 
ATOM      3  C   UNL A   1      31.009  26.082  24.595  1.00  0.00     0.251 C 
ATOM      4  O   UNL A   1      29.965  25.492  24.342  1.00  0.00    -0.270 OA
ATOM      5  H   UNL A   1      30.690  26.486  26.531  1.00  0.00     0.163 HD
BRANCH   3   6
ATOM      6  C   UNL A   1      32.256  25.893  23.796  1.00  0.00     0.067 C 
ATOM      7  C   UNL A   1      33.066  22.016  24.711  1.00  0.00     0.026 A 
ATOM      8  C   UNL A   1      32.937  21.862  26.117  1.00  0.00     0.033 A 
ATOM      9  C   UNL A   1      33.115  23.332  24.231  1.00  0.00     0.135 A 
ATOM     10  C   UNL A   1      32.997  22.938  27.000  1.00  0.00     0.042 A 
ATOM     11  C   UNL A   1      33.286  24.401  25.145  1.00  0.00     0.019 A 
ATOM     12  O   UNL A   1      32.959  23.647  22.891  1.00  0.00    -0.475 OA
ATOM     13  Cl  UNL A   1      32.805  22.668  28.686  1.00  0.00    -0.084 Cl
ATOM     14  C   UNL A   1      33.236  24.211  26.524  1.00  0.00     0.032 A 
ATOM     15  C   UNL A   1      33.337  25.775  24.594  1.00  0.00     0.025 C 
ATOM     16  C   UNL A   1      32.138  24.870  22.672  1.00  0.00     0.314 C 
BRANCH   7  17
ATOM     17  C   UNL A   1      33.341  20.762  23.965  1.00  0.00    -0.014 A 
ATOM     18  C   UNL A   1      33.271  17.941  23.712  1.00  0.00     0.048 A 
ATOM     19  C   UNL A   1      32.262  18.730  23.154  1.00  0.00     0.027 A 
ATOM     20  C   UNL A   1      34.405  18.572  24.216  1.00  0.00     0.027 A 
ATOM     21  C   UNL A   1      32.310  20.126  23.251  1.00  0.00     0.011 A 
ATOM     22  C   UNL A   1      34.443  19.974  24.335  1.00  0.00     0.011 A 
BRANCH  18  23
ATOM     23  N   UNL A   1      32.972  16.559  23.885  1.00  0.00    -0.284 N 
ATOM     24  H   UNL A   1      32.579  16.097  23.110  1.00  0.00     0.180 HD
BRANCH  23  25
ATOM     25  S   UNL A   1      33.212  15.636  25.245  1.00  0.00     0.229 S 
ATOM     26  C   UNL A   1      34.989  15.511  25.375  1.00  0.00     0.183 C 
ATOM     27  O   UNL A   1      32.660  14.315  25.042  1.00  0.00    -0.207 OA
ATOM     28  O   UNL A   1      32.768  16.469  26.343  1.00  0.00    -0.207 OA
ENDBRANCH  23  25
ENDBRANCH  18  23
ENDBRANCH   7  17
BRANCH  16  29
ATOM     29  C   UNL A   1      32.489  25.562  21.337  1.00  0.00     0.429 C 
ATOM     30  F   UNL A   1      31.436  26.204  20.785  1.00  0.00    -0.167 F 
ATOM     31  F   UNL A   1      33.481  26.470  21.506  1.00  0.00    -0.167 F 
ATOM     32  F   UNL A   1      32.938  24.684  20.400  1.00  0.00    -0.167 F 
ENDBRANCH  16  29
ENDBRANCH   3   6
ENDBRANCH   1   2
BRANCH   1  33
ATOM     33  C   UNL A   1      32.342  28.304  27.228  1.00  0.00     0.042 C 
BRANCH  33  34
ATOM     34  C   UNL A   1      33.738  28.921  27.267  1.00  0.00     0.118 C 
BRANCH  34  35
ATOM     35  N   UNL A   1      33.759  30.264  27.823  1.00  0.00    -0.352 N 
ATOM     36  C   UNL A   1      34.772  30.902  28.500  1.00  0.00     0.251 C 
ATOM     37  H   UNL A   1      32.935  30.789  27.699  1.00  0.00     0.163 HD
ATOM     38  O   UNL A   1      34.578  31.996  29.021  1.00  0.00    -0.269 OA
BRANCH  36  39
ATOM     39  C   UNL A   1      36.087  30.243  28.626  1.00  0.00     0.039 A 
ATOM     40  C   UNL A   1      36.969  30.278  27.544  1.00  0.00     0.014 A 
ATOM     41  C   UNL A   1      36.463  29.631  29.824  1.00  0.00     0.014 A 
ATOM     42  C   UNL A   1      38.262  29.774  27.691  1.00  0.00     0.010 A 
ATOM     43  C   UNL A   1      37.773  29.198  29.993  1.00  0.00     0.010 A 
ATOM     44  C   UNL A   1      38.690  29.272  28.932  1.00  0.00    -0.014 A 
BRANCH  44  45
ATOM     45  C   UNL A   1      40.093  28.836  29.152  1.00  0.00     0.031 A 
ATOM     46  C   UNL A   1      41.093  29.788  29.745  1.00  0.00     0.074 A 
ATOM     47  C   UNL A   1      40.487  27.616  28.737  1.00  0.00     0.049 A 
ATOM     48  N   UNL A   1      42.384  29.640  29.902  1.00  0.00    -0.248 NA
ATOM     49  C   UNL A   1      40.579  31.093  30.191  1.00  0.00     0.031 C 
ATOM     50  C   UNL A   1      39.625  26.614  28.106  1.00  0.00     0.029 A 
ATOM     51  N   UNL A   1      41.721  27.016  28.767  1.00  0.00    -0.354 N 
ATOM     52  C   UNL A   1      42.838  30.838  30.442  1.00  0.00     0.074 A 
ATOM     53  C   UNL A   1      41.694  31.718  30.539  1.00  0.00     0.031 C 
ATOM     54  C   UNL A   1      40.352  25.522  27.825  1.00  0.00     0.029 A 
ATOM     55  C   UNL A   1      41.737  25.758  28.214  1.00  0.00     0.049 A 
ATOM     56  H   UNL A   1      42.521  27.447  29.148  1.00  0.00     0.167 HD
ATOM     57  C   UNL A   1      44.089  31.165  30.841  1.00  0.00     0.037 A 
ATOM     58  C   UNL A   1      42.757  24.898  28.029  1.00  0.00     0.037 A 
ATOM     59  C   UNL A   1      45.220  30.278  30.771  1.00  0.00     0.049 A 
ATOM     60  C   UNL A   1      44.139  25.288  28.475  1.00  0.00     0.074 A 
ATOM     61  C   UNL A   1      46.515  30.495  31.207  1.00  0.00     0.029 A 
ATOM     62  N   UNL A   1      45.188  29.001  30.230  1.00  0.00    -0.354 N 
ATOM     63  N   UNL A   1      44.541  26.400  29.041  1.00  0.00    -0.248 NA
ATOM     64  C   UNL A   1      45.208  24.302  28.261  1.00  0.00     0.031 C 
ATOM     65  C   UNL A   1      47.278  29.366  30.891  1.00  0.00     0.029 A 
ATOM     66  C   UNL A   1      46.446  28.427  30.304  1.00  0.00     0.049 A 
ATOM     67  H   UNL A   1      44.390  28.568  29.849  1.00  0.00     0.167 HD
ATOM     68  C   UNL A   1      45.900  26.237  29.278  1.00  0.00     0.074 A 
ATOM     69  C   UNL A   1      46.252  24.914  28.804  1.00  0.00     0.031 C 
ATOM     70  C   UNL A   1      46.777  27.104  29.839  1.00  0.00     0.037 A 
BRANCH  57  71
ATOM     71  C   UNL A   1      44.300  32.545  31.393  1.00  0.00     0.057 A 
ATOM     72  C   UNL A   1      44.640  33.627  30.570  1.00  0.00     0.134 A 
ATOM     73  C   UNL A   1      44.131  32.803  32.760  1.00  0.00     0.134 A 
ATOM     74  F   UNL A   1      44.828  33.448  29.254  1.00  0.00    -0.206 F 
ATOM     75  C   UNL A   1      44.833  34.908  31.090  1.00  0.00     0.040 A 
ATOM     76  C   UNL A   1      44.293  34.085  33.287  1.00  0.00     0.040 A 
ATOM     77  F   UNL A   1      43.798  31.815  33.604  1.00  0.00    -0.206 F 
ATOM     78  C   UNL A   1      44.652  35.141  32.452  1.00  0.00     0.006 A 
ENDBRANCH  57  71
BRANCH  58  79
ATOM     79  C   UNL A   1      42.509  23.572  27.407  1.00  0.00     0.057 A 
ATOM     80  C   UNL A   1      42.160  22.463  28.188  1.00  0.00     0.134 A 
ATOM     81  C   UNL A   1      42.624  23.377  26.026  1.00  0.00     0.134 A 
ATOM     82  F   UNL A   1      42.053  22.584  29.519  1.00  0.00    -0.206 F 
ATOM     83  C   UNL A   1      41.953  21.205  27.622  1.00  0.00     0.040 A 
ATOM     84  C   UNL A   1      42.395  22.129  25.443  1.00  0.00     0.040 A 
ATOM     85  F   UNL A   1      42.947  24.399  25.221  1.00  0.00    -0.206 F 
ATOM     86  C   UNL A   1      42.066  21.036  26.244  1.00  0.00     0.006 A 
ENDBRANCH  58  79
BRANCH  70  87
ATOM     87  C   UNL A   1      48.193  26.637  30.013  1.00  0.00     0.057 A 
ATOM     88  C   UNL A   1      48.605  25.926  31.147  1.00  0.00     0.134 A 
ATOM     89  C   UNL A   1      49.142  26.858  29.006  1.00  0.00     0.134 A 
ATOM     90  F   UNL A   1      47.747  25.694  32.153  1.00  0.00    -0.206 F 
ATOM     91  C   UNL A   1      49.916  25.466  31.281  1.00  0.00     0.040 A 
ATOM     92  C   UNL A   1      50.448  26.380  29.118  1.00  0.00     0.040 A 
ATOM     93  F   UNL A   1      48.810  27.525  27.891  1.00  0.00    -0.206 F 
ATOM     94  C   UNL A   1      50.839  25.686  30.261  1.00  0.00     0.006 A 
ENDBRANCH  70  87
ENDBRANCH  44  45
ENDBRANCH  36  39
ENDBRANCH  34  35
ENDBRANCH  33  34
ENDBRANCH   1  33
TORSDOF 14
ENDMDL
MODEL 2
REMARK VINA RESULT:     -12.6      6.421     10.789
REMARK SMILES CS(=O)(=O)Nc1ccc(-c2cc(Cl)cc3c2O[C@H](C(F)(F)F)C(C(=O)NCCCNC(=O)c2ccc(-c4c5nc(c(-c6c(F)cccc6F)c6ccc([nH]6)c(-c6c(F)cccc6F)c6nc(c(-c7c(F)cccc7F)c7ccc4[nH]7)C=C6)C=C5)cc2)=C3)cc1
REMARK SMILES IDX 27 1 26 2 24 3 25 4 23 6 10 7 11 8 16 9 12 10 15 11 17 12
REMARK SMILES IDX 13 13 14 14 87 15 18 16 9 17 6 18 7 19 89 20 8 21 88 22 5 23
REMARK SMILES IDX 2 25 1 26 3 27 4 28 19 29 20 30 21 31 22 32 28 33 29 34
REMARK SMILES IDX 30 35 31 36 32 38 33 39 34 40 86 41 35 42 85 43 36 44 37 45
REMARK SMILES IDX 38 46 79 47 39 48 84 49 78 50 80 51 40 52 83 53 77 54 76 55
REMARK SMILES IDX 41 57 67 58 50 59 66 60 51 61 54 62 65 63 81 64 52 65 53 66
REMARK SMILES IDX 64 68 82 69 55 70 42 71 43 72 48 73 44 74 45 75 47 76 49 77
REMARK SMILES IDX 46 78 68 79 69 80 74 81 70 82 71 83 73 84 75 85 72 86 56 87
REMARK SMILES IDX 57 88 62 89 58 90 59 91 61 92 63 93 60 94
REMARK H PARENT 26 5 5 24 30 37 80 56 54 67
REMARK Flexibility Score: inf
ROOT
ATOM      1  C   UNL A   1      40.251  26.484  28.350  1.00  0.00     0.118 C 
ENDROOT
BRANCH   1   2
ATOM      2  N   UNL A   1      39.122  26.961  29.125  1.00  0.00    -0.352 N 
ATOM      3  C   UNL A   1      39.098  28.055  29.924  1.00  0.00     0.251 C 
ATOM      4  O   UNL A   1      38.518  28.015  31.004  1.00  0.00    -0.270 OA
ATOM      5  H   UNL A   1      38.289  26.437  29.065  1.00  0.00     0.163 HD
BRANCH   3   6
ATOM      6  C   UNL A   1      39.674  29.314  29.365  1.00  0.00     0.067 C 
ATOM      7  C   UNL A   1      36.316  31.602  29.247  1.00  0.00     0.026 A 
ATOM      8  C   UNL A   1      35.277  30.825  28.670  1.00  0.00     0.033 A 
ATOM      9  C   UNL A   1      37.618  31.101  29.110  1.00  0.00     0.135 A 
ATOM     10  C   UNL A   1      35.525  29.700  27.887  1.00  0.00     0.042 A 
ATOM     11  C   UNL A   1      37.859  30.024  28.220  1.00  0.00     0.019 A 
ATOM     12  O   UNL A   1      38.689  31.586  29.843  1.00  0.00    -0.475 OA
ATOM     13  Cl  UNL A   1      34.209  28.799  27.248  1.00  0.00    -0.084 Cl
ATOM     14  C   UNL A   1      36.824  29.328  27.603  1.00  0.00     0.032 A 
ATOM     15  C   UNL A   1      39.250  29.529  28.103  1.00  0.00     0.025 C 
ATOM     16  C   UNL A   1      39.610  30.511  30.307  1.00  0.00     0.314 C 
BRANCH   7  17
ATOM     17  C   UNL A   1      35.902  32.943  29.733  1.00  0.00    -0.014 A 
ATOM     18  C   UNL A   1      34.010  34.699  30.901  1.00  0.00     0.048 A 
ATOM     19  C   UNL A   1      34.987  34.083  31.686  1.00  0.00     0.027 A 
ATOM     20  C   UNL A   1      34.108  34.593  29.517  1.00  0.00     0.027 A 
ATOM     21  C   UNL A   1      35.942  33.237  31.107  1.00  0.00     0.011 A 
ATOM     22  C   UNL A   1      35.052  33.726  28.935  1.00  0.00     0.011 A 
BRANCH  18  23
ATOM     23  N   UNL A   1      32.887  35.236  31.593  1.00  0.00    -0.284 N 
ATOM     24  H   UNL A   1      32.137  34.619  31.753  1.00  0.00     0.180 HD
BRANCH  23  25
ATOM     25  S   UNL A   1      32.697  36.785  32.161  1.00  0.00     0.229 S 
ATOM     26  C   UNL A   1      34.078  37.011  33.271  1.00  0.00     0.183 C 
ATOM     27  O   UNL A   1      31.466  36.881  32.914  1.00  0.00    -0.207 OA
ATOM     28  O   UNL A   1      32.937  37.635  31.013  1.00  0.00    -0.207 OA
ENDBRANCH  23  25
ENDBRANCH  18  23
ENDBRANCH   7  17
BRANCH  16  29
ATOM     29  C   UNL A   1      41.043  31.044  30.525  1.00  0.00     0.429 C 
ATOM     30  F   UNL A   1      41.288  32.187  29.847  1.00  0.00    -0.167 F 
ATOM     31  F   UNL A   1      41.277  31.287  31.837  1.00  0.00    -0.167 F 
ATOM     32  F   UNL A   1      41.993  30.153  30.131  1.00  0.00    -0.167 F 
ENDBRANCH  16  29
ENDBRANCH   3   6
ENDBRANCH   1   2
BRANCH   1  33
ATOM     33  C   UNL A   1      40.102  24.985  28.081  1.00  0.00     0.042 C 
BRANCH  33  34
ATOM     34  C   UNL A   1      40.012  24.611  26.603  1.00  0.00     0.118 C 
BRANCH  34  35
ATOM     35  N   UNL A   1      40.809  23.446  26.254  1.00  0.00    -0.352 N 
ATOM     36  C   UNL A   1      42.155  23.372  25.982  1.00  0.00     0.251 C 
ATOM     37  H   UNL A   1      40.319  22.593  26.205  1.00  0.00     0.163 HD
ATOM     38  O   UNL A   1      42.650  22.326  25.573  1.00  0.00    -0.269 OA
BRANCH  36  39
ATOM     39  C   UNL A   1      42.996  24.575  26.151  1.00  0.00     0.039 A 
ATOM     40  C   UNL A   1      43.594  24.814  27.389  1.00  0.00     0.014 A 
ATOM     41  C   UNL A   1      43.227  25.436  25.075  1.00  0.00     0.014 A 
ATOM     42  C   UNL A   1      44.493  25.873  27.527  1.00  0.00     0.010 A 
ATOM     43  C   UNL A   1      44.179  26.443  25.194  1.00  0.00     0.010 A 
ATOM     44  C   UNL A   1      44.829  26.667  26.419  1.00  0.00    -0.014 A 
BRANCH  44  45
ATOM     45  C   UNL A   1      45.868  27.726  26.506  1.00  0.00     0.031 A 
ATOM     46  C   UNL A   1      45.465  29.164  26.672  1.00  0.00     0.074 A 
ATOM     47  C   UNL A   1      47.167  27.404  26.344  1.00  0.00     0.049 A 
ATOM     48  N   UNL A   1      46.209  30.240  26.645  1.00  0.00    -0.248 NA
ATOM     49  C   UNL A   1      44.030  29.429  26.862  1.00  0.00     0.031 C 
ATOM     50  C   UNL A   1      47.685  26.051  26.131  1.00  0.00     0.029 A 
ATOM     51  N   UNL A   1      48.288  28.194  26.317  1.00  0.00    -0.354 N 
ATOM     52  C   UNL A   1      45.332  31.308  26.792  1.00  0.00     0.074 A 
ATOM     53  C   UNL A   1      43.997  30.754  26.856  1.00  0.00     0.031 C 
ATOM     54  C   UNL A   1      49.021  26.105  26.011  1.00  0.00     0.029 A 
ATOM     55  C   UNL A   1      49.451  27.496  26.097  1.00  0.00     0.049 A 
ATOM     56  H   UNL A   1      48.262  29.171  26.443  1.00  0.00     0.167 HD
ATOM     57  C   UNL A   1      45.616  32.629  26.886  1.00  0.00     0.037 A 
ATOM     58  C   UNL A   1      50.718  27.931  25.964  1.00  0.00     0.037 A 
ATOM     59  C   UNL A   1      46.947  33.175  26.851  1.00  0.00     0.049 A 
ATOM     60  C   UNL A   1      51.007  29.403  26.066  1.00  0.00     0.074 A 
ATOM     61  C   UNL A   1      47.341  34.494  27.001  1.00  0.00     0.029 A 
ATOM     62  N   UNL A   1      48.101  32.431  26.654  1.00  0.00    -0.354 N 
ATOM     63  N   UNL A   1      50.174  30.396  26.266  1.00  0.00    -0.248 NA
ATOM     64  C   UNL A   1      52.411  29.815  25.928  1.00  0.00     0.031 C 
ATOM     65  C   UNL A   1      48.731  34.553  26.852  1.00  0.00     0.029 A 
ATOM     66  C   UNL A   1      49.206  33.266  26.658  1.00  0.00     0.049 A 
ATOM     67  H   UNL A   1      48.129  31.455  26.529  1.00  0.00     0.167 HD
ATOM     68  C   UNL A   1      50.955  31.544  26.309  1.00  0.00     0.074 A 
ATOM     69  C   UNL A   1      52.328  31.124  26.123  1.00  0.00     0.031 C 
ATOM     70  C   UNL A   1      50.568  32.831  26.486  1.00  0.00     0.037 A 
BRANCH  57  71
ATOM     71  C   UNL A   1      44.460  33.575  27.039  1.00  0.00     0.057 A 
ATOM     72  C   UNL A   1      43.913  33.877  28.293  1.00  0.00     0.134 A 
ATOM     73  C   UNL A   1      43.906  34.215  25.922  1.00  0.00     0.134 A 
ATOM     74  F   UNL A   1      44.388  33.289  29.402  1.00  0.00    -0.206 F 
ATOM     75  C   UNL A   1      42.839  34.758  28.429  1.00  0.00     0.040 A 
ATOM     76  C   UNL A   1      42.852  35.121  26.049  1.00  0.00     0.040 A 
ATOM     77  F   UNL A   1      44.387  33.978  24.693  1.00  0.00    -0.206 F 
ATOM     78  C   UNL A   1      42.310  35.389  27.304  1.00  0.00     0.006 A 
ENDBRANCH  57  71
BRANCH  58  79
ATOM     79  C   UNL A   1      51.819  26.958  25.737  1.00  0.00     0.057 A 
ATOM     80  C   UNL A   1      52.208  26.602  24.440  1.00  0.00     0.134 A 
ATOM     81  C   UNL A   1      52.497  26.355  26.802  1.00  0.00     0.134 A 
ATOM     82  F   UNL A   1      51.582  27.131  23.379  1.00  0.00    -0.206 F 
ATOM     83  C   UNL A   1      53.219  25.668  24.210  1.00  0.00     0.040 A 
ATOM     84  C   UNL A   1      53.528  25.438  26.587  1.00  0.00     0.040 A 
ATOM     85  F   UNL A   1      52.177  26.660  28.068  1.00  0.00    -0.206 F 
ATOM     86  C   UNL A   1      53.885  25.086  25.287  1.00  0.00     0.006 A 
ENDBRANCH  58  79
BRANCH  70  87
ATOM     87  C   UNL A   1      51.646  33.874  26.534  1.00  0.00     0.057 A 
ATOM     88  C   UNL A   1      52.294  34.216  27.727  1.00  0.00     0.134 A 
ATOM     89  C   UNL A   1      52.074  34.506  25.359  1.00  0.00     0.134 A 
ATOM     90  F   UNL A   1      51.921  33.656  28.888  1.00  0.00    -0.206 F 
ATOM     91  C   UNL A   1      53.319  35.163  27.753  1.00  0.00     0.040 A 
ATOM     92  C   UNL A   1      53.115  35.435  25.369  1.00  0.00     0.040 A 
ATOM     93  F   UNL A   1      51.500  34.218  24.182  1.00  0.00    -0.206 F 
ATOM     94  C   UNL A   1      53.738  35.768  26.570  1.00  0.00     0.006 A 
ENDBRANCH  70  87
ENDBRANCH  44  45
ENDBRANCH  36  39
ENDBRANCH  34  35
ENDBRANCH  33  34
ENDBRANCH   1  33
TORSDOF 14
ENDMDL
MODEL 3
REMARK VINA RESULT:     -12.5      4.241      7.498
REMARK SMILES CS(=O)(=O)Nc1ccc(-c2cc(Cl)cc3c2O[C@H](C(F)(F)F)C(C(=O)NCCCNC(=O)c2ccc(-c4c5nc(c(-c6c(F)cccc6F)c6ccc([nH]6)c(-c6c(F)cccc6F)c6nc(c(-c7c(F)cccc7F)c7ccc4[nH]7)C=C6)C=C5)cc2)=C3)cc1
REMARK SMILES IDX 27 1 26 2 24 3 25 4 23 6 10 7 11 8 16 9 12 10 15 11 17 12
REMARK SMILES IDX 13 13 14 14 87 15 18 16 9 17 6 18 7 19 89 20 8 21 88 22 5 23
REMARK SMILES IDX 2 25 1 26 3 27 4 28 19 29 20 30 21 31 22 32 28 33 29 34
REMARK SMILES IDX 30 35 31 36 32 38 33 39 34 40 86 41 35 42 85 43 36 44 37 45
REMARK SMILES IDX 38 46 79 47 39 48 84 49 78 50 80 51 40 52 83 53 77 54 76 55
REMARK SMILES IDX 41 57 67 58 50 59 66 60 51 61 54 62 65 63 81 64 52 65 53 66
REMARK SMILES IDX 64 68 82 69 55 70 42 71 43 72 48 73 44 74 45 75 47 76 49 77
REMARK SMILES IDX 46 78 68 79 69 80 74 81 70 82 71 83 73 84 75 85 72 86 56 87
REMARK SMILES IDX 57 88 62 89 58 90 59 91 61 92 63 93 60 94
REMARK H PARENT 26 5 5 24 30 37 80 56 54 67
REMARK Flexibility Score: inf
ROOT
ATOM      1  C   UNL A   1      31.760  30.057  24.641  1.00  0.00     0.118 C 
ENDROOT
BRANCH   1   2
ATOM      2  N   UNL A   1      31.040  28.814  24.445  1.00  0.00    -0.352 N 
ATOM      3  C   UNL A   1      31.531  27.563  24.620  1.00  0.00     0.251 C 
ATOM      4  O   UNL A   1      31.239  26.672  23.830  1.00  0.00    -0.270 OA
ATOM      5  H   UNL A   1      30.100  28.886  24.157  1.00  0.00     0.163 HD
BRANCH   3   6
ATOM      6  C   UNL A   1      32.304  27.308  25.872  1.00  0.00     0.067 C 
ATOM      7  C   UNL A   1      34.525  24.126  24.661  1.00  0.00     0.026 A 
ATOM      8  C   UNL A   1      33.658  23.210  24.007  1.00  0.00     0.033 A 
ATOM      9  C   UNL A   1      33.910  25.144  25.404  1.00  0.00     0.135 A 
ATOM     10  C   UNL A   1      32.277  23.217  24.194  1.00  0.00     0.042 A 
ATOM     11  C   UNL A   1      32.520  25.068  25.672  1.00  0.00     0.019 A 
ATOM     12  O   UNL A   1      34.596  26.257  25.860  1.00  0.00    -0.475 OA
ATOM     13  Cl  UNL A   1      31.297  22.091  23.345  1.00  0.00    -0.084 Cl
ATOM     14  C   UNL A   1      31.704  24.108  25.080  1.00  0.00     0.032 A 
ATOM     15  C   UNL A   1      31.913  26.162  26.465  1.00  0.00     0.025 C 
ATOM     16  C   UNL A   1      33.808  27.515  25.739  1.00  0.00     0.314 C 
BRANCH   7  17
ATOM     17  C   UNL A   1      35.962  23.755  24.637  1.00  0.00    -0.014 A 
ATOM     18  C   UNL A   1      38.133  22.123  25.445  1.00  0.00     0.048 A 
ATOM     19  C   UNL A   1      37.455  21.865  24.252  1.00  0.00     0.027 A 
ATOM     20  C   UNL A   1      37.854  23.306  26.123  1.00  0.00     0.027 A 
ATOM     21  C   UNL A   1      36.401  22.688  23.834  1.00  0.00     0.011 A 
ATOM     22  C   UNL A   1      36.781  24.122  25.719  1.00  0.00     0.011 A 
BRANCH  18  23
ATOM     23  N   UNL A   1      38.925  21.061  25.967  1.00  0.00    -0.284 N 
ATOM     24  H   UNL A   1      38.502  20.173  25.994  1.00  0.00     0.180 HD
BRANCH  23  25
ATOM     25  S   UNL A   1      40.484  21.148  26.534  1.00  0.00     0.229 S 
ATOM     26  C   UNL A   1      41.171  19.542  26.160  1.00  0.00     0.183 C 
ATOM     27  O   UNL A   1      40.472  21.334  27.968  1.00  0.00    -0.207 OA
ATOM     28  O   UNL A   1      41.144  22.100  25.665  1.00  0.00    -0.207 OA
ENDBRANCH  23  25
ENDBRANCH  18  23
ENDBRANCH   7  17
BRANCH  16  29
ATOM     29  C   UNL A   1      34.254  28.569  26.776  1.00  0.00     0.429 C 
ATOM     30  F   UNL A   1      33.388  28.692  27.806  1.00  0.00    -0.167 F 
ATOM     31  F   UNL A   1      35.467  28.259  27.294  1.00  0.00    -0.167 F 
ATOM     32  F   UNL A   1      34.383  29.809  26.233  1.00  0.00    -0.167 F 
ENDBRANCH  16  29
ENDBRANCH   3   6
ENDBRANCH   1   2
BRANCH   1  33
ATOM     33  C   UNL A   1      31.029  30.928  25.665  1.00  0.00     0.042 C 
BRANCH  33  34
ATOM     34  C   UNL A   1      31.887  31.374  26.848  1.00  0.00     0.118 C 
BRANCH  34  35
ATOM     35  N   UNL A   1      31.884  32.813  27.051  1.00  0.00    -0.352 N 
ATOM     36  C   UNL A   1      32.810  33.595  27.700  1.00  0.00     0.251 C 
ATOM     37  H   UNL A   1      31.113  33.295  26.671  1.00  0.00     0.163 HD
ATOM     38  O   UNL A   1      32.590  34.786  27.897  1.00  0.00    -0.269 OA
BRANCH  36  39
ATOM     39  C   UNL A   1      34.059  32.980  28.193  1.00  0.00     0.039 A 
ATOM     40  C   UNL A   1      35.237  33.728  28.169  1.00  0.00     0.014 A 
ATOM     41  C   UNL A   1      34.054  31.685  28.717  1.00  0.00     0.014 A 
ATOM     42  C   UNL A   1      36.396  33.209  28.750  1.00  0.00     0.010 A 
ATOM     43  C   UNL A   1      35.187  31.200  29.361  1.00  0.00     0.010 A 
ATOM     44  C   UNL A   1      36.368  31.960  29.392  1.00  0.00    -0.014 A 
BRANCH  44  45
ATOM     45  C   UNL A   1      37.552  31.432  30.119  1.00  0.00     0.031 A 
ATOM     46  C   UNL A   1      38.469  30.449  29.449  1.00  0.00     0.074 A 
ATOM     47  C   UNL A   1      37.749  31.768  31.409  1.00  0.00     0.049 A 
ATOM     48  N   UNL A   1      39.478  29.782  29.952  1.00  0.00    -0.248 NA
ATOM     49  C   UNL A   1      38.197  30.150  28.034  1.00  0.00     0.031 C 
ATOM     50  C   UNL A   1      36.906  32.678  32.188  1.00  0.00     0.029 A 
ATOM     51  N   UNL A   1      38.713  31.368  32.300  1.00  0.00    -0.354 N 
ATOM     52  C   UNL A   1      39.944  28.972  28.924  1.00  0.00     0.074 A 
ATOM     53  C   UNL A   1      39.078  29.192  27.785  1.00  0.00     0.031 C 
ATOM     54  C   UNL A   1      37.400  32.778  33.432  1.00  0.00     0.029 A 
ATOM     55  C   UNL A   1      38.566  31.911  33.554  1.00  0.00     0.049 A 
ATOM     56  H   UNL A   1      39.443  30.750  32.064  1.00  0.00     0.167 HD
ATOM     57  C   UNL A   1      41.009  28.137  28.922  1.00  0.00     0.037 A 
ATOM     58  C   UNL A   1      39.281  31.719  34.679  1.00  0.00     0.037 A 
ATOM     59  C   UNL A   1      41.887  27.941  30.046  1.00  0.00     0.049 A 
ATOM     60  C   UNL A   1      40.456  30.781  34.653  1.00  0.00     0.074 A 
ATOM     61  C   UNL A   1      43.029  27.164  30.123  1.00  0.00     0.029 A 
ATOM     62  N   UNL A   1      41.719  28.531  31.290  1.00  0.00    -0.354 N 
ATOM     63  N   UNL A   1      40.923  30.068  33.656  1.00  0.00    -0.248 NA
ATOM     64  C   UNL A   1      41.208  30.624  35.907  1.00  0.00     0.031 C 
ATOM     65  C   UNL A   1      43.529  27.249  31.427  1.00  0.00     0.029 A 
ATOM     66  C   UNL A   1      42.726  28.119  32.147  1.00  0.00     0.049 A 
ATOM     67  H   UNL A   1      40.991  29.150  31.529  1.00  0.00     0.167 HD
ATOM     68  C   UNL A   1      42.037  29.404  34.152  1.00  0.00     0.074 A 
ATOM     69  C   UNL A   1      42.182  29.805  35.536  1.00  0.00     0.031 C 
ATOM     70  C   UNL A   1      42.865  28.539  33.518  1.00  0.00     0.037 A 
BRANCH  57  71
ATOM     71  C   UNL A   1      41.287  27.372  27.660  1.00  0.00     0.057 A 
ATOM     72  C   UNL A   1      42.121  27.880  26.656  1.00  0.00     0.134 A 
ATOM     73  C   UNL A   1      40.737  26.099  27.459  1.00  0.00     0.134 A 
ATOM     74  F   UNL A   1      42.669  29.099  26.780  1.00  0.00    -0.206 F 
ATOM     75  C   UNL A   1      42.375  27.164  25.485  1.00  0.00     0.040 A 
ATOM     76  C   UNL A   1      41.008  25.361  26.306  1.00  0.00     0.040 A 
ATOM     77  F   UNL A   1      39.936  25.549  28.383  1.00  0.00    -0.206 F 
ATOM     78  C   UNL A   1      41.824  25.897  25.311  1.00  0.00     0.006 A 
ENDBRANCH  57  71
BRANCH  58  79
ATOM     79  C   UNL A   1      38.918  32.443  35.925  1.00  0.00     0.057 A 
ATOM     80  C   UNL A   1      39.342  33.760  36.142  1.00  0.00     0.134 A 
ATOM     81  C   UNL A   1      38.153  31.838  36.928  1.00  0.00     0.134 A 
ATOM     82  F   UNL A   1      40.094  34.385  35.224  1.00  0.00    -0.206 F 
ATOM     83  C   UNL A   1      39.035  34.443  37.319  1.00  0.00     0.040 A 
ATOM     84  C   UNL A   1      37.817  32.518  38.101  1.00  0.00     0.040 A 
ATOM     85  F   UNL A   1      37.709  30.582  36.779  1.00  0.00    -0.206 F 
ATOM     86  C   UNL A   1      38.266  33.823  38.301  1.00  0.00     0.006 A 
ENDBRANCH  58  79
BRANCH  70  87
ATOM     87  C   UNL A   1      44.029  28.002  34.298  1.00  0.00     0.057 A 
ATOM     88  C   UNL A   1      45.248  28.687  34.376  1.00  0.00     0.134 A 
ATOM     89  C   UNL A   1      43.909  26.808  35.022  1.00  0.00     0.134 A 
ATOM     90  F   UNL A   1      45.431  29.828  33.694  1.00  0.00    -0.206 F 
ATOM     91  C   UNL A   1      46.312  28.194  35.133  1.00  0.00     0.040 A 
ATOM     92  C   UNL A   1      44.957  26.320  35.803  1.00  0.00     0.040 A 
ATOM     93  F   UNL A   1      42.765  26.108  34.996  1.00  0.00    -0.206 F 
ATOM     94  C   UNL A   1      46.165  27.012  35.856  1.00  0.00     0.006 A 
ENDBRANCH  70  87
ENDBRANCH  44  45
ENDBRANCH  36  39
ENDBRANCH  34  35
ENDBRANCH  33  34
ENDBRANCH   1  33
TORSDOF 14
ENDMDL
