MODEL 1
REMARK VINA RESULT:     -14.6      0.000      0.000
REMARK SMILES Cc1ccc(NC(=O)c2cnn3c2NC2=C(C(=O)CCC2)[C@H]3c2ccc(C(=O)NCCCNC(=O)c3ccc(-c4c5nc(c(-c6c(F)cccc6F)c6ccc([nH]6)c(-c6c(F)cccc6F)c6nc(c(-c7c(F)cccc7F)c7ccc4[nH]7)C=C6)C=C5)cc3)cc2)cc1
REMARK SMILES IDX 30 1 29 2 27 3 28 4 26 6 23 7 24 8 91 9 25 10 90 11 22 12
REMARK SMILES IDX 9 13 10 14 13 15 11 16 12 17 14 18 15 19 16 21 21 22 17 23
REMARK SMILES IDX 20 24 18 25 19 26 7 27 6 28 8 30 5 31 1 32 2 33 3 34 93 35
REMARK SMILES IDX 4 36 92 37 31 38 32 39 33 40 34 41 35 43 36 44 37 45 89 46
REMARK SMILES IDX 38 47 88 48 39 49 40 50 41 51 82 52 42 53 87 54 81 55 83 56
REMARK SMILES IDX 43 57 86 58 80 59 79 60 44 62 70 63 53 64 69 65 54 66 57 67
REMARK SMILES IDX 68 68 84 69 55 70 56 71 67 73 85 74 58 75 45 76 46 77 51 78
REMARK SMILES IDX 47 79 48 80 50 81 52 82 49 83 71 84 72 85 77 86 73 87 74 88
REMARK SMILES IDX 76 89 78 90 75 91 59 92 60 93 65 94 61 95 62 96 64 97 66 98
REMARK SMILES IDX 63 99
REMARK H PARENT 29 5 14 20 6 29 33 42 83 61 57 72
REMARK Flexibility Score: inf
ROOT
ATOM      1  C   UNL A   1      39.797  21.226  26.451  1.00  0.00     0.118 C 
ENDROOT
BRANCH   1   2
ATOM      2  N   UNL A   1      39.475  22.590  26.856  1.00  0.00    -0.352 N 
ATOM      3  C   UNL A   1      38.389  23.398  26.597  1.00  0.00     0.251 C 
ATOM      4  O   UNL A   1      38.305  24.454  27.224  1.00  0.00    -0.269 OA
ATOM      5  H   UNL A   1      40.161  23.011  27.421  1.00  0.00     0.163 HD
BRANCH   3   6
ATOM      6  C   UNL A   1      37.296  23.045  25.642  1.00  0.00     0.039 A 
ATOM      7  C   UNL A   1      35.200  22.659  23.757  1.00  0.00    -0.019 A 
ATOM      8  C   UNL A   1      36.465  23.109  23.342  1.00  0.00     0.007 A 
ATOM      9  C   UNL A   1      35.094  22.194  25.077  1.00  0.00     0.007 A 
ATOM     10  C   UNL A   1      37.494  23.307  24.279  1.00  0.00     0.014 A 
ATOM     11  C   UNL A   1      36.112  22.413  26.011  1.00  0.00     0.014 A 
BRANCH   7  12
ATOM     12  C   UNL A   1      33.932  22.864  22.866  1.00  0.00     0.175 C 
ATOM     13  C   UNL A   1      31.447  23.273  25.410  1.00  0.00     0.102 A 
ATOM     14  C   UNL A   1      31.006  22.130  24.676  1.00  0.00     0.151 A 
ATOM     15  C   UNL A   1      32.422  23.809  24.596  1.00  0.00     0.142 A 
ATOM     16  N   UNL A   1      31.815  21.809  23.660  1.00  0.00    -0.178 NA
ATOM     17  N   UNL A   1      32.727  22.792  23.705  1.00  0.00    -0.237 N 
ATOM     18  N   UNL A   1      33.114  24.985  24.478  1.00  0.00    -0.343 N 
ATOM     19  C   UNL A   1      33.706  25.296  23.240  1.00  0.00     0.026 C 
ATOM     20  H   UNL A   1      33.195  25.600  25.243  1.00  0.00     0.168 HD
ATOM     21  C   UNL A   1      33.879  24.287  22.350  1.00  0.00     0.044 C 
ATOM     22  C   UNL A   1      33.813  26.724  22.784  1.00  0.00     0.055 C 
ATOM     23  C   UNL A   1      33.236  24.544  21.036  1.00  0.00     0.163 C 
ATOM     24  C   UNL A   1      33.035  26.984  21.490  1.00  0.00     0.014 C 
ATOM     25  O   UNL A   1      33.325  23.733  20.122  1.00  0.00    -0.294 OA
ATOM     26  C   UNL A   1      32.304  25.747  20.983  1.00  0.00     0.081 C 
BRANCH  13  27
ATOM     27  C   UNL A   1      30.944  23.803  26.657  1.00  0.00     0.261 C 
ATOM     28  N   UNL A   1      30.685  25.160  26.762  1.00  0.00    -0.322 N 
ATOM     29  H   UNL A   1      30.634  25.489  27.689  1.00  0.00     0.170 HD
ATOM     30  O   UNL A   1      30.769  23.083  27.639  1.00  0.00    -0.269 OA
BRANCH  28  31
ATOM     31  C   UNL A   1      30.480  26.156  25.782  1.00  0.00     0.041 A 
ATOM     32  C   UNL A   1      30.202  29.176  22.698  1.00  0.00     0.044 C 
ATOM     33  C   UNL A   1      30.264  28.165  23.804  1.00  0.00    -0.051 A 
ATOM     34  C   UNL A   1      29.469  27.020  23.743  1.00  0.00     0.005 A 
ATOM     35  C   UNL A   1      31.136  28.319  24.886  1.00  0.00     0.005 A 
ATOM     36  C   UNL A   1      29.553  26.050  24.744  1.00  0.00     0.026 A 
ATOM     37  C   UNL A   1      31.235  27.326  25.872  1.00  0.00     0.026 A 
ENDBRANCH  28  31
ENDBRANCH  13  27
ENDBRANCH   7  12
ENDBRANCH   3   6
ENDBRANCH   1   2
BRANCH   1  38
ATOM     38  C   UNL A   1      40.991  20.660  27.218  1.00  0.00     0.042 C 
BRANCH  38  39
ATOM     39  C   UNL A   1      42.342  21.247  26.832  1.00  0.00     0.118 C 
BRANCH  39  40
ATOM     40  N   UNL A   1      42.971  20.581  25.692  1.00  0.00    -0.352 N 
ATOM     41  C   UNL A   1      44.021  21.023  24.891  1.00  0.00     0.251 C 
ATOM     42  H   UNL A   1      42.601  19.700  25.458  1.00  0.00     0.163 HD
ATOM     43  O   UNL A   1      44.497  20.318  24.036  1.00  0.00    -0.269 OA
BRANCH  41  44
ATOM     44  C   UNL A   1      44.626  22.341  25.211  1.00  0.00     0.039 A 
ATOM     45  C   UNL A   1      45.426  22.420  26.354  1.00  0.00     0.014 A 
ATOM     46  C   UNL A   1      44.177  23.491  24.572  1.00  0.00     0.014 A 
ATOM     47  C   UNL A   1      45.531  23.639  27.015  1.00  0.00     0.010 A 
ATOM     48  C   UNL A   1      44.194  24.679  25.277  1.00  0.00     0.010 A 
ATOM     49  C   UNL A   1      44.798  24.727  26.539  1.00  0.00    -0.014 A 
BRANCH  49  50
ATOM     50  C   UNL A   1      44.462  25.867  27.386  1.00  0.00     0.031 A 
ATOM     51  C   UNL A   1      43.095  26.420  27.416  1.00  0.00     0.074 A 
ATOM     52  C   UNL A   1      45.410  26.395  28.192  1.00  0.00     0.049 A 
ATOM     53  N   UNL A   1      42.821  27.646  27.714  1.00  0.00    -0.248 NA
ATOM     54  C   UNL A   1      41.919  25.634  27.071  1.00  0.00     0.031 C 
ATOM     55  C   UNL A   1      45.217  27.354  29.277  1.00  0.00     0.029 A 
ATOM     56  N   UNL A   1      46.804  26.319  28.039  1.00  0.00    -0.354 N 
ATOM     57  C   UNL A   1      41.458  27.743  27.876  1.00  0.00     0.074 A 
ATOM     58  C   UNL A   1      40.938  26.481  27.398  1.00  0.00     0.031 C 
ATOM     59  C   UNL A   1      46.375  27.992  29.502  1.00  0.00     0.029 A 
ATOM     60  C   UNL A   1      47.311  27.562  28.479  1.00  0.00     0.049 A 
ATOM     61  H   UNL A   1      47.321  25.557  27.695  1.00  0.00     0.167 HD
ATOM     62  C   UNL A   1      40.931  28.821  28.526  1.00  0.00     0.037 A 
ATOM     63  C   UNL A   1      48.002  28.394  27.650  1.00  0.00     0.037 A 
ATOM     64  C   UNL A   1      41.971  29.767  28.923  1.00  0.00     0.049 A 
ATOM     65  C   UNL A   1      47.398  29.772  27.516  1.00  0.00     0.074 A 
ATOM     66  C   UNL A   1      42.639  29.974  30.120  1.00  0.00     0.029 A 
ATOM     67  N   UNL A   1      42.674  30.473  27.954  1.00  0.00    -0.354 N 
ATOM     68  N   UNL A   1      46.161  30.054  27.813  1.00  0.00    -0.248 NA
ATOM     69  C   UNL A   1      48.128  30.929  27.008  1.00  0.00     0.031 C 
ATOM     70  C   UNL A   1      43.762  30.795  29.865  1.00  0.00     0.029 A 
ATOM     71  C   UNL A   1      43.774  31.094  28.514  1.00  0.00     0.049 A 
ATOM     72  H   UNL A   1      42.424  30.522  27.004  1.00  0.00     0.167 HD
ATOM     73  C   UNL A   1      45.909  31.374  27.530  1.00  0.00     0.074 A 
ATOM     74  C   UNL A   1      47.181  31.883  27.054  1.00  0.00     0.031 C 
ATOM     75  C   UNL A   1      44.666  31.914  27.707  1.00  0.00     0.037 A 
BRANCH  62  76
ATOM     76  C   UNL A   1      39.523  28.849  29.077  1.00  0.00     0.057 A 
ATOM     77  C   UNL A   1      38.450  29.355  28.315  1.00  0.00     0.134 A 
ATOM     78  C   UNL A   1      39.167  28.446  30.374  1.00  0.00     0.134 A 
ATOM     79  F   UNL A   1      38.584  29.658  27.017  1.00  0.00    -0.206 F 
ATOM     80  C   UNL A   1      37.173  29.578  28.846  1.00  0.00     0.040 A 
ATOM     81  C   UNL A   1      37.910  28.712  30.938  1.00  0.00     0.040 A 
ATOM     82  F   UNL A   1      40.007  27.733  31.136  1.00  0.00    -0.206 F 
ATOM     83  C   UNL A   1      36.911  29.300  30.177  1.00  0.00     0.006 A 
ENDBRANCH  62  76
BRANCH  63  84
ATOM     84  C   UNL A   1      48.754  27.688  26.584  1.00  0.00     0.057 A 
ATOM     85  C   UNL A   1      48.165  27.553  25.315  1.00  0.00     0.134 A 
ATOM     86  C   UNL A   1      50.132  27.473  26.673  1.00  0.00     0.134 A 
ATOM     87  F   UNL A   1      46.845  27.750  25.161  1.00  0.00    -0.206 F 
ATOM     88  C   UNL A   1      48.926  27.323  24.167  1.00  0.00     0.040 A 
ATOM     89  C   UNL A   1      50.904  27.233  25.531  1.00  0.00     0.040 A 
ATOM     90  F   UNL A   1      50.769  27.608  27.844  1.00  0.00    -0.206 F 
ATOM     91  C   UNL A   1      50.308  27.193  24.271  1.00  0.00     0.006 A 
ENDBRANCH  63  84
BRANCH  75  92
ATOM     92  C   UNL A   1      44.175  33.271  27.242  1.00  0.00     0.057 A 
ATOM     93  C   UNL A   1      43.891  33.610  25.911  1.00  0.00     0.134 A 
ATOM     94  C   UNL A   1      43.832  34.269  28.188  1.00  0.00     0.134 A 
ATOM     95  F   UNL A   1      44.051  32.736  24.911  1.00  0.00    -0.206 F 
ATOM     96  C   UNL A   1      43.362  34.858  25.544  1.00  0.00     0.040 A 
ATOM     97  C   UNL A   1      43.252  35.493  27.838  1.00  0.00     0.040 A 
ATOM     98  F   UNL A   1      44.018  34.094  29.504  1.00  0.00    -0.206 F 
ATOM     99  C   UNL A   1      43.029  35.800  26.508  1.00  0.00     0.006 A 
ENDBRANCH  75  92
ENDBRANCH  49  50
ENDBRANCH  41  44
ENDBRANCH  39  40
ENDBRANCH  38  39
ENDBRANCH   1  38
TORSDOF 13
ENDMDL
MODEL 2
REMARK VINA RESULT:     -14.3      4.690      9.894
REMARK SMILES Cc1ccc(NC(=O)c2cnn3c2NC2=C(C(=O)CCC2)[C@H]3c2ccc(C(=O)NCCCNC(=O)c3ccc(-c4c5nc(c(-c6c(F)cccc6F)c6ccc([nH]6)c(-c6c(F)cccc6F)c6nc(c(-c7c(F)cccc7F)c7ccc4[nH]7)C=C6)C=C5)cc3)cc2)cc1
REMARK SMILES IDX 30 1 29 2 27 3 28 4 26 6 23 7 24 8 91 9 25 10 90 11 22 12
REMARK SMILES IDX 9 13 10 14 13 15 11 16 12 17 14 18 15 19 16 21 21 22 17 23
REMARK SMILES IDX 20 24 18 25 19 26 7 27 6 28 8 30 5 31 1 32 2 33 3 34 93 35
REMARK SMILES IDX 4 36 92 37 31 38 32 39 33 40 34 41 35 43 36 44 37 45 89 46
REMARK SMILES IDX 38 47 88 48 39 49 40 50 41 51 82 52 42 53 87 54 81 55 83 56
REMARK SMILES IDX 43 57 86 58 80 59 79 60 44 62 70 63 53 64 69 65 54 66 57 67
REMARK SMILES IDX 68 68 84 69 55 70 56 71 67 73 85 74 58 75 45 76 46 77 51 78
REMARK SMILES IDX 47 79 48 80 50 81 52 82 49 83 71 84 72 85 77 86 73 87 74 88
REMARK SMILES IDX 76 89 78 90 75 91 59 92 60 93 65 94 61 95 62 96 64 97 66 98
REMARK SMILES IDX 63 99
REMARK H PARENT 29 5 14 20 6 29 33 42 83 61 57 72
REMARK Flexibility Score: inf
ROOT
ATOM      1  C   UNL A   1      34.335  32.384  27.710  1.00  0.00     0.118 C 
ENDROOT
BRANCH   1   2
ATOM      2  N   UNL A   1      35.302  31.292  27.696  1.00  0.00    -0.352 N 
ATOM      3  C   UNL A   1      35.204  29.977  27.293  1.00  0.00     0.251 C 
ATOM      4  O   UNL A   1      36.245  29.323  27.231  1.00  0.00    -0.269 OA
ATOM      5  H   UNL A   1      36.190  31.540  28.039  1.00  0.00     0.163 HD
BRANCH   3   6
ATOM      6  C   UNL A   1      33.923  29.323  26.886  1.00  0.00     0.039 A 
ATOM      7  C   UNL A   1      31.599  27.827  26.217  1.00  0.00    -0.019 A 
ATOM      8  C   UNL A   1      31.975  28.006  27.559  1.00  0.00     0.007 A 
ATOM      9  C   UNL A   1      32.274  28.601  25.260  1.00  0.00     0.007 A 
ATOM     10  C   UNL A   1      33.130  28.739  27.884  1.00  0.00     0.014 A 
ATOM     11  C   UNL A   1      33.435  29.310  25.584  1.00  0.00     0.014 A 
BRANCH   7  12
ATOM     12  C   UNL A   1      30.631  26.675  25.791  1.00  0.00     0.175 C 
ATOM     13  C   UNL A   1      32.059  25.805  22.625  1.00  0.00     0.102 A 
ATOM     14  C   UNL A   1      30.723  26.196  22.307  1.00  0.00     0.151 A 
ATOM     15  C   UNL A   1      32.027  25.674  23.997  1.00  0.00     0.142 A 
ATOM     16  N   UNL A   1      30.008  26.561  23.377  1.00  0.00    -0.178 NA
ATOM     17  N   UNL A   1      30.869  26.332  24.381  1.00  0.00    -0.237 N 
ATOM     18  N   UNL A   1      32.800  25.121  24.984  1.00  0.00    -0.343 N 
ATOM     19  C   UNL A   1      32.197  24.811  26.217  1.00  0.00     0.026 C 
ATOM     20  H   UNL A   1      33.757  24.945  24.834  1.00  0.00     0.168 HD
ATOM     21  C   UNL A   1      31.004  25.390  26.501  1.00  0.00     0.044 C 
ATOM     22  C   UNL A   1      32.667  23.631  27.019  1.00  0.00     0.055 C 
ATOM     23  C   UNL A   1      29.931  24.408  26.805  1.00  0.00     0.163 C 
ATOM     24  C   UNL A   1      31.570  22.579  27.209  1.00  0.00     0.014 C 
ATOM     25  O   UNL A   1      28.802  24.782  27.103  1.00  0.00    -0.294 OA
ATOM     26  C   UNL A   1      30.268  22.953  26.512  1.00  0.00     0.081 C 
BRANCH  13  27
ATOM     27  C   UNL A   1      33.162  25.524  21.734  1.00  0.00     0.261 C 
ATOM     28  N   UNL A   1      33.907  24.372  21.918  1.00  0.00    -0.322 N 
ATOM     29  H   UNL A   1      34.791  24.391  21.486  1.00  0.00     0.170 HD
ATOM     30  O   UNL A   1      33.475  26.302  20.833  1.00  0.00    -0.269 OA
BRANCH  28  31
ATOM     31  C   UNL A   1      33.628  23.174  22.614  1.00  0.00     0.041 A 
ATOM     32  C   UNL A   1      32.782  19.700  25.048  1.00  0.00     0.044 C 
ATOM     33  C   UNL A   1      33.116  20.871  24.171  1.00  0.00    -0.051 A 
ATOM     34  C   UNL A   1      32.233  21.256  23.162  1.00  0.00     0.005 A 
ATOM     35  C   UNL A   1      34.280  21.621  24.367  1.00  0.00     0.005 A 
ATOM     36  C   UNL A   1      32.513  22.372  22.371  1.00  0.00     0.026 A 
ATOM     37  C   UNL A   1      34.538  22.758  23.587  1.00  0.00     0.026 A 
ENDBRANCH  28  31
ENDBRANCH  13  27
ENDBRANCH   7  12
ENDBRANCH   3   6
ENDBRANCH   1   2
BRANCH   1  38
ATOM     38  C   UNL A   1      34.685  33.454  28.744  1.00  0.00     0.042 C 
BRANCH  38  39
ATOM     39  C   UNL A   1      34.730  32.966  30.186  1.00  0.00     0.118 C 
BRANCH  39  40
ATOM     40  N   UNL A   1      33.894  33.744  31.099  1.00  0.00    -0.352 N 
ATOM     41  C   UNL A   1      34.214  34.264  32.350  1.00  0.00     0.251 C 
ATOM     42  H   UNL A   1      32.978  33.923  30.786  1.00  0.00     0.163 HD
ATOM     43  O   UNL A   1      33.442  34.968  32.953  1.00  0.00    -0.269 OA
BRANCH  41  44
ATOM     44  C   UNL A   1      35.589  34.035  32.862  1.00  0.00     0.039 A 
ATOM     45  C   UNL A   1      36.619  34.795  32.301  1.00  0.00     0.014 A 
ATOM     46  C   UNL A   1      35.868  32.917  33.642  1.00  0.00     0.014 A 
ATOM     47  C   UNL A   1      37.906  34.269  32.283  1.00  0.00     0.010 A 
ATOM     48  C   UNL A   1      37.121  32.346  33.538  1.00  0.00     0.010 A 
ATOM     49  C   UNL A   1      38.114  32.984  32.785  1.00  0.00    -0.014 A 
BRANCH  49  50
ATOM     50  C   UNL A   1      39.265  32.176  32.396  1.00  0.00     0.031 A 
ATOM     51  C   UNL A   1      39.111  30.993  31.528  1.00  0.00     0.074 A 
ATOM     52  C   UNL A   1      40.501  32.544  32.803  1.00  0.00     0.049 A 
ATOM     53  N   UNL A   1      39.919  29.986  31.532  1.00  0.00    -0.248 NA
ATOM     54  C   UNL A   1      37.999  30.836  30.600  1.00  0.00     0.031 C 
ATOM     55  C   UNL A   1      41.781  32.029  32.326  1.00  0.00     0.029 A 
ATOM     56  N   UNL A   1      40.836  33.336  33.913  1.00  0.00    -0.354 N 
ATOM     57  C   UNL A   1      39.613  29.199  30.446  1.00  0.00     0.074 A 
ATOM     58  C   UNL A   1      38.369  29.735  29.939  1.00  0.00     0.031 C 
ATOM     59  C   UNL A   1      42.714  32.254  33.264  1.00  0.00     0.029 A 
ATOM     60  C   UNL A   1      42.036  32.796  34.426  1.00  0.00     0.049 A 
ATOM     61  H   UNL A   1      40.337  34.108  34.263  1.00  0.00     0.167 HD
ATOM     62  C   UNL A   1      40.515  28.272  30.010  1.00  0.00     0.037 A 
ATOM     63  C   UNL A   1      42.118  32.288  35.688  1.00  0.00     0.037 A 
ATOM     64  C   UNL A   1      41.706  28.245  30.855  1.00  0.00     0.049 A 
ATOM     65  C   UNL A   1      42.568  30.848  35.745  1.00  0.00     0.074 A 
ATOM     66  C   UNL A   1      42.959  28.825  30.723  1.00  0.00     0.029 A 
ATOM     67  N   UNL A   1      41.617  27.799  32.168  1.00  0.00    -0.354 N 
ATOM     68  N   UNL A   1      42.511  30.029  34.733  1.00  0.00    -0.248 NA
ATOM     69  C   UNL A   1      43.086  30.209  36.951  1.00  0.00     0.031 C 
ATOM     70  C   UNL A   1      43.619  28.742  31.971  1.00  0.00     0.029 A 
ATOM     71  C   UNL A   1      42.772  28.107  32.861  1.00  0.00     0.049 A 
ATOM     72  H   UNL A   1      40.840  27.331  32.550  1.00  0.00     0.167 HD
ATOM     73  C   UNL A   1      42.942  28.784  35.123  1.00  0.00     0.074 A 
ATOM     74  C   UNL A   1      43.315  28.958  36.514  1.00  0.00     0.031 C 
ATOM     75  C   UNL A   1      42.934  27.727  34.257  1.00  0.00     0.037 A 
BRANCH  62  76
ATOM     76  C   UNL A   1      40.447  27.630  28.642  1.00  0.00     0.057 A 
ATOM     77  C   UNL A   1      39.794  26.396  28.445  1.00  0.00     0.134 A 
ATOM     78  C   UNL A   1      41.056  28.149  27.489  1.00  0.00     0.134 A 
ATOM     79  F   UNL A   1      39.049  25.828  29.402  1.00  0.00    -0.206 F 
ATOM     80  C   UNL A   1      39.869  25.675  27.246  1.00  0.00     0.040 A 
ATOM     81  C   UNL A   1      41.187  27.417  26.299  1.00  0.00     0.040 A 
ATOM     82  F   UNL A   1      41.509  29.410  27.447  1.00  0.00    -0.206 F 
ATOM     83  C   UNL A   1      40.608  26.163  26.182  1.00  0.00     0.006 A 
ENDBRANCH  62  76
BRANCH  63  84
ATOM     84  C   UNL A   1      41.190  32.928  36.652  1.00  0.00     0.057 A 
ATOM     85  C   UNL A   1      41.564  34.147  37.246  1.00  0.00     0.134 A 
ATOM     86  C   UNL A   1      39.840  32.574  36.723  1.00  0.00     0.134 A 
ATOM     87  F   UNL A   1      42.846  34.547  37.210  1.00  0.00    -0.206 F 
ATOM     88  C   UNL A   1      40.624  35.024  37.789  1.00  0.00     0.040 A 
ATOM     89  C   UNL A   1      38.889  33.441  37.273  1.00  0.00     0.040 A 
ATOM     90  F   UNL A   1      39.402  31.440  36.158  1.00  0.00    -0.206 F 
ATOM     91  C   UNL A   1      39.274  34.684  37.775  1.00  0.00     0.006 A 
ENDBRANCH  63  84
BRANCH  75  92
ATOM     92  C   UNL A   1      43.164  26.265  34.585  1.00  0.00     0.057 A 
ATOM     93  C   UNL A   1      42.192  25.395  35.101  1.00  0.00     0.134 A 
ATOM     94  C   UNL A   1      44.389  25.640  34.243  1.00  0.00     0.134 A 
ATOM     95  F   UNL A   1      40.947  25.807  35.367  1.00  0.00    -0.206 F 
ATOM     96  C   UNL A   1      42.435  24.029  35.312  1.00  0.00     0.040 A 
ATOM     97  C   UNL A   1      44.622  24.269  34.397  1.00  0.00     0.040 A 
ATOM     98  F   UNL A   1      45.413  26.325  33.717  1.00  0.00    -0.206 F 
ATOM     99  C   UNL A   1      43.647  23.458  34.949  1.00  0.00     0.006 A 
ENDBRANCH  75  92
ENDBRANCH  49  50
ENDBRANCH  41  44
ENDBRANCH  39  40
ENDBRANCH  38  39
ENDBRANCH   1  38
TORSDOF 13
ENDMDL
MODEL 3
REMARK VINA RESULT:     -14.1      3.644      8.480
REMARK SMILES Cc1ccc(NC(=O)c2cnn3c2NC2=C(C(=O)CCC2)[C@H]3c2ccc(C(=O)NCCCNC(=O)c3ccc(-c4c5nc(c(-c6c(F)cccc6F)c6ccc([nH]6)c(-c6c(F)cccc6F)c6nc(c(-c7c(F)cccc7F)c7ccc4[nH]7)C=C6)C=C5)cc3)cc2)cc1
REMARK SMILES IDX 30 1 29 2 27 3 28 4 26 6 23 7 24 8 91 9 25 10 90 11 22 12
REMARK SMILES IDX 9 13 10 14 13 15 11 16 12 17 14 18 15 19 16 21 21 22 17 23
REMARK SMILES IDX 20 24 18 25 19 26 7 27 6 28 8 30 5 31 1 32 2 33 3 34 93 35
REMARK SMILES IDX 4 36 92 37 31 38 32 39 33 40 34 41 35 43 36 44 37 45 89 46
REMARK SMILES IDX 38 47 88 48 39 49 40 50 41 51 82 52 42 53 87 54 81 55 83 56
REMARK SMILES IDX 43 57 86 58 80 59 79 60 44 62 70 63 53 64 69 65 54 66 57 67
REMARK SMILES IDX 68 68 84 69 55 70 56 71 67 73 85 74 58 75 45 76 46 77 51 78
REMARK SMILES IDX 47 79 48 80 50 81 52 82 49 83 71 84 72 85 77 86 73 87 74 88
REMARK SMILES IDX 76 89 78 90 75 91 59 92 60 93 65 94 61 95 62 96 64 97 66 98
REMARK SMILES IDX 63 99
REMARK H PARENT 29 5 14 20 6 29 33 42 83 61 57 72
REMARK Flexibility Score: inf
ROOT
ATOM      1  C   UNL A   1      33.701  30.145  26.836  1.00  0.00     0.118 C 
ENDROOT
BRANCH   1   2
ATOM      2  N   UNL A   1      32.449  29.798  27.497  1.00  0.00    -0.352 N 
ATOM      3  C   UNL A   1      31.769  28.604  27.621  1.00  0.00     0.251 C 
ATOM      4  O   UNL A   1      30.813  28.573  28.395  1.00  0.00    -0.269 OA
ATOM      5  H   UNL A   1      32.005  30.557  27.938  1.00  0.00     0.163 HD
BRANCH   3   6
ATOM      6  C   UNL A   1      32.156  27.347  26.911  1.00  0.00     0.039 A 
ATOM      7  C   UNL A   1      32.787  24.809  25.793  1.00  0.00    -0.019 A 
ATOM      8  C   UNL A   1      31.451  25.183  26.016  1.00  0.00     0.007 A 
ATOM      9  C   UNL A   1      33.757  25.814  25.924  1.00  0.00     0.007 A 
ATOM     10  C   UNL A   1      31.145  26.435  26.578  1.00  0.00     0.014 A 
ATOM     11  C   UNL A   1      33.453  27.050  26.503  1.00  0.00     0.014 A 
BRANCH   7  12
ATOM     12  C   UNL A   1      33.192  23.309  25.620  1.00  0.00     0.175 C 
ATOM     13  C   UNL A   1      32.934  23.006  22.061  1.00  0.00     0.102 A 
ATOM     14  C   UNL A   1      32.003  22.045  22.560  1.00  0.00     0.151 A 
ATOM     15  C   UNL A   1      33.664  23.341  23.182  1.00  0.00     0.142 A 
ATOM     16  N   UNL A   1      31.951  21.999  23.895  1.00  0.00    -0.178 NA
ATOM     17  N   UNL A   1      32.902  22.879  24.243  1.00  0.00    -0.237 N 
ATOM     18  N   UNL A   1      34.841  23.980  23.475  1.00  0.00    -0.343 N 
ATOM     19  C   UNL A   1      35.454  23.723  24.715  1.00  0.00     0.026 C 
ATOM     20  H   UNL A   1      35.248  24.603  22.831  1.00  0.00     0.168 HD
ATOM     21  C   UNL A   1      34.698  23.162  25.691  1.00  0.00     0.044 C 
ATOM     22  C   UNL A   1      36.951  23.738  24.841  1.00  0.00     0.055 C 
ATOM     23  C   UNL A   1      35.265  21.894  26.218  1.00  0.00     0.163 C 
ATOM     24  C   UNL A   1      37.514  22.379  25.268  1.00  0.00     0.014 C 
ATOM     25  O   UNL A   1      34.705  21.282  27.121  1.00  0.00    -0.294 OA
ATOM     26  C   UNL A   1      36.433  21.318  25.431  1.00  0.00     0.081 C 
BRANCH  13  27
ATOM     27  C   UNL A   1      33.134  23.460  20.705  1.00  0.00     0.261 C 
ATOM     28  N   UNL A   1      32.786  24.757  20.364  1.00  0.00    -0.322 N 
ATOM     29  H   UNL A   1      32.671  24.902  19.398  1.00  0.00     0.170 HD
ATOM     30  O   UNL A   1      33.578  22.713  19.834  1.00  0.00    -0.269 OA
BRANCH  28  31
ATOM     31  C   UNL A   1      32.567  25.908  21.153  1.00  0.00     0.041 A 
ATOM     32  C   UNL A   1      31.745  29.217  23.814  1.00  0.00     0.044 C 
ATOM     33  C   UNL A   1      32.011  28.105  22.844  1.00  0.00    -0.051 A 
ATOM     34  C   UNL A   1      33.318  27.831  22.443  1.00  0.00     0.005 A 
ATOM     35  C   UNL A   1      30.978  27.298  22.358  1.00  0.00     0.005 A 
ATOM     36  C   UNL A   1      33.581  26.768  21.576  1.00  0.00     0.026 A 
ATOM     37  C   UNL A   1      31.253  26.214  21.512  1.00  0.00     0.026 A 
ENDBRANCH  28  31
ENDBRANCH  13  27
ENDBRANCH   7  12
ENDBRANCH   3   6
ENDBRANCH   1   2
BRANCH   1  38
ATOM     38  C   UNL A   1      34.352  31.387  27.442  1.00  0.00     0.042 C 
BRANCH  38  39
ATOM     39  C   UNL A   1      34.635  31.302  28.936  1.00  0.00     0.118 C 
BRANCH  39  40
ATOM     40  N   UNL A   1      35.719  32.175  29.383  1.00  0.00    -0.352 N 
ATOM     41  C   UNL A   1      37.076  31.889  29.513  1.00  0.00     0.251 C 
ATOM     42  H   UNL A   1      35.453  33.091  29.626  1.00  0.00     0.163 HD
ATOM     43  O   UNL A   1      37.871  32.746  29.810  1.00  0.00    -0.269 OA
BRANCH  41  44
ATOM     44  C   UNL A   1      37.533  30.525  29.144  1.00  0.00     0.039 A 
ATOM     45  C   UNL A   1      37.620  29.578  30.168  1.00  0.00     0.014 A 
ATOM     46  C   UNL A   1      38.122  30.296  27.906  1.00  0.00     0.014 A 
ATOM     47  C   UNL A   1      38.536  28.539  30.043  1.00  0.00     0.010 A 
ATOM     48  C   UNL A   1      39.103  29.328  27.819  1.00  0.00     0.010 A 
ATOM     49  C   UNL A   1      39.366  28.507  28.922  1.00  0.00    -0.014 A 
BRANCH  49  50
ATOM     50  C   UNL A   1      40.633  27.782  28.915  1.00  0.00     0.031 A 
ATOM     51  C   UNL A   1      40.688  26.341  28.606  1.00  0.00     0.074 A 
ATOM     52  C   UNL A   1      41.782  28.455  29.152  1.00  0.00     0.049 A 
ATOM     53  N   UNL A   1      41.612  25.547  29.035  1.00  0.00    -0.248 NA
ATOM     54  C   UNL A   1      39.673  25.667  27.809  1.00  0.00     0.031 C 
ATOM     55  C   UNL A   1      43.147  27.977  28.947  1.00  0.00     0.029 A 
ATOM     56  N   UNL A   1      41.937  29.666  29.845  1.00  0.00    -0.354 N 
ATOM     57  C   UNL A   1      41.483  24.354  28.363  1.00  0.00     0.074 A 
ATOM     58  C   UNL A   1      40.221  24.456  27.664  1.00  0.00     0.031 C 
ATOM     59  C   UNL A   1      43.976  28.692  29.723  1.00  0.00     0.029 A 
ATOM     60  C   UNL A   1      43.155  29.556  30.551  1.00  0.00     0.049 A 
ATOM     61  H   UNL A   1      41.323  30.435  29.839  1.00  0.00     0.167 HD
ATOM     62  C   UNL A   1      42.520  23.467  28.358  1.00  0.00     0.037 A 
ATOM     63  C   UNL A   1      43.210  29.619  31.911  1.00  0.00     0.037 A 
ATOM     64  C   UNL A   1      43.643  23.953  29.157  1.00  0.00     0.049 A 
ATOM     65  C   UNL A   1      43.829  28.405  32.561  1.00  0.00     0.074 A 
ATOM     66  C   UNL A   1      44.821  24.600  28.816  1.00  0.00     0.029 A 
ATOM     67  N   UNL A   1      43.516  24.068  30.536  1.00  0.00    -0.354 N 
ATOM     68  N   UNL A   1      43.945  27.247  31.973  1.00  0.00    -0.248 NA
ATOM     69  C   UNL A   1      44.334  28.388  33.930  1.00  0.00     0.031 C 
ATOM     70  C   UNL A   1      45.396  25.124  29.998  1.00  0.00     0.029 A 
ATOM     71  C   UNL A   1      44.573  24.790  31.058  1.00  0.00     0.049 A 
ATOM     72  H   UNL A   1      42.779  23.690  31.065  1.00  0.00     0.167 HD
ATOM     73  C   UNL A   1      44.497  26.341  32.845  1.00  0.00     0.074 A 
ATOM     74  C   UNL A   1      44.746  27.113  34.047  1.00  0.00     0.031 C 
ATOM     75  C   UNL A   1      44.682  25.034  32.489  1.00  0.00     0.037 A 
BRANCH  62  76
ATOM     76  C   UNL A   1      42.629  22.324  27.373  1.00  0.00     0.057 A 
ATOM     77  C   UNL A   1      41.827  21.172  27.499  1.00  0.00     0.134 A 
ATOM     78  C   UNL A   1      43.548  22.273  26.313  1.00  0.00     0.134 A 
ATOM     79  F   UNL A   1      40.811  21.107  28.369  1.00  0.00    -0.206 F 
ATOM     80  C   UNL A   1      42.024  20.016  26.732  1.00  0.00     0.040 A 
ATOM     81  C   UNL A   1      43.794  21.107  25.572  1.00  0.00     0.040 A 
ATOM     82  F   UNL A   1      44.212  23.366  25.913  1.00  0.00    -0.206 F 
ATOM     83  C   UNL A   1      43.043  19.964  25.795  1.00  0.00     0.006 A 
ENDBRANCH  62  76
BRANCH  63  84
ATOM     84  C   UNL A   1      42.144  30.456  32.514  1.00  0.00     0.057 A 
ATOM     85  C   UNL A   1      42.311  31.852  32.538  1.00  0.00     0.134 A 
ATOM     86  C   UNL A   1      40.853  29.965  32.727  1.00  0.00     0.134 A 
ATOM     87  F   UNL A   1      43.526  32.388  32.338  1.00  0.00    -0.206 F 
ATOM     88  C   UNL A   1      41.228  32.724  32.660  1.00  0.00     0.040 A 
ATOM     89  C   UNL A   1      39.760  30.830  32.859  1.00  0.00     0.040 A 
ATOM     90  F   UNL A   1      40.610  28.647  32.693  1.00  0.00    -0.206 F 
ATOM     91  C   UNL A   1      39.940  32.211  32.790  1.00  0.00     0.006 A 
ENDBRANCH  63  84
BRANCH  75  92
ATOM     92  C   UNL A   1      45.066  23.878  33.392  1.00  0.00     0.057 A 
ATOM     93  C   UNL A   1      44.219  22.817  33.742  1.00  0.00     0.134 A 
ATOM     94  C   UNL A   1      46.404  23.733  33.836  1.00  0.00     0.134 A 
ATOM     95  F   UNL A   1      42.957  22.747  33.304  1.00  0.00    -0.206 F 
ATOM     96  C   UNL A   1      44.650  21.729  34.517  1.00  0.00     0.040 A 
ATOM     97  C   UNL A   1      46.857  22.625  34.561  1.00  0.00     0.040 A 
ATOM     98  F   UNL A   1      47.345  24.648  33.565  1.00  0.00    -0.206 F 
ATOM     99  C   UNL A   1      45.975  21.623  34.919  1.00  0.00     0.006 A 
ENDBRANCH  75  92
ENDBRANCH  49  50
ENDBRANCH  41  44
ENDBRANCH  39  40
ENDBRANCH  38  39
ENDBRANCH   1  38
TORSDOF 13
ENDMDL
