MODEL 1
REMARK VINA RESULT:     -12.1      0.000      0.000
REMARK SMILES O=C(NCCCNC(=O)[C@@H]1CCCC[C@H]1C(=O)N[C@@H]1CONC1=O)c1ccc(-c2c3nc(c(-c4c(F)cccc4F)c4ccc([nH]4)c(-c4c(F)cccc4F)c4nc(c(-c5c(F)cccc5F)c5ccc2[nH]5)C=C4)C=C3)cc1
REMARK SMILES IDX 5 1 4 2 3 3 1 4 2 5 25 7 26 8 78 9 27 10 77 11 28 12 29 13
REMARK SMILES IDX 30 14 71 15 31 16 76 17 70 18 72 19 32 20 75 21 69 22 68 23
REMARK SMILES IDX 33 25 59 26 42 27 58 28 43 29 46 30 57 31 73 32 44 33 45 34
REMARK SMILES IDX 56 36 74 37 47 38 34 39 35 40 40 41 36 42 37 43 39 44 41 45
REMARK SMILES IDX 38 46 60 47 61 48 66 49 62 50 63 51 65 52 67 53 64 54 48 55
REMARK SMILES IDX 49 56 54 57 50 58 51 59 53 60 55 61 52 62 6 63 7 64 8 65
REMARK SMILES IDX 9 67 10 68 11 69 15 70 12 71 14 72 13 73 16 74 17 75 18 76
REMARK SMILES IDX 19 78 20 79 23 80 21 81 22 82 24 83
REMARK H PARENT 3 6 72 24 46 35 7 66 18 77 22 84
REMARK Flexibility Score: inf
ROOT
ATOM      1  C   UNL A   1      37.776  19.559  25.000  1.00  0.00     0.042 C 
ENDROOT
BRANCH   1   2
ATOM      2  C   UNL A   1      38.991  20.150  25.695  1.00  0.00     0.118 C 
BRANCH   2   3
ATOM      3  N   UNL A   1      40.061  19.164  25.854  1.00  0.00    -0.352 N 
ATOM      4  O   UNL A   1      42.168  18.373  25.914  1.00  0.00    -0.269 OA
ATOM      5  C   UNL A   1      41.410  19.330  26.042  1.00  0.00     0.251 C 
ATOM      6  H   UNL A   1      39.763  18.226  25.822  1.00  0.00     0.163 HD
BRANCH   5   7
ATOM      7  C   UNL A   1      41.949  20.658  26.391  1.00  0.00     0.039 A 
ATOM      8  C   UNL A   1      42.167  20.996  27.725  1.00  0.00     0.014 A 
ATOM      9  C   UNL A   1      42.253  21.571  25.377  1.00  0.00     0.014 A 
ATOM     10  C   UNL A   1      42.489  22.300  28.059  1.00  0.00     0.010 A 
ATOM     11  C   UNL A   1      42.712  22.848  25.712  1.00  0.00     0.010 A 
ATOM     12  C   UNL A   1      42.791  23.235  27.058  1.00  0.00    -0.014 A 
BRANCH  12  13
ATOM     13  C   UNL A   1      43.231  24.592  27.466  1.00  0.00     0.031 A 
ATOM     14  C   UNL A   1      44.672  25.006  27.358  1.00  0.00     0.074 A 
ATOM     15  C   UNL A   1      42.297  25.469  27.884  1.00  0.00     0.049 A 
ATOM     16  N   UNL A   1      45.216  26.165  27.634  1.00  0.00    -0.248 NA
ATOM     17  C   UNL A   1      45.630  23.990  26.896  1.00  0.00     0.031 C 
ATOM     18  C   UNL A   1      40.868  25.172  28.032  1.00  0.00     0.029 A 
ATOM     19  N   UNL A   1      42.395  26.791  28.229  1.00  0.00    -0.354 N 
ATOM     20  C   UNL A   1      46.577  26.010  27.406  1.00  0.00     0.074 A 
ATOM     21  C   UNL A   1      46.783  24.637  26.999  1.00  0.00     0.031 C 
ATOM     22  C   UNL A   1      40.217  26.293  28.365  1.00  0.00     0.029 A 
ATOM     23  C   UNL A   1      41.187  27.365  28.538  1.00  0.00     0.049 A 
ATOM     24  H   UNL A   1      43.248  27.281  28.253  1.00  0.00     0.167 HD
ATOM     25  C   UNL A   1      47.563  26.933  27.521  1.00  0.00     0.037 A 
ATOM     26  C   UNL A   1      40.891  28.615  28.935  1.00  0.00     0.037 A 
ATOM     27  C   UNL A   1      47.341  28.303  27.911  1.00  0.00     0.049 A 
ATOM     28  C   UNL A   1      42.007  29.606  29.078  1.00  0.00     0.074 A 
ATOM     29  C   UNL A   1      48.265  29.327  28.025  1.00  0.00     0.029 A 
ATOM     30  N   UNL A   1      46.107  28.839  28.255  1.00  0.00    -0.354 N 
ATOM     31  N   UNL A   1      43.285  29.455  28.832  1.00  0.00    -0.248 NA
ATOM     32  C   UNL A   1      41.638  30.944  29.556  1.00  0.00     0.031 C 
ATOM     33  C   UNL A   1      47.600  30.465  28.494  1.00  0.00     0.029 A 
ATOM     34  C   UNL A   1      46.251  30.171  28.607  1.00  0.00     0.049 A 
ATOM     35  H   UNL A   1      45.256  28.344  28.250  1.00  0.00     0.167 HD
ATOM     36  C   UNL A   1      43.871  30.685  29.093  1.00  0.00     0.074 A 
ATOM     37  C   UNL A   1      42.802  31.575  29.501  1.00  0.00     0.031 C 
ATOM     38  C   UNL A   1      45.174  31.046  29.002  1.00  0.00     0.037 A 
BRANCH  25  39
ATOM     39  C   UNL A   1      48.973  26.485  27.256  1.00  0.00     0.057 A 
ATOM     40  C   UNL A   1      49.543  26.518  25.977  1.00  0.00     0.134 A 
ATOM     41  C   UNL A   1      49.786  26.043  28.309  1.00  0.00     0.134 A 
ATOM     42  F   UNL A   1      48.820  26.921  24.920  1.00  0.00    -0.206 F 
ATOM     43  C   UNL A   1      50.856  26.101  25.749  1.00  0.00     0.040 A 
ATOM     44  C   UNL A   1      51.111  25.653  28.099  1.00  0.00     0.040 A 
ATOM     45  F   UNL A   1      49.311  25.992  29.563  1.00  0.00    -0.206 F 
ATOM     46  C   UNL A   1      51.647  25.674  26.814  1.00  0.00     0.006 A 
ENDBRANCH  25  39
BRANCH  26  47
ATOM     47  C   UNL A   1      39.484  28.990  29.226  1.00  0.00     0.057 A 
ATOM     48  C   UNL A   1      38.943  28.833  30.507  1.00  0.00     0.134 A 
ATOM     49  C   UNL A   1      38.648  29.515  28.234  1.00  0.00     0.134 A 
ATOM     50  F   UNL A   1      39.690  28.324  31.499  1.00  0.00    -0.206 F 
ATOM     51  C   UNL A   1      37.615  29.161  30.785  1.00  0.00     0.040 A 
ATOM     52  C   UNL A   1      37.329  29.878  28.504  1.00  0.00     0.040 A 
ATOM     53  F   UNL A   1      39.109  29.703  26.988  1.00  0.00    -0.206 F 
ATOM     54  C   UNL A   1      36.805  29.690  29.781  1.00  0.00     0.006 A 
ENDBRANCH  26  47
BRANCH  38  55
ATOM     55  C   UNL A   1      45.503  32.482  29.292  1.00  0.00     0.057 A 
ATOM     56  C   UNL A   1      45.874  32.920  30.570  1.00  0.00     0.134 A 
ATOM     57  C   UNL A   1      45.454  33.439  28.271  1.00  0.00     0.134 A 
ATOM     58  F   UNL A   1      45.925  32.058  31.597  1.00  0.00    -0.206 F 
ATOM     59  C   UNL A   1      46.148  34.264  30.829  1.00  0.00     0.040 A 
ATOM     60  C   UNL A   1      45.759  34.779  28.509  1.00  0.00     0.040 A 
ATOM     61  F   UNL A   1      45.115  33.086  27.022  1.00  0.00    -0.206 F 
ATOM     62  C   UNL A   1      46.097  35.196  29.794  1.00  0.00     0.006 A 
ENDBRANCH  38  55
ENDBRANCH  12  13
ENDBRANCH   5   7
ENDBRANCH   2   3
ENDBRANCH   1   2
BRANCH   1  63
ATOM     63  C   UNL A   1      36.533  20.420  25.181  1.00  0.00     0.117 C 
BRANCH  63  64
ATOM     64  N   UNL A   1      36.484  21.498  24.217  1.00  0.00    -0.356 N 
ATOM     65  C   UNL A   1      35.580  22.427  23.857  1.00  0.00     0.223 C 
ATOM     66  H   UNL A   1      37.318  21.570  23.697  1.00  0.00     0.163 HD
ATOM     67  O   UNL A   1      35.987  23.194  22.970  1.00  0.00    -0.275 OA
BRANCH  65  68
ATOM     68  C   UNL A   1      34.123  22.574  24.354  1.00  0.00     0.091 C 
ATOM     69  C   UNL A   1      34.196  23.615  25.499  1.00  0.00     0.014 C 
ATOM     70  C   UNL A   1      33.305  21.333  24.753  1.00  0.00     0.091 C 
ATOM     71  C   UNL A   1      32.866  23.864  26.185  1.00  0.00     0.001 C 
ATOM     72  C   UNL A   1      32.144  21.517  25.751  1.00  0.00     0.014 C 
ATOM     73  C   UNL A   1      32.365  22.579  26.809  1.00  0.00     0.001 C 
BRANCH  70  74
ATOM     74  C   UNL A   1      32.728  20.520  23.586  1.00  0.00     0.224 C 
ATOM     75  O   UNL A   1      32.118  21.115  22.689  1.00  0.00    -0.275 OA
ATOM     76  N   UNL A   1      32.903  19.194  23.391  1.00  0.00    -0.342 N 
ATOM     77  H   UNL A   1      32.358  18.843  22.650  1.00  0.00     0.164 HD
BRANCH  76  78
ATOM     78  C   UNL A   1      33.715  18.160  24.031  1.00  0.00     0.202 C 
ATOM     79  C   UNL A   1      34.028  16.953  23.164  1.00  0.00     0.228 C 
ATOM     80  C   UNL A   1      32.946  17.467  25.133  1.00  0.00     0.268 C 
ATOM     81  O   UNL A   1      34.160  15.836  24.051  1.00  0.00    -0.271 OA
ATOM     82  N   UNL A   1      33.334  16.153  25.150  1.00  0.00    -0.233 N 
ATOM     83  O   UNL A   1      32.153  17.992  25.901  1.00  0.00    -0.270 OA
ATOM     84  H   UNL A   1      33.070  15.508  25.846  1.00  0.00     0.199 HD
ENDBRANCH  76  78
ENDBRANCH  70  74
ENDBRANCH  65  68
ENDBRANCH  63  64
ENDBRANCH   1  63
TORSDOF 12
ENDMDL
MODEL 2
REMARK VINA RESULT:     -12.1      3.521      6.683
REMARK SMILES O=C(NCCCNC(=O)[C@@H]1CCCC[C@H]1C(=O)N[C@@H]1CONC1=O)c1ccc(-c2c3nc(c(-c4c(F)cccc4F)c4ccc([nH]4)c(-c4c(F)cccc4F)c4nc(c(-c5c(F)cccc5F)c5ccc2[nH]5)C=C4)C=C3)cc1
REMARK SMILES IDX 5 1 4 2 3 3 1 4 2 5 25 7 26 8 78 9 27 10 77 11 28 12 29 13
REMARK SMILES IDX 30 14 71 15 31 16 76 17 70 18 72 19 32 20 75 21 69 22 68 23
REMARK SMILES IDX 33 25 59 26 42 27 58 28 43 29 46 30 57 31 73 32 44 33 45 34
REMARK SMILES IDX 56 36 74 37 47 38 34 39 35 40 40 41 36 42 37 43 39 44 41 45
REMARK SMILES IDX 38 46 60 47 61 48 66 49 62 50 63 51 65 52 67 53 64 54 48 55
REMARK SMILES IDX 49 56 54 57 50 58 51 59 53 60 55 61 52 62 6 63 7 64 8 65
REMARK SMILES IDX 9 67 10 68 11 69 15 70 12 71 14 72 13 73 16 74 17 75 18 76
REMARK SMILES IDX 19 78 20 79 23 80 21 81 22 82 24 83
REMARK H PARENT 3 6 72 24 46 35 7 66 18 77 22 84
REMARK Flexibility Score: inf
ROOT
ATOM      1  C   UNL A   1      40.776  20.370  27.033  1.00  0.00     0.042 C 
ENDROOT
BRANCH   1   2
ATOM      2  C   UNL A   1      40.576  21.406  25.941  1.00  0.00     0.118 C 
BRANCH   2   3
ATOM      3  N   UNL A   1      39.159  21.712  25.731  1.00  0.00    -0.352 N 
ATOM      4  O   UNL A   1      37.184  22.742  26.055  1.00  0.00    -0.269 OA
ATOM      5  C   UNL A   1      38.408  22.790  26.127  1.00  0.00     0.251 C 
ATOM      6  H   UNL A   1      38.664  21.031  25.221  1.00  0.00     0.163 HD
BRANCH   5   7
ATOM      7  C   UNL A   1      39.071  24.002  26.643  1.00  0.00     0.039 A 
ATOM      8  C   UNL A   1      38.998  24.316  27.998  1.00  0.00     0.014 A 
ATOM      9  C   UNL A   1      39.785  24.828  25.769  1.00  0.00     0.014 A 
ATOM     10  C   UNL A   1      39.454  25.545  28.444  1.00  0.00     0.010 A 
ATOM     11  C   UNL A   1      40.366  26.004  26.250  1.00  0.00     0.010 A 
ATOM     12  C   UNL A   1      40.167  26.392  27.583  1.00  0.00    -0.014 A 
BRANCH  12  13
ATOM     13  C   UNL A   1      40.727  27.651  28.132  1.00  0.00     0.031 A 
ATOM     14  C   UNL A   1      42.200  27.940  28.067  1.00  0.00     0.074 A 
ATOM     15  C   UNL A   1      39.874  28.562  28.642  1.00  0.00     0.049 A 
ATOM     16  N   UNL A   1      42.846  29.008  28.463  1.00  0.00    -0.248 NA
ATOM     17  C   UNL A   1      43.064  26.895  27.498  1.00  0.00     0.031 C 
ATOM     18  C   UNL A   1      38.422  28.384  28.759  1.00  0.00     0.029 A 
ATOM     19  N   UNL A   1      40.089  29.825  29.125  1.00  0.00    -0.354 N 
ATOM     20  C   UNL A   1      44.189  28.754  28.219  1.00  0.00     0.074 A 
ATOM     21  C   UNL A   1      44.271  27.419  27.668  1.00  0.00     0.031 C 
ATOM     22  C   UNL A   1      37.873  29.518  29.210  1.00  0.00     0.029 A 
ATOM     23  C   UNL A   1      38.936  30.473  29.495  1.00  0.00     0.049 A 
ATOM     24  H   UNL A   1      40.984  30.230  29.200  1.00  0.00     0.167 HD
ATOM     25  C   UNL A   1      45.254  29.565  28.429  1.00  0.00     0.037 A 
ATOM     26  C   UNL A   1      38.753  31.695  30.023  1.00  0.00     0.037 A 
ATOM     27  C   UNL A   1      45.155  30.900  28.963  1.00  0.00     0.049 A 
ATOM     28  C   UNL A   1      39.954  32.559  30.268  1.00  0.00     0.074 A 
ATOM     29  C   UNL A   1      46.168  31.817  29.183  1.00  0.00     0.029 A 
ATOM     30  N   UNL A   1      43.973  31.508  29.363  1.00  0.00    -0.354 N 
ATOM     31  N   UNL A   1      41.215  32.317  30.006  1.00  0.00    -0.248 NA
ATOM     32  C   UNL A   1      39.706  33.867  30.886  1.00  0.00     0.031 C 
ATOM     33  C   UNL A   1      45.607  32.955  29.772  1.00  0.00     0.029 A 
ATOM     34  C   UNL A   1      44.236  32.777  29.854  1.00  0.00     0.049 A 
ATOM     35  H   UNL A   1      43.080  31.097  29.307  1.00  0.00     0.167 HD
ATOM     36  C   UNL A   1      41.909  33.454  30.396  1.00  0.00     0.074 A 
ATOM     37  C   UNL A   1      40.923  34.390  30.897  1.00  0.00     0.031 C 
ATOM     38  C   UNL A   1      43.240  33.701  30.341  1.00  0.00     0.037 A 
BRANCH  25  39
ATOM     39  C   UNL A   1      46.620  29.020  28.117  1.00  0.00     0.057 A 
ATOM     40  C   UNL A   1      47.411  28.380  29.080  1.00  0.00     0.134 A 
ATOM     41  C   UNL A   1      47.138  29.109  26.817  1.00  0.00     0.134 A 
ATOM     42  F   UNL A   1      46.982  28.267  30.346  1.00  0.00    -0.206 F 
ATOM     43  C   UNL A   1      48.676  27.876  28.771  1.00  0.00     0.040 A 
ATOM     44  C   UNL A   1      48.389  28.582  26.488  1.00  0.00     0.040 A 
ATOM     45  F   UNL A   1      46.433  29.701  25.841  1.00  0.00    -0.206 F 
ATOM     46  C   UNL A   1      49.165  27.970  27.469  1.00  0.00     0.006 A 
ENDBRANCH  25  39
BRANCH  26  47
ATOM     47  C   UNL A   1      37.384  32.166  30.354  1.00  0.00     0.057 A 
ATOM     48  C   UNL A   1      36.792  31.861  31.585  1.00  0.00     0.134 A 
ATOM     49  C   UNL A   1      36.636  32.930  29.451  1.00  0.00     0.134 A 
ATOM     50  F   UNL A   1      37.452  31.123  32.489  1.00  0.00    -0.206 F 
ATOM     51  C   UNL A   1      35.497  32.279  31.896  1.00  0.00     0.040 A 
ATOM     52  C   UNL A   1      35.354  33.382  29.760  1.00  0.00     0.040 A 
ATOM     53  F   UNL A   1      37.151  33.267  28.258  1.00  0.00    -0.206 F 
ATOM     54  C   UNL A   1      34.776  33.047  30.983  1.00  0.00     0.006 A 
ENDBRANCH  26  47
BRANCH  38  55
ATOM     55  C   UNL A   1      43.697  35.062  30.782  1.00  0.00     0.057 A 
ATOM     56  C   UNL A   1      43.778  36.146  29.899  1.00  0.00     0.134 A 
ATOM     57  C   UNL A   1      44.054  35.289  32.117  1.00  0.00     0.134 A 
ATOM     58  F   UNL A   1      43.466  35.992  28.603  1.00  0.00    -0.206 F 
ATOM     59  C   UNL A   1      44.232  37.396  30.319  1.00  0.00     0.040 A 
ATOM     60  C   UNL A   1      44.477  36.543  32.558  1.00  0.00     0.040 A 
ATOM     61  F   UNL A   1      43.991  34.297  33.019  1.00  0.00    -0.206 F 
ATOM     62  C   UNL A   1      44.577  37.598  31.654  1.00  0.00     0.006 A 
ENDBRANCH  38  55
ENDBRANCH  12  13
ENDBRANCH   5   7
ENDBRANCH   2   3
ENDBRANCH   1   2
BRANCH   1  63
ATOM     63  C   UNL A   1      42.095  20.555  27.769  1.00  0.00     0.117 C 
BRANCH  63  64
ATOM     64  N   UNL A   1      42.200  21.874  28.355  1.00  0.00    -0.356 N 
ATOM     65  C   UNL A   1      43.028  22.925  28.216  1.00  0.00     0.223 C 
ATOM     66  H   UNL A   1      41.492  22.044  29.018  1.00  0.00     0.163 HD
ATOM     67  O   UNL A   1      42.717  23.895  28.926  1.00  0.00    -0.275 OA
BRANCH  65  68
ATOM     68  C   UNL A   1      44.315  23.013  27.363  1.00  0.00     0.091 C 
ATOM     69  C   UNL A   1      45.316  23.814  28.233  1.00  0.00     0.014 C 
ATOM     70  C   UNL A   1      44.259  23.536  25.917  1.00  0.00     0.091 C 
ATOM     71  C   UNL A   1      46.643  24.079  27.550  1.00  0.00     0.001 C 
ATOM     72  C   UNL A   1      45.539  24.149  25.316  1.00  0.00     0.014 C 
ATOM     73  C   UNL A   1      46.419  24.898  26.296  1.00  0.00     0.001 C 
BRANCH  70  74
ATOM     74  C   UNL A   1      43.745  22.536  24.873  1.00  0.00     0.224 C 
ATOM     75  O   UNL A   1      43.054  22.953  23.936  1.00  0.00    -0.275 OA
ATOM     76  N   UNL A   1      44.055  21.220  24.828  1.00  0.00    -0.342 N 
ATOM     77  H   UNL A   1      43.533  20.730  24.152  1.00  0.00     0.164 HD
BRANCH  76  78
ATOM     78  C   UNL A   1      44.988  20.360  25.553  1.00  0.00     0.202 C 
ATOM     79  C   UNL A   1      46.403  20.327  25.001  1.00  0.00     0.228 C 
ATOM     80  C   UNL A   1      44.632  18.900  25.379  1.00  0.00     0.268 C 
ATOM     81  O   UNL A   1      46.931  19.031  25.306  1.00  0.00    -0.271 OA
ATOM     82  N   UNL A   1      45.801  18.186  25.350  1.00  0.00    -0.233 N 
ATOM     83  O   UNL A   1      43.503  18.434  25.318  1.00  0.00    -0.270 OA
ATOM     84  H   UNL A   1      45.847  17.202  25.359  1.00  0.00     0.199 HD
ENDBRANCH  76  78
ENDBRANCH  70  74
ENDBRANCH  65  68
ENDBRANCH  63  64
ENDBRANCH   1  63
TORSDOF 12
ENDMDL
MODEL 3
REMARK VINA RESULT:     -12.1      1.675      2.000
REMARK SMILES O=C(NCCCNC(=O)[C@@H]1CCCC[C@H]1C(=O)N[C@@H]1CONC1=O)c1ccc(-c2c3nc(c(-c4c(F)cccc4F)c4ccc([nH]4)c(-c4c(F)cccc4F)c4nc(c(-c5c(F)cccc5F)c5ccc2[nH]5)C=C4)C=C3)cc1
REMARK SMILES IDX 5 1 4 2 3 3 1 4 2 5 25 7 26 8 78 9 27 10 77 11 28 12 29 13
REMARK SMILES IDX 30 14 71 15 31 16 76 17 70 18 72 19 32 20 75 21 69 22 68 23
REMARK SMILES IDX 33 25 59 26 42 27 58 28 43 29 46 30 57 31 73 32 44 33 45 34
REMARK SMILES IDX 56 36 74 37 47 38 34 39 35 40 40 41 36 42 37 43 39 44 41 45
REMARK SMILES IDX 38 46 60 47 61 48 66 49 62 50 63 51 65 52 67 53 64 54 48 55
REMARK SMILES IDX 49 56 54 57 50 58 51 59 53 60 55 61 52 62 6 63 7 64 8 65
REMARK SMILES IDX 9 67 10 68 11 69 15 70 12 71 14 72 13 73 16 74 17 75 18 76
REMARK SMILES IDX 19 78 20 79 23 80 21 81 22 82 24 83
REMARK H PARENT 3 6 72 24 46 35 7 66 18 77 22 84
REMARK Flexibility Score: inf
ROOT
ATOM      1  C   UNL A   1      37.188  19.911  24.965  1.00  0.00     0.042 C 
ENDROOT
BRANCH   1   2
ATOM      2  C   UNL A   1      38.511  20.539  25.369  1.00  0.00     0.118 C 
BRANCH   2   3
ATOM      3  N   UNL A   1      39.550  19.531  25.585  1.00  0.00    -0.352 N 
ATOM      4  O   UNL A   1      41.627  18.716  25.881  1.00  0.00    -0.269 OA
ATOM      5  C   UNL A   1      40.853  19.662  25.992  1.00  0.00     0.251 C 
ATOM      6  H   UNL A   1      39.265  18.605  25.410  1.00  0.00     0.163 HD
BRANCH   5   7
ATOM      7  C   UNL A   1      41.326  20.941  26.556  1.00  0.00     0.039 A 
ATOM      8  C   UNL A   1      41.192  21.196  27.919  1.00  0.00     0.014 A 
ATOM      9  C   UNL A   1      41.922  21.889  25.719  1.00  0.00     0.014 A 
ATOM     10  C   UNL A   1      41.458  22.463  28.409  1.00  0.00     0.010 A 
ATOM     11  C   UNL A   1      42.318  23.121  26.246  1.00  0.00     0.010 A 
ATOM     12  C   UNL A   1      42.049  23.433  27.587  1.00  0.00    -0.014 A 
BRANCH  12  13
ATOM     13  C   UNL A   1      42.411  24.741  28.184  1.00  0.00     0.031 A 
ATOM     14  C   UNL A   1      43.838  25.073  28.520  1.00  0.00     0.074 A 
ATOM     15  C   UNL A   1      41.436  25.654  28.365  1.00  0.00     0.049 A 
ATOM     16  N   UNL A   1      44.330  26.184  29.008  1.00  0.00    -0.248 NA
ATOM     17  C   UNL A   1      44.842  24.022  28.295  1.00  0.00     0.031 C 
ATOM     18  C   UNL A   1      40.015  25.437  28.076  1.00  0.00     0.029 A 
ATOM     19  N   UNL A   1      41.489  26.952  28.800  1.00  0.00    -0.354 N 
ATOM     20  C   UNL A   1      45.690  25.958  29.174  1.00  0.00     0.074 A 
ATOM     21  C   UNL A   1      45.943  24.595  28.764  1.00  0.00     0.031 C 
ATOM     22  C   UNL A   1      39.345  26.579  28.272  1.00  0.00     0.029 A 
ATOM     23  C   UNL A   1      40.269  27.583  28.781  1.00  0.00     0.049 A 
ATOM     24  H   UNL A   1      42.319  27.389  29.098  1.00  0.00     0.167 HD
ATOM     25  C   UNL A   1      46.640  26.815  29.623  1.00  0.00     0.037 A 
ATOM     26  C   UNL A   1      39.927  28.830  29.148  1.00  0.00     0.037 A 
ATOM     27  C   UNL A   1      46.375  28.178  30.012  1.00  0.00     0.049 A 
ATOM     28  C   UNL A   1      40.996  29.746  29.664  1.00  0.00     0.074 A 
ATOM     29  C   UNL A   1      47.271  29.139  30.447  1.00  0.00     0.029 A 
ATOM     30  N   UNL A   1      45.119  28.771  30.016  1.00  0.00    -0.354 N 
ATOM     31  N   UNL A   1      42.283  29.529  29.789  1.00  0.00    -0.248 NA
ATOM     32  C   UNL A   1      40.565  31.082  30.093  1.00  0.00     0.031 C 
ATOM     33  C   UNL A   1      46.550  30.293  30.771  1.00  0.00     0.029 A 
ATOM     34  C   UNL A   1      45.214  30.076  30.472  1.00  0.00     0.049 A 
ATOM     35  H   UNL A   1      44.286  28.329  29.737  1.00  0.00     0.167 HD
ATOM     36  C   UNL A   1      42.821  30.710  30.280  1.00  0.00     0.074 A 
ATOM     37  C   UNL A   1      41.721  31.644  30.414  1.00  0.00     0.031 C 
ATOM     38  C   UNL A   1      44.109  30.996  30.590  1.00  0.00     0.037 A 
BRANCH  25  39
ATOM     39  C   UNL A   1      48.044  26.295  29.750  1.00  0.00     0.057 A 
ATOM     40  C   UNL A   1      48.970  26.370  28.702  1.00  0.00     0.134 A 
ATOM     41  C   UNL A   1      48.487  25.738  30.958  1.00  0.00     0.134 A 
ATOM     42  F   UNL A   1      48.613  26.884  27.514  1.00  0.00    -0.206 F 
ATOM     43  C   UNL A   1      50.273  25.886  28.839  1.00  0.00     0.040 A 
ATOM     44  C   UNL A   1      49.796  25.278  31.117  1.00  0.00     0.040 A 
ATOM     45  F   UNL A   1      47.658  25.640  32.008  1.00  0.00    -0.206 F 
ATOM     46  C   UNL A   1      50.691  25.344  30.052  1.00  0.00     0.006 A 
ENDBRANCH  25  39
BRANCH  26  47
ATOM     47  C   UNL A   1      38.515  29.276  29.043  1.00  0.00     0.057 A 
ATOM     48  C   UNL A   1      37.667  29.264  30.155  1.00  0.00     0.134 A 
ATOM     49  C   UNL A   1      37.979  29.725  27.829  1.00  0.00     0.134 A 
ATOM     50  F   UNL A   1      38.116  28.833  31.343  1.00  0.00    -0.206 F 
ATOM     51  C   UNL A   1      36.331  29.659  30.061  1.00  0.00     0.040 A 
ATOM     52  C   UNL A   1      36.656  30.154  27.727  1.00  0.00     0.040 A 
ATOM     53  F   UNL A   1      38.744  29.774  26.727  1.00  0.00    -0.206 F 
ATOM     54  C   UNL A   1      35.824  30.111  28.843  1.00  0.00     0.006 A 
ENDBRANCH  26  47
BRANCH  38  55
ATOM     55  C   UNL A   1      44.403  32.396  31.047  1.00  0.00     0.057 A 
ATOM     56  C   UNL A   1      44.402  32.756  32.401  1.00  0.00     0.134 A 
ATOM     57  C   UNL A   1      44.700  33.396  30.113  1.00  0.00     0.134 A 
ATOM     58  F   UNL A   1      44.109  31.850  33.346  1.00  0.00    -0.206 F 
ATOM     59  C   UNL A   1      44.648  34.069  32.806  1.00  0.00     0.040 A 
ATOM     60  C   UNL A   1      44.983  34.704  30.507  1.00  0.00     0.040 A 
ATOM     61  F   UNL A   1      44.728  33.117  28.801  1.00  0.00    -0.206 F 
ATOM     62  C   UNL A   1      44.946  35.045  31.857  1.00  0.00     0.006 A 
ENDBRANCH  38  55
ENDBRANCH  12  13
ENDBRANCH   5   7
ENDBRANCH   2   3
ENDBRANCH   1   2
BRANCH   1  63
ATOM     63  C   UNL A   1      36.064  20.934  24.888  1.00  0.00     0.117 C 
BRANCH  63  64
ATOM     64  N   UNL A   1      35.408  21.107  26.166  1.00  0.00    -0.356 N 
ATOM     65  C   UNL A   1      34.335  21.782  26.614  1.00  0.00     0.223 C 
ATOM     66  H   UNL A   1      35.858  20.606  26.886  1.00  0.00     0.163 HD
ATOM     67  O   UNL A   1      34.118  21.617  27.826  1.00  0.00    -0.275 OA
BRANCH  65  68
ATOM     68  C   UNL A   1      33.436  22.764  25.827  1.00  0.00     0.091 C 
ATOM     69  C   UNL A   1      32.935  23.781  26.882  1.00  0.00     0.014 C 
ATOM     70  C   UNL A   1      32.290  22.237  24.944  1.00  0.00     0.091 C 
ATOM     71  C   UNL A   1      31.969  24.811  26.330  1.00  0.00     0.001 C 
ATOM     72  C   UNL A   1      31.101  23.176  24.660  1.00  0.00     0.014 C 
ATOM     73  C   UNL A   1      30.736  24.117  25.790  1.00  0.00     0.001 C 
BRANCH  70  74
ATOM     74  C   UNL A   1      32.714  21.674  23.581  1.00  0.00     0.224 C 
ATOM     75  O   UNL A   1      33.327  22.408  22.797  1.00  0.00    -0.275 OA
ATOM     76  N   UNL A   1      32.555  20.393  23.177  1.00  0.00    -0.342 N 
ATOM     77  H   UNL A   1      32.787  20.262  22.230  1.00  0.00     0.164 HD
BRANCH  76  78
ATOM     78  C   UNL A   1      32.118  19.159  23.827  1.00  0.00     0.202 C 
ATOM     79  C   UNL A   1      32.888  18.778  25.079  1.00  0.00     0.228 C 
ATOM     80  C   UNL A   1      32.438  17.951  22.975  1.00  0.00     0.268 C 
ATOM     81  O   UNL A   1      32.859  17.347  25.158  1.00  0.00    -0.271 OA
ATOM     82  N   UNL A   1      32.755  16.918  23.817  1.00  0.00    -0.233 N 
ATOM     83  O   UNL A   1      32.383  17.893  21.755  1.00  0.00    -0.270 OA
ATOM     84  H   UNL A   1      32.892  15.988  23.523  1.00  0.00     0.199 HD
ENDBRANCH  76  78
ENDBRANCH  70  74
ENDBRANCH  65  68
ENDBRANCH  63  64
ENDBRANCH   1  63
TORSDOF 12
ENDMDL
