MODEL 1
REMARK VINA RESULT:     -12.7      0.000      0.000
REMARK SMILES Cc1nn(C)c(C)c1CCC(=O)Nc1sccc1C(=O)NCCCNC(=O)c1ccc(-c2c3nc(c(-c4c(F)cccc4F)c4ccc([nH]4)c(-c4c(F)cccc4F)c4nc(c(-c5c(F)cccc5F)c5ccc2[nH]5)C=C4)C=C3)cc1
REMARK SMILES IDX 22 1 21 2 19 3 20 4 18 6 14 7 15 8 16 9 17 10 13 11 11 12
REMARK SMILES IDX 12 13 10 15 9 16 8 17 1 18 2 19 3 20 4 21 6 22 5 23 7 24
REMARK SMILES IDX 23 25 24 26 25 27 26 28 27 30 28 31 29 32 81 33 30 34 80 35
REMARK SMILES IDX 31 36 32 37 33 38 74 39 34 40 79 41 73 42 75 43 35 44 78 45
REMARK SMILES IDX 72 46 71 47 36 49 62 50 45 51 61 52 46 53 49 54 60 55 76 56
REMARK SMILES IDX 47 57 48 58 59 60 77 61 50 62 37 63 38 64 43 65 39 66 40 67
REMARK SMILES IDX 42 68 44 69 41 70 63 71 64 72 69 73 65 74 66 75 68 76 70 77
REMARK SMILES IDX 67 78 51 79 52 80 57 81 53 82 54 83 56 84 58 85 55 86
REMARK H PARENT 21 5 13 14 25 29 75 48 49 59
REMARK Flexibility Score: inf
ROOT
ATOM      1  C   UNL A   1      32.042  28.529  27.627  1.00  0.00     0.118 C 
ENDROOT
BRANCH   1   2
ATOM      2  N   UNL A   1      31.475  27.245  27.143  1.00  0.00    -0.352 N 
ATOM      3  C   UNL A   1      30.759  26.710  25.832  1.00  0.00     0.254 C 
ATOM      4  O   UNL A   1      30.639  25.505  26.314  1.00  0.00    -0.269 OA
ATOM      5  H   UNL A   1      31.569  26.535  27.818  1.00  0.00     0.163 HD
BRANCH   3   6
ATOM      6  C   UNL A   1      30.098  27.681  24.005  1.00  0.00     0.074 A 
ATOM      7  C   UNL A   1      30.857  28.429  22.861  1.00  0.00     0.108 A 
ATOM      8  S   UNL A   1      29.931  29.624  22.046  1.00  0.00    -0.126 S 
ATOM      9  C   UNL A   1      28.473  28.908  22.433  1.00  0.00     0.068 A 
ATOM     10  C   UNL A   1      28.614  27.908  23.358  1.00  0.00     0.028 A 
BRANCH   7  11
ATOM     11  N   UNL A   1      32.184  28.671  22.449  1.00  0.00    -0.317 N 
ATOM     12  C   UNL A   1      33.388  28.203  22.886  1.00  0.00     0.225 C 
ATOM     13  O   UNL A   1      34.411  28.865  22.691  1.00  0.00    -0.275 OA
ATOM     14  H   UNL A   1      32.255  29.303  21.697  1.00  0.00     0.170 HD
BRANCH  12  15
ATOM     15  C   UNL A   1      33.484  26.817  23.442  1.00  0.00     0.105 C 
BRANCH  15  16
ATOM     16  C   UNL A   1      33.533  25.748  22.402  1.00  0.00     0.049 C 
BRANCH  16  17
ATOM     17  C   UNL A   1      33.620  24.358  22.941  1.00  0.00    -0.004 A 
ATOM     18  C   UNL A   1      30.535  24.018  23.266  1.00  0.00     0.069 C 
ATOM     19  C   UNL A   1      31.914  23.502  23.408  1.00  0.00     0.063 A 
ATOM     20  N   UNL A   1      32.227  21.938  24.072  1.00  0.00    -0.178 NA
ATOM     21  N   UNL A   1      34.060  21.633  24.087  1.00  0.00    -0.272 N 
ATOM     22  C   UNL A   1      34.962  23.104  23.382  1.00  0.00     0.038 A 
ATOM     23  C   UNL A   1      34.644  20.603  24.913  1.00  0.00     0.174 C 
ATOM     24  C   UNL A   1      36.456  22.971  23.414  1.00  0.00     0.066 C 
ENDBRANCH  16  17
ENDBRANCH  15  16
ENDBRANCH  12  15
ENDBRANCH   7  11
ENDBRANCH   3   6
ENDBRANCH   1   2
BRANCH   1  25
ATOM     25  C   UNL A   1      31.551  29.759  26.901  1.00  0.00     0.042 C 
BRANCH  25  26
ATOM     26  C   UNL A   1      32.721  30.622  26.531  1.00  0.00     0.118 C 
BRANCH  26  27
ATOM     27  N   UNL A   1      32.570  32.019  26.949  1.00  0.00    -0.352 N 
ATOM     28  C   UNL A   1      33.470  32.800  27.641  1.00  0.00     0.251 C 
ATOM     29  H   UNL A   1      31.720  32.454  26.706  1.00  0.00     0.163 HD
ATOM     30  O   UNL A   1      33.184  33.930  28.014  1.00  0.00    -0.269 OA
BRANCH  28  31
ATOM     31  C   UNL A   1      34.776  32.201  27.975  1.00  0.00     0.039 A 
ATOM     32  C   UNL A   1      35.895  33.023  28.094  1.00  0.00     0.014 A 
ATOM     33  C   UNL A   1      34.832  30.860  28.351  1.00  0.00     0.014 A 
ATOM     34  C   UNL A   1      37.048  32.507  28.681  1.00  0.00     0.010 A 
ATOM     35  C   UNL A   1      35.894  30.423  29.118  1.00  0.00     0.010 A 
ATOM     36  C   UNL A   1      37.035  31.222  29.251  1.00  0.00    -0.014 A 
BRANCH  36  37
ATOM     37  C   UNL A   1      38.220  30.658  29.936  1.00  0.00     0.031 A 
ATOM     38  C   UNL A   1      38.497  31.054  31.364  1.00  0.00     0.074 A 
ATOM     39  C   UNL A   1      39.051  29.829  29.277  1.00  0.00     0.049 A 
ATOM     40  N   UNL A   1      39.496  30.712  32.134  1.00  0.00    -0.248 NA
ATOM     41  C   UNL A   1      37.546  31.984  32.003  1.00  0.00     0.031 C 
ATOM     42  C   UNL A   1      38.912  29.416  27.877  1.00  0.00     0.029 A 
ATOM     43  N   UNL A   1      40.178  29.174  29.702  1.00  0.00    -0.354 N 
ATOM     44  C   UNL A   1      39.286  31.379  33.334  1.00  0.00     0.074 A 
ATOM     45  C   UNL A   1      38.132  32.226  33.163  1.00  0.00     0.031 C 
ATOM     46  C   UNL A   1      39.880  28.534  27.579  1.00  0.00     0.029 A 
ATOM     47  C   UNL A   1      40.744  28.368  28.743  1.00  0.00     0.049 A 
ATOM     48  H   UNL A   1      40.548  29.272  30.609  1.00  0.00     0.167 HD
ATOM     49  C   UNL A   1      39.961  31.258  34.498  1.00  0.00     0.037 A 
ATOM     50  C   UNL A   1      41.842  27.591  28.800  1.00  0.00     0.037 A 
ATOM     51  C   UNL A   1      41.101  30.403  34.670  1.00  0.00     0.049 A 
ATOM     52  C   UNL A   1      42.618  27.535  30.091  1.00  0.00     0.074 A 
ATOM     53  C   UNL A   1      41.850  30.191  35.812  1.00  0.00     0.029 A 
ATOM     54  N   UNL A   1      41.655  29.620  33.669  1.00  0.00    -0.354 N 
ATOM     55  N   UNL A   1      42.368  28.121  31.237  1.00  0.00    -0.248 NA
ATOM     56  C   UNL A   1      43.829  26.704  30.096  1.00  0.00     0.031 C 
ATOM     57  C   UNL A   1      42.900  29.331  35.485  1.00  0.00     0.029 A 
ATOM     58  C   UNL A   1      42.756  28.943  34.161  1.00  0.00     0.049 A 
ATOM     59  H   UNL A   1      41.316  29.556  32.746  1.00  0.00     0.167 HD
ATOM     60  C   UNL A   1      43.362  27.692  32.108  1.00  0.00     0.074 A 
ATOM     61  C   UNL A   1      44.204  26.781  31.363  1.00  0.00     0.031 C 
ATOM     62  C   UNL A   1      43.564  28.022  33.408  1.00  0.00     0.037 A 
BRANCH  49  63
ATOM     63  C   UNL A   1      39.473  32.052  35.673  1.00  0.00     0.057 A 
ATOM     64  C   UNL A   1      39.949  33.345  35.937  1.00  0.00     0.134 A 
ATOM     65  C   UNL A   1      38.483  31.543  36.521  1.00  0.00     0.134 A 
ATOM     66  F   UNL A   1      40.911  33.886  35.175  1.00  0.00    -0.206 F 
ATOM     67  C   UNL A   1      39.472  34.093  37.013  1.00  0.00     0.040 A 
ATOM     68  C   UNL A   1      37.973  32.296  37.579  1.00  0.00     0.040 A 
ATOM     69  F   UNL A   1      37.983  30.314  36.325  1.00  0.00    -0.206 F 
ATOM     70  C   UNL A   1      38.471  33.573  37.831  1.00  0.00     0.006 A 
ENDBRANCH  49  63
BRANCH  50  71
ATOM     71  C   UNL A   1      42.285  26.803  27.619  1.00  0.00     0.057 A 
ATOM     72  C   UNL A   1      43.068  27.384  26.611  1.00  0.00     0.134 A 
ATOM     73  C   UNL A   1      41.879  25.477  27.428  1.00  0.00     0.134 A 
ATOM     74  F   UNL A   1      43.484  28.654  26.727  1.00  0.00    -0.206 F 
ATOM     75  C   UNL A   1      43.377  26.698  25.436  1.00  0.00     0.040 A 
ATOM     76  C   UNL A   1      42.216  24.765  26.276  1.00  0.00     0.040 A 
ATOM     77  F   UNL A   1      41.142  24.851  28.357  1.00  0.00    -0.206 F 
ATOM     78  C   UNL A   1      42.949  25.383  25.266  1.00  0.00     0.006 A 
ENDBRANCH  50  71
BRANCH  62  79
ATOM     79  C   UNL A   1      44.697  27.345  34.124  1.00  0.00     0.057 A 
ATOM     80  C   UNL A   1      44.549  26.102  34.753  1.00  0.00     0.134 A 
ATOM     81  C   UNL A   1      45.970  27.932  34.147  1.00  0.00     0.134 A 
ATOM     82  F   UNL A   1      43.357  25.486  34.774  1.00  0.00    -0.206 F 
ATOM     83  C   UNL A   1      45.615  25.487  35.412  1.00  0.00     0.040 A 
ATOM     84  C   UNL A   1      47.052  27.308  34.765  1.00  0.00     0.040 A 
ATOM     85  F   UNL A   1      46.186  29.114  33.549  1.00  0.00    -0.206 F 
ATOM     86  C   UNL A   1      46.873  26.088  35.411  1.00  0.00     0.006 A 
ENDBRANCH  62  79
ENDBRANCH  36  37
ENDBRANCH  28  31
ENDBRANCH  26  27
ENDBRANCH  25  26
ENDBRANCH   1  25
TORSDOF 14
ENDMDL
MODEL 2
REMARK VINA RESULT:     -12.7      1.684      2.759
REMARK SMILES Cc1nn(C)c(C)c1CCC(=O)Nc1sccc1C(=O)NCCCNC(=O)c1ccc(-c2c3nc(c(-c4c(F)cccc4F)c4ccc([nH]4)c(-c4c(F)cccc4F)c4nc(c(-c5c(F)cccc5F)c5ccc2[nH]5)C=C4)C=C3)cc1
REMARK SMILES IDX 22 1 21 2 19 3 20 4 18 6 14 7 15 8 16 9 17 10 13 11 11 12
REMARK SMILES IDX 12 13 10 15 9 16 8 17 1 18 2 19 3 20 4 21 6 22 5 23 7 24
REMARK SMILES IDX 23 25 24 26 25 27 26 28 27 30 28 31 29 32 81 33 30 34 80 35
REMARK SMILES IDX 31 36 32 37 33 38 74 39 34 40 79 41 73 42 75 43 35 44 78 45
REMARK SMILES IDX 72 46 71 47 36 49 62 50 45 51 61 52 46 53 49 54 60 55 76 56
REMARK SMILES IDX 47 57 48 58 59 60 77 61 50 62 37 63 38 64 43 65 39 66 40 67
REMARK SMILES IDX 42 68 44 69 41 70 63 71 64 72 69 73 65 74 66 75 68 76 70 77
REMARK SMILES IDX 67 78 51 79 52 80 57 81 53 82 54 83 56 84 58 85 55 86
REMARK H PARENT 21 5 13 14 25 29 75 48 49 59
REMARK Flexibility Score: inf
ROOT
ATOM      1  C   UNL A   1      30.290  31.939  25.125  1.00  0.00     0.118 C 
ENDROOT
BRANCH   1   2
ATOM      2  N   UNL A   1      30.038  30.817  24.186  1.00  0.00    -0.352 N 
ATOM      3  C   UNL A   1      30.651  29.382  23.895  1.00  0.00     0.254 C 
ATOM      4  O   UNL A   1      29.803  29.146  22.934  1.00  0.00    -0.269 OA
ATOM      5  H   UNL A   1      29.288  31.018  23.581  1.00  0.00     0.163 HD
BRANCH   3   6
ATOM      6  C   UNL A   1      32.361  28.312  24.702  1.00  0.00     0.074 A 
ATOM      7  C   UNL A   1      33.245  27.147  24.150  1.00  0.00     0.108 A 
ATOM      8  S   UNL A   1      33.966  26.160  25.358  1.00  0.00    -0.126 S 
ATOM      9  C   UNL A   1      33.911  27.359  26.519  1.00  0.00     0.068 A 
ATOM     10  C   UNL A   1      33.159  28.432  26.123  1.00  0.00     0.028 A 
BRANCH   7  11
ATOM     11  N   UNL A   1      33.422  26.424  22.953  1.00  0.00    -0.317 N 
ATOM     12  C   UNL A   1      32.723  25.404  22.377  1.00  0.00     0.225 C 
ATOM     13  O   UNL A   1      33.287  24.645  21.584  1.00  0.00    -0.275 OA
ATOM     14  H   UNL A   1      34.205  26.712  22.429  1.00  0.00     0.170 HD
BRANCH  12  15
ATOM     15  C   UNL A   1      31.242  25.320  22.574  1.00  0.00     0.105 C 
BRANCH  15  16
ATOM     16  C   UNL A   1      30.763  23.976  23.009  1.00  0.00     0.049 C 
BRANCH  16  17
ATOM     17  C   UNL A   1      31.309  23.515  24.321  1.00  0.00    -0.004 A 
ATOM     18  C   UNL A   1      29.836  25.701  25.991  1.00  0.00     0.069 C 
ATOM     19  C   UNL A   1      30.755  24.546  25.899  1.00  0.00     0.063 A 
ATOM     20  N   UNL A   1      31.539  23.905  27.299  1.00  0.00    -0.178 NA
ATOM     21  N   UNL A   1      32.603  22.465  26.801  1.00  0.00    -0.272 N 
ATOM     22  C   UNL A   1      32.481  22.180  24.963  1.00  0.00     0.038 A 
ATOM     23  C   UNL A   1      33.653  21.973  27.661  1.00  0.00     0.174 C 
ATOM     24  C   UNL A   1      33.361  21.073  24.462  1.00  0.00     0.066 C 
ENDBRANCH  16  17
ENDBRANCH  15  16
ENDBRANCH  12  15
ENDBRANCH   7  11
ENDBRANCH   3   6
ENDBRANCH   1   2
BRANCH   1  25
ATOM     25  C   UNL A   1      30.960  31.549  26.421  1.00  0.00     0.042 C 
BRANCH  25  26
ATOM     26  C   UNL A   1      32.266  32.279  26.548  1.00  0.00     0.118 C 
BRANCH  26  27
ATOM     27  N   UNL A   1      32.152  33.556  27.258  1.00  0.00    -0.352 N 
ATOM     28  C   UNL A   1      33.042  34.111  28.153  1.00  0.00     0.251 C 
ATOM     29  H   UNL A   1      31.341  34.083  27.074  1.00  0.00     0.163 HD
ATOM     30  O   UNL A   1      32.784  35.147  28.753  1.00  0.00    -0.269 OA
BRANCH  28  31
ATOM     31  C   UNL A   1      34.294  33.377  28.414  1.00  0.00     0.039 A 
ATOM     32  C   UNL A   1      35.497  34.077  28.477  1.00  0.00     0.014 A 
ATOM     33  C   UNL A   1      34.231  32.033  28.779  1.00  0.00     0.014 A 
ATOM     34  C   UNL A   1      36.620  33.439  28.998  1.00  0.00     0.010 A 
ATOM     35  C   UNL A   1      35.280  31.481  29.485  1.00  0.00     0.010 A 
ATOM     36  C   UNL A   1      36.503  32.156  29.562  1.00  0.00    -0.014 A 
BRANCH  36  37
ATOM     37  C   UNL A   1      37.658  31.465  30.179  1.00  0.00     0.031 A 
ATOM     38  C   UNL A   1      38.008  31.765  31.614  1.00  0.00     0.074 A 
ATOM     39  C   UNL A   1      38.399  30.606  29.454  1.00  0.00     0.049 A 
ATOM     40  N   UNL A   1      38.997  31.306  32.333  1.00  0.00    -0.248 NA
ATOM     41  C   UNL A   1      37.155  32.735  32.328  1.00  0.00     0.031 C 
ATOM     42  C   UNL A   1      38.186  30.277  28.041  1.00  0.00     0.029 A 
ATOM     43  N   UNL A   1      39.481  29.843  29.810  1.00  0.00    -0.354 N 
ATOM     44  C   UNL A   1      38.878  31.927  33.570  1.00  0.00     0.074 A 
ATOM     45  C   UNL A   1      37.792  32.871  33.478  1.00  0.00     0.031 C 
ATOM     46  C   UNL A   1      39.070  29.337  27.670  1.00  0.00     0.029 A 
ATOM     47  C   UNL A   1      39.950  29.044  28.795  1.00  0.00     0.049 A 
ATOM     48  H   UNL A   1      39.884  29.865  30.708  1.00  0.00     0.167 HD
ATOM     49  C   UNL A   1      39.575  31.693  34.704  1.00  0.00     0.037 A 
ATOM     50  C   UNL A   1      40.982  28.179  28.779  1.00  0.00     0.037 A 
ATOM     51  C   UNL A   1      40.645  30.742  34.797  1.00  0.00     0.049 A 
ATOM     52  C   UNL A   1      41.789  27.996  30.038  1.00  0.00     0.074 A 
ATOM     53  C   UNL A   1      41.408  30.414  35.902  1.00  0.00     0.029 A 
ATOM     54  N   UNL A   1      41.104  29.969  33.742  1.00  0.00    -0.354 N 
ATOM     55  N   UNL A   1      41.621  28.542  31.219  1.00  0.00    -0.248 NA
ATOM     56  C   UNL A   1      42.928  27.072  29.963  1.00  0.00     0.031 C 
ATOM     57  C   UNL A   1      42.374  29.490  35.500  1.00  0.00     0.029 A 
ATOM     58  C   UNL A   1      42.160  29.182  34.165  1.00  0.00     0.049 A 
ATOM     59  H   UNL A   1      40.735  29.979  32.829  1.00  0.00     0.167 HD
ATOM     60  C   UNL A   1      42.602  27.992  32.035  1.00  0.00     0.074 A 
ATOM     61  C   UNL A   1      43.345  27.055  31.219  1.00  0.00     0.031 C 
ATOM     62  C   UNL A   1      42.868  28.238  33.341  1.00  0.00     0.037 A 
BRANCH  49  63
ATOM     63  C   UNL A   1      39.188  32.464  35.931  1.00  0.00     0.057 A 
ATOM     64  C   UNL A   1      38.321  31.929  36.895  1.00  0.00     0.134 A 
ATOM     65  C   UNL A   1      39.723  33.734  36.178  1.00  0.00     0.134 A 
ATOM     66  F   UNL A   1      37.758  30.725  36.712  1.00  0.00    -0.206 F 
ATOM     67  C   UNL A   1      37.986  32.637  38.049  1.00  0.00     0.040 A 
ATOM     68  C   UNL A   1      39.423  34.436  37.346  1.00  0.00     0.040 A 
ATOM     69  F   UNL A   1      40.558  34.305  35.298  1.00  0.00    -0.206 F 
ATOM     70  C   UNL A   1      38.547  33.890  38.283  1.00  0.00     0.006 A 
ENDBRANCH  49  63
BRANCH  50  71
ATOM     71  C   UNL A   1      41.326  27.418  27.546  1.00  0.00     0.057 A 
ATOM     72  C   UNL A   1      40.856  26.114  27.345  1.00  0.00     0.134 A 
ATOM     73  C   UNL A   1      42.189  27.944  26.578  1.00  0.00     0.134 A 
ATOM     74  F   UNL A   1      40.033  25.546  28.239  1.00  0.00    -0.206 F 
ATOM     75  C   UNL A   1      41.279  25.342  26.262  1.00  0.00     0.040 A 
ATOM     76  C   UNL A   1      42.587  27.198  25.467  1.00  0.00     0.040 A 
ATOM     77  F   UNL A   1      42.665  29.192  26.697  1.00  0.00    -0.206 F 
ATOM     78  C   UNL A   1      42.148  25.884  25.318  1.00  0.00     0.006 A 
ENDBRANCH  50  71
BRANCH  62  79
ATOM     79  C   UNL A   1      43.963  27.437  33.987  1.00  0.00     0.057 A 
ATOM     80  C   UNL A   1      45.294  27.873  34.011  1.00  0.00     0.134 A 
ATOM     81  C   UNL A   1      43.667  26.229  34.631  1.00  0.00     0.134 A 
ATOM     82  F   UNL A   1      45.647  29.018  33.408  1.00  0.00    -0.206 F 
ATOM     83  C   UNL A   1      46.297  27.116  34.618  1.00  0.00     0.040 A 
ATOM     84  C   UNL A   1      44.653  25.485  35.278  1.00  0.00     0.040 A 
ATOM     85  F   UNL A   1      42.410  25.761  34.662  1.00  0.00    -0.206 F 
ATOM     86  C   UNL A   1      45.975  25.922  35.261  1.00  0.00     0.006 A 
ENDBRANCH  62  79
ENDBRANCH  36  37
ENDBRANCH  28  31
ENDBRANCH  26  27
ENDBRANCH  25  26
ENDBRANCH   1  25
TORSDOF 14
ENDMDL
MODEL 3
REMARK VINA RESULT:     -12.5      4.020      8.888
REMARK SMILES Cc1nn(C)c(C)c1CCC(=O)Nc1sccc1C(=O)NCCCNC(=O)c1ccc(-c2c3nc(c(-c4c(F)cccc4F)c4ccc([nH]4)c(-c4c(F)cccc4F)c4nc(c(-c5c(F)cccc5F)c5ccc2[nH]5)C=C4)C=C3)cc1
REMARK SMILES IDX 22 1 21 2 19 3 20 4 18 6 14 7 15 8 16 9 17 10 13 11 11 12
REMARK SMILES IDX 12 13 10 15 9 16 8 17 1 18 2 19 3 20 4 21 6 22 5 23 7 24
REMARK SMILES IDX 23 25 24 26 25 27 26 28 27 30 28 31 29 32 81 33 30 34 80 35
REMARK SMILES IDX 31 36 32 37 33 38 74 39 34 40 79 41 73 42 75 43 35 44 78 45
REMARK SMILES IDX 72 46 71 47 36 49 62 50 45 51 61 52 46 53 49 54 60 55 76 56
REMARK SMILES IDX 47 57 48 58 59 60 77 61 50 62 37 63 38 64 43 65 39 66 40 67
REMARK SMILES IDX 42 68 44 69 41 70 63 71 64 72 69 73 65 74 66 75 68 76 70 77
REMARK SMILES IDX 67 78 51 79 52 80 57 81 53 82 54 83 56 84 58 85 55 86
REMARK H PARENT 21 5 13 14 25 29 75 48 49 59
REMARK Flexibility Score: inf
ROOT
ATOM      1  C   UNL A   1      37.327  19.271  24.975  1.00  0.00     0.118 C 
ENDROOT
BRANCH   1   2
ATOM      2  N   UNL A   1      35.846  19.337  24.888  1.00  0.00    -0.352 N 
ATOM      3  C   UNL A   1      34.719  20.446  25.029  1.00  0.00     0.254 C 
ATOM      4  O   UNL A   1      33.763  19.593  24.791  1.00  0.00    -0.269 OA
ATOM      5  H   UNL A   1      35.460  18.454  24.689  1.00  0.00     0.163 HD
BRANCH   3   6
ATOM      6  C   UNL A   1      34.772  22.548  25.574  1.00  0.00     0.074 A 
ATOM      7  C   UNL A   1      33.696  23.529  26.144  1.00  0.00     0.108 A 
ATOM      8  S   UNL A   1      33.942  25.180  25.738  1.00  0.00    -0.126 S 
ATOM      9  C   UNL A   1      35.585  24.987  25.512  1.00  0.00     0.068 A 
ATOM     10  C   UNL A   1      35.959  23.671  25.504  1.00  0.00     0.028 A 
BRANCH   7  11
ATOM     11  N   UNL A   1      32.380  23.483  26.649  1.00  0.00    -0.317 N 
ATOM     12  C   UNL A   1      31.157  23.592  26.054  1.00  0.00     0.225 C 
ATOM     13  O   UNL A   1      30.184  23.962  26.717  1.00  0.00    -0.275 OA
ATOM     14  H   UNL A   1      32.335  23.346  27.622  1.00  0.00     0.170 HD
BRANCH  12  15
ATOM     15  C   UNL A   1      30.969  23.096  24.655  1.00  0.00     0.105 C 
BRANCH  15  16
ATOM     16  C   UNL A   1      30.369  24.102  23.730  1.00  0.00     0.049 C 
BRANCH  16  17
ATOM     17  C   UNL A   1      31.312  25.164  23.270  1.00  0.00    -0.004 A 
ATOM     18  C   UNL A   1      33.283  23.176  21.892  1.00  0.00     0.069 C 
ATOM     19  C   UNL A   1      32.897  24.549  22.286  1.00  0.00     0.063 A 
ATOM     20  N   UNL A   1      33.890  25.909  21.901  1.00  0.00    -0.178 NA
ATOM     21  N   UNL A   1      33.086  27.457  22.545  1.00  0.00    -0.272 N 
ATOM     22  C   UNL A   1      31.478  27.043  23.390  1.00  0.00     0.038 A 
ATOM     23  C   UNL A   1      33.837  28.679  22.714  1.00  0.00     0.174 C 
ATOM     24  C   UNL A   1      30.790  28.229  23.998  1.00  0.00     0.066 C 
ENDBRANCH  16  17
ENDBRANCH  15  16
ENDBRANCH  12  15
ENDBRANCH   7  11
ENDBRANCH   3   6
ENDBRANCH   1   2
BRANCH   1  25
ATOM     25  C   UNL A   1      38.027  20.610  24.966  1.00  0.00     0.042 C 
BRANCH  25  26
ATOM     26  C   UNL A   1      39.113  20.613  26.002  1.00  0.00     0.118 C 
BRANCH  26  27
ATOM     27  N   UNL A   1      40.062  19.506  25.855  1.00  0.00    -0.352 N 
ATOM     28  C   UNL A   1      41.423  19.522  26.072  1.00  0.00     0.251 C 
ATOM     29  H   UNL A   1      39.682  18.646  25.564  1.00  0.00     0.163 HD
ATOM     30  O   UNL A   1      42.122  18.549  25.821  1.00  0.00    -0.269 OA
BRANCH  28  31
ATOM     31  C   UNL A   1      42.022  20.778  26.560  1.00  0.00     0.039 A 
ATOM     32  C   UNL A   1      42.350  21.779  25.648  1.00  0.00     0.014 A 
ATOM     33  C   UNL A   1      42.073  21.018  27.933  1.00  0.00     0.014 A 
ATOM     34  C   UNL A   1      42.644  23.054  26.127  1.00  0.00     0.010 A 
ATOM     35  C   UNL A   1      42.154  22.320  28.382  1.00  0.00     0.010 A 
ATOM     36  C   UNL A   1      42.488  23.347  27.492  1.00  0.00    -0.014 A 
BRANCH  36  37
ATOM     37  C   UNL A   1      42.732  24.703  28.034  1.00  0.00     0.031 A 
ATOM     38  C   UNL A   1      44.136  25.098  28.413  1.00  0.00     0.074 A 
ATOM     39  C   UNL A   1      41.705  25.555  28.214  1.00  0.00     0.049 A 
ATOM     40  N   UNL A   1      44.564  26.214  28.942  1.00  0.00    -0.248 NA
ATOM     41  C   UNL A   1      45.199  24.095  28.204  1.00  0.00     0.031 C 
ATOM     42  C   UNL A   1      40.296  25.265  27.931  1.00  0.00     0.029 A 
ATOM     43  N   UNL A   1      41.688  26.848  28.669  1.00  0.00    -0.354 N 
ATOM     44  C   UNL A   1      45.931  26.042  29.119  1.00  0.00     0.074 A 
ATOM     45  C   UNL A   1      46.249  24.686  28.746  1.00  0.00     0.031 C 
ATOM     46  C   UNL A   1      39.563  26.366  28.164  1.00  0.00     0.029 A 
ATOM     47  C   UNL A   1      40.437  27.417  28.671  1.00  0.00     0.049 A 
ATOM     48  H   UNL A   1      42.497  27.324  28.967  1.00  0.00     0.167 HD
ATOM     49  C   UNL A   1      46.853  26.950  29.506  1.00  0.00     0.037 A 
ATOM     50  C   UNL A   1      40.045  28.648  29.050  1.00  0.00     0.037 A 
ATOM     51  C   UNL A   1      46.536  28.303  29.863  1.00  0.00     0.049 A 
ATOM     52  C   UNL A   1      41.088  29.615  29.550  1.00  0.00     0.074 A 
ATOM     53  C   UNL A   1      47.395  29.312  30.254  1.00  0.00     0.029 A 
ATOM     54  N   UNL A   1      45.255  28.834  29.873  1.00  0.00    -0.354 N 
ATOM     55  N   UNL A   1      42.386  29.458  29.649  1.00  0.00    -0.248 NA
ATOM     56  C   UNL A   1      40.610  30.933  29.987  1.00  0.00     0.031 C 
ATOM     57  C   UNL A   1      46.628  30.436  30.567  1.00  0.00     0.029 A 
ATOM     58  C   UNL A   1      45.299  30.152  30.291  1.00  0.00     0.049 A 
ATOM     59  H   UNL A   1      44.437  28.346  29.622  1.00  0.00     0.167 HD
ATOM     60  C   UNL A   1      42.881  30.670  30.114  1.00  0.00     0.074 A 
ATOM     61  C   UNL A   1      41.746  31.556  30.256  1.00  0.00     0.031 C 
ATOM     62  C   UNL A   1      44.159  31.022  30.401  1.00  0.00     0.037 A 
BRANCH  49  63
ATOM     63  C   UNL A   1      48.287  26.512  29.546  1.00  0.00     0.057 A 
ATOM     64  C   UNL A   1      49.152  26.725  28.462  1.00  0.00     0.134 A 
ATOM     65  C   UNL A   1      48.824  25.918  30.693  1.00  0.00     0.134 A 
ATOM     66  F   UNL A   1      48.699  27.273  27.325  1.00  0.00    -0.206 F 
ATOM     67  C   UNL A   1      50.493  26.343  28.512  1.00  0.00     0.040 A 
ATOM     68  C   UNL A   1      50.172  25.564  30.768  1.00  0.00     0.040 A 
ATOM     69  F   UNL A   1      48.053  25.687  31.766  1.00  0.00    -0.206 F 
ATOM     70  C   UNL A   1      51.010  25.772  29.674  1.00  0.00     0.006 A 
ENDBRANCH  49  63
BRANCH  50  71
ATOM     71  C   UNL A   1      38.615  29.052  28.981  1.00  0.00     0.057 A 
ATOM     72  C   UNL A   1      38.073  29.606  27.813  1.00  0.00     0.134 A 
ATOM     73  C   UNL A   1      37.774  28.966  30.097  1.00  0.00     0.134 A 
ATOM     74  F   UNL A   1      38.826  29.727  26.710  1.00  0.00    -0.206 F 
ATOM     75  C   UNL A   1      36.773  30.112  27.777  1.00  0.00     0.040 A 
ATOM     76  C   UNL A   1      36.458  29.430  30.062  1.00  0.00     0.040 A 
ATOM     77  F   UNL A   1      38.220  28.432  31.244  1.00  0.00    -0.206 F 
ATOM     78  C   UNL A   1      35.961  30.025  28.905  1.00  0.00     0.006 A 
ENDBRANCH  50  71
BRANCH  62  79
ATOM     79  C   UNL A   1      44.406  32.440  30.831  1.00  0.00     0.057 A 
ATOM     80  C   UNL A   1      44.638  33.471  29.912  1.00  0.00     0.134 A 
ATOM     81  C   UNL A   1      44.368  32.782  32.189  1.00  0.00     0.134 A 
ATOM     82  F   UNL A   1      44.692  33.212  28.596  1.00  0.00    -0.206 F 
ATOM     83  C   UNL A   1      44.863  34.783  30.330  1.00  0.00     0.040 A 
ATOM     84  C   UNL A   1      44.549  34.097  32.617  1.00  0.00     0.040 A 
ATOM     85  F   UNL A   1      44.133  31.847  33.122  1.00  0.00    -0.206 F 
ATOM     86  C   UNL A   1      44.810  35.099  31.687  1.00  0.00     0.006 A 
ENDBRANCH  62  79
ENDBRANCH  36  37
ENDBRANCH  28  31
ENDBRANCH  26  27
ENDBRANCH  25  26
ENDBRANCH   1  25
TORSDOF 14
ENDMDL
