MODEL 1
REMARK VINA RESULT:     -12.0      0.000      0.000
REMARK SMILES CC(=O)Nc1ccc2sc(C(=O)NCCCNC(=O)c3ccc(-c4c5nc(c(-c6c(F)cccc6F)c6ccc([nH]6)c(-c6c(F)cccc6F)c6nc(c(-c7c(F)cccc7F)c7ccc4[nH]7)C=C6)C=C5)cc3)cc2c1
REMARK SMILES IDX 15 1 14 2 13 3 11 4 12 5 10 7 5 8 6 9 76 10 7 11 75 12 8 13
REMARK SMILES IDX 74 14 9 15 4 16 1 17 2 18 3 19 16 21 17 22 18 23 19 25 20 26
REMARK SMILES IDX 21 27 73 28 22 29 72 30 23 31 24 32 25 33 66 34 26 35 71 36
REMARK SMILES IDX 65 37 67 38 27 39 70 40 64 41 63 42 28 44 54 45 37 46 53 47
REMARK SMILES IDX 38 48 41 49 52 50 68 51 39 52 40 53 51 55 69 56 42 57 29 58
REMARK SMILES IDX 30 59 35 60 31 61 32 62 34 63 36 64 33 65 55 66 56 67 61 68
REMARK SMILES IDX 57 69 58 70 60 71 62 72 59 73 43 74 44 75 49 76 45 77 46 78
REMARK SMILES IDX 48 79 50 80 47 81
REMARK H PARENT 13 6 4 20 17 24 67 43 41 54
REMARK Flexibility Score: inf
ROOT
ATOM      1  C   UNL A   1      32.613  28.041  26.655  1.00  0.00     0.042 C 
ENDROOT
BRANCH   1   2
ATOM      2  C   UNL A   1      32.600  26.520  26.520  1.00  0.00     0.118 C 
BRANCH   2   3
ATOM      3  N   UNL A   1      33.170  26.093  25.255  1.00  0.00    -0.351 N 
ATOM      4  C   UNL A   1      32.773  26.246  23.949  1.00  0.00     0.261 C 
ATOM      5  O   UNL A   1      33.572  25.800  23.115  1.00  0.00    -0.268 OA
ATOM      6  H   UNL A   1      34.011  25.591  25.354  1.00  0.00     0.163 HD
BRANCH   4   7
ATOM      7  C   UNL A   1      31.555  26.926  23.536  1.00  0.00     0.093 A 
ATOM      8  C   UNL A   1      28.460  30.166  21.895  1.00  0.00     0.041 A 
ATOM      9  C   UNL A   1      27.536  29.416  22.614  1.00  0.00     0.027 A 
ATOM     10  C   UNL A   1      29.784  29.720  21.795  1.00  0.00     0.035 A 
ATOM     11  C   UNL A   1      27.916  28.237  23.264  1.00  0.00     0.022 A 
ATOM     12  C   UNL A   1      30.212  28.573  22.507  1.00  0.00    -0.005 A 
ATOM     13  C   UNL A   1      29.263  27.840  23.214  1.00  0.00     0.035 A 
ATOM     14  C   UNL A   1      31.518  28.012  22.678  1.00  0.00     0.034 A 
ATOM     15  S   UNL A   1      29.968  26.454  23.938  1.00  0.00    -0.130 S 
BRANCH   8  16
ATOM     16  N   UNL A   1      28.127  31.345  21.212  1.00  0.00    -0.326 N 
ATOM     17  C   UNL A   1      28.783  33.021  22.928  1.00  0.00     0.114 C 
ATOM     18  C   UNL A   1      28.097  32.642  21.642  1.00  0.00     0.221 C 
ATOM     19  O   UNL A   1      27.578  33.500  20.927  1.00  0.00    -0.275 OA
ATOM     20  H   UNL A   1      27.874  31.218  20.269  1.00  0.00     0.169 HD
ENDBRANCH   8  16
ENDBRANCH   4   7
ENDBRANCH   2   3
ENDBRANCH   1   2
BRANCH   1  21
ATOM     21  C   UNL A   1      33.981  28.603  27.040  1.00  0.00     0.118 C 
BRANCH  21  22
ATOM     22  N   UNL A   1      33.889  29.954  27.578  1.00  0.00    -0.352 N 
ATOM     23  C   UNL A   1      34.767  30.660  28.356  1.00  0.00     0.251 C 
ATOM     24  H   UNL A   1      33.063  30.436  27.345  1.00  0.00     0.163 HD
ATOM     25  O   UNL A   1      34.396  31.709  28.884  1.00  0.00    -0.269 OA
BRANCH  23  26
ATOM     26  C   UNL A   1      36.149  30.183  28.573  1.00  0.00     0.039 A 
ATOM     27  C   UNL A   1      37.053  30.231  27.507  1.00  0.00     0.014 A 
ATOM     28  C   UNL A   1      36.544  29.637  29.797  1.00  0.00     0.014 A 
ATOM     29  C   UNL A   1      38.362  29.779  27.681  1.00  0.00     0.010 A 
ATOM     30  C   UNL A   1      37.867  29.248  29.991  1.00  0.00     0.010 A 
ATOM     31  C   UNL A   1      38.787  29.308  28.934  1.00  0.00    -0.014 A 
BRANCH  31  32
ATOM     32  C   UNL A   1      40.188  28.872  29.157  1.00  0.00     0.031 A 
ATOM     33  C   UNL A   1      41.190  29.819  29.753  1.00  0.00     0.074 A 
ATOM     34  C   UNL A   1      40.574  27.648  28.750  1.00  0.00     0.049 A 
ATOM     35  N   UNL A   1      42.475  29.652  29.943  1.00  0.00    -0.248 NA
ATOM     36  C   UNL A   1      40.688  31.139  30.163  1.00  0.00     0.031 C 
ATOM     37  C   UNL A   1      39.710  26.660  28.106  1.00  0.00     0.029 A 
ATOM     38  N   UNL A   1      41.803  27.038  28.798  1.00  0.00    -0.354 N 
ATOM     39  C   UNL A   1      42.936  30.851  30.472  1.00  0.00     0.074 A 
ATOM     40  C   UNL A   1      41.804  31.750  30.530  1.00  0.00     0.031 C 
ATOM     41  C   UNL A   1      40.432  25.564  27.824  1.00  0.00     0.029 A 
ATOM     42  C   UNL A   1      41.813  25.784  28.238  1.00  0.00     0.049 A 
ATOM     43  H   UNL A   1      42.598  27.458  29.196  1.00  0.00     0.167 HD
ATOM     44  C   UNL A   1      44.187  31.167  30.890  1.00  0.00     0.037 A 
ATOM     45  C   UNL A   1      42.826  24.914  28.067  1.00  0.00     0.037 A 
ATOM     46  C   UNL A   1      45.305  30.261  30.855  1.00  0.00     0.049 A 
ATOM     47  C   UNL A   1      44.198  25.274  28.559  1.00  0.00     0.074 A 
ATOM     48  C   UNL A   1      46.593  30.460  31.320  1.00  0.00     0.029 A 
ATOM     49  N   UNL A   1      45.267  28.982  30.321  1.00  0.00    -0.354 N 
ATOM     50  N   UNL A   1      44.606  26.384  29.124  1.00  0.00    -0.248 NA
ATOM     51  C   UNL A   1      45.248  24.258  28.400  1.00  0.00     0.031 C 
ATOM     52  C   UNL A   1      47.344  29.315  31.033  1.00  0.00     0.029 A 
ATOM     53  C   UNL A   1      46.513  28.387  30.426  1.00  0.00     0.049 A 
ATOM     54  H   UNL A   1      44.471  28.559  29.924  1.00  0.00     0.167 HD
ATOM     55  C   UNL A   1      45.953  26.197  29.404  1.00  0.00     0.074 A 
ATOM     56  C   UNL A   1      46.289  24.859  28.960  1.00  0.00     0.031 C 
ATOM     57  C   UNL A   1      46.832  27.055  29.976  1.00  0.00     0.037 A 
BRANCH  44  58
ATOM     58  C   UNL A   1      44.402  32.555  31.419  1.00  0.00     0.057 A 
ATOM     59  C   UNL A   1      44.774  33.617  30.583  1.00  0.00     0.134 A 
ATOM     60  C   UNL A   1      44.228  32.837  32.779  1.00  0.00     0.134 A 
ATOM     61  F   UNL A   1      44.970  33.411  29.271  1.00  0.00    -0.206 F 
ATOM     62  C   UNL A   1      45.000  34.899  31.085  1.00  0.00     0.040 A 
ATOM     63  C   UNL A   1      44.425  34.123  33.289  1.00  0.00     0.040 A 
ATOM     64  F   UNL A   1      43.866  31.871  33.636  1.00  0.00    -0.206 F 
ATOM     65  C   UNL A   1      44.821  35.156  32.443  1.00  0.00     0.006 A 
ENDBRANCH  44  58
BRANCH  45  66
ATOM     66  C   UNL A   1      42.565  23.609  27.414  1.00  0.00     0.057 A 
ATOM     67  C   UNL A   1      42.716  23.449  26.033  1.00  0.00     0.134 A 
ATOM     68  C   UNL A   1      42.187  22.485  28.159  1.00  0.00     0.134 A 
ATOM     69  F   UNL A   1      43.061  24.495  25.267  1.00  0.00    -0.206 F 
ATOM     70  C   UNL A   1      42.492  22.220  25.411  1.00  0.00     0.040 A 
ATOM     71  C   UNL A   1      41.979  21.244  27.553  1.00  0.00     0.040 A 
ATOM     72  F   UNL A   1      42.037  22.572  29.488  1.00  0.00    -0.206 F 
ATOM     73  C   UNL A   1      42.129  21.111  26.173  1.00  0.00     0.006 A 
ENDBRANCH  45  66
BRANCH  57  74
ATOM     74  C   UNL A   1      48.236  26.567  30.170  1.00  0.00     0.057 A 
ATOM     75  C   UNL A   1      48.619  25.859  31.315  1.00  0.00     0.134 A 
ATOM     76  C   UNL A   1      49.207  26.777  29.182  1.00  0.00     0.134 A 
ATOM     77  F   UNL A   1      47.738  25.638  32.304  1.00  0.00    -0.206 F 
ATOM     78  C   UNL A   1      49.923  25.391  31.481  1.00  0.00     0.040 A 
ATOM     79  C   UNL A   1      50.509  26.294  29.326  1.00  0.00     0.040 A 
ATOM     80  F   UNL A   1      48.903  27.442  28.058  1.00  0.00    -0.206 F 
ATOM     81  C   UNL A   1      50.871  25.604  30.481  1.00  0.00     0.006 A 
ENDBRANCH  57  74
ENDBRANCH  31  32
ENDBRANCH  23  26
ENDBRANCH  21  22
ENDBRANCH   1  21
TORSDOF 11
ENDMDL
MODEL 2
REMARK VINA RESULT:     -11.9      3.029      7.693
REMARK SMILES CC(=O)Nc1ccc2sc(C(=O)NCCCNC(=O)c3ccc(-c4c5nc(c(-c6c(F)cccc6F)c6ccc([nH]6)c(-c6c(F)cccc6F)c6nc(c(-c7c(F)cccc7F)c7ccc4[nH]7)C=C6)C=C5)cc3)cc2c1
REMARK SMILES IDX 15 1 14 2 13 3 11 4 12 5 10 7 5 8 6 9 76 10 7 11 75 12 8 13
REMARK SMILES IDX 74 14 9 15 4 16 1 17 2 18 3 19 16 21 17 22 18 23 19 25 20 26
REMARK SMILES IDX 21 27 73 28 22 29 72 30 23 31 24 32 25 33 66 34 26 35 71 36
REMARK SMILES IDX 65 37 67 38 27 39 70 40 64 41 63 42 28 44 54 45 37 46 53 47
REMARK SMILES IDX 38 48 41 49 52 50 68 51 39 52 40 53 51 55 69 56 42 57 29 58
REMARK SMILES IDX 30 59 35 60 31 61 32 62 34 63 36 64 33 65 55 66 56 67 61 68
REMARK SMILES IDX 57 69 58 70 60 71 62 72 59 73 43 74 44 75 49 76 45 77 46 78
REMARK SMILES IDX 48 79 50 80 47 81
REMARK H PARENT 13 6 4 20 17 24 67 43 41 54
REMARK Flexibility Score: inf
ROOT
ATOM      1  C   UNL A   1      37.414  19.670  24.816  1.00  0.00     0.042 C 
ENDROOT
BRANCH   1   2
ATOM      2  C   UNL A   1      36.111  20.439  25.024  1.00  0.00     0.118 C 
BRANCH   2   3
ATOM      3  N   UNL A   1      34.962  19.551  25.020  1.00  0.00    -0.351 N 
ATOM      4  C   UNL A   1      33.611  19.768  24.914  1.00  0.00     0.261 C 
ATOM      5  O   UNL A   1      32.927  18.737  24.873  1.00  0.00    -0.268 OA
ATOM      6  H   UNL A   1      35.201  18.601  25.113  1.00  0.00     0.163 HD
BRANCH   4   7
ATOM      7  C   UNL A   1      32.998  21.082  24.791  1.00  0.00     0.093 A 
ATOM      8  C   UNL A   1      31.034  25.320  25.767  1.00  0.00     0.041 A 
ATOM      9  C   UNL A   1      30.528  25.206  24.477  1.00  0.00     0.027 A 
ATOM     10  C   UNL A   1      31.931  24.356  26.246  1.00  0.00     0.035 A 
ATOM     11  C   UNL A   1      30.877  24.126  23.660  1.00  0.00     0.022 A 
ATOM     12  C   UNL A   1      32.239  23.213  25.470  1.00  0.00    -0.005 A 
ATOM     13  C   UNL A   1      31.721  23.129  24.179  1.00  0.00     0.035 A 
ATOM     14  C   UNL A   1      32.998  22.042  25.790  1.00  0.00     0.034 A 
ATOM     15  S   UNL A   1      32.275  21.714  23.384  1.00  0.00    -0.130 S 
BRANCH   8  16
ATOM     16  N   UNL A   1      30.729  26.391  26.620  1.00  0.00    -0.326 N 
ATOM     17  C   UNL A   1      32.786  27.756  26.328  1.00  0.00     0.114 C 
ATOM     18  C   UNL A   1      31.501  27.436  27.044  1.00  0.00     0.221 C 
ATOM     19  O   UNL A   1      31.091  28.155  27.957  1.00  0.00    -0.275 OA
ATOM     20  H   UNL A   1      29.809  26.389  26.971  1.00  0.00     0.169 HD
ENDBRANCH   8  16
ENDBRANCH   4   7
ENDBRANCH   2   3
ENDBRANCH   1   2
BRANCH   1  21
ATOM     21  C   UNL A   1      38.606  20.293  25.542  1.00  0.00     0.118 C 
BRANCH  21  22
ATOM     22  N   UNL A   1      39.708  19.354  25.697  1.00  0.00    -0.352 N 
ATOM     23  C   UNL A   1      41.011  19.567  26.058  1.00  0.00     0.251 C 
ATOM     24  H   UNL A   1      39.480  18.414  25.511  1.00  0.00     0.163 HD
ATOM     25  O   UNL A   1      41.834  18.662  25.913  1.00  0.00    -0.269 OA
BRANCH  23  26
ATOM     26  C   UNL A   1      41.447  20.865  26.615  1.00  0.00     0.039 A 
ATOM     27  C   UNL A   1      41.939  21.841  25.742  1.00  0.00     0.014 A 
ATOM     28  C   UNL A   1      41.431  21.106  27.991  1.00  0.00     0.014 A 
ATOM     29  C   UNL A   1      42.366  23.073  26.242  1.00  0.00     0.010 A 
ATOM     30  C   UNL A   1      41.794  22.357  28.483  1.00  0.00     0.010 A 
ATOM     31  C   UNL A   1      42.273  23.350  27.615  1.00  0.00    -0.014 A 
BRANCH  31  32
ATOM     32  C   UNL A   1      42.671  24.670  28.162  1.00  0.00     0.031 A 
ATOM     33  C   UNL A   1      41.640  25.740  28.386  1.00  0.00     0.074 A 
ATOM     34  C   UNL A   1      43.973  24.931  28.384  1.00  0.00     0.049 A 
ATOM     35  N   UNL A   1      41.805  26.981  28.771  1.00  0.00    -0.248 NA
ATOM     36  C   UNL A   1      40.242  25.377  28.110  1.00  0.00     0.031 C 
ATOM     37  C   UNL A   1      45.073  23.995  28.152  1.00  0.00     0.029 A 
ATOM     38  N   UNL A   1      44.592  26.071  28.834  1.00  0.00    -0.354 N 
ATOM     39  C   UNL A   1      40.538  27.550  28.763  1.00  0.00     0.074 A 
ATOM     40  C   UNL A   1      39.622  26.534  28.292  1.00  0.00     0.031 C 
ATOM     41  C   UNL A   1      46.232  24.596  28.465  1.00  0.00     0.029 A 
ATOM     42  C   UNL A   1      45.960  25.964  28.891  1.00  0.00     0.049 A 
ATOM     43  H   UNL A   1      44.102  26.884  29.090  1.00  0.00     0.167 HD
ATOM     44  C   UNL A   1      40.168  28.800  29.134  1.00  0.00     0.037 A 
ATOM     45  C   UNL A   1      46.892  26.873  29.235  1.00  0.00     0.037 A 
ATOM     46  C   UNL A   1      41.079  29.800  29.628  1.00  0.00     0.049 A 
ATOM     47  C   UNL A   1      46.458  28.245  29.667  1.00  0.00     0.074 A 
ATOM     48  C   UNL A   1      40.794  31.070  30.097  1.00  0.00     0.029 A 
ATOM     49  N   UNL A   1      42.454  29.641  29.714  1.00  0.00    -0.354 N 
ATOM     50  N   UNL A   1      45.249  28.747  29.724  1.00  0.00    -0.248 NA
ATOM     51  C   UNL A   1      47.517  29.172  30.091  1.00  0.00     0.031 C 
ATOM     52  C   UNL A   1      42.001  31.694  30.431  1.00  0.00     0.029 A 
ATOM     53  C   UNL A   1      43.034  30.797  30.209  1.00  0.00     0.049 A 
ATOM     54  H   UNL A   1      42.945  28.826  29.459  1.00  0.00     0.167 HD
ATOM     55  C   UNL A   1      45.397  30.041  30.205  1.00  0.00     0.074 A 
ATOM     56  C   UNL A   1      46.813  30.240  30.440  1.00  0.00     0.031 C 
ATOM     57  C   UNL A   1      44.446  30.980  30.433  1.00  0.00     0.037 A 
BRANCH  44  58
ATOM     58  C   UNL A   1      38.713  29.148  29.015  1.00  0.00     0.057 A 
ATOM     59  C   UNL A   1      37.839  29.056  30.107  1.00  0.00     0.134 A 
ATOM     60  C   UNL A   1      38.180  29.589  27.798  1.00  0.00     0.134 A 
ATOM     61  F   UNL A   1      38.283  28.628  31.299  1.00  0.00    -0.206 F 
ATOM     62  C   UNL A   1      36.481  29.355  29.983  1.00  0.00     0.040 A 
ATOM     63  C   UNL A   1      36.828  29.917  27.670  1.00  0.00     0.040 A 
ATOM     64  F   UNL A   1      38.960  29.708  26.714  1.00  0.00    -0.206 F 
ATOM     65  C   UNL A   1      35.973  29.791  28.762  1.00  0.00     0.006 A 
ENDBRANCH  44  58
BRANCH  45  66
ATOM     66  C   UNL A   1      48.325  26.498  29.203  1.00  0.00     0.057 A 
ATOM     67  C   UNL A   1      48.934  25.877  30.298  1.00  0.00     0.134 A 
ATOM     68  C   UNL A   1      49.111  26.724  28.066  1.00  0.00     0.134 A 
ATOM     69  F   UNL A   1      48.235  25.650  31.419  1.00  0.00    -0.206 F 
ATOM     70  C   UNL A   1      50.279  25.502  30.270  1.00  0.00     0.040 A 
ATOM     71  C   UNL A   1      50.451  26.335  28.017  1.00  0.00     0.040 A 
ATOM     72  F   UNL A   1      48.581  27.305  26.980  1.00  0.00    -0.206 F 
ATOM     73  C   UNL A   1      51.039  25.725  29.123  1.00  0.00     0.006 A 
ENDBRANCH  45  66
BRANCH  57  74
ATOM     74  C   UNL A   1      44.905  32.299  30.978  1.00  0.00     0.057 A 
ATOM     75  C   UNL A   1      45.230  33.370  30.137  1.00  0.00     0.134 A 
ATOM     76  C   UNL A   1      44.987  32.511  32.360  1.00  0.00     0.134 A 
ATOM     77  F   UNL A   1      45.184  33.227  28.804  1.00  0.00    -0.206 F 
ATOM     78  C   UNL A   1      45.638  34.602  30.651  1.00  0.00     0.040 A 
ATOM     79  C   UNL A   1      45.372  33.744  32.887  1.00  0.00     0.040 A 
ATOM     80  F   UNL A   1      44.683  31.527  33.219  1.00  0.00    -0.206 F 
ATOM     81  C   UNL A   1      45.704  34.792  32.031  1.00  0.00     0.006 A 
ENDBRANCH  57  74
ENDBRANCH  31  32
ENDBRANCH  23  26
ENDBRANCH  21  22
ENDBRANCH   1  21
TORSDOF 11
ENDMDL
MODEL 3
REMARK VINA RESULT:     -11.8      2.005      2.390
REMARK SMILES CC(=O)Nc1ccc2sc(C(=O)NCCCNC(=O)c3ccc(-c4c5nc(c(-c6c(F)cccc6F)c6ccc([nH]6)c(-c6c(F)cccc6F)c6nc(c(-c7c(F)cccc7F)c7ccc4[nH]7)C=C6)C=C5)cc3)cc2c1
REMARK SMILES IDX 15 1 14 2 13 3 11 4 12 5 10 7 5 8 6 9 76 10 7 11 75 12 8 13
REMARK SMILES IDX 74 14 9 15 4 16 1 17 2 18 3 19 16 21 17 22 18 23 19 25 20 26
REMARK SMILES IDX 21 27 73 28 22 29 72 30 23 31 24 32 25 33 66 34 26 35 71 36
REMARK SMILES IDX 65 37 67 38 27 39 70 40 64 41 63 42 28 44 54 45 37 46 53 47
REMARK SMILES IDX 38 48 41 49 52 50 68 51 39 52 40 53 51 55 69 56 42 57 29 58
REMARK SMILES IDX 30 59 35 60 31 61 32 62 34 63 36 64 33 65 55 66 56 67 61 68
REMARK SMILES IDX 57 69 58 70 60 71 62 72 59 73 43 74 44 75 49 76 45 77 46 78
REMARK SMILES IDX 48 79 50 80 47 81
REMARK H PARENT 13 6 4 20 17 24 67 43 41 54
REMARK Flexibility Score: inf
ROOT
ATOM      1  C   UNL A   1      32.470  28.591  26.782  1.00  0.00     0.042 C 
ENDROOT
BRANCH   1   2
ATOM      2  C   UNL A   1      32.532  27.066  26.820  1.00  0.00     0.118 C 
BRANCH   2   3
ATOM      3  N   UNL A   1      33.150  26.528  25.622  1.00  0.00    -0.351 N 
ATOM      4  C   UNL A   1      32.793  26.539  24.297  1.00  0.00     0.261 C 
ATOM      5  O   UNL A   1      33.627  26.031  23.536  1.00  0.00    -0.268 OA
ATOM      6  H   UNL A   1      33.998  26.059  25.796  1.00  0.00     0.163 HD
BRANCH   4   7
ATOM      7  C   UNL A   1      31.576  27.145  23.781  1.00  0.00     0.093 A 
ATOM      8  C   UNL A   1      28.440  30.194  21.870  1.00  0.00     0.041 A 
ATOM      9  C   UNL A   1      27.506  29.391  22.515  1.00  0.00     0.027 A 
ATOM     10  C   UNL A   1      29.792  29.826  21.881  1.00  0.00     0.035 A 
ATOM     11  C   UNL A   1      27.900  28.238  23.202  1.00  0.00     0.022 A 
ATOM     12  C   UNL A   1      30.227  28.709  22.634  1.00  0.00    -0.005 A 
ATOM     13  C   UNL A   1      29.267  27.922  23.265  1.00  0.00     0.035 A 
ATOM     14  C   UNL A   1      31.545  28.227  22.915  1.00  0.00     0.034 A 
ATOM     15  S   UNL A   1      29.991  26.582  24.054  1.00  0.00    -0.130 S 
BRANCH   8  16
ATOM     16  N   UNL A   1      28.096  31.350  21.154  1.00  0.00    -0.326 N 
ATOM     17  C   UNL A   1      28.780  33.081  22.803  1.00  0.00     0.114 C 
ATOM     18  C   UNL A   1      28.073  32.660  21.542  1.00  0.00     0.221 C 
ATOM     19  O   UNL A   1      27.541  33.495  20.808  1.00  0.00    -0.275 OA
ATOM     20  H   UNL A   1      27.827  31.192  20.220  1.00  0.00     0.169 HD
ENDBRANCH   8  16
ENDBRANCH   4   7
ENDBRANCH   2   3
ENDBRANCH   1   2
BRANCH   1  21
ATOM     21  C   UNL A   1      33.829  29.246  26.539  1.00  0.00     0.118 C 
BRANCH  21  22
ATOM     22  N   UNL A   1      33.848  30.643  26.950  1.00  0.00    -0.352 N 
ATOM     23  C   UNL A   1      34.661  31.295  27.838  1.00  0.00     0.251 C 
ATOM     24  H   UNL A   1      33.167  31.210  26.522  1.00  0.00     0.163 HD
ATOM     25  O   UNL A   1      34.364  32.433  28.205  1.00  0.00    -0.269 OA
BRANCH  23  26
ATOM     26  C   UNL A   1      35.885  30.656  28.365  1.00  0.00     0.039 A 
ATOM     27  C   UNL A   1      37.101  30.895  27.716  1.00  0.00     0.014 A 
ATOM     28  C   UNL A   1      35.836  29.779  29.452  1.00  0.00     0.014 A 
ATOM     29  C   UNL A   1      38.272  30.298  28.186  1.00  0.00     0.010 A 
ATOM     30  C   UNL A   1      37.013  29.237  29.961  1.00  0.00     0.010 A 
ATOM     31  C   UNL A   1      38.241  29.483  29.329  1.00  0.00    -0.014 A 
BRANCH  31  32
ATOM     32  C   UNL A   1      39.481  28.881  29.878  1.00  0.00     0.031 A 
ATOM     33  C   UNL A   1      40.132  29.465  31.099  1.00  0.00     0.074 A 
ATOM     34  C   UNL A   1      40.063  27.854  29.230  1.00  0.00     0.049 A 
ATOM     35  N   UNL A   1      41.262  29.135  31.674  1.00  0.00    -0.248 NA
ATOM     36  C   UNL A   1      39.437  30.591  31.742  1.00  0.00     0.031 C 
ATOM     37  C   UNL A   1      39.560  27.236  28.003  1.00  0.00     0.029 A 
ATOM     38  N   UNL A   1      41.218  27.165  29.502  1.00  0.00    -0.354 N 
ATOM     39  C   UNL A   1      41.421  30.024  32.730  1.00  0.00     0.074 A 
ATOM     40  C   UNL A   1      40.299  30.935  32.688  1.00  0.00     0.031 C 
ATOM     41  C   UNL A   1      40.397  26.255  27.631  1.00  0.00     0.029 A 
ATOM     42  C   UNL A   1      41.510  26.196  28.573  1.00  0.00     0.049 A 
ATOM     43  H   UNL A   1      41.782  27.348  30.288  1.00  0.00     0.167 HD
ATOM     44  C   UNL A   1      42.406  30.064  33.661  1.00  0.00     0.037 A 
ATOM     45  C   UNL A   1      42.563  25.362  28.485  1.00  0.00     0.037 A 
ATOM     46  C   UNL A   1      43.507  29.139  33.715  1.00  0.00     0.049 A 
ATOM     47  C   UNL A   1      43.629  25.407  29.541  1.00  0.00     0.074 A 
ATOM     48  C   UNL A   1      44.515  29.051  34.659  1.00  0.00     0.029 A 
ATOM     49  N   UNL A   1      43.746  28.141  32.781  1.00  0.00    -0.354 N 
ATOM     50  N   UNL A   1      43.731  26.205  30.576  1.00  0.00    -0.248 NA
ATOM     51  C   UNL A   1      44.720  24.429  29.424  1.00  0.00     0.031 C 
ATOM     52  C   UNL A   1      45.385  28.024  34.276  1.00  0.00     0.029 A 
ATOM     53  C   UNL A   1      44.896  27.445  33.115  1.00  0.00     0.049 A 
ATOM     54  H   UNL A   1      43.181  27.956  31.996  1.00  0.00     0.167 HD
ATOM     55  C   UNL A   1      44.886  25.818  31.243  1.00  0.00     0.074 A 
ATOM     56  C   UNL A   1      45.440  24.702  30.503  1.00  0.00     0.031 C 
ATOM     57  C   UNL A   1      45.437  26.339  32.366  1.00  0.00     0.037 A 
BRANCH  44  58
ATOM     58  C   UNL A   1      42.327  31.150  34.695  1.00  0.00     0.057 A 
ATOM     59  C   UNL A   1      42.943  32.395  34.508  1.00  0.00     0.134 A 
ATOM     60  C   UNL A   1      41.620  30.952  35.887  1.00  0.00     0.134 A 
ATOM     61  F   UNL A   1      43.647  32.645  33.393  1.00  0.00    -0.206 F 
ATOM     62  C   UNL A   1      42.889  33.390  35.485  1.00  0.00     0.040 A 
ATOM     63  C   UNL A   1      41.537  31.951  36.860  1.00  0.00     0.040 A 
ATOM     64  F   UNL A   1      41.000  29.787  36.128  1.00  0.00    -0.206 F 
ATOM     65  C   UNL A   1      42.180  33.171  36.664  1.00  0.00     0.006 A 
ENDBRANCH  44  58
BRANCH  45  66
ATOM     66  C   UNL A   1      42.641  24.401  27.358  1.00  0.00     0.057 A 
ATOM     67  C   UNL A   1      43.237  24.758  26.145  1.00  0.00     0.134 A 
ATOM     68  C   UNL A   1      42.146  23.097  27.479  1.00  0.00     0.134 A 
ATOM     69  F   UNL A   1      43.714  25.999  25.967  1.00  0.00    -0.206 F 
ATOM     70  C   UNL A   1      43.333  23.855  25.085  1.00  0.00     0.040 A 
ATOM     71  C   UNL A   1      42.254  22.177  26.434  1.00  0.00     0.040 A 
ATOM     72  F   UNL A   1      41.573  22.692  28.621  1.00  0.00    -0.206 F 
ATOM     73  C   UNL A   1      42.846  22.558  25.231  1.00  0.00     0.006 A 
ENDBRANCH  45  66
BRANCH  57  74
ATOM     74  C   UNL A   1      46.694  25.697  32.872  1.00  0.00     0.057 A 
ATOM     75  C   UNL A   1      46.667  24.683  33.836  1.00  0.00     0.134 A 
ATOM     76  C   UNL A   1      47.943  26.075  32.362  1.00  0.00     0.134 A 
ATOM     77  F   UNL A   1      45.502  24.286  34.373  1.00  0.00    -0.206 F 
ATOM     78  C   UNL A   1      47.840  24.076  34.289  1.00  0.00     0.040 A 
ATOM     79  C   UNL A   1      49.120  25.461  32.790  1.00  0.00     0.040 A 
ATOM     80  F   UNL A   1      48.036  27.036  31.431  1.00  0.00    -0.206 F 
ATOM     81  C   UNL A   1      49.071  24.462  33.760  1.00  0.00     0.006 A 
ENDBRANCH  57  74
ENDBRANCH  31  32
ENDBRANCH  23  26
ENDBRANCH  21  22
ENDBRANCH   1  21
TORSDOF 11
ENDMDL
