MODEL 1
REMARK VINA RESULT:     -11.5      0.000      0.000
REMARK SMILES O=C(CCCNC(=O)N1CC[C@@H](C(=O)NCCCNC(=O)c2ccc(-c3c4nc(c(-c5c(F)cccc5F)c5ccc([nH]5)c(-c5c(F)cccc5F)c5nc(c(-c6c(F)cccc6F)c6ccc3[nH]6)C=C5)C=C4)cc2)C1)NC1CC1
REMARK SMILES IDX 13 1 14 2 15 3 12 5 9 6 10 7 76 8 11 9 7 10 6 11 8 13 5 14
REMARK SMILES IDX 4 15 3 16 2 17 1 18 77 19 78 21 79 22 80 23 16 24 17 25
REMARK SMILES IDX 18 26 19 27 20 28 21 30 22 31 23 32 75 33 24 34 74 35 25 36
REMARK SMILES IDX 26 37 27 38 68 39 28 40 73 41 67 42 69 43 29 44 72 45 66 46
REMARK SMILES IDX 65 47 30 49 56 50 39 51 55 52 40 53 43 54 54 55 70 56 41 57
REMARK SMILES IDX 42 58 53 60 71 61 44 62 31 63 32 64 37 65 33 66 34 67 36 68
REMARK SMILES IDX 38 69 35 70 57 71 58 72 63 73 59 74 60 75 62 76 64 77 61 78
REMARK SMILES IDX 45 79 46 80 51 81 47 82 48 83 50 84 52 85 49 86
REMARK H PARENT 15 4 6 12 77 20 19 29 69 48 43 59
REMARK Flexibility Score: inf
ROOT
ATOM      1  C   UNL A   1      33.886  20.562  25.324  1.00  0.00     0.224 C 
ATOM      2  O   UNL A   1      32.952  19.793  25.546  1.00  0.00    -0.275 OA
ATOM      3  N   UNL A   1      35.129  20.037  25.146  1.00  0.00    -0.356 N 
ATOM      4  H   UNL A   1      35.175  19.053  25.148  1.00  0.00     0.163 HD
ENDROOT
BRANCH   1   5
ATOM      5  C   UNL A   1      33.716  22.066  25.250  1.00  0.00     0.100 C 
ATOM      6  N   UNL A   1      32.071  23.135  26.574  1.00  0.00    -0.324 N 
ATOM      7  C   UNL A   1      33.188  22.829  27.447  1.00  0.00     0.122 C 
ATOM      8  C   UNL A   1      32.227  22.436  25.318  1.00  0.00     0.134 C 
ATOM      9  C   UNL A   1      34.340  22.777  26.462  1.00  0.00     0.037 C 
BRANCH   6  10
ATOM     10  C   UNL A   1      30.947  23.846  26.834  1.00  0.00     0.317 C 
ATOM     11  N   UNL A   1      30.927  25.170  26.544  1.00  0.00    -0.338 N 
ATOM     12  H   UNL A   1      30.330  25.730  27.090  1.00  0.00     0.165 HD
ATOM     13  O   UNL A   1      29.914  23.328  27.256  1.00  0.00    -0.249 OA
BRANCH  11  14
ATOM     14  C   UNL A   1      31.690  25.853  25.513  1.00  0.00     0.118 C 
BRANCH  14  15
ATOM     15  C   UNL A   1      30.802  26.615  24.531  1.00  0.00     0.031 C 
BRANCH  15  16
ATOM     16  C   UNL A   1      31.195  28.071  24.301  1.00  0.00     0.102 C 
BRANCH  16  17
ATOM     17  C   UNL A   1      30.266  28.761  23.327  1.00  0.00     0.220 C 
ATOM     18  O   UNL A   1      29.895  28.218  22.291  1.00  0.00    -0.275 OA
ATOM     19  N   UNL A   1      29.906  30.039  23.705  1.00  0.00    -0.353 N 
ATOM     20  H   UNL A   1      30.277  30.406  24.540  1.00  0.00     0.163 HD
BRANCH  19  21
ATOM     21  C   UNL A   1      29.019  30.852  22.936  1.00  0.00     0.082 C 
ATOM     22  C   UNL A   1      27.683  31.248  23.502  1.00  0.00     0.027 C 
ATOM     23  C   UNL A   1      28.754  32.282  23.316  1.00  0.00     0.027 C 
ENDBRANCH  19  21
ENDBRANCH  16  17
ENDBRANCH  15  16
ENDBRANCH  14  15
ENDBRANCH  11  14
ENDBRANCH   6  10
ENDBRANCH   1   5
BRANCH   3  24
ATOM     24  C   UNL A   1      36.397  20.716  24.953  1.00  0.00     0.117 C 
BRANCH  24  25
ATOM     25  C   UNL A   1      37.569  19.747  24.993  1.00  0.00     0.042 C 
BRANCH  25  26
ATOM     26  C   UNL A   1      38.839  20.338  25.593  1.00  0.00     0.118 C 
BRANCH  26  27
ATOM     27  N   UNL A   1      39.918  19.366  25.708  1.00  0.00    -0.352 N 
ATOM     28  C   UNL A   1      41.223  19.540  26.090  1.00  0.00     0.251 C 
ATOM     29  H   UNL A   1      39.671  18.442  25.476  1.00  0.00     0.163 HD
ATOM     30  O   UNL A   1      42.025  18.617  25.962  1.00  0.00    -0.269 OA
BRANCH  28  31
ATOM     31  C   UNL A   1      41.676  20.840  26.626  1.00  0.00     0.039 A 
ATOM     32  C   UNL A   1      42.222  21.778  25.746  1.00  0.00     0.014 A 
ATOM     33  C   UNL A   1      41.572  21.136  27.988  1.00  0.00     0.014 A 
ATOM     34  C   UNL A   1      42.593  23.038  26.219  1.00  0.00     0.010 A 
ATOM     35  C   UNL A   1      41.861  22.420  28.441  1.00  0.00     0.010 A 
ATOM     36  C   UNL A   1      42.377  23.384  27.562  1.00  0.00    -0.014 A 
BRANCH  36  37
ATOM     37  C   UNL A   1      42.679  24.748  28.065  1.00  0.00     0.031 A 
ATOM     38  C   UNL A   1      44.080  25.113  28.472  1.00  0.00     0.074 A 
ATOM     39  C   UNL A   1      41.680  25.642  28.208  1.00  0.00     0.049 A 
ATOM     40  N   UNL A   1      44.526  26.225  29.000  1.00  0.00    -0.248 NA
ATOM     41  C   UNL A   1      45.115  24.083  28.281  1.00  0.00     0.031 C 
ATOM     42  C   UNL A   1      40.273  25.401  27.885  1.00  0.00     0.029 A 
ATOM     43  N   UNL A   1      41.696  26.935  28.671  1.00  0.00    -0.354 N 
ATOM     44  C   UNL A   1      45.885  26.029  29.205  1.00  0.00     0.074 A 
ATOM     45  C   UNL A   1      46.180  24.669  28.806  1.00  0.00     0.031 C 
ATOM     46  C   UNL A   1      39.566  26.515  28.136  1.00  0.00     0.029 A 
ATOM     47  C   UNL A   1      40.458  27.533  28.679  1.00  0.00     0.049 A 
ATOM     48  H   UNL A   1      42.516  27.390  28.969  1.00  0.00     0.167 HD
ATOM     49  C   UNL A   1      46.811  26.909  29.655  1.00  0.00     0.037 A 
ATOM     50  C   UNL A   1      40.084  28.760  29.089  1.00  0.00     0.037 A 
ATOM     51  C   UNL A   1      46.518  28.263  30.044  1.00  0.00     0.049 A 
ATOM     52  C   UNL A   1      41.126  29.701  29.630  1.00  0.00     0.074 A 
ATOM     53  C   UNL A   1      47.391  29.240  30.487  1.00  0.00     0.029 A 
ATOM     54  N   UNL A   1      45.253  28.831  30.035  1.00  0.00    -0.354 N 
ATOM     55  N   UNL A   1      42.417  29.520  29.764  1.00  0.00    -0.248 NA
ATOM     56  C   UNL A   1      40.657  31.022  30.072  1.00  0.00     0.031 C 
ATOM     57  C   UNL A   1      46.649  30.386  30.791  1.00  0.00     0.029 A 
ATOM     58  C   UNL A   1      45.321  30.140  30.484  1.00  0.00     0.049 A 
ATOM     59  H   UNL A   1      44.429  28.372  29.752  1.00  0.00     0.167 HD
ATOM     60  C   UNL A   1      42.919  30.713  30.269  1.00  0.00     0.074 A 
ATOM     61  C   UNL A   1      41.795  31.616  30.403  1.00  0.00     0.031 C 
ATOM     62  C   UNL A   1      44.196  31.033  30.594  1.00  0.00     0.037 A 
BRANCH  49  63
ATOM     63  C   UNL A   1      48.234  26.433  29.741  1.00  0.00     0.057 A 
ATOM     64  C   UNL A   1      49.139  26.629  28.690  1.00  0.00     0.134 A 
ATOM     65  C   UNL A   1      48.716  25.811  30.900  1.00  0.00     0.134 A 
ATOM     66  F   UNL A   1      48.739  27.208  27.547  1.00  0.00    -0.206 F 
ATOM     67  C   UNL A   1      50.464  26.201  28.777  1.00  0.00     0.040 A 
ATOM     68  C   UNL A   1      50.047  25.405  31.010  1.00  0.00     0.040 A 
ATOM     69  F   UNL A   1      47.906  25.599  31.948  1.00  0.00    -0.206 F 
ATOM     70  C   UNL A   1      50.924  25.593  29.943  1.00  0.00     0.006 A 
ENDBRANCH  49  63
BRANCH  50  71
ATOM     71  C   UNL A   1      38.662  29.182  29.001  1.00  0.00     0.057 A 
ATOM     72  C   UNL A   1      37.819  29.118  30.118  1.00  0.00     0.134 A 
ATOM     73  C   UNL A   1      38.099  29.617  27.796  1.00  0.00     0.134 A 
ATOM     74  F   UNL A   1      38.294  28.691  31.297  1.00  0.00    -0.206 F 
ATOM     75  C   UNL A   1      36.464  29.439  30.032  1.00  0.00     0.040 A 
ATOM     76  C   UNL A   1      36.753  29.972  27.702  1.00  0.00     0.040 A 
ATOM     77  F   UNL A   1      38.853  29.709  26.690  1.00  0.00    -0.206 F 
ATOM     78  C   UNL A   1      35.928  29.871  28.820  1.00  0.00     0.006 A 
ENDBRANCH  50  71
BRANCH  62  79
ATOM     79  C   UNL A   1      44.453  32.432  31.077  1.00  0.00     0.057 A 
ATOM     80  C   UNL A   1      44.734  33.483  30.196  1.00  0.00     0.134 A 
ATOM     81  C   UNL A   1      44.384  32.735  32.443  1.00  0.00     0.134 A 
ATOM     82  F   UNL A   1      44.828  33.258  28.876  1.00  0.00    -0.206 F 
ATOM     83  C   UNL A   1      44.964  34.780  30.657  1.00  0.00     0.040 A 
ATOM     84  C   UNL A   1      44.582  34.033  32.914  1.00  0.00     0.040 A 
ATOM     85  F   UNL A   1      44.110  31.777  33.341  1.00  0.00    -0.206 F 
ATOM     86  C   UNL A   1      44.879  35.059  32.020  1.00  0.00     0.006 A 
ENDBRANCH  62  79
ENDBRANCH  36  37
ENDBRANCH  28  31
ENDBRANCH  26  27
ENDBRANCH  25  26
ENDBRANCH  24  25
ENDBRANCH   3  24
TORSDOF 16
ENDMDL
MODEL 2
REMARK VINA RESULT:     -11.2      4.355      9.803
REMARK SMILES O=C(CCCNC(=O)N1CC[C@@H](C(=O)NCCCNC(=O)c2ccc(-c3c4nc(c(-c5c(F)cccc5F)c5ccc([nH]5)c(-c5c(F)cccc5F)c5nc(c(-c6c(F)cccc6F)c6ccc3[nH]6)C=C5)C=C4)cc2)C1)NC1CC1
REMARK SMILES IDX 13 1 14 2 15 3 12 5 9 6 10 7 76 8 11 9 7 10 6 11 8 13 5 14
REMARK SMILES IDX 4 15 3 16 2 17 1 18 77 19 78 21 79 22 80 23 16 24 17 25
REMARK SMILES IDX 18 26 19 27 20 28 21 30 22 31 23 32 75 33 24 34 74 35 25 36
REMARK SMILES IDX 26 37 27 38 68 39 28 40 73 41 67 42 69 43 29 44 72 45 66 46
REMARK SMILES IDX 65 47 30 49 56 50 39 51 55 52 40 53 43 54 54 55 70 56 41 57
REMARK SMILES IDX 42 58 53 60 71 61 44 62 31 63 32 64 37 65 33 66 34 67 36 68
REMARK SMILES IDX 38 69 35 70 57 71 58 72 63 73 59 74 60 75 62 76 64 77 61 78
REMARK SMILES IDX 45 79 46 80 51 81 47 82 48 83 50 84 52 85 49 86
REMARK H PARENT 15 4 6 12 77 20 19 29 69 48 43 59
REMARK Flexibility Score: inf
ROOT
ATOM      1  C   UNL A   1      31.792  29.002  24.421  1.00  0.00     0.224 C 
ATOM      2  O   UNL A   1      31.789  28.944  23.192  1.00  0.00    -0.275 OA
ATOM      3  N   UNL A   1      31.623  30.217  25.012  1.00  0.00    -0.356 N 
ATOM      4  H   UNL A   1      31.446  30.964  24.395  1.00  0.00     0.163 HD
ENDROOT
BRANCH   1   5
ATOM      5  C   UNL A   1      31.986  27.785  25.303  1.00  0.00     0.100 C 
ATOM      6  N   UNL A   1      32.277  25.650  24.324  1.00  0.00    -0.324 N 
ATOM      7  C   UNL A   1      33.541  26.350  24.202  1.00  0.00     0.122 C 
ATOM      8  C   UNL A   1      31.240  26.579  24.716  1.00  0.00     0.134 C 
ATOM      9  C   UNL A   1      33.456  27.336  25.351  1.00  0.00     0.037 C 
BRANCH   6  10
ATOM     10  C   UNL A   1      31.975  24.364  24.023  1.00  0.00     0.317 C 
ATOM     11  N   UNL A   1      32.541  23.371  24.752  1.00  0.00    -0.338 N 
ATOM     12  H   UNL A   1      32.663  22.507  24.296  1.00  0.00     0.165 HD
ATOM     13  O   UNL A   1      31.151  24.056  23.163  1.00  0.00    -0.249 OA
BRANCH  11  14
ATOM     14  C   UNL A   1      32.987  23.441  26.134  1.00  0.00     0.118 C 
BRANCH  14  15
ATOM     15  C   UNL A   1      33.145  22.062  26.772  1.00  0.00     0.031 C 
BRANCH  15  16
ATOM     16  C   UNL A   1      33.977  21.069  25.969  1.00  0.00     0.102 C 
BRANCH  16  17
ATOM     17  C   UNL A   1      33.123  19.985  25.348  1.00  0.00     0.220 C 
ATOM     18  O   UNL A   1      31.937  20.164  25.093  1.00  0.00    -0.275 OA
ATOM     19  N   UNL A   1      33.796  18.801  25.127  1.00  0.00    -0.353 N 
ATOM     20  H   UNL A   1      34.742  18.738  25.392  1.00  0.00     0.163 HD
BRANCH  19  21
ATOM     21  C   UNL A   1      33.177  17.661  24.529  1.00  0.00     0.082 C 
ATOM     22  C   UNL A   1      33.242  17.467  23.038  1.00  0.00     0.027 C 
ATOM     23  C   UNL A   1      34.003  16.547  23.948  1.00  0.00     0.027 C 
ENDBRANCH  19  21
ENDBRANCH  16  17
ENDBRANCH  15  16
ENDBRANCH  14  15
ENDBRANCH  11  14
ENDBRANCH   6  10
ENDBRANCH   1   5
BRANCH   3  24
ATOM     24  C   UNL A   1      31.665  30.570  26.419  1.00  0.00     0.117 C 
BRANCH  24  25
ATOM     25  C   UNL A   1      31.465  32.063  26.633  1.00  0.00     0.042 C 
BRANCH  25  26
ATOM     26  C   UNL A   1      32.671  32.767  27.240  1.00  0.00     0.118 C 
BRANCH  26  27
ATOM     27  N   UNL A   1      32.403  34.157  27.584  1.00  0.00    -0.352 N 
ATOM     28  C   UNL A   1      32.979  34.954  28.539  1.00  0.00     0.251 C 
ATOM     29  H   UNL A   1      31.700  34.590  27.049  1.00  0.00     0.163 HD
ATOM     30  O   UNL A   1      32.495  36.057  28.786  1.00  0.00    -0.269 OA
BRANCH  28  31
ATOM     31  C   UNL A   1      34.159  34.483  29.292  1.00  0.00     0.039 A 
ATOM     32  C   UNL A   1      33.970  33.922  30.558  1.00  0.00     0.014 A 
ATOM     33  C   UNL A   1      35.447  34.596  28.763  1.00  0.00     0.014 A 
ATOM     34  C   UNL A   1      35.062  33.408  31.258  1.00  0.00     0.010 A 
ATOM     35  C   UNL A   1      36.521  34.006  29.422  1.00  0.00     0.010 A 
ATOM     36  C   UNL A   1      36.341  33.407  30.678  1.00  0.00    -0.014 A 
BRANCH  36  37
ATOM     37  C   UNL A   1      37.500  32.783  31.366  1.00  0.00     0.031 A 
ATOM     38  C   UNL A   1      38.169  31.572  30.777  1.00  0.00     0.074 A 
ATOM     39  C   UNL A   1      37.915  33.274  32.551  1.00  0.00     0.049 A 
ATOM     40  N   UNL A   1      39.143  30.846  31.264  1.00  0.00    -0.248 NA
ATOM     41  C   UNL A   1      37.659  31.100  29.479  1.00  0.00     0.031 C 
ATOM     42  C   UNL A   1      37.328  34.421  33.247  1.00  0.00     0.029 A 
ATOM     43  N   UNL A   1      38.926  32.864  33.384  1.00  0.00    -0.354 N 
ATOM     44  C   UNL A   1      39.362  29.835  30.337  1.00  0.00     0.074 A 
ATOM     45  C   UNL A   1      38.375  30.001  29.291  1.00  0.00     0.031 C 
ATOM     46  C   UNL A   1      38.003  34.637  34.387  1.00  0.00     0.029 A 
ATOM     47  C   UNL A   1      39.039  33.621  34.527  1.00  0.00     0.049 A 
ATOM     48  H   UNL A   1      39.514  32.101  33.183  1.00  0.00     0.167 HD
ATOM     49  C   UNL A   1      40.315  28.873  30.339  1.00  0.00     0.037 A 
ATOM     50  C   UNL A   1      39.878  33.500  35.574  1.00  0.00     0.037 A 
ATOM     51  C   UNL A   1      41.300  28.714  31.376  1.00  0.00     0.049 A 
ATOM     52  C   UNL A   1      40.897  32.392  35.573  1.00  0.00     0.074 A 
ATOM     53  C   UNL A   1      42.325  27.788  31.456  1.00  0.00     0.029 A 
ATOM     54  N   UNL A   1      41.384  29.501  32.515  1.00  0.00    -0.354 N 
ATOM     55  N   UNL A   1      41.128  31.479  34.662  1.00  0.00    -0.248 NA
ATOM     56  C   UNL A   1      41.777  32.304  36.747  1.00  0.00     0.031 C 
ATOM     57  C   UNL A   1      43.001  27.984  32.665  1.00  0.00     0.029 A 
ATOM     58  C   UNL A   1      42.431  29.068  33.311  1.00  0.00     0.049 A 
ATOM     59  H   UNL A   1      40.787  30.255  32.725  1.00  0.00     0.167 HD
ATOM     60  C   UNL A   1      42.200  30.733  35.133  1.00  0.00     0.074 A 
ATOM     61  C   UNL A   1      42.584  31.310  36.405  1.00  0.00     0.031 C 
ATOM     62  C   UNL A   1      42.813  29.665  34.566  1.00  0.00     0.037 A 
BRANCH  49  63
ATOM     63  C   UNL A   1      40.344  27.923  29.175  1.00  0.00     0.057 A 
ATOM     64  C   UNL A   1      39.554  26.766  29.152  1.00  0.00     0.134 A 
ATOM     65  C   UNL A   1      41.135  28.187  28.051  1.00  0.00     0.134 A 
ATOM     66  F   UNL A   1      38.781  26.448  30.202  1.00  0.00    -0.206 F 
ATOM     67  C   UNL A   1      39.570  25.893  28.064  1.00  0.00     0.040 A 
ATOM     68  C   UNL A   1      41.137  27.337  26.944  1.00  0.00     0.040 A 
ATOM     69  F   UNL A   1      41.910  29.281  28.003  1.00  0.00    -0.206 F 
ATOM     70  C   UNL A   1      40.358  26.181  26.951  1.00  0.00     0.006 A 
ENDBRANCH  49  63
BRANCH  50  71
ATOM     71  C   UNL A   1      39.802  34.452  36.712  1.00  0.00     0.057 A 
ATOM     72  C   UNL A   1      40.521  35.654  36.696  1.00  0.00     0.134 A 
ATOM     73  C   UNL A   1      39.048  34.170  37.857  1.00  0.00     0.134 A 
ATOM     74  F   UNL A   1      41.278  35.974  35.635  1.00  0.00    -0.206 F 
ATOM     75  C   UNL A   1      40.520  36.523  37.787  1.00  0.00     0.040 A 
ATOM     76  C   UNL A   1      39.012  35.045  38.944  1.00  0.00     0.040 A 
ATOM     77  F   UNL A   1      38.330  33.040  37.933  1.00  0.00    -0.206 F 
ATOM     78  C   UNL A   1      39.760  36.220  38.916  1.00  0.00     0.006 A 
ENDBRANCH  50  71
BRANCH  62  79
ATOM     79  C   UNL A   1      43.994  29.084  35.290  1.00  0.00     0.057 A 
ATOM     80  C   UNL A   1      45.302  29.520  35.050  1.00  0.00     0.134 A 
ATOM     81  C   UNL A   1      43.810  28.097  36.268  1.00  0.00     0.134 A 
ATOM     82  F   UNL A   1      45.548  30.453  34.117  1.00  0.00    -0.206 F 
ATOM     83  C   UNL A   1      46.390  28.976  35.736  1.00  0.00     0.040 A 
ATOM     84  C   UNL A   1      44.886  27.567  36.981  1.00  0.00     0.040 A 
ATOM     85  F   UNL A   1      42.582  27.640  36.554  1.00  0.00    -0.206 F 
ATOM     86  C   UNL A   1      46.182  28.003  36.711  1.00  0.00     0.006 A 
ENDBRANCH  62  79
ENDBRANCH  36  37
ENDBRANCH  28  31
ENDBRANCH  26  27
ENDBRANCH  25  26
ENDBRANCH  24  25
ENDBRANCH   3  24
TORSDOF 16
ENDMDL
MODEL 3
REMARK VINA RESULT:     -11.1      1.863      6.437
REMARK SMILES O=C(CCCNC(=O)N1CC[C@@H](C(=O)NCCCNC(=O)c2ccc(-c3c4nc(c(-c5c(F)cccc5F)c5ccc([nH]5)c(-c5c(F)cccc5F)c5nc(c(-c6c(F)cccc6F)c6ccc3[nH]6)C=C5)C=C4)cc2)C1)NC1CC1
REMARK SMILES IDX 13 1 14 2 15 3 12 5 9 6 10 7 76 8 11 9 7 10 6 11 8 13 5 14
REMARK SMILES IDX 4 15 3 16 2 17 1 18 77 19 78 21 79 22 80 23 16 24 17 25
REMARK SMILES IDX 18 26 19 27 20 28 21 30 22 31 23 32 75 33 24 34 74 35 25 36
REMARK SMILES IDX 26 37 27 38 68 39 28 40 73 41 67 42 69 43 29 44 72 45 66 46
REMARK SMILES IDX 65 47 30 49 56 50 39 51 55 52 40 53 43 54 54 55 70 56 41 57
REMARK SMILES IDX 42 58 53 60 71 61 44 62 31 63 32 64 37 65 33 66 34 67 36 68
REMARK SMILES IDX 38 69 35 70 57 71 58 72 63 73 59 74 60 75 62 76 64 77 61 78
REMARK SMILES IDX 45 79 46 80 51 81 47 82 48 83 50 84 52 85 49 86
REMARK H PARENT 15 4 6 12 77 20 19 29 69 48 43 59
REMARK Flexibility Score: inf
ROOT
ATOM      1  C   UNL A   1      34.494  21.163  25.034  1.00  0.00     0.224 C 
ATOM      2  O   UNL A   1      33.463  20.673  25.494  1.00  0.00    -0.275 OA
ATOM      3  N   UNL A   1      35.643  20.436  25.102  1.00  0.00    -0.356 N 
ATOM      4  H   UNL A   1      35.545  19.526  25.467  1.00  0.00     0.163 HD
ENDROOT
BRANCH   1   5
ATOM      5  C   UNL A   1      34.542  22.542  24.407  1.00  0.00     0.100 C 
ATOM      6  N   UNL A   1      32.790  24.082  24.804  1.00  0.00    -0.324 N 
ATOM      7  C   UNL A   1      33.626  24.073  25.990  1.00  0.00     0.122 C 
ATOM      8  C   UNL A   1      33.139  22.967  23.952  1.00  0.00     0.134 C 
ATOM      9  C   UNL A   1      34.957  23.622  25.421  1.00  0.00     0.037 C 
BRANCH   6  10
ATOM     10  C   UNL A   1      31.738  24.881  24.501  1.00  0.00     0.317 C 
ATOM     11  N   UNL A   1      31.979  26.123  24.014  1.00  0.00    -0.338 N 
ATOM     12  H   UNL A   1      31.292  26.805  24.196  1.00  0.00     0.165 HD
ATOM     13  O   UNL A   1      30.570  24.503  24.579  1.00  0.00    -0.249 OA
BRANCH  11  14
ATOM     14  C   UNL A   1      33.137  26.558  23.253  1.00  0.00     0.118 C 
BRANCH  14  15
ATOM     15  C   UNL A   1      33.003  27.992  22.743  1.00  0.00     0.031 C 
BRANCH  15  16
ATOM     16  C   UNL A   1      32.033  28.868  23.526  1.00  0.00     0.102 C 
BRANCH  16  17
ATOM     17  C   UNL A   1      30.706  29.021  22.816  1.00  0.00     0.220 C 
ATOM     18  O   UNL A   1      30.305  28.188  22.010  1.00  0.00    -0.275 OA
ATOM     19  N   UNL A   1      30.025  30.175  23.143  1.00  0.00    -0.353 N 
ATOM     20  H   UNL A   1      30.438  30.803  23.779  1.00  0.00     0.163 HD
BRANCH  19  21
ATOM     21  C   UNL A   1      28.744  30.497  22.600  1.00  0.00     0.082 C 
ATOM     22  C   UNL A   1      27.649  30.997  23.503  1.00  0.00     0.027 C 
ATOM     23  C   UNL A   1      28.280  31.924  22.505  1.00  0.00     0.027 C 
ENDBRANCH  19  21
ENDBRANCH  16  17
ENDBRANCH  15  16
ENDBRANCH  14  15
ENDBRANCH  11  14
ENDBRANCH   6  10
ENDBRANCH   1   5
BRANCH   3  24
ATOM     24  C   UNL A   1      36.991  20.806  24.712  1.00  0.00     0.117 C 
BRANCH  24  25
ATOM     25  C   UNL A   1      37.988  19.694  25.002  1.00  0.00     0.042 C 
BRANCH  25  26
ATOM     26  C   UNL A   1      39.245  20.164  25.722  1.00  0.00     0.118 C 
BRANCH  26  27
ATOM     27  N   UNL A   1      40.239  19.110  25.875  1.00  0.00    -0.352 N 
ATOM     28  C   UNL A   1      41.584  19.198  26.125  1.00  0.00     0.251 C 
ATOM     29  H   UNL A   1      39.891  18.194  25.786  1.00  0.00     0.163 HD
ATOM     30  O   UNL A   1      42.285  18.190  26.053  1.00  0.00    -0.269 OA
BRANCH  28  31
ATOM     31  C   UNL A   1      42.200  20.501  26.448  1.00  0.00     0.039 A 
ATOM     32  C   UNL A   1      42.768  21.252  25.416  1.00  0.00     0.014 A 
ATOM     33  C   UNL A   1      42.226  20.982  27.760  1.00  0.00     0.014 A 
ATOM     34  C   UNL A   1      43.293  22.517  25.688  1.00  0.00     0.010 A 
ATOM     35  C   UNL A   1      42.671  22.276  28.014  1.00  0.00     0.010 A 
ATOM     36  C   UNL A   1      43.211  23.057  26.982  1.00  0.00    -0.014 A 
BRANCH  36  37
ATOM     37  C   UNL A   1      43.680  24.435  27.273  1.00  0.00     0.031 A 
ATOM     38  C   UNL A   1      42.702  25.496  27.693  1.00  0.00     0.074 A 
ATOM     39  C   UNL A   1      44.982  24.746  27.106  1.00  0.00     0.049 A 
ATOM     40  N   UNL A   1      42.907  26.770  27.921  1.00  0.00    -0.248 NA
ATOM     41  C   UNL A   1      41.300  25.077  27.859  1.00  0.00     0.031 C 
ATOM     42  C   UNL A   1      46.025  23.818  26.666  1.00  0.00     0.029 A 
ATOM     43  N   UNL A   1      45.647  25.934  27.277  1.00  0.00    -0.354 N 
ATOM     44  C   UNL A   1      41.667  27.300  28.252  1.00  0.00     0.074 A 
ATOM     45  C   UNL A   1      40.703  26.227  28.133  1.00  0.00     0.031 C 
ATOM     46  C   UNL A   1      47.202  24.464  26.627  1.00  0.00     0.029 A 
ATOM     47  C   UNL A   1      46.990  25.860  26.993  1.00  0.00     0.049 A 
ATOM     48  H   UNL A   1      45.205  26.761  27.576  1.00  0.00     0.167 HD
ATOM     49  C   UNL A   1      41.362  28.558  28.649  1.00  0.00     0.037 A 
ATOM     50  C   UNL A   1      47.941  26.814  27.014  1.00  0.00     0.037 A 
ATOM     51  C   UNL A   1      42.322  29.622  28.775  1.00  0.00     0.049 A 
ATOM     52  C   UNL A   1      47.564  28.215  27.414  1.00  0.00     0.074 A 
ATOM     53  C   UNL A   1      42.116  30.924  29.196  1.00  0.00     0.029 A 
ATOM     54  N   UNL A   1      43.673  29.507  28.481  1.00  0.00    -0.354 N 
ATOM     55  N   UNL A   1      46.398  28.688  27.779  1.00  0.00    -0.248 NA
ATOM     56  C   UNL A   1      48.641  29.216  27.408  1.00  0.00     0.031 C 
ATOM     57  C   UNL A   1      43.333  31.610  29.112  1.00  0.00     0.029 A 
ATOM     58  C   UNL A   1      44.307  30.720  28.693  1.00  0.00     0.049 A 
ATOM     59  H   UNL A   1      44.114  28.684  28.167  1.00  0.00     0.167 HD
ATOM     60  C   UNL A   1      46.608  30.027  28.083  1.00  0.00     0.074 A 
ATOM     61  C   UNL A   1      48.016  30.288  27.873  1.00  0.00     0.031 C 
ATOM     62  C   UNL A   1      45.714  30.959  28.497  1.00  0.00     0.037 A 
BRANCH  49  63
ATOM     63  C   UNL A   1      39.927  28.849  28.987  1.00  0.00     0.057 A 
ATOM     64  C   UNL A   1      39.003  29.231  28.005  1.00  0.00     0.134 A 
ATOM     65  C   UNL A   1      39.453  28.705  30.297  1.00  0.00     0.134 A 
ATOM     66  F   UNL A   1      39.394  29.399  26.732  1.00  0.00    -0.206 F 
ATOM     67  C   UNL A   1      37.668  29.486  28.318  1.00  0.00     0.040 A 
ATOM     68  C   UNL A   1      38.112  28.928  30.617  1.00  0.00     0.040 A 
ATOM     69  F   UNL A   1      40.281  28.334  31.285  1.00  0.00    -0.206 F 
ATOM     70  C   UNL A   1      37.217  29.327  29.626  1.00  0.00     0.006 A 
ENDBRANCH  49  63
BRANCH  50  71
ATOM     71  C   UNL A   1      49.345  26.485  26.656  1.00  0.00     0.057 A 
ATOM     72  C   UNL A   1      49.823  26.680  25.355  1.00  0.00     0.134 A 
ATOM     73  C   UNL A   1      50.229  25.930  27.589  1.00  0.00     0.134 A 
ATOM     74  F   UNL A   1      49.018  27.190  24.410  1.00  0.00    -0.206 F 
ATOM     75  C   UNL A   1      51.115  26.306  24.985  1.00  0.00     0.040 A 
ATOM     76  C   UNL A   1      51.535  25.580  27.242  1.00  0.00     0.040 A 
ATOM     77  F   UNL A   1      49.838  25.725  28.855  1.00  0.00    -0.206 F 
ATOM     78  C   UNL A   1      51.977  25.757  25.932  1.00  0.00     0.006 A 
ENDBRANCH  50  71
BRANCH  62  79
ATOM     79  C   UNL A   1      46.243  32.332  28.800  1.00  0.00     0.057 A 
ATOM     80  C   UNL A   1      46.225  33.362  27.853  1.00  0.00     0.134 A 
ATOM     81  C   UNL A   1      46.745  32.633  30.074  1.00  0.00     0.134 A 
ATOM     82  F   UNL A   1      45.770  33.137  26.610  1.00  0.00    -0.206 F 
ATOM     83  C   UNL A   1      46.713  34.636  28.150  1.00  0.00     0.040 A 
ATOM     84  C   UNL A   1      47.207  33.911  30.393  1.00  0.00     0.040 A 
ATOM     85  F   UNL A   1      46.782  31.695  31.031  1.00  0.00    -0.206 F 
ATOM     86  C   UNL A   1      47.198  34.915  29.427  1.00  0.00     0.006 A 
ENDBRANCH  62  79
ENDBRANCH  36  37
ENDBRANCH  28  31
ENDBRANCH  26  27
ENDBRANCH  25  26
ENDBRANCH  24  25
ENDBRANCH   3  24
TORSDOF 16
ENDMDL
