MODEL 1
REMARK VINA RESULT:     -11.9      0.000      0.000
REMARK SMILES Cc1cscc1C(=O)N[C@H](C(=O)NCCCNC(=O)c1ccc(-c2c3nc(c(-c4c(F)cccc4F)c4ccc([nH]4)c(-c4c(F)cccc4F)c4nc(c(-c5c(F)cccc5F)c5ccc2[nH]5)C=C4)C=C3)cc1)c1ccccc1
REMARK SMILES IDX 15 1 14 2 13 3 11 4 12 5 10 7 9 8 7 9 8 10 6 12 1 13 2 14
REMARK SMILES IDX 3 15 4 16 5 17 74 18 75 19 79 20 76 21 78 22 77 23 16 24
REMARK SMILES IDX 17 25 18 26 19 28 20 29 21 30 73 31 22 32 72 33 23 34 24 35
REMARK SMILES IDX 25 36 66 37 26 38 71 39 65 40 67 41 27 42 70 43 64 44 63 45
REMARK SMILES IDX 28 47 54 48 37 49 53 50 38 51 41 52 52 53 68 54 39 55 40 56
REMARK SMILES IDX 51 58 69 59 42 60 29 61 30 62 35 63 31 64 32 65 34 66 36 67
REMARK SMILES IDX 33 68 55 69 56 70 61 71 57 72 58 73 60 74 62 75 59 76 43 77
REMARK SMILES IDX 44 78 49 79 45 80 46 81 48 82 50 83 47 84
REMARK H PARENT 13 6 9 11 17 27 67 46 41 57
REMARK Flexibility Score: inf
ROOT
ATOM      1  C   UNL A   1      37.401  19.968  24.956  1.00  0.00     0.042 C 
ENDROOT
BRANCH   1   2
ATOM      2  C   UNL A   1      36.280  21.003  24.840  1.00  0.00     0.117 C 
BRANCH   2   3
ATOM      3  N   UNL A   1      35.449  20.981  26.023  1.00  0.00    -0.354 N 
ATOM      4  C   UNL A   1      34.095  21.198  26.076  1.00  0.00     0.247 C 
ATOM      5  O   UNL A   1      33.739  21.921  27.000  1.00  0.00    -0.272 OA
ATOM      6  H   UNL A   1      35.900  20.792  26.878  1.00  0.00     0.163 HD
BRANCH   4   7
ATOM      7  C   UNL A   1      33.181  20.350  25.180  1.00  0.00     0.202 C 
BRANCH   7   8
ATOM      8  N   UNL A   1      33.038  21.056  23.921  1.00  0.00    -0.336 N 
ATOM      9  C   UNL A   1      32.595  22.264  23.487  1.00  0.00     0.253 C 
ATOM     10  O   UNL A   1      32.823  22.401  22.274  1.00  0.00    -0.269 OA
ATOM     11  H   UNL A   1      33.351  20.502  23.169  1.00  0.00     0.165 HD
BRANCH   9  12
ATOM     12  C   UNL A   1      31.853  23.333  24.208  1.00  0.00     0.053 A 
ATOM     13  C   UNL A   1      30.376  22.561  26.390  1.00  0.00     0.046 C 
ATOM     14  C   UNL A   1      30.947  23.503  25.367  1.00  0.00    -0.028 A 
ATOM     15  C   UNL A   1      30.627  24.847  25.548  1.00  0.00     0.069 A 
ATOM     16  S   UNL A   1      31.388  25.907  24.479  1.00  0.00    -0.151 S 
ATOM     17  C   UNL A   1      32.142  24.608  23.705  1.00  0.00     0.079 A 
ENDBRANCH   9  12
ENDBRANCH   7   8
BRANCH   7  18
ATOM     18  C   UNL A   1      33.332  18.846  24.994  1.00  0.00    -0.016 A 
ATOM     19  C   UNL A   1      32.659  17.948  25.840  1.00  0.00     0.006 A 
ATOM     20  C   UNL A   1      33.966  18.292  23.867  1.00  0.00     0.006 A 
ATOM     21  C   UNL A   1      32.657  16.569  25.575  1.00  0.00     0.000 A 
ATOM     22  C   UNL A   1      34.020  16.917  23.633  1.00  0.00     0.000 A 
ATOM     23  C   UNL A   1      33.355  16.052  24.486  1.00  0.00     0.000 A 
ENDBRANCH   7  18
ENDBRANCH   4   7
ENDBRANCH   2   3
ENDBRANCH   1   2
BRANCH   1  24
ATOM     24  C   UNL A   1      38.679  20.508  25.604  1.00  0.00     0.118 C 
BRANCH  24  25
ATOM     25  N   UNL A   1      39.711  19.487  25.752  1.00  0.00    -0.352 N 
ATOM     26  C   UNL A   1      41.037  19.613  26.063  1.00  0.00     0.251 C 
ATOM     27  H   UNL A   1      39.404  18.563  25.604  1.00  0.00     0.163 HD
ATOM     28  O   UNL A   1      41.806  18.667  25.894  1.00  0.00    -0.269 OA
BRANCH  26  29
ATOM     29  C   UNL A   1      41.547  20.893  26.580  1.00  0.00     0.039 A 
ATOM     30  C   UNL A   1      42.103  21.815  25.692  1.00  0.00     0.014 A 
ATOM     31  C   UNL A   1      41.467  21.180  27.945  1.00  0.00     0.014 A 
ATOM     32  C   UNL A   1      42.504  23.064  26.163  1.00  0.00     0.010 A 
ATOM     33  C   UNL A   1      41.787  22.453  28.398  1.00  0.00     0.010 A 
ATOM     34  C   UNL A   1      42.304  23.409  27.510  1.00  0.00    -0.014 A 
BRANCH  34  35
ATOM     35  C   UNL A   1      42.606  24.770  28.012  1.00  0.00     0.031 A 
ATOM     36  C   UNL A   1      43.997  25.118  28.460  1.00  0.00     0.074 A 
ATOM     37  C   UNL A   1      41.604  25.662  28.143  1.00  0.00     0.049 A 
ATOM     38  N   UNL A   1      44.434  26.216  29.021  1.00  0.00    -0.248 NA
ATOM     39  C   UNL A   1      45.028  24.083  28.280  1.00  0.00     0.031 C 
ATOM     40  C   UNL A   1      40.204  25.421  27.783  1.00  0.00     0.029 A 
ATOM     41  N   UNL A   1      41.605  26.944  28.627  1.00  0.00    -0.354 N 
ATOM     42  C   UNL A   1      45.782  26.000  29.271  1.00  0.00     0.074 A 
ATOM     43  C   UNL A   1      46.080  24.648  28.853  1.00  0.00     0.031 C 
ATOM     44  C   UNL A   1      39.487  26.525  28.042  1.00  0.00     0.029 A 
ATOM     45  C   UNL A   1      40.365  27.535  28.628  1.00  0.00     0.049 A 
ATOM     46  H   UNL A   1      42.419  27.399  28.945  1.00  0.00     0.167 HD
ATOM     47  C   UNL A   1      46.693  26.860  29.784  1.00  0.00     0.037 A 
ATOM     48  C   UNL A   1      39.976  28.746  29.066  1.00  0.00     0.037 A 
ATOM     49  C   UNL A   1      46.391  28.210  30.183  1.00  0.00     0.049 A 
ATOM     50  C   UNL A   1      41.003  29.672  29.656  1.00  0.00     0.074 A 
ATOM     51  C   UNL A   1      47.253  29.181  30.658  1.00  0.00     0.029 A 
ATOM     52  N   UNL A   1      45.123  28.774  30.162  1.00  0.00    -0.354 N 
ATOM     53  N   UNL A   1      42.289  29.481  29.822  1.00  0.00    -0.248 NA
ATOM     54  C   UNL A   1      40.524  30.981  30.118  1.00  0.00     0.031 C 
ATOM     55  C   UNL A   1      46.500  30.317  30.975  1.00  0.00     0.029 A 
ATOM     56  C   UNL A   1      45.177  30.071  30.645  1.00  0.00     0.049 A 
ATOM     57  H   UNL A   1      44.308  28.321  29.849  1.00  0.00     0.167 HD
ATOM     58  C   UNL A   1      42.778  30.652  30.385  1.00  0.00     0.074 A 
ATOM     59  C   UNL A   1      41.652  31.555  30.512  1.00  0.00     0.031 C 
ATOM     60  C   UNL A   1      44.044  30.955  30.766  1.00  0.00     0.037 A 
BRANCH  47  61
ATOM     61  C   UNL A   1      48.103  26.366  29.940  1.00  0.00     0.057 A 
ATOM     62  C   UNL A   1      48.549  25.760  31.122  1.00  0.00     0.134 A 
ATOM     63  C   UNL A   1      49.016  26.465  28.883  1.00  0.00     0.134 A 
ATOM     64  F   UNL A   1      47.729  25.644  32.178  1.00  0.00    -0.206 F 
ATOM     65  C   UNL A   1      49.858  25.294  31.257  1.00  0.00     0.040 A 
ATOM     66  C   UNL A   1      50.320  25.977  28.996  1.00  0.00     0.040 A 
ATOM     67  F   UNL A   1      48.657  27.029  27.720  1.00  0.00    -0.206 F 
ATOM     68  C   UNL A   1      50.746  25.396  30.189  1.00  0.00     0.006 A 
ENDBRANCH  47  61
BRANCH  48  69
ATOM     69  C   UNL A   1      38.552  29.157  28.960  1.00  0.00     0.057 A 
ATOM     70  C   UNL A   1      38.029  29.638  27.754  1.00  0.00     0.134 A 
ATOM     71  C   UNL A   1      37.684  29.087  30.056  1.00  0.00     0.134 A 
ATOM     72  F   UNL A   1      38.814  29.744  26.673  1.00  0.00    -0.206 F 
ATOM     73  C   UNL A   1      36.701  30.058  27.648  1.00  0.00     0.040 A 
ATOM     74  C   UNL A   1      36.347  29.477  29.957  1.00  0.00     0.040 A 
ATOM     75  F   UNL A   1      38.119  28.625  31.238  1.00  0.00    -0.206 F 
ATOM     76  C   UNL A   1      35.856  29.974  28.752  1.00  0.00     0.006 A 
ENDBRANCH  48  69
BRANCH  60  77
ATOM     77  C   UNL A   1      44.279  32.324  31.335  1.00  0.00     0.057 A 
ATOM     78  C   UNL A   1      44.580  33.421  30.518  1.00  0.00     0.134 A 
ATOM     79  C   UNL A   1      44.170  32.552  32.712  1.00  0.00     0.134 A 
ATOM     80  F   UNL A   1      44.712  33.267  29.193  1.00  0.00    -0.206 F 
ATOM     81  C   UNL A   1      44.788  34.693  31.055  1.00  0.00     0.040 A 
ATOM     82  C   UNL A   1      44.346  33.824  33.257  1.00  0.00     0.040 A 
ATOM     83  F   UNL A   1      43.877  31.545  33.550  1.00  0.00    -0.206 F 
ATOM     84  C   UNL A   1      44.663  34.899  32.428  1.00  0.00     0.006 A 
ENDBRANCH  60  77
ENDBRANCH  34  35
ENDBRANCH  26  29
ENDBRANCH  24  25
ENDBRANCH   1  24
TORSDOF 13
ENDMDL
MODEL 2
REMARK VINA RESULT:     -11.8      2.378      7.093
REMARK SMILES Cc1cscc1C(=O)N[C@H](C(=O)NCCCNC(=O)c1ccc(-c2c3nc(c(-c4c(F)cccc4F)c4ccc([nH]4)c(-c4c(F)cccc4F)c4nc(c(-c5c(F)cccc5F)c5ccc2[nH]5)C=C4)C=C3)cc1)c1ccccc1
REMARK SMILES IDX 15 1 14 2 13 3 11 4 12 5 10 7 9 8 7 9 8 10 6 12 1 13 2 14
REMARK SMILES IDX 3 15 4 16 5 17 74 18 75 19 79 20 76 21 78 22 77 23 16 24
REMARK SMILES IDX 17 25 18 26 19 28 20 29 21 30 73 31 22 32 72 33 23 34 24 35
REMARK SMILES IDX 25 36 66 37 26 38 71 39 65 40 67 41 27 42 70 43 64 44 63 45
REMARK SMILES IDX 28 47 54 48 37 49 53 50 38 51 41 52 52 53 68 54 39 55 40 56
REMARK SMILES IDX 51 58 69 59 42 60 29 61 30 62 35 63 31 64 32 65 34 66 36 67
REMARK SMILES IDX 33 68 55 69 56 70 61 71 57 72 58 73 60 74 62 75 59 76 43 77
REMARK SMILES IDX 44 78 49 79 45 80 46 81 48 82 50 83 47 84
REMARK H PARENT 13 6 9 11 17 27 67 46 41 57
REMARK Flexibility Score: inf
ROOT
ATOM      1  C   UNL A   1      38.045  19.818  25.001  1.00  0.00     0.042 C 
ENDROOT
BRANCH   1   2
ATOM      2  C   UNL A   1      37.127  20.991  24.650  1.00  0.00     0.117 C 
BRANCH   2   3
ATOM      3  N   UNL A   1      37.149  21.981  25.704  1.00  0.00    -0.354 N 
ATOM      4  C   UNL A   1      36.616  23.244  25.651  1.00  0.00     0.247 C 
ATOM      5  O   UNL A   1      37.341  24.114  26.123  1.00  0.00    -0.272 OA
ATOM      6  H   UNL A   1      37.591  21.722  26.546  1.00  0.00     0.163 HD
BRANCH   4   7
ATOM      7  C   UNL A   1      35.138  23.402  25.266  1.00  0.00     0.202 C 
BRANCH   7   8
ATOM      8  N   UNL A   1      34.355  22.725  26.281  1.00  0.00    -0.336 N 
ATOM      9  C   UNL A   1      33.593  21.606  26.387  1.00  0.00     0.253 C 
ATOM     10  O   UNL A   1      33.243  21.426  27.566  1.00  0.00    -0.269 OA
ATOM     11  H   UNL A   1      34.384  23.215  27.135  1.00  0.00     0.165 HD
BRANCH   9  12
ATOM     12  C   UNL A   1      33.093  20.678  25.337  1.00  0.00     0.053 A 
ATOM     13  C   UNL A   1      32.250  21.812  22.982  1.00  0.00     0.046 C 
ATOM     14  C   UNL A   1      32.539  20.711  23.964  1.00  0.00    -0.028 A 
ATOM     15  C   UNL A   1      32.304  19.419  23.498  1.00  0.00     0.069 A 
ATOM     16  S   UNL A   1      32.765  18.189  24.556  1.00  0.00    -0.151 S 
ATOM     17  C   UNL A   1      33.258  19.335  25.696  1.00  0.00     0.079 A 
ENDBRANCH   9  12
ENDBRANCH   7   8
BRANCH   7  18
ATOM     18  C   UNL A   1      34.513  24.718  24.825  1.00  0.00    -0.016 A 
ATOM     19  C   UNL A   1      34.138  24.921  23.486  1.00  0.00     0.006 A 
ATOM     20  C   UNL A   1      34.091  25.693  25.749  1.00  0.00     0.006 A 
ATOM     21  C   UNL A   1      33.411  26.059  23.102  1.00  0.00     0.000 A 
ATOM     22  C   UNL A   1      33.423  26.856  25.364  1.00  0.00     0.000 A 
ATOM     23  C   UNL A   1      33.073  27.036  24.036  1.00  0.00     0.000 A 
ENDBRANCH   7  18
ENDBRANCH   4   7
ENDBRANCH   2   3
ENDBRANCH   1   2
BRANCH   1  24
ATOM     24  C   UNL A   1      39.277  20.217  25.818  1.00  0.00     0.118 C 
BRANCH  24  25
ATOM     25  N   UNL A   1      40.255  19.140  25.927  1.00  0.00    -0.352 N 
ATOM     26  C   UNL A   1      41.615  19.195  26.061  1.00  0.00     0.251 C 
ATOM     27  H   UNL A   1      39.876  18.231  25.898  1.00  0.00     0.163 HD
ATOM     28  O   UNL A   1      42.297  18.186  25.881  1.00  0.00    -0.269 OA
BRANCH  26  29
ATOM     29  C   UNL A   1      42.264  20.472  26.399  1.00  0.00     0.039 A 
ATOM     30  C   UNL A   1      42.855  21.226  25.384  1.00  0.00     0.014 A 
ATOM     31  C   UNL A   1      42.280  20.922  27.721  1.00  0.00     0.014 A 
ATOM     32  C   UNL A   1      43.391  22.478  25.685  1.00  0.00     0.010 A 
ATOM     33  C   UNL A   1      42.737  22.203  28.004  1.00  0.00     0.010 A 
ATOM     34  C   UNL A   1      43.292  22.995  26.988  1.00  0.00    -0.014 A 
BRANCH  34  35
ATOM     35  C   UNL A   1      43.740  24.370  27.309  1.00  0.00     0.031 A 
ATOM     36  C   UNL A   1      42.739  25.414  27.717  1.00  0.00     0.074 A 
ATOM     37  C   UNL A   1      45.037  24.696  27.145  1.00  0.00     0.049 A 
ATOM     38  N   UNL A   1      42.921  26.691  27.937  1.00  0.00    -0.248 NA
ATOM     39  C   UNL A   1      41.345  24.969  27.869  1.00  0.00     0.031 C 
ATOM     40  C   UNL A   1      46.093  23.778  26.709  1.00  0.00     0.029 A 
ATOM     41  N   UNL A   1      45.688  25.891  27.313  1.00  0.00    -0.354 N 
ATOM     42  C   UNL A   1      41.666  27.201  28.241  1.00  0.00     0.074 A 
ATOM     43  C   UNL A   1      40.723  26.110  28.123  1.00  0.00     0.031 C 
ATOM     44  C   UNL A   1      47.259  24.439  26.662  1.00  0.00     0.029 A 
ATOM     45  C   UNL A   1      47.028  25.836  27.018  1.00  0.00     0.049 A 
ATOM     46  H   UNL A   1      45.236  26.712  27.616  1.00  0.00     0.167 HD
ATOM     47  C   UNL A   1      41.334  28.462  28.607  1.00  0.00     0.037 A 
ATOM     48  C   UNL A   1      47.962  26.804  27.020  1.00  0.00     0.037 A 
ATOM     49  C   UNL A   1      42.282  29.538  28.737  1.00  0.00     0.049 A 
ATOM     50  C   UNL A   1      47.562  28.202  27.403  1.00  0.00     0.074 A 
ATOM     51  C   UNL A   1      42.059  30.836  29.158  1.00  0.00     0.029 A 
ATOM     52  N   UNL A   1      43.633  29.441  28.436  1.00  0.00    -0.354 N 
ATOM     53  N   UNL A   1      46.385  28.657  27.758  1.00  0.00    -0.248 NA
ATOM     54  C   UNL A   1      48.621  29.220  27.389  1.00  0.00     0.031 C 
ATOM     55  C   UNL A   1      43.263  31.540  29.062  1.00  0.00     0.029 A 
ATOM     56  C   UNL A   1      44.249  30.665  28.634  1.00  0.00     0.049 A 
ATOM     57  H   UNL A   1      44.087  28.623  28.129  1.00  0.00     0.167 HD
ATOM     58  C   UNL A   1      46.565  30.006  28.031  1.00  0.00     0.074 A 
ATOM     59  C   UNL A   1      47.970  30.290  27.821  1.00  0.00     0.031 C 
ATOM     60  C   UNL A   1      45.650  30.929  28.417  1.00  0.00     0.037 A 
BRANCH  47  61
ATOM     61  C   UNL A   1      39.887  28.744  28.893  1.00  0.00     0.057 A 
ATOM     62  C   UNL A   1      39.348  28.620  30.181  1.00  0.00     0.134 A 
ATOM     63  C   UNL A   1      39.030  29.181  27.876  1.00  0.00     0.134 A 
ATOM     64  F   UNL A   1      40.112  28.195  31.199  1.00  0.00    -0.206 F 
ATOM     65  C   UNL A   1      38.004  28.893  30.441  1.00  0.00     0.040 A 
ATOM     66  C   UNL A   1      37.690  29.485  28.129  1.00  0.00     0.040 A 
ATOM     67  F   UNL A   1      39.479  29.328  26.620  1.00  0.00    -0.206 F 
ATOM     68  C   UNL A   1      37.173  29.334  29.414  1.00  0.00     0.006 A 
ENDBRANCH  47  61
BRANCH  48  69
ATOM     69  C   UNL A   1      49.367  26.488  26.652  1.00  0.00     0.057 A 
ATOM     70  C   UNL A   1      49.824  26.653  25.340  1.00  0.00     0.134 A 
ATOM     71  C   UNL A   1      50.281  26.006  27.597  1.00  0.00     0.134 A 
ATOM     72  F   UNL A   1      48.991  27.094  24.387  1.00  0.00    -0.206 F 
ATOM     73  C   UNL A   1      51.131  26.328  24.974  1.00  0.00     0.040 A 
ATOM     74  C   UNL A   1      51.600  25.705  27.252  1.00  0.00     0.040 A 
ATOM     75  F   UNL A   1      49.911  25.836  28.875  1.00  0.00    -0.206 F 
ATOM     76  C   UNL A   1      52.024  25.857  25.934  1.00  0.00     0.006 A 
ENDBRANCH  48  69
BRANCH  60  77
ATOM     77  C   UNL A   1      46.146  32.326  28.659  1.00  0.00     0.057 A 
ATOM     78  C   UNL A   1      46.121  33.302  27.655  1.00  0.00     0.134 A 
ATOM     79  C   UNL A   1      46.623  32.705  29.920  1.00  0.00     0.134 A 
ATOM     80  F   UNL A   1      45.689  33.000  26.422  1.00  0.00    -0.206 F 
ATOM     81  C   UNL A   1      46.575  34.601  27.892  1.00  0.00     0.040 A 
ATOM     82  C   UNL A   1      47.051  34.007  30.177  1.00  0.00     0.040 A 
ATOM     83  F   UNL A   1      46.667  31.819  30.927  1.00  0.00    -0.206 F 
ATOM     84  C   UNL A   1      47.034  34.959  29.158  1.00  0.00     0.006 A 
ENDBRANCH  60  77
ENDBRANCH  34  35
ENDBRANCH  26  29
ENDBRANCH  24  25
ENDBRANCH   1  24
TORSDOF 13
ENDMDL
MODEL 3
REMARK VINA RESULT:     -11.8      5.009      9.402
REMARK SMILES Cc1cscc1C(=O)N[C@H](C(=O)NCCCNC(=O)c1ccc(-c2c3nc(c(-c4c(F)cccc4F)c4ccc([nH]4)c(-c4c(F)cccc4F)c4nc(c(-c5c(F)cccc5F)c5ccc2[nH]5)C=C4)C=C3)cc1)c1ccccc1
REMARK SMILES IDX 15 1 14 2 13 3 11 4 12 5 10 7 9 8 7 9 8 10 6 12 1 13 2 14
REMARK SMILES IDX 3 15 4 16 5 17 74 18 75 19 79 20 76 21 78 22 77 23 16 24
REMARK SMILES IDX 17 25 18 26 19 28 20 29 21 30 73 31 22 32 72 33 23 34 24 35
REMARK SMILES IDX 25 36 66 37 26 38 71 39 65 40 67 41 27 42 70 43 64 44 63 45
REMARK SMILES IDX 28 47 54 48 37 49 53 50 38 51 41 52 52 53 68 54 39 55 40 56
REMARK SMILES IDX 51 58 69 59 42 60 29 61 30 62 35 63 31 64 32 65 34 66 36 67
REMARK SMILES IDX 33 68 55 69 56 70 61 71 57 72 58 73 60 74 62 75 59 76 43 77
REMARK SMILES IDX 44 78 49 79 45 80 46 81 48 82 50 83 47 84
REMARK H PARENT 13 6 9 11 17 27 67 46 41 57
REMARK Flexibility Score: inf
ROOT
ATOM      1  C   UNL A   1      31.549  32.110  26.510  1.00  0.00     0.042 C 
ENDROOT
BRANCH   1   2
ATOM      2  C   UNL A   1      31.559  30.581  26.522  1.00  0.00     0.117 C 
BRANCH   2   3
ATOM      3  N   UNL A   1      32.916  30.085  26.463  1.00  0.00    -0.354 N 
ATOM      4  C   UNL A   1      33.316  28.778  26.588  1.00  0.00     0.247 C 
ATOM      5  O   UNL A   1      34.301  28.622  27.300  1.00  0.00    -0.272 OA
ATOM      6  H   UNL A   1      33.625  30.753  26.318  1.00  0.00     0.163 HD
BRANCH   4   7
ATOM      7  C   UNL A   1      32.684  27.726  25.666  1.00  0.00     0.202 C 
BRANCH   7   8
ATOM      8  N   UNL A   1      32.851  28.192  24.303  1.00  0.00    -0.336 N 
ATOM      9  C   UNL A   1      32.066  28.598  23.272  1.00  0.00     0.253 C 
ATOM     10  O   UNL A   1      32.762  29.026  22.336  1.00  0.00    -0.269 OA
ATOM     11  H   UNL A   1      33.804  28.224  24.055  1.00  0.00     0.165 HD
BRANCH   9  12
ATOM     12  C   UNL A   1      30.590  28.527  23.100  1.00  0.00     0.053 A 
ATOM     13  C   UNL A   1      29.331  26.305  24.108  1.00  0.00     0.046 C 
ATOM     14  C   UNL A   1      29.453  27.630  23.409  1.00  0.00    -0.028 A 
ATOM     15  C   UNL A   1      28.250  28.201  22.998  1.00  0.00     0.069 A 
ATOM     16  S   UNL A   1      28.388  29.749  22.343  1.00  0.00    -0.151 S 
ATOM     17  C   UNL A   1      30.065  29.700  22.543  1.00  0.00     0.079 A 
ENDBRANCH   9  12
ENDBRANCH   7   8
BRANCH   7  18
ATOM     18  C   UNL A   1      32.915  26.228  25.804  1.00  0.00    -0.016 A 
ATOM     19  C   UNL A   1      34.153  25.658  25.457  1.00  0.00     0.006 A 
ATOM     20  C   UNL A   1      32.003  25.388  26.470  1.00  0.00     0.006 A 
ATOM     21  C   UNL A   1      34.433  24.311  25.737  1.00  0.00     0.000 A 
ATOM     22  C   UNL A   1      32.252  24.033  26.694  1.00  0.00     0.000 A 
ATOM     23  C   UNL A   1      33.475  23.494  26.334  1.00  0.00     0.000 A 
ENDBRANCH   7  18
ENDBRANCH   4   7
ENDBRANCH   2   3
ENDBRANCH   1   2
BRANCH   1  24
ATOM     24  C   UNL A   1      32.665  32.744  27.344  1.00  0.00     0.118 C 
BRANCH  24  25
ATOM     25  N   UNL A   1      32.440  34.163  27.603  1.00  0.00    -0.352 N 
ATOM     26  C   UNL A   1      32.991  34.985  28.548  1.00  0.00     0.251 C 
ATOM     27  H   UNL A   1      31.790  34.596  27.004  1.00  0.00     0.163 HD
ATOM     28  O   UNL A   1      32.493  36.086  28.778  1.00  0.00    -0.269 OA
BRANCH  26  29
ATOM     29  C   UNL A   1      34.170  34.536  29.307  1.00  0.00     0.039 A 
ATOM     30  C   UNL A   1      33.996  34.001  30.584  1.00  0.00     0.014 A 
ATOM     31  C   UNL A   1      35.446  34.642  28.748  1.00  0.00     0.014 A 
ATOM     32  C   UNL A   1      35.098  33.493  31.270  1.00  0.00     0.010 A 
ATOM     33  C   UNL A   1      36.528  34.060  29.395  1.00  0.00     0.010 A 
ATOM     34  C   UNL A   1      36.363  33.475  30.659  1.00  0.00    -0.014 A 
BRANCH  34  35
ATOM     35  C   UNL A   1      37.527  32.830  31.313  1.00  0.00     0.031 A 
ATOM     36  C   UNL A   1      38.180  31.634  30.680  1.00  0.00     0.074 A 
ATOM     37  C   UNL A   1      37.933  33.271  32.519  1.00  0.00     0.049 A 
ATOM     38  N   UNL A   1      39.138  30.874  31.144  1.00  0.00    -0.248 NA
ATOM     39  C   UNL A   1      37.670  31.222  29.362  1.00  0.00     0.031 C 
ATOM     40  C   UNL A   1      37.346  34.395  33.253  1.00  0.00     0.029 A 
ATOM     41  N   UNL A   1      38.928  32.819  33.348  1.00  0.00    -0.354 N 
ATOM     42  C   UNL A   1      39.335  29.890  30.185  1.00  0.00     0.074 A 
ATOM     43  C   UNL A   1      38.362  30.115  29.139  1.00  0.00     0.031 C 
ATOM     44  C   UNL A   1      38.002  34.555  34.412  1.00  0.00     0.029 A 
ATOM     45  C   UNL A   1      39.025  33.520  34.526  1.00  0.00     0.049 A 
ATOM     46  H   UNL A   1      39.517  32.063  33.121  1.00  0.00     0.167 HD
ATOM     47  C   UNL A   1      40.259  28.900  30.169  1.00  0.00     0.037 A 
ATOM     48  C   UNL A   1      39.835  33.337  35.585  1.00  0.00     0.037 A 
ATOM     49  C   UNL A   1      41.234  28.693  31.208  1.00  0.00     0.049 A 
ATOM     50  C   UNL A   1      40.834  32.215  35.553  1.00  0.00     0.074 A 
ATOM     51  C   UNL A   1      42.251  27.758  31.260  1.00  0.00     0.029 A 
ATOM     52  N   UNL A   1      41.305  29.428  32.383  1.00  0.00    -0.354 N 
ATOM     53  N   UNL A   1      41.059  31.334  34.608  1.00  0.00    -0.248 NA
ATOM     54  C   UNL A   1      41.693  32.062  36.735  1.00  0.00     0.031 C 
ATOM     55  C   UNL A   1      42.905  27.891  32.489  1.00  0.00     0.029 A 
ATOM     56  C   UNL A   1      42.330  28.946  33.179  1.00  0.00     0.049 A 
ATOM     57  H   UNL A   1      40.715  30.181  32.615  1.00  0.00     0.167 HD
ATOM     58  C   UNL A   1      42.098  30.538  35.069  1.00  0.00     0.074 A 
ATOM     59  C   UNL A   1      42.474  31.054  36.369  1.00  0.00     0.031 C 
ATOM     60  C   UNL A   1      42.688  29.472  34.473  1.00  0.00     0.037 A 
BRANCH  47  61
ATOM     61  C   UNL A   1      40.259  27.969  28.991  1.00  0.00     0.057 A 
ATOM     62  C   UNL A   1      40.990  28.245  27.828  1.00  0.00     0.134 A 
ATOM     63  C   UNL A   1      39.548  26.763  29.034  1.00  0.00     0.134 A 
ATOM     64  F   UNL A   1      41.683  29.388  27.716  1.00  0.00    -0.206 F 
ATOM     65  C   UNL A   1      40.992  27.370  26.740  1.00  0.00     0.040 A 
ATOM     66  C   UNL A   1      39.567  25.865  27.964  1.00  0.00     0.040 A 
ATOM     67  F   UNL A   1      38.831  26.431  30.118  1.00  0.00    -0.206 F 
ATOM     68  C   UNL A   1      40.285  26.172  26.810  1.00  0.00     0.006 A 
ENDBRANCH  47  61
BRANCH  48  69
ATOM     69  C   UNL A   1      39.741  34.241  36.761  1.00  0.00     0.057 A 
ATOM     70  C   UNL A   1      38.947  33.909  37.864  1.00  0.00     0.134 A 
ATOM     71  C   UNL A   1      40.432  35.458  36.808  1.00  0.00     0.134 A 
ATOM     72  F   UNL A   1      38.248  32.765  37.871  1.00  0.00    -0.206 F 
ATOM     73  C   UNL A   1      38.824  34.763  38.961  1.00  0.00     0.040 A 
ATOM     74  C   UNL A   1      40.341  36.309  37.910  1.00  0.00     0.040 A 
ATOM     75  F   UNL A   1      41.219  35.831  35.788  1.00  0.00    -0.206 F 
ATOM     76  C   UNL A   1      39.527  35.966  38.987  1.00  0.00     0.006 A 
ENDBRANCH  48  69
BRANCH  60  77
ATOM     77  C   UNL A   1      43.815  28.811  35.212  1.00  0.00     0.057 A 
ATOM     78  C   UNL A   1      45.146  29.210  35.040  1.00  0.00     0.134 A 
ATOM     79  C   UNL A   1      43.560  27.787  36.133  1.00  0.00     0.134 A 
ATOM     80  F   UNL A   1      45.460  30.176  34.164  1.00  0.00    -0.206 F 
ATOM     81  C   UNL A   1      46.186  28.595  35.740  1.00  0.00     0.040 A 
ATOM     82  C   UNL A   1      44.587  27.186  36.859  1.00  0.00     0.040 A 
ATOM     83  F   UNL A   1      42.305  27.362  36.350  1.00  0.00    -0.206 F 
ATOM     84  C   UNL A   1      45.907  27.586  36.659  1.00  0.00     0.006 A 
ENDBRANCH  60  77
ENDBRANCH  34  35
ENDBRANCH  26  29
ENDBRANCH  24  25
ENDBRANCH   1  24
TORSDOF 13
ENDMDL
