MODEL 1
REMARK VINA RESULT:     -10.4      0.000      0.000
REMARK SMILES Cc1cc(N2CC[C@H](CC(=O)NCCCNC(=O)c3ccc(-c4c5nc(c(-c6c(F)cccc6F)c6ccc([nH]6)c(-c6c(F)cccc6F)c6nc(c(-c7c(F)cccc7F)c7ccc4[nH]7)C=C6)C=C5)cc3)C2)ncc1[N+](=O)[O-]
REMARK SMILES IDX 13 1 12 2 10 3 11 4 9 6 8 7 5 8 6 9 73 10 7 11 4 12 1 13
REMARK SMILES IDX 2 14 3 15 76 16 75 17 74 18 77 19 78 20 79 21 14 22 15 23
REMARK SMILES IDX 16 24 17 25 18 27 19 28 20 29 72 30 21 31 71 32 22 33 23 34
REMARK SMILES IDX 24 35 65 36 25 37 70 38 64 39 66 40 26 41 69 42 63 43 62 44
REMARK SMILES IDX 27 46 53 47 36 48 52 49 37 50 40 51 51 52 67 53 38 54 39 55
REMARK SMILES IDX 50 57 68 58 41 59 28 60 29 61 34 62 30 63 31 64 33 65 35 66
REMARK SMILES IDX 32 67 54 68 55 69 60 70 56 71 57 72 59 73 61 74 58 75 42 76
REMARK SMILES IDX 43 77 48 78 44 79 45 80 47 81 49 82 46 83
REMARK H PARENT 12 5 16 26 66 45 40 56
REMARK Flexibility Score: inf
ROOT
ATOM      1  C   UNL A   1      33.300  35.432  28.762  1.00  0.00     0.117 C 
ENDROOT
BRANCH   1   2
ATOM      2  N   UNL A   1      33.265  36.574  29.664  1.00  0.00    -0.356 N 
ATOM      3  C   UNL A   1      32.970  36.654  30.993  1.00  0.00     0.220 C 
ATOM      4  O   UNL A   1      32.946  37.768  31.517  1.00  0.00    -0.275 OA
ATOM      5  H   UNL A   1      33.491  37.435  29.244  1.00  0.00     0.163 HD
BRANCH   3   6
ATOM      6  C   UNL A   1      32.677  35.409  31.806  1.00  0.00     0.105 C 
BRANCH   6   7
ATOM      7  C   UNL A   1      33.666  35.202  32.953  1.00  0.00     0.019 C 
ATOM      8  N   UNL A   1      35.962  34.837  33.397  1.00  0.00    -0.356 N 
ATOM      9  C   UNL A   1      35.263  33.686  33.946  1.00  0.00     0.118 C 
ATOM     10  C   UNL A   1      35.080  35.683  32.598  1.00  0.00     0.122 C 
ATOM     11  C   UNL A   1      33.895  33.735  33.297  1.00  0.00     0.027 C 
BRANCH   8  12
ATOM     12  C   UNL A   1      37.232  34.610  32.906  1.00  0.00     0.129 A 
ATOM     13  C   UNL A   1      38.683  34.093  29.467  1.00  0.00     0.052 C 
ATOM     14  C   UNL A   1      38.652  34.253  30.959  1.00  0.00     0.032 A 
ATOM     15  C   UNL A   1      37.378  34.371  31.543  1.00  0.00     0.057 A 
ATOM     16  C   UNL A   1      39.752  34.320  31.820  1.00  0.00     0.290 A 
ATOM     17  C   UNL A   1      39.528  34.537  33.178  1.00  0.00     0.199 A 
ATOM     18  N   UNL A   1      38.297  34.689  33.728  1.00  0.00    -0.232 NA
BRANCH  16  19
ATOM     19  N   UNL A   1      41.138  34.183  31.392  1.00  0.00     0.064 N 
ATOM     20  O   UNL A   1      41.956  35.002  31.836  1.00  0.00    -0.258 OA
ATOM     21  O   UNL A   1      41.430  33.244  30.641  1.00  0.00    -0.258 OA
ENDBRANCH  16  19
ENDBRANCH   8  12
ENDBRANCH   6   7
ENDBRANCH   3   6
ENDBRANCH   1   2
BRANCH   1  22
ATOM     22  C   UNL A   1      34.656  34.729  28.788  1.00  0.00     0.042 C 
BRANCH  22  23
ATOM     23  C   UNL A   1      34.624  33.333  29.392  1.00  0.00     0.118 C 
BRANCH  23  24
ATOM     24  N   UNL A   1      34.037  32.363  28.484  1.00  0.00    -0.352 N 
ATOM     25  C   UNL A   1      34.573  31.221  27.937  1.00  0.00     0.251 C 
ATOM     26  H   UNL A   1      33.108  32.552  28.219  1.00  0.00     0.163 HD
ATOM     27  O   UNL A   1      33.983  30.673  27.010  1.00  0.00    -0.269 OA
BRANCH  25  28
ATOM     28  C   UNL A   1      35.851  30.648  28.429  1.00  0.00     0.039 A 
ATOM     29  C   UNL A   1      35.807  29.707  29.465  1.00  0.00     0.014 A 
ATOM     30  C   UNL A   1      37.090  31.066  27.939  1.00  0.00     0.014 A 
ATOM     31  C   UNL A   1      36.991  29.160  29.970  1.00  0.00     0.010 A 
ATOM     32  C   UNL A   1      38.265  30.458  28.382  1.00  0.00     0.010 A 
ATOM     33  C   UNL A   1      38.232  29.509  29.415  1.00  0.00    -0.014 A 
BRANCH  33  34
ATOM     34  C   UNL A   1      39.501  28.920  29.920  1.00  0.00     0.031 A 
ATOM     35  C   UNL A   1      40.161  29.481  31.152  1.00  0.00     0.074 A 
ATOM     36  C   UNL A   1      40.092  27.915  29.244  1.00  0.00     0.049 A 
ATOM     37  N   UNL A   1      41.303  29.154  31.703  1.00  0.00    -0.248 NA
ATOM     38  C   UNL A   1      39.457  30.573  31.842  1.00  0.00     0.031 C 
ATOM     39  C   UNL A   1      39.582  27.304  28.016  1.00  0.00     0.029 A 
ATOM     40  N   UNL A   1      41.260  27.236  29.491  1.00  0.00    -0.354 N 
ATOM     41  C   UNL A   1      41.462  30.010  32.786  1.00  0.00     0.074 A 
ATOM     42  C   UNL A   1      40.324  30.904  32.787  1.00  0.00     0.031 C 
ATOM     43  C   UNL A   1      40.419  26.329  27.630  1.00  0.00     0.029 A 
ATOM     44  C   UNL A   1      41.544  26.269  28.558  1.00  0.00     0.049 A 
ATOM     45  H   UNL A   1      41.840  27.425  30.265  1.00  0.00     0.167 HD
ATOM     46  C   UNL A   1      42.452  30.036  33.710  1.00  0.00     0.037 A 
ATOM     47  C   UNL A   1      42.596  25.434  28.454  1.00  0.00     0.037 A 
ATOM     48  C   UNL A   1      43.566  29.125  33.733  1.00  0.00     0.049 A 
ATOM     49  C   UNL A   1      43.684  25.484  29.491  1.00  0.00     0.074 A 
ATOM     50  C   UNL A   1      44.584  29.031  34.666  1.00  0.00     0.029 A 
ATOM     51  N   UNL A   1      43.807  28.151  32.777  1.00  0.00    -0.354 N 
ATOM     52  N   UNL A   1      43.788  26.259  30.543  1.00  0.00    -0.248 NA
ATOM     53  C   UNL A   1      44.799  24.540  29.328  1.00  0.00     0.031 C 
ATOM     54  C   UNL A   1      45.465  28.026  34.253  1.00  0.00     0.029 A 
ATOM     55  C   UNL A   1      44.971  27.464  33.087  1.00  0.00     0.049 A 
ATOM     56  H   UNL A   1      43.237  27.972  31.995  1.00  0.00     0.167 HD
ATOM     57  C   UNL A   1      44.962  25.879  31.181  1.00  0.00     0.074 A 
ATOM     58  C   UNL A   1      45.529  24.796  30.406  1.00  0.00     0.031 C 
ATOM     59  C   UNL A   1      45.519  26.383  32.310  1.00  0.00     0.037 A 
BRANCH  46  60
ATOM     60  C   UNL A   1      42.371  31.084  34.783  1.00  0.00     0.057 A 
ATOM     61  C   UNL A   1      41.790  30.823  36.031  1.00  0.00     0.134 A 
ATOM     62  C   UNL A   1      42.914  32.359  34.579  1.00  0.00     0.134 A 
ATOM     63  F   UNL A   1      41.243  29.625  36.287  1.00  0.00    -0.206 F 
ATOM     64  C   UNL A   1      41.725  31.800  37.026  1.00  0.00     0.040 A 
ATOM     65  C   UNL A   1      42.881  33.336  35.576  1.00  0.00     0.040 A 
ATOM     66  F   UNL A   1      43.493  32.675  33.410  1.00  0.00    -0.206 F 
ATOM     67  C   UNL A   1      42.279  33.058  36.802  1.00  0.00     0.006 A 
ENDBRANCH  46  60
BRANCH  47  68
ATOM     68  C   UNL A   1      42.665  24.462  27.335  1.00  0.00     0.057 A 
ATOM     69  C   UNL A   1      42.129  23.176  27.461  1.00  0.00     0.134 A 
ATOM     70  C   UNL A   1      43.273  24.790  26.117  1.00  0.00     0.134 A 
ATOM     71  F   UNL A   1      41.552  22.797  28.611  1.00  0.00    -0.206 F 
ATOM     72  C   UNL A   1      42.208  22.244  26.425  1.00  0.00     0.040 A 
ATOM     73  C   UNL A   1      43.338  23.876  25.063  1.00  0.00     0.040 A 
ATOM     74  F   UNL A   1      43.801  26.008  25.929  1.00  0.00    -0.206 F 
ATOM     75  C   UNL A   1      42.810  22.597  25.219  1.00  0.00     0.006 A 
ENDBRANCH  47  68
BRANCH  59  76
ATOM     76  C   UNL A   1      46.791  25.749  32.791  1.00  0.00     0.057 A 
ATOM     77  C   UNL A   1      48.043  26.135  32.296  1.00  0.00     0.134 A 
ATOM     78  C   UNL A   1      46.764  24.771  33.793  1.00  0.00     0.134 A 
ATOM     79  F   UNL A   1      48.136  27.057  31.326  1.00  0.00    -0.206 F 
ATOM     80  C   UNL A   1      49.223  25.556  32.768  1.00  0.00     0.040 A 
ATOM     81  C   UNL A   1      47.938  24.204  34.291  1.00  0.00     0.040 A 
ATOM     82  F   UNL A   1      45.598  24.363  34.316  1.00  0.00    -0.206 F 
ATOM     83  C   UNL A   1      49.172  24.594  33.773  1.00  0.00     0.006 A 
ENDBRANCH  59  76
ENDBRANCH  33  34
ENDBRANCH  25  28
ENDBRANCH  23  24
ENDBRANCH  22  23
ENDBRANCH   1  22
TORSDOF 13
ENDMDL
MODEL 2
REMARK VINA RESULT:     -10.4      5.079     10.203
REMARK SMILES Cc1cc(N2CC[C@H](CC(=O)NCCCNC(=O)c3ccc(-c4c5nc(c(-c6c(F)cccc6F)c6ccc([nH]6)c(-c6c(F)cccc6F)c6nc(c(-c7c(F)cccc7F)c7ccc4[nH]7)C=C6)C=C5)cc3)C2)ncc1[N+](=O)[O-]
REMARK SMILES IDX 13 1 12 2 10 3 11 4 9 6 8 7 5 8 6 9 73 10 7 11 4 12 1 13
REMARK SMILES IDX 2 14 3 15 76 16 75 17 74 18 77 19 78 20 79 21 14 22 15 23
REMARK SMILES IDX 16 24 17 25 18 27 19 28 20 29 72 30 21 31 71 32 22 33 23 34
REMARK SMILES IDX 24 35 65 36 25 37 70 38 64 39 66 40 26 41 69 42 63 43 62 44
REMARK SMILES IDX 27 46 53 47 36 48 52 49 37 50 40 51 51 52 67 53 38 54 39 55
REMARK SMILES IDX 50 57 68 58 41 59 28 60 29 61 34 62 30 63 31 64 33 65 35 66
REMARK SMILES IDX 32 67 54 68 55 69 60 70 56 71 57 72 59 73 61 74 58 75 42 76
REMARK SMILES IDX 43 77 48 78 44 79 45 80 47 81 49 82 46 83
REMARK H PARENT 12 5 16 26 66 45 40 56
REMARK Flexibility Score: inf
ROOT
ATOM      1  C   UNL A   1      36.116  20.221  24.947  1.00  0.00     0.117 C 
ENDROOT
BRANCH   1   2
ATOM      2  N   UNL A   1      34.973  19.325  25.057  1.00  0.00    -0.356 N 
ATOM      3  C   UNL A   1      33.651  19.528  24.790  1.00  0.00     0.220 C 
ATOM      4  O   UNL A   1      32.863  18.614  25.033  1.00  0.00    -0.275 OA
ATOM      5  H   UNL A   1      35.191  18.421  25.378  1.00  0.00     0.163 HD
BRANCH   3   6
ATOM      6  C   UNL A   1      33.161  20.841  24.212  1.00  0.00     0.105 C 
BRANCH   6   7
ATOM      7  C   UNL A   1      32.164  21.555  25.124  1.00  0.00     0.019 C 
ATOM      8  N   UNL A   1      31.279  23.695  25.610  1.00  0.00    -0.356 N 
ATOM      9  C   UNL A   1      31.895  23.231  26.843  1.00  0.00     0.118 C 
ATOM     10  C   UNL A   1      31.592  22.826  24.480  1.00  0.00     0.122 C 
ATOM     11  C   UNL A   1      32.792  22.090  26.405  1.00  0.00     0.027 C 
BRANCH   8  12
ATOM     12  C   UNL A   1      31.306  25.057  25.383  1.00  0.00     0.129 A 
ATOM     13  C   UNL A   1      31.604  28.098  27.587  1.00  0.00     0.052 C 
ATOM     14  C   UNL A   1      31.487  27.297  26.324  1.00  0.00     0.032 A 
ATOM     15  C   UNL A   1      31.337  25.908  26.484  1.00  0.00     0.057 A 
ATOM     16  C   UNL A   1      31.536  27.782  25.012  1.00  0.00     0.290 A 
ATOM     17  C   UNL A   1      31.474  26.872  23.959  1.00  0.00     0.199 A 
ATOM     18  N   UNL A   1      31.369  25.529  24.123  1.00  0.00    -0.232 NA
BRANCH  16  19
ATOM     19  N   UNL A   1      31.654  29.191  24.664  1.00  0.00     0.064 N 
ATOM     20  O   UNL A   1      30.609  29.799  24.387  1.00  0.00    -0.258 OA
ATOM     21  O   UNL A   1      32.776  29.712  24.696  1.00  0.00    -0.258 OA
ENDBRANCH  16  19
ENDBRANCH   8  12
ENDBRANCH   6   7
ENDBRANCH   3   6
ENDBRANCH   1   2
BRANCH   1  22
ATOM     22  C   UNL A   1      37.432  19.451  24.839  1.00  0.00     0.042 C 
BRANCH  22  23
ATOM     23  C   UNL A   1      38.620  20.151  25.483  1.00  0.00     0.118 C 
BRANCH  23  24
ATOM     24  N   UNL A   1      39.736  19.245  25.691  1.00  0.00    -0.352 N 
ATOM     25  C   UNL A   1      41.033  19.507  26.064  1.00  0.00     0.251 C 
ATOM     26  H   UNL A   1      39.531  18.294  25.542  1.00  0.00     0.163 HD
ATOM     27  O   UNL A   1      41.874  18.618  25.953  1.00  0.00    -0.269 OA
BRANCH  25  28
ATOM     28  C   UNL A   1      41.441  20.837  26.582  1.00  0.00     0.039 A 
ATOM     29  C   UNL A   1      41.368  21.070  27.961  1.00  0.00     0.014 A 
ATOM     30  C   UNL A   1      41.829  21.876  25.734  1.00  0.00     0.014 A 
ATOM     31  C   UNL A   1      41.724  22.317  28.484  1.00  0.00     0.010 A 
ATOM     32  C   UNL A   1      42.267  23.091  26.262  1.00  0.00     0.010 A 
ATOM     33  C   UNL A   1      42.204  23.333  27.643  1.00  0.00    -0.014 A 
BRANCH  33  34
ATOM     34  C   UNL A   1      42.612  24.658  28.182  1.00  0.00     0.031 A 
ATOM     35  C   UNL A   1      41.585  25.738  28.399  1.00  0.00     0.074 A 
ATOM     36  C   UNL A   1      43.913  24.913  28.427  1.00  0.00     0.049 A 
ATOM     37  N   UNL A   1      41.755  26.977  28.788  1.00  0.00    -0.248 NA
ATOM     38  C   UNL A   1      40.185  25.388  28.116  1.00  0.00     0.031 C 
ATOM     39  C   UNL A   1      45.014  23.971  28.224  1.00  0.00     0.029 A 
ATOM     40  N   UNL A   1      44.530  26.048  28.893  1.00  0.00    -0.354 N 
ATOM     41  C   UNL A   1      40.492  27.555  28.777  1.00  0.00     0.074 A 
ATOM     42  C   UNL A   1      39.571  26.548  28.294  1.00  0.00     0.031 C 
ATOM     43  C   UNL A   1      46.167  24.558  28.582  1.00  0.00     0.029 A 
ATOM     44  C   UNL A   1      45.894  25.929  29.004  1.00  0.00     0.049 A 
ATOM     45  H   UNL A   1      44.040  26.870  29.125  1.00  0.00     0.167 HD
ATOM     46  C   UNL A   1      40.125  28.803  29.154  1.00  0.00     0.037 A 
ATOM     47  C   UNL A   1      46.822  26.824  29.392  1.00  0.00     0.037 A 
ATOM     48  C   UNL A   1      41.032  29.795  29.668  1.00  0.00     0.049 A 
ATOM     49  C   UNL A   1      46.391  28.205  29.804  1.00  0.00     0.074 A 
ATOM     50  C   UNL A   1      40.745  31.065  30.137  1.00  0.00     0.029 A 
ATOM     51  N   UNL A   1      42.403  29.628  29.778  1.00  0.00    -0.354 N 
ATOM     52  N   UNL A   1      45.184  28.715  29.845  1.00  0.00    -0.248 NA
ATOM     53  C   UNL A   1      47.450  29.132  30.228  1.00  0.00     0.031 C 
ATOM     54  C   UNL A   1      41.948  31.683  30.494  1.00  0.00     0.029 A 
ATOM     55  C   UNL A   1      42.980  30.780  30.290  1.00  0.00     0.049 A 
ATOM     56  H   UNL A   1      42.896  28.812  29.532  1.00  0.00     0.167 HD
ATOM     57  C   UNL A   1      45.336  30.011  30.323  1.00  0.00     0.074 A 
ATOM     58  C   UNL A   1      46.749  30.204  30.570  1.00  0.00     0.031 C 
ATOM     59  C   UNL A   1      44.387  30.956  30.538  1.00  0.00     0.037 A 
BRANCH  46  60
ATOM     60  C   UNL A   1      38.672  29.166  29.031  1.00  0.00     0.057 A 
ATOM     61  C   UNL A   1      37.794  29.083  30.120  1.00  0.00     0.134 A 
ATOM     62  C   UNL A   1      38.154  29.639  27.819  1.00  0.00     0.134 A 
ATOM     63  F   UNL A   1      38.226  28.629  31.307  1.00  0.00    -0.206 F 
ATOM     64  C   UNL A   1      36.447  29.430  30.001  1.00  0.00     0.040 A 
ATOM     65  C   UNL A   1      36.815  30.015  27.695  1.00  0.00     0.040 A 
ATOM     66  F   UNL A   1      38.941  29.751  26.738  1.00  0.00    -0.206 F 
ATOM     67  C   UNL A   1      35.956  29.904  28.787  1.00  0.00     0.006 A 
ENDBRANCH  46  60
BRANCH  47  68
ATOM     68  C   UNL A   1      48.255  26.439  29.430  1.00  0.00     0.057 A 
ATOM     69  C   UNL A   1      49.093  26.669  28.334  1.00  0.00     0.134 A 
ATOM     70  C   UNL A   1      48.819  25.826  30.556  1.00  0.00     0.134 A 
ATOM     71  F   UNL A   1      48.606  27.234  27.220  1.00  0.00    -0.206 F 
ATOM     72  C   UNL A   1      50.437  26.290  28.348  1.00  0.00     0.040 A 
ATOM     73  C   UNL A   1      50.167  25.464  30.593  1.00  0.00     0.040 A 
ATOM     74  F   UNL A   1      48.070  25.583  31.642  1.00  0.00    -0.206 F 
ATOM     75  C   UNL A   1      50.978  25.690  29.483  1.00  0.00     0.006 A 
ENDBRANCH  47  68
BRANCH  59  76
ATOM     76  C   UNL A   1      44.842  32.272  31.096  1.00  0.00     0.057 A 
ATOM     77  C   UNL A   1      45.196  33.344  30.267  1.00  0.00     0.134 A 
ATOM     78  C   UNL A   1      44.883  32.482  32.480  1.00  0.00     0.134 A 
ATOM     79  F   UNL A   1      45.190  33.202  28.933  1.00  0.00    -0.206 F 
ATOM     80  C   UNL A   1      45.594  34.573  30.796  1.00  0.00     0.040 A 
ATOM     81  C   UNL A   1      45.255  33.714  33.020  1.00  0.00     0.040 A 
ATOM     82  F   UNL A   1      44.548  31.499  33.329  1.00  0.00    -0.206 F 
ATOM     83  C   UNL A   1      45.617  34.762  32.176  1.00  0.00     0.006 A 
ENDBRANCH  59  76
ENDBRANCH  33  34
ENDBRANCH  25  28
ENDBRANCH  23  24
ENDBRANCH  22  23
ENDBRANCH   1  22
TORSDOF 13
ENDMDL
MODEL 3
REMARK VINA RESULT:     -10.3      4.454     11.588
REMARK SMILES Cc1cc(N2CC[C@H](CC(=O)NCCCNC(=O)c3ccc(-c4c5nc(c(-c6c(F)cccc6F)c6ccc([nH]6)c(-c6c(F)cccc6F)c6nc(c(-c7c(F)cccc7F)c7ccc4[nH]7)C=C6)C=C5)cc3)C2)ncc1[N+](=O)[O-]
REMARK SMILES IDX 13 1 12 2 10 3 11 4 9 6 8 7 5 8 6 9 73 10 7 11 4 12 1 13
REMARK SMILES IDX 2 14 3 15 76 16 75 17 74 18 77 19 78 20 79 21 14 22 15 23
REMARK SMILES IDX 16 24 17 25 18 27 19 28 20 29 72 30 21 31 71 32 22 33 23 34
REMARK SMILES IDX 24 35 65 36 25 37 70 38 64 39 66 40 26 41 69 42 63 43 62 44
REMARK SMILES IDX 27 46 53 47 36 48 52 49 37 50 40 51 51 52 67 53 38 54 39 55
REMARK SMILES IDX 50 57 68 58 41 59 28 60 29 61 34 62 30 63 31 64 33 65 35 66
REMARK SMILES IDX 32 67 54 68 55 69 60 70 56 71 57 72 59 73 61 74 58 75 42 76
REMARK SMILES IDX 43 77 48 78 44 79 45 80 47 81 49 82 46 83
REMARK H PARENT 12 5 16 26 66 45 40 56
REMARK Flexibility Score: inf
ROOT
ATOM      1  C   UNL A   1      42.207  19.107  26.111  1.00  0.00     0.117 C 
ENDROOT
BRANCH   1   2
ATOM      2  N   UNL A   1      43.559  18.569  26.073  1.00  0.00    -0.356 N 
ATOM      3  C   UNL A   1      44.589  18.802  25.210  1.00  0.00     0.220 C 
ATOM      4  O   UNL A   1      45.629  18.159  25.358  1.00  0.00    -0.275 OA
ATOM      5  H   UNL A   1      43.766  17.928  26.791  1.00  0.00     0.163 HD
BRANCH   3   6
ATOM      6  C   UNL A   1      44.462  19.822  24.096  1.00  0.00     0.105 C 
BRANCH   6   7
ATOM      7  C   UNL A   1      45.385  21.026  24.283  1.00  0.00     0.019 C 
ATOM      8  N   UNL A   1      45.918  22.750  25.813  1.00  0.00    -0.356 N 
ATOM      9  C   UNL A   1      45.485  23.419  24.596  1.00  0.00     0.118 C 
ATOM     10  C   UNL A   1      45.677  21.311  25.763  1.00  0.00     0.122 C 
ATOM     11  C   UNL A   1      44.771  22.337  23.810  1.00  0.00     0.027 C 
BRANCH   8  12
ATOM     12  C   UNL A   1      45.638  23.394  27.002  1.00  0.00     0.129 A 
ATOM     13  C   UNL A   1      42.819  23.232  29.496  1.00  0.00     0.052 C 
ATOM     14  C   UNL A   1      44.123  23.661  28.891  1.00  0.00     0.032 A 
ATOM     15  C   UNL A   1      44.419  23.135  27.621  1.00  0.00     0.057 A 
ATOM     16  C   UNL A   1      45.079  24.507  29.465  1.00  0.00     0.290 A 
ATOM     17  C   UNL A   1      46.266  24.741  28.775  1.00  0.00     0.199 A 
ATOM     18  N   UNL A   1      46.561  24.197  27.567  1.00  0.00    -0.232 NA
BRANCH  16  19
ATOM     19  N   UNL A   1      44.921  25.165  30.755  1.00  0.00     0.064 N 
ATOM     20  O   UNL A   1      45.029  24.463  31.771  1.00  0.00    -0.258 OA
ATOM     21  O   UNL A   1      44.723  26.387  30.770  1.00  0.00    -0.258 OA
ENDBRANCH  16  19
ENDBRANCH   8  12
ENDBRANCH   6   7
ENDBRANCH   3   6
ENDBRANCH   1   2
BRANCH   1  22
ATOM     22  C   UNL A   1      42.134  20.403  26.917  1.00  0.00     0.042 C 
BRANCH  22  23
ATOM     23  C   UNL A   1      41.712  21.620  26.106  1.00  0.00     0.118 C 
BRANCH  23  24
ATOM     24  N   UNL A   1      40.275  21.659  25.895  1.00  0.00    -0.352 N 
ATOM     25  C   UNL A   1      39.353  22.618  26.239  1.00  0.00     0.251 C 
ATOM     26  H   UNL A   1      39.903  20.874  25.431  1.00  0.00     0.163 HD
ATOM     27  O   UNL A   1      38.158  22.344  26.176  1.00  0.00    -0.269 OA
BRANCH  25  28
ATOM     28  C   UNL A   1      39.768  23.968  26.698  1.00  0.00     0.039 A 
ATOM     29  C   UNL A   1      39.663  24.274  28.060  1.00  0.00     0.014 A 
ATOM     30  C   UNL A   1      40.194  24.956  25.808  1.00  0.00     0.014 A 
ATOM     31  C   UNL A   1      40.024  25.542  28.528  1.00  0.00     0.010 A 
ATOM     32  C   UNL A   1      40.637  26.191  26.285  1.00  0.00     0.010 A 
ATOM     33  C   UNL A   1      40.541  26.505  27.648  1.00  0.00    -0.014 A 
BRANCH  33  34
ATOM     34  C   UNL A   1      40.955  27.850  28.129  1.00  0.00     0.031 A 
ATOM     35  C   UNL A   1      42.411  28.235  28.150  1.00  0.00     0.074 A 
ATOM     36  C   UNL A   1      40.030  28.712  28.598  1.00  0.00     0.049 A 
ATOM     37  N   UNL A   1      42.973  29.328  28.601  1.00  0.00    -0.248 NA
ATOM     38  C   UNL A   1      43.365  27.248  27.618  1.00  0.00     0.031 C 
ATOM     39  C   UNL A   1      38.591  28.453  28.671  1.00  0.00     0.029 A 
ATOM     40  N   UNL A   1      40.165  29.978  29.112  1.00  0.00    -0.354 N 
ATOM     41  C   UNL A   1      44.341  29.152  28.426  1.00  0.00     0.074 A 
ATOM     42  C   UNL A   1      44.528  27.827  27.875  1.00  0.00     0.031 C 
ATOM     43  C   UNL A   1      37.976  29.533  29.178  1.00  0.00     0.029 A 
ATOM     44  C   UNL A   1      38.976  30.545  29.502  1.00  0.00     0.049 A 
ATOM     45  H   UNL A   1      41.033  30.436  29.193  1.00  0.00     0.167 HD
ATOM     46  C   UNL A   1      45.349  30.020  28.679  1.00  0.00     0.037 A 
ATOM     47  C   UNL A   1      38.720  31.741  30.065  1.00  0.00     0.037 A 
ATOM     48  C   UNL A   1      45.163  31.352  29.194  1.00  0.00     0.049 A 
ATOM     49  C   UNL A   1      39.856  32.687  30.340  1.00  0.00     0.074 A 
ATOM     50  C   UNL A   1      46.117  32.329  29.423  1.00  0.00     0.029 A 
ATOM     51  N   UNL A   1      43.941  31.892  29.562  1.00  0.00    -0.354 N 
ATOM     52  N   UNL A   1      41.137  32.529  30.112  1.00  0.00    -0.248 NA
ATOM     53  C   UNL A   1      39.509  33.981  30.946  1.00  0.00     0.031 C 
ATOM     54  C   UNL A   1      45.477  33.447  29.967  1.00  0.00     0.029 A 
ATOM     55  C   UNL A   1      44.118  33.183  30.035  1.00  0.00     0.049 A 
ATOM     56  H   UNL A   1      43.075  31.429  29.496  1.00  0.00     0.167 HD
ATOM     57  C   UNL A   1      41.745  33.709  30.520  1.00  0.00     0.074 A 
ATOM     58  C   UNL A   1      40.692  34.580  30.998  1.00  0.00     0.031 C 
ATOM     59  C   UNL A   1      43.059  34.041  30.500  1.00  0.00     0.037 A 
BRANCH  46  60
ATOM     60  C   UNL A   1      46.749  29.559  28.395  1.00  0.00     0.057 A 
ATOM     61  C   UNL A   1      47.520  28.896  29.360  1.00  0.00     0.134 A 
ATOM     62  C   UNL A   1      47.322  29.746  27.131  1.00  0.00     0.134 A 
ATOM     63  F   UNL A   1      47.035  28.693  30.595  1.00  0.00    -0.206 F 
ATOM     64  C   UNL A   1      48.818  28.462  29.086  1.00  0.00     0.040 A 
ATOM     65  C   UNL A   1      48.608  29.291  26.836  1.00  0.00     0.040 A 
ATOM     66  F   UNL A   1      46.636  30.365  26.157  1.00  0.00    -0.206 F 
ATOM     67  C   UNL A   1      49.363  28.653  27.819  1.00  0.00     0.006 A 
ENDBRANCH  46  60
BRANCH  47  68
ATOM     68  C   UNL A   1      37.323  32.124  30.392  1.00  0.00     0.057 A 
ATOM     69  C   UNL A   1      36.749  31.779  31.621  1.00  0.00     0.134 A 
ATOM     70  C   UNL A   1      36.527  32.835  29.485  1.00  0.00     0.134 A 
ATOM     71  F   UNL A   1      37.455  31.081  32.522  1.00  0.00    -0.206 F 
ATOM     72  C   UNL A   1      35.430  32.112  31.931  1.00  0.00     0.040 A 
ATOM     73  C   UNL A   1      35.214  33.196  29.792  1.00  0.00     0.040 A 
ATOM     74  F   UNL A   1      37.020  33.200  28.293  1.00  0.00    -0.206 F 
ATOM     75  C   UNL A   1      34.660  32.828  31.016  1.00  0.00     0.006 A 
ENDBRANCH  47  68
BRANCH  59  76
ATOM     76  C   UNL A   1      43.430  35.413  30.980  1.00  0.00     0.057 A 
ATOM     77  C   UNL A   1      43.718  35.673  32.326  1.00  0.00     0.134 A 
ATOM     78  C   UNL A   1      43.541  36.477  30.076  1.00  0.00     0.134 A 
ATOM     79  F   UNL A   1      43.616  34.700  33.243  1.00  0.00    -0.206 F 
ATOM     80  C   UNL A   1      44.085  36.948  32.759  1.00  0.00     0.040 A 
ATOM     81  C   UNL A   1      43.933  37.750  30.493  1.00  0.00     0.040 A 
ATOM     82  F   UNL A   1      43.288  36.292  28.772  1.00  0.00    -0.206 F 
ATOM     83  C   UNL A   1      44.201  37.989  31.840  1.00  0.00     0.006 A 
ENDBRANCH  59  76
ENDBRANCH  33  34
ENDBRANCH  25  28
ENDBRANCH  23  24
ENDBRANCH  22  23
ENDBRANCH   1  22
TORSDOF 13
ENDMDL
